MODEL 1
REMARK VINA RESULT:    -3.703      0.000      0.000
REMARK INTER + INTRA:          -3.939
REMARK INTER:                  -3.919
REMARK INTRA:                  -0.020
REMARK UNBOUND:                -0.020
REMARK SMILES O=C([O-])c1cccnc1
REMARK SMILES IDX 4 1 5 2 9 3 6 4 8 5 7 6 2 7 1 8 3 9
REMARK H PARENT
REMARK Flexibility Score: inf
ROOT
ATOM      1  C   UNL     1      39.874  21.937  23.423  1.00  0.00     0.016 A 
ATOM      2  C   UNL     1      39.085  20.797  23.203  1.00  0.00     0.013 A 
ATOM      3  C   UNL     1      40.542  22.510  22.327  1.00  0.00     0.120 A 
ATOM      4  C   UNL     1      38.978  20.256  21.920  1.00  0.00     0.021 A 
ATOM      5  N   UNL     1      40.420  21.964  21.087  1.00  0.00    -0.264 NA
ATOM      6  C   UNL     1      39.660  20.860  20.864  1.00  0.00     0.111 A 
ENDROOT
BRANCH   1   7
ATOM      7  C   UNL     1      39.996  22.519  24.777  1.00  0.00     0.073 C 
ATOM      8  O   UNL     1      40.216  21.780  25.774  1.00  0.00    -0.545 OA
ATOM      9  O   UNL     1      39.869  23.890  24.969  1.00  0.00    -0.545 OA
ENDBRANCH   1   7
TORSDOF 1
ENDMDL
MODEL 2
REMARK VINA RESULT:    -3.702      0.912      1.594
REMARK INTER + INTRA:          -3.939
REMARK INTER:                  -3.917
REMARK INTRA:                  -0.021
REMARK UNBOUND:                -0.020
REMARK SMILES O=C([O-])c1cccnc1
REMARK SMILES IDX 4 1 5 2 9 3 6 4 8 5 7 6 2 7 1 8 3 9
REMARK H PARENT
REMARK Flexibility Score: inf
ROOT
ATOM      1  C   UNL     1      39.887  21.968  23.458  1.00  0.00     0.016 A 
ATOM      2  C   UNL     1      40.374  22.659  22.337  1.00  0.00     0.013 A 
ATOM      3  C   UNL     1      39.292  20.710  23.261  1.00  0.00     0.120 A 
ATOM      4  C   UNL     1      40.262  22.097  21.063  1.00  0.00     0.021 A 
ATOM      5  N   UNL     1      39.196  20.184  22.011  1.00  0.00    -0.264 NA
ATOM      6  C   UNL     1      39.663  20.845  20.919  1.00  0.00     0.111 A 
ENDROOT
BRANCH   1   7
ATOM      7  C   UNL     1      40.000  22.554  24.811  1.00  0.00     0.073 C 
ATOM      8  O   UNL     1      40.167  21.815  25.817  1.00  0.00    -0.545 OA
ATOM      9  O   UNL     1      39.923  23.931  24.991  1.00  0.00    -0.545 OA
ENDBRANCH   1   7
TORSDOF 1
ENDMDL
MODEL 3
REMARK VINA RESULT:    -3.559     14.921     15.276
REMARK INTER + INTRA:          -3.787
REMARK INTER:                  -3.771
REMARK INTRA:                  -0.016
REMARK UNBOUND:                -0.020
REMARK SMILES O=C([O-])c1cccnc1
REMARK SMILES IDX 4 1 5 2 9 3 6 4 8 5 7 6 2 7 1 8 3 9
REMARK H PARENT
REMARK Flexibility Score: inf
ROOT
ATOM      1  C   UNL     1      24.953  23.664  25.799  1.00  0.00     0.016 A 
ATOM      2  C   UNL     1      25.910  23.030  24.992  1.00  0.00     0.013 A 
ATOM      3  C   UNL     1      23.990  24.480  25.180  1.00  0.00     0.120 A 
ATOM      4  C   UNL     1      25.893  23.215  23.608  1.00  0.00     0.021 A 
ATOM      5  N   UNL     1      23.995  24.643  23.830  1.00  0.00    -0.264 NA
ATOM      6  C   UNL     1      24.917  24.034  23.040  1.00  0.00     0.111 A 
ENDROOT
BRANCH   1   7
ATOM      7  C   UNL     1      24.961  23.476  27.266  1.00  0.00     0.073 C 
ATOM      8  O   UNL     1      24.318  22.530  27.794  1.00  0.00    -0.545 OA
ATOM      9  O   UNL     1      25.679  24.342  28.084  1.00  0.00    -0.545 OA
ENDBRANCH   1   7
TORSDOF 1
ENDMDL
MODEL 4
REMARK VINA RESULT:    -3.546      2.955      3.855
REMARK INTER + INTRA:          -3.773
REMARK INTER:                  -3.754
REMARK INTRA:                  -0.019
REMARK UNBOUND:                -0.020
REMARK SMILES O=C([O-])c1cccnc1
REMARK SMILES IDX 4 1 5 2 9 3 6 4 8 5 7 6 2 7 1 8 3 9
REMARK H PARENT
REMARK Flexibility Score: inf
ROOT
ATOM      1  C   UNL     1      40.629  22.343  22.992  1.00  0.00     0.016 A 
ATOM      2  C   UNL     1      40.057  23.383  23.742  1.00  0.00     0.013 A 
ATOM      3  C   UNL     1      40.889  21.120  23.633  1.00  0.00     0.120 A 
ATOM      4  C   UNL     1      39.760  23.191  25.093  1.00  0.00     0.021 A 
ATOM      5  N   UNL     1      40.589  20.958  24.950  1.00  0.00    -0.264 NA
ATOM      6  C   UNL     1      40.036  21.958  25.685  1.00  0.00     0.111 A 
ENDROOT
BRANCH   1   7
ATOM      7  C   UNL     1      40.949  22.535  21.560  1.00  0.00     0.073 C 
ATOM      8  O   UNL     1      40.083  22.992  20.766  1.00  0.00    -0.545 OA
ATOM      9  O   UNL     1      42.210  22.214  21.071  1.00  0.00    -0.545 OA
ENDBRANCH   1   7
TORSDOF 1
ENDMDL
MODEL 5
REMARK VINA RESULT:    -3.370     14.486     15.660
REMARK INTER + INTRA:          -3.587
REMARK INTER:                  -3.563
REMARK INTRA:                  -0.024
REMARK UNBOUND:                -0.020
REMARK SMILES O=C([O-])c1cccnc1
REMARK SMILES IDX 4 1 5 2 9 3 6 4 8 5 7 6 2 7 1 8 3 9
REMARK H PARENT
REMARK Flexibility Score: inf
ROOT
ATOM      1  C   UNL     1      42.609  36.310  26.326  1.00  0.00     0.016 A 
ATOM      2  C   UNL     1      42.664  36.787  25.007  1.00  0.00     0.013 A 
ATOM      3  C   UNL     1      42.466  37.242  27.369  1.00  0.00     0.120 A 
ATOM      4  C   UNL     1      42.579  38.157  24.752  1.00  0.00     0.021 A 
ATOM      5  N   UNL     1      42.385  38.571  27.094  1.00  0.00    -0.264 NA
ATOM      6  C   UNL     1      42.438  39.043  25.821  1.00  0.00     0.111 A 
ENDROOT
BRANCH   1   7
ATOM      7  C   UNL     1      42.698  34.861  26.607  1.00  0.00     0.073 C 
ATOM      8  O   UNL     1      42.851  34.034  25.669  1.00  0.00    -0.545 OA
ATOM      9  O   UNL     1      42.616  34.390  27.913  1.00  0.00    -0.545 OA
ENDBRANCH   1   7
TORSDOF 1
ENDMDL
MODEL 6
REMARK VINA RESULT:    -3.342     14.751     15.321
REMARK INTER + INTRA:          -3.557
REMARK INTER:                  -3.540
REMARK INTRA:                  -0.017
REMARK UNBOUND:                -0.020
REMARK SMILES O=C([O-])c1cccnc1
REMARK SMILES IDX 4 1 5 2 9 3 6 4 8 5 7 6 2 7 1 8 3 9
REMARK H PARENT
REMARK Flexibility Score: inf
ROOT
ATOM      1  C   UNL     1      25.184  22.960  25.291  1.00  0.00     0.016 A 
ATOM      2  C   UNL     1      24.818  23.551  26.511  1.00  0.00     0.013 A 
ATOM      3  C   UNL     1      25.318  21.562  25.239  1.00  0.00     0.120 A 
ATOM      4  C   UNL     1      24.597  22.756  27.637  1.00  0.00     0.021 A 
ATOM      5  N   UNL     1      25.096  20.810  26.351  1.00  0.00    -0.264 NA
ATOM      6  C   UNL     1      24.742  21.372  27.536  1.00  0.00     0.111 A 
ENDROOT
BRANCH   1   7
ATOM      7  C   UNL     1      25.422  23.792  24.092  1.00  0.00     0.073 C 
ATOM      8  O   UNL     1      26.560  23.828  23.552  1.00  0.00    -0.545 OA
ATOM      9  O   UNL     1      24.391  24.547  23.543  1.00  0.00    -0.545 OA
ENDBRANCH   1   7
TORSDOF 1
ENDMDL
MODEL 7
REMARK VINA RESULT:    -3.338      1.675      1.949
REMARK INTER + INTRA:          -3.553
REMARK INTER:                  -3.533
REMARK INTRA:                  -0.021
REMARK UNBOUND:                -0.020
REMARK SMILES O=C([O-])c1cccnc1
REMARK SMILES IDX 4 1 5 2 9 3 6 4 8 5 7 6 2 7 1 8 3 9
REMARK H PARENT
REMARK Flexibility Score: inf
ROOT
ATOM      1  C   UNL     1      40.789  22.330  23.499  1.00  0.00     0.016 A 
ATOM      2  C   UNL     1      40.172  22.711  22.297  1.00  0.00     0.013 A 
ATOM      3  C   UNL     1      42.069  21.752  23.440  1.00  0.00     0.120 A 
ATOM      4  C   UNL     1      40.828  22.513  21.079  1.00  0.00     0.021 A 
ATOM      5  N   UNL     1      42.686  21.571  22.242  1.00  0.00    -0.264 NA
ATOM      6  C   UNL     1      42.098  21.936  21.073  1.00  0.00     0.111 A 
ENDROOT
BRANCH   1   7
ATOM      7  C   UNL     1      40.105  22.534  24.794  1.00  0.00     0.073 C 
ATOM      8  O   UNL     1      40.222  21.688  25.721  1.00  0.00    -0.545 OA
ATOM      9  O   UNL     1      39.321  23.662  25.007  1.00  0.00    -0.545 OA
ENDBRANCH   1   7
TORSDOF 1
ENDMDL
MODEL 8
REMARK VINA RESULT:    -3.283     14.462     15.685
REMARK INTER + INTRA:          -3.494
REMARK INTER:                  -3.471
REMARK INTRA:                  -0.023
REMARK UNBOUND:                -0.020
REMARK SMILES O=C([O-])c1cccnc1
REMARK SMILES IDX 4 1 5 2 9 3 6 4 8 5 7 6 2 7 1 8 3 9
REMARK H PARENT
REMARK Flexibility Score: inf
ROOT
ATOM      1  C   UNL     1      42.616  36.337  26.413  1.00  0.00     0.016 A 
ATOM      2  C   UNL     1      42.171  37.203  27.424  1.00  0.00     0.013 A 
ATOM      3  C   UNL     1      42.989  36.890  25.176  1.00  0.00     0.120 A 
ATOM      4  C   UNL     1      42.105  38.579  27.191  1.00  0.00     0.021 A 
ATOM      5  N   UNL     1      42.916  38.233  24.974  1.00  0.00    -0.264 NA
ATOM      6  C   UNL     1      42.486  39.080  25.946  1.00  0.00     0.111 A 
ENDROOT
BRANCH   1   7
ATOM      7  C   UNL     1      42.689  34.879  26.649  1.00  0.00     0.073 C 
ATOM      8  O   UNL     1      42.826  34.080  25.684  1.00  0.00    -0.545 OA
ATOM      9  O   UNL     1      42.608  34.369  27.940  1.00  0.00    -0.545 OA
ENDBRANCH   1   7
TORSDOF 1
ENDMDL
MODEL 9
REMARK VINA RESULT:    -3.273      1.590      2.321
REMARK INTER + INTRA:          -3.485
REMARK INTER:                  -3.465
REMARK INTRA:                  -0.020
REMARK UNBOUND:                -0.020
REMARK SMILES O=C([O-])c1cccnc1
REMARK SMILES IDX 4 1 5 2 9 3 6 4 8 5 7 6 2 7 1 8 3 9
REMARK H PARENT
REMARK Flexibility Score: inf
ROOT
ATOM      1  C   UNL     1      40.922  22.374  23.573  1.00  0.00     0.016 A 
ATOM      2  C   UNL     1      42.174  21.742  23.626  1.00  0.00     0.013 A 
ATOM      3  C   UNL     1      40.405  22.730  22.315  1.00  0.00     0.120 A 
ATOM      4  C   UNL     1      42.877  21.479  22.449  1.00  0.00     0.021 A 
ATOM      5  N   UNL     1      41.110  22.463  21.183  1.00  0.00    -0.264 NA
ATOM      6  C   UNL     1      42.323  21.851  21.224  1.00  0.00     0.111 A 
ENDROOT
BRANCH   1   7
ATOM      7  C   UNL     1      40.168  22.658  24.813  1.00  0.00     0.073 C 
ATOM      8  O   UNL     1      39.609  23.775  24.982  1.00  0.00    -0.545 OA
ATOM      9  O   UNL     1      40.066  21.695  25.811  1.00  0.00    -0.545 OA
ENDBRANCH   1   7
TORSDOF 1
ENDMDL
