MODEL 1
REMARK VINA RESULT:    -3.272      0.000      0.000
REMARK INTER + INTRA:          -3.296
REMARK INTER:                  -4.037
REMARK INTRA:                   0.741
REMARK UNBOUND:                 0.741
REMARK SMILES CC1=CC=CC(C)(C)CC1=O
REMARK SMILES IDX 1 1 2 2 3 3 10 4 11 5 9 6 4 8 5 9 6 10 7 11 8 12
REMARK H PARENT
REMARK Flexibility Score: 80.00
ROOT
ATOM      1  C   UNL     1      18.536  12.497  51.476  1.00  0.00     0.048 C 
ATOM      2  C   UNL     1      17.202  12.012  50.958  1.00  0.00    -0.008 C 
ATOM      3  C   UNL     1      16.644  12.690  49.933  1.00  0.00     0.007 C 
ENDROOT
BRANCH   2   4
ATOM      4  C   UNL     1      16.647  10.779  51.571  1.00  0.00     0.159 C 
ATOM      5  O   UNL     1      17.375  10.109  52.355  1.00  0.00    -0.295 OA
BRANCH   4   6
ATOM      6  C   UNL     1      15.255  10.287  51.323  1.00  0.00     0.091 CG0
ATOM      7  G   UNL     1      14.969   9.994  49.833  1.00  0.00     0.000 G0
ENDBRANCH   4   6
ENDBRANCH   2   4
BRANCH   3   8
ATOM      8  C   UNL     1      15.377  12.443  49.205  1.00  0.00    -0.003 C 
ATOM      9  C   UNL     1      14.648  11.322  49.137  1.00  0.00    -0.020 C 
BRANCH   9  10
ATOM     10  C   UNL     1      14.945  10.014  49.832  1.00  0.00    -0.010 CG0
ATOM     11  C   UNL     1      16.073   9.264  49.086  1.00  0.00     0.016 C 
ATOM     12  C   UNL     1      13.674   9.136  49.780  1.00  0.00     0.016 C 
ATOM     13  G   UNL     1      15.286  10.278  51.316  1.00  0.00     0.000 G0
ENDBRANCH   9  10
ENDBRANCH   3   8
TORSDOF 0
ENDMDL
MODEL 2
REMARK VINA RESULT:    -3.252      2.513      4.069
REMARK INTER + INTRA:          -3.272
REMARK INTER:                  -4.020
REMARK INTRA:                   0.748
REMARK UNBOUND:                 0.741
REMARK SMILES CC1=CC=CC(C)(C)CC1=O
REMARK SMILES IDX 1 1 2 2 3 3 10 4 11 5 9 6 4 8 5 9 6 10 7 11 8 12
REMARK H PARENT
REMARK Flexibility Score: 80.00
ROOT
ATOM      1  C   UNL     1      17.984  10.063  52.642  1.00  0.00     0.048 C 
ATOM      2  C   UNL     1      17.892  11.436  52.020  1.00  0.00    -0.008 C 
ATOM      3  C   UNL     1      18.566  12.442  52.619  1.00  0.00     0.007 C 
ENDROOT
BRANCH   2   4
ATOM      4  C   UNL     1      17.127  11.555  50.753  1.00  0.00     0.159 C 
ATOM      5  O   UNL     1      16.761  10.501  50.163  1.00  0.00    -0.295 OA
BRANCH   4   6
ATOM      6  C   UNL     1      16.747  12.865  50.136  1.00  0.00     0.091 CG0
ATOM      7  G   UNL     1      17.965  13.748  49.783  1.00  0.00     0.000 G0
ENDBRANCH   4   6
ENDBRANCH   2   4
BRANCH   3   8
ATOM      8  C   UNL     1      18.687  13.868  52.235  1.00  0.00    -0.003 C 
ATOM      9  C   UNL     1      18.450  14.446  51.051  1.00  0.00    -0.020 C 
BRANCH   9  10
ATOM     10  C   UNL     1      17.963  13.759  49.798  1.00  0.00    -0.010 CG0
ATOM     11  C   UNL     1      19.124  12.984  49.134  1.00  0.00     0.016 C 
ATOM     12  C   UNL     1      17.483  14.842  48.805  1.00  0.00     0.016 C 
ATOM     13  G   UNL     1      16.759  12.850  50.136  1.00  0.00     0.000 G0
ENDBRANCH   9  10
ENDBRANCH   3   8
TORSDOF 0
ENDMDL
MODEL 3
REMARK VINA RESULT:    -3.227     20.931     22.201
REMARK INTER + INTRA:          -3.241
REMARK INTER:                  -3.997
REMARK INTRA:                   0.757
REMARK UNBOUND:                 0.741
REMARK SMILES CC1=CC=CC(C)(C)CC1=O
REMARK SMILES IDX 1 1 2 2 3 3 10 4 11 5 9 6 4 8 5 9 6 10 7 11 8 12
REMARK H PARENT
REMARK Flexibility Score: 80.00
ROOT
ATOM      1  C   UNL     1       1.827  25.676  39.574  1.00  0.00     0.048 C 
ATOM      2  C   UNL     1       1.545  24.292  39.041  1.00  0.00    -0.008 C 
ATOM      3  C   UNL     1       2.431  23.763  38.170  1.00  0.00     0.007 C 
ENDROOT
BRANCH   2   4
ATOM      4  C   UNL     1       0.352  23.591  39.579  1.00  0.00     0.159 C 
ATOM      5  O   UNL     1      -0.257  24.094  40.564  1.00  0.00    -0.295 OA
BRANCH   4   6
ATOM      6  C   UNL     1      -0.186  22.316  39.007  1.00  0.00     0.091 CG0
ATOM      7  G   UNL     1       0.846  21.165  39.008  1.00  0.00     0.000 G0
ENDBRANCH   4   6
ENDBRANCH   2   4
BRANCH   3   8
ATOM      8  C   UNL     1       2.439  22.438  37.507  1.00  0.00    -0.003 C 
ATOM      9  C   UNL     1       1.786  21.320  37.847  1.00  0.00    -0.020 C 
BRANCH   9  10
ATOM     10  C   UNL     1       0.836  21.154  39.009  1.00  0.00    -0.010 CG0
ATOM     11  C   UNL     1       1.632  21.048  40.331  1.00  0.00     0.016 C 
ATOM     12  C   UNL     1       0.057  19.833  38.815  1.00  0.00     0.016 C 
ATOM     13  G   UNL     1      -0.183  22.316  39.020  1.00  0.00     0.000 G0
ENDBRANCH   9  10
ENDBRANCH   3   8
TORSDOF 0
ENDMDL
MODEL 4
REMARK VINA RESULT:    -3.169     16.863     18.277
REMARK INTER + INTRA:          -3.169
REMARK INTER:                  -3.928
REMARK INTRA:                   0.759
REMARK UNBOUND:                 0.741
REMARK SMILES CC1=CC=CC(C)(C)CC1=O
REMARK SMILES IDX 1 1 2 2 3 3 10 4 11 5 9 6 4 8 5 9 6 10 7 11 8 12
REMARK H PARENT
REMARK Flexibility Score: 80.00
ROOT
ATOM      1  C   UNL     1      18.601  21.093  35.994  1.00  0.00     0.048 C 
ATOM      2  C   UNL     1      17.234  21.517  36.475  1.00  0.00    -0.008 C 
ATOM      3  C   UNL     1      16.775  20.970  37.621  1.00  0.00     0.007 C 
ENDROOT
BRANCH   2   4
ATOM      4  C   UNL     1      16.534  22.561  35.685  1.00  0.00     0.159 C 
ATOM      5  O   UNL     1      17.173  23.174  34.785  1.00  0.00    -0.295 OA
BRANCH   4   6
ATOM      6  C   UNL     1      15.095  22.925  35.886  1.00  0.00     0.091 CG0
ATOM      7  G   UNL     1      14.782  23.396  37.324  1.00  0.00     0.000 G0
ENDBRANCH   4   6
ENDBRANCH   2   4
BRANCH   3   8
ATOM      8  C   UNL     1      15.505  21.206  38.346  1.00  0.00    -0.003 C 
ATOM      9  C   UNL     1      14.652  22.232  38.243  1.00  0.00    -0.020 C 
BRANCH   9  10
ATOM     10  C   UNL     1      14.779  23.415  37.312  1.00  0.00    -0.010 CG0
ATOM     11  C   UNL     1      15.838  24.402  37.855  1.00  0.00     0.016 C 
ATOM     12  C   UNL     1      13.420  24.150  37.271  1.00  0.00     0.016 C 
ATOM     13  G   UNL     1      15.102  22.922  35.884  1.00  0.00     0.000 G0
ENDBRANCH   9  10
ENDBRANCH   3   8
TORSDOF 0
ENDMDL
MODEL 5
REMARK VINA RESULT:    -2.988      2.153      3.071
REMARK INTER + INTRA:          -2.946
REMARK INTER:                  -3.690
REMARK INTRA:                   0.745
REMARK UNBOUND:                 0.741
REMARK SMILES CC1=CC=CC(C)(C)CC1=O
REMARK SMILES IDX 1 1 2 2 3 3 10 4 11 5 9 6 4 8 5 9 6 10 7 11 8 12
REMARK H PARENT
REMARK Flexibility Score: 80.00
ROOT
ATOM      1  C   UNL     1      18.741  14.051  52.311  1.00  0.00     0.048 C 
ATOM      2  C   UNL     1      18.117  12.946  51.492  1.00  0.00    -0.008 C 
ATOM      3  C   UNL     1      17.701  11.841  52.145  1.00  0.00     0.007 C 
ENDROOT
BRANCH   2   4
ATOM      4  C   UNL     1      17.943  13.198  50.039  1.00  0.00     0.159 C 
ATOM      5  O   UNL     1      18.125  14.366  49.598  1.00  0.00    -0.295 OA
BRANCH   4   6
ATOM      6  C   UNL     1      17.575  12.132  49.054  1.00  0.00     0.091 CG0
ATOM      7  G   UNL     1      16.229  11.444  49.374  1.00  0.00     0.000 G0
ENDBRANCH   4   6
ENDBRANCH   2   4
BRANCH   3   8
ATOM      8  C   UNL     1      17.038  10.621  51.626  1.00  0.00    -0.003 C 
ATOM      9  C   UNL     1      16.404  10.435  50.462  1.00  0.00    -0.020 C 
BRANCH   9  10
ATOM     10  C   UNL     1      16.236  11.454  49.359  1.00  0.00    -0.010 CG0
ATOM     11  C   UNL     1      15.130  12.466  49.739  1.00  0.00     0.016 C 
ATOM     12  C   UNL     1      15.785  10.714  48.079  1.00  0.00     0.016 C 
ATOM     13  G   UNL     1      17.592  12.135  49.068  1.00  0.00     0.000 G0
ENDBRANCH   9  10
ENDBRANCH   3   8
TORSDOF 0
ENDMDL
MODEL 6
REMARK VINA RESULT:    -2.955     20.425     21.679
REMARK INTER + INTRA:          -2.905
REMARK INTER:                  -3.663
REMARK INTRA:                   0.757
REMARK UNBOUND:                 0.741
REMARK SMILES CC1=CC=CC(C)(C)CC1=O
REMARK SMILES IDX 1 1 2 2 3 3 10 4 11 5 9 6 4 8 5 9 6 10 7 11 8 12
REMARK H PARENT
REMARK Flexibility Score: 80.00
ROOT
ATOM      1  C   UNL     1      -0.041  19.581  38.541  1.00  0.00     0.048 C 
ATOM      2  C   UNL     1       0.871  20.782  38.607  1.00  0.00    -0.008 C 
ATOM      3  C   UNL     1       1.085  21.471  37.465  1.00  0.00     0.007 C 
ENDROOT
BRANCH   2   4
ATOM      4  C   UNL     1       1.402  21.155  39.943  1.00  0.00     0.159 C 
ATOM      5  O   UNL     1       0.911  20.605  40.968  1.00  0.00    -0.295 OA
BRANCH   4   6
ATOM      6  C   UNL     1       2.507  22.146  40.146  1.00  0.00     0.091 CG0
ATOM      7  G   UNL     1       2.167  23.556  39.613  1.00  0.00     0.000 G0
ENDBRANCH   4   6
ENDBRANCH   2   4
BRANCH   3   8
ATOM      8  C   UNL     1       1.896  22.688  37.225  1.00  0.00    -0.003 C 
ATOM      9  C   UNL     1       2.351  23.586  38.106  1.00  0.00    -0.020 C 
BRANCH   9  10
ATOM     10  C   UNL     1       2.159  23.552  39.604  1.00  0.00    -0.010 CG0
ATOM     11  C   UNL     1       0.721  23.991  39.963  1.00  0.00     0.016 C 
ATOM     12  C   UNL     1       3.140  24.561  40.243  1.00  0.00     0.016 C 
ATOM     13  G   UNL     1       2.503  22.143  40.141  1.00  0.00     0.000 G0
ENDBRANCH   9  10
ENDBRANCH   3   8
TORSDOF 0
ENDMDL
MODEL 7
REMARK VINA RESULT:    -2.947     14.310     15.007
REMARK INTER + INTRA:          -2.895
REMARK INTER:                  -3.642
REMARK INTRA:                   0.746
REMARK UNBOUND:                 0.741
REMARK SMILES CC1=CC=CC(C)(C)CC1=O
REMARK SMILES IDX 1 1 2 2 3 3 10 4 11 5 9 6 4 8 5 9 6 10 7 11 8 12
REMARK H PARENT
REMARK Flexibility Score: 80.00
ROOT
ATOM      1  C   UNL     1       0.530  14.784  47.059  1.00  0.00     0.048 C 
ATOM      2  C   UNL     1       1.149  13.436  47.337  1.00  0.00    -0.008 C 
ATOM      3  C   UNL     1       1.202  13.023  48.622  1.00  0.00     0.007 C 
ENDROOT
BRANCH   2   4
ATOM      4  C   UNL     1       1.584  12.637  46.164  1.00  0.00     0.159 C 
ATOM      5  O   UNL     1       1.237  13.013  45.010  1.00  0.00    -0.295 OA
BRANCH   4   6
ATOM      6  C   UNL     1       2.432  11.406  46.269  1.00  0.00     0.091 CG0
ATOM      7  G   UNL     1       1.782  10.290  47.118  1.00  0.00     0.000 G0
ENDBRANCH   4   6
ENDBRANCH   2   4
BRANCH   3   8
ATOM      8  C   UNL     1       1.718  11.758  49.195  1.00  0.00    -0.003 C 
ATOM      9  C   UNL     1       1.960  10.591  48.584  1.00  0.00    -0.020 C 
BRANCH   9  10
ATOM     10  C   UNL     1       1.781  10.293  47.114  1.00  0.00    -0.010 CG0
ATOM     11  C   UNL     1       0.282  10.093  46.794  1.00  0.00     0.016 C 
ATOM     12  C   UNL     1       2.518   8.974  46.793  1.00  0.00     0.016 C 
ATOM     13  G   UNL     1       2.423  11.420  46.273  1.00  0.00     0.000 G0
ENDBRANCH   9  10
ENDBRANCH   3   8
TORSDOF 0
ENDMDL
MODEL 8
REMARK VINA RESULT:    -2.794      2.091      3.262
REMARK INTER + INTRA:          -2.707
REMARK INTER:                  -3.464
REMARK INTRA:                   0.758
REMARK UNBOUND:                 0.741
REMARK SMILES CC1=CC=CC(C)(C)CC1=O
REMARK SMILES IDX 1 1 2 2 3 3 10 4 11 5 9 6 4 8 5 9 6 10 7 11 8 12
REMARK H PARENT
REMARK Flexibility Score: 80.00
ROOT
ATOM      1  C   UNL     1      16.644  10.573  51.678  1.00  0.00     0.048 C 
ATOM      2  C   UNL     1      16.142  10.606  50.254  1.00  0.00    -0.008 C 
ATOM      3  C   UNL     1      15.537   9.497  49.776  1.00  0.00     0.007 C 
ENDROOT
BRANCH   2   4
ATOM      4  C   UNL     1      16.289  11.886  49.515  1.00  0.00     0.159 C 
ATOM      5  O   UNL     1      16.643  12.917  50.150  1.00  0.00    -0.295 OA
BRANCH   4   6
ATOM      6  C   UNL     1      16.052  12.022  48.042  1.00  0.00     0.091 CG0
ATOM      7  G   UNL     1      14.625  11.611  47.614  1.00  0.00     0.000 G0
ENDBRANCH   4   6
ENDBRANCH   2   4
BRANCH   3   8
ATOM      8  C   UNL     1      14.928   9.241  48.450  1.00  0.00    -0.003 C 
ATOM      9  C   UNL     1      14.526  10.118  47.522  1.00  0.00    -0.020 C 
BRANCH   9  10
ATOM     10  C   UNL     1      14.628  11.623  47.605  1.00  0.00    -0.010 CG0
ATOM     11  C   UNL     1      13.534  12.175  48.548  1.00  0.00     0.016 C 
ATOM     12  C   UNL     1      14.381  12.205  46.195  1.00  0.00     0.016 C 
ATOM     13  G   UNL     1      16.053  12.025  48.048  1.00  0.00     0.000 G0
ENDBRANCH   9  10
ENDBRANCH   3   8
TORSDOF 0
ENDMDL
MODEL 9
REMARK VINA RESULT:    -2.701     20.884     21.874
REMARK INTER + INTRA:          -2.591
REMARK INTER:                  -3.358
REMARK INTRA:                   0.766
REMARK UNBOUND:                 0.741
REMARK SMILES CC1=CC=CC(C)(C)CC1=O
REMARK SMILES IDX 1 1 2 2 3 3 10 4 11 5 9 6 4 8 5 9 6 10 7 11 8 12
REMARK H PARENT
REMARK Flexibility Score: 80.00
ROOT
ATOM      1  C   UNL     1       2.140  21.640  37.378  1.00  0.00     0.048 C 
ATOM      2  C   UNL     1       2.344  22.451  38.636  1.00  0.00    -0.008 C 
ATOM      3  C   UNL     1       3.577  22.950  38.866  1.00  0.00     0.007 C 
ENDROOT
BRANCH   2   4
ATOM      4  C   UNL     1       1.149  22.698  39.482  1.00  0.00     0.159 C 
ATOM      5  O   UNL     1       0.009  22.406  39.025  1.00  0.00    -0.295 OA
BRANCH   4   6
ATOM      6  C   UNL     1       1.219  23.266  40.866  1.00  0.00     0.091 CG0
ATOM      7  G   UNL     1       1.870  24.667  40.917  1.00  0.00     0.000 G0
ENDBRANCH   4   6
ENDBRANCH   2   4
BRANCH   3   8
ATOM      8  C   UNL     1       4.070  23.792  39.982  1.00  0.00    -0.003 C 
ATOM      9  C   UNL     1       3.373  24.533  40.852  1.00  0.00    -0.020 C 
BRANCH   9  10
ATOM     10  C   UNL     1       1.870  24.665  40.916  1.00  0.00    -0.010 CG0
ATOM     11  C   UNL     1       1.372  25.593  39.784  1.00  0.00     0.016 C 
ATOM     12  C   UNL     1       1.497  25.319  42.266  1.00  0.00     0.016 C 
ATOM     13  G   UNL     1       1.221  23.264  40.866  1.00  0.00     0.000 G0
ENDBRANCH   9  10
ENDBRANCH   3   8
TORSDOF 0
ENDMDL
