MODEL 1
REMARK VINA RESULT:    -0.822      0.000      0.000
REMARK INTER + INTRA:          -1.839
REMARK INTER:                  -1.254
REMARK INTRA:                  -0.585
REMARK UNBOUND:                -0.585
REMARK SMILES CC1=CCC[C@H](C)C(=O)C[C@H](C(C)C)C(=O)C1
REMARK SMILES IDX 8 1 9 2 6 3 7 4 5 5 4 6 3 7 2 8 1 9 10 11 11 12 15 13 16 14
REMARK SMILES IDX 17 15 12 17 13 18 14 19
REMARK H PARENT
REMARK Flexibility Score: 70.00
ROOT
ATOM      1  C   UNL     1      91.637  27.677  12.682  1.00  0.00     0.136 C 
ATOM      2  O   UNL     1      91.458  26.481  12.500  1.00  0.00    -0.299 OA
ENDROOT
BRANCH   1   3
ATOM      3  C   UNL     1      90.628  28.476  13.501  1.00  0.00     0.053 C 
ATOM      4  C   UNL     1      89.175  28.100  13.169  1.00  0.00     0.016 C 
BRANCH   3   5
ATOM      5  C   UNL     1      90.890  28.313  15.024  1.00  0.00     0.015 C 
BRANCH   5   6
ATOM      6  C   UNL     1      92.082  29.101  15.607  1.00  0.00     0.028 C 
BRANCH   6   7
ATOM      7  C   UNL     1      92.119  30.604  15.416  1.00  0.00    -0.028 C 
ATOM      8  C   UNL     1      93.008  31.321  14.685  1.00  0.00    -0.070 CG0
ATOM      9  C   UNL     1      92.974  32.822  14.836  1.00  0.00     0.039 C 
ATOM     10  G   UNL     1      93.980  30.724  13.676  1.00  0.00     0.000 G0
ENDBRANCH   6   7
ENDBRANCH   5   6
ENDBRANCH   3   5
ENDBRANCH   1   3
BRANCH   1  11
ATOM     11  C   UNL     1      92.856  28.326  12.046  1.00  0.00     0.087 C 
BRANCH  11  12
ATOM     12  C   UNL     1      92.613  29.774  11.556  1.00  0.00     0.066 C 
BRANCH  12  13
ATOM     13  C   UNL     1      93.466  30.843  12.236  1.00  0.00     0.140 C 
ATOM     14  O   UNL     1      93.801  31.804  11.559  1.00  0.00    -0.299 OA
BRANCH  13  15
ATOM     15  C   UNL     1      93.997  30.745  13.662  1.00  0.00     0.106 CG0
ATOM     16  G   UNL     1      93.003  31.326  14.659  1.00  0.00     0.000 G0
ENDBRANCH  13  15
ENDBRANCH  12  13
BRANCH  12  17
ATOM     17  C   UNL     1      92.666  29.875  10.000  1.00  0.00    -0.006 C 
ATOM     18  C   UNL     1      93.282  28.617   9.367  1.00  0.00     0.008 C 
ATOM     19  C   UNL     1      91.307  30.179   9.348  1.00  0.00     0.008 C 
ENDBRANCH  12  17
ENDBRANCH  11  12
ENDBRANCH   1  11
TORSDOF 1
ENDMDL
MODEL 2
REMARK VINA RESULT:    -0.572      2.655      4.621
REMARK INTER + INTRA:          -1.457
REMARK INTER:                  -1.077
REMARK INTRA:                  -0.381
REMARK UNBOUND:                -0.585
REMARK SMILES CC1=CCC[C@H](C)C(=O)C[C@H](C(C)C)C(=O)C1
REMARK SMILES IDX 8 1 9 2 6 3 7 4 5 5 4 6 3 7 2 8 1 9 10 11 11 12 15 13 16 14
REMARK SMILES IDX 17 15 12 17 13 18 14 19
REMARK H PARENT
REMARK Flexibility Score: 70.00
ROOT
ATOM      1  C   UNL     1      90.572  29.997  15.169  1.00  0.00     0.136 C 
ATOM      2  O   UNL     1      89.975  30.835  15.829  1.00  0.00    -0.299 OA
ENDROOT
BRANCH   1   3
ATOM      3  C   UNL     1      90.860  28.625  15.770  1.00  0.00     0.053 C 
ATOM      4  C   UNL     1      91.363  28.714  17.220  1.00  0.00     0.016 C 
BRANCH   3   5
ATOM      5  C   UNL     1      89.607  27.708  15.693  1.00  0.00     0.015 C 
BRANCH   5   6
ATOM      6  C   UNL     1      88.703  27.879  14.453  1.00  0.00     0.028 C 
BRANCH   6   7
ATOM      7  C   UNL     1      88.863  26.908  13.301  1.00  0.00    -0.028 C 
ATOM      8  C   UNL     1      89.302  27.183  12.047  1.00  0.00    -0.070 CG0
ATOM      9  C   UNL     1      89.156  26.094  11.011  1.00  0.00     0.039 C 
ATOM     10  G   UNL     1      89.993  28.475  11.635  1.00  0.00     0.000 G0
ENDBRANCH   6   7
ENDBRANCH   5   6
ENDBRANCH   3   5
ENDBRANCH   1   3
BRANCH   1  11
ATOM     11  C   UNL     1      91.035  30.380  13.772  1.00  0.00     0.087 C 
BRANCH  11  12
ATOM     12  C   UNL     1      92.034  29.378  13.145  1.00  0.00     0.066 C 
BRANCH  12  13
ATOM     13  C   UNL     1      91.462  28.501  12.032  1.00  0.00     0.140 C 
ATOM     14  O   UNL     1      92.256  27.829  11.388  1.00  0.00    -0.299 OA
BRANCH  13  15
ATOM     15  C   UNL     1      89.996  28.481  11.616  1.00  0.00     0.106 CG0
ATOM     16  G   UNL     1      89.317  27.193  12.062  1.00  0.00     0.000 G0
ENDBRANCH  13  15
ENDBRANCH  12  13
BRANCH  12  17
ATOM     17  C   UNL     1      93.367  30.073  12.725  1.00  0.00    -0.006 C 
ATOM     18  C   UNL     1      93.162  31.034  11.543  1.00  0.00     0.008 C 
ATOM     19  C   UNL     1      94.077  30.803  13.877  1.00  0.00     0.008 C 
ENDBRANCH  12  17
ENDBRANCH  11  12
ENDBRANCH   1  11
TORSDOF 1
ENDMDL
MODEL 3
REMARK VINA RESULT:    -0.550      3.056      5.451
REMARK INTER + INTRA:          -1.425
REMARK INTER:                  -0.772
REMARK INTRA:                  -0.653
REMARK UNBOUND:                -0.585
REMARK SMILES CC1=CCC[C@H](C)C(=O)C[C@H](C(C)C)C(=O)C1
REMARK SMILES IDX 8 1 9 2 6 3 7 4 5 5 4 6 3 7 2 8 1 9 10 11 11 12 15 13 16 14
REMARK SMILES IDX 17 15 12 17 13 18 14 19
REMARK H PARENT
REMARK Flexibility Score: 70.00
ROOT
ATOM      1  C   UNL     1      92.795  27.630  10.440  1.00  0.00     0.136 C 
ATOM      2  O   UNL     1      93.337  26.545  10.594  1.00  0.00    -0.299 OA
ENDROOT
BRANCH   1   3
ATOM      3  C   UNL     1      92.775  28.277   9.059  1.00  0.00     0.053 C 
ATOM      4  C   UNL     1      94.187  28.476   8.485  1.00  0.00     0.016 C 
BRANCH   3   5
ATOM      5  C   UNL     1      91.905  27.454   8.069  1.00  0.00     0.015 C 
BRANCH   5   6
ATOM      6  C   UNL     1      90.432  27.225   8.472  1.00  0.00     0.028 C 
BRANCH   6   7
ATOM      7  C   UNL     1      89.477  28.399   8.419  1.00  0.00    -0.028 C 
ATOM      8  C   UNL     1      88.775  28.938   9.448  1.00  0.00    -0.070 CG0
ATOM      9  C   UNL     1      87.715  29.956   9.102  1.00  0.00     0.039 C 
ATOM     10  G   UNL     1      89.033  28.644  10.919  1.00  0.00     0.000 G0
ENDBRANCH   6   7
ENDBRANCH   5   6
ENDBRANCH   3   5
ENDBRANCH   1   3
BRANCH   1  11
ATOM     11  C   UNL     1      92.188  28.308  11.658  1.00  0.00     0.087 C 
BRANCH  11  12
ATOM     12  C   UNL     1      91.489  29.653  11.345  1.00  0.00     0.066 C 
BRANCH  12  13
ATOM     13  C   UNL     1      89.975  29.662  11.546  1.00  0.00     0.140 C 
ATOM     14  O   UNL     1      89.519  30.495  12.316  1.00  0.00    -0.299 OA
BRANCH  13  15
ATOM     15  C   UNL     1      89.017  28.652  10.926  1.00  0.00     0.106 CG0
ATOM     16  G   UNL     1      88.807  28.931   9.444  1.00  0.00     0.000 G0
ENDBRANCH  13  15
ENDBRANCH  12  13
BRANCH  12  17
ATOM     17  C   UNL     1      92.189  30.850  12.063  1.00  0.00    -0.006 C 
ATOM     18  C   UNL     1      93.145  30.373  13.168  1.00  0.00     0.008 C 
ATOM     19  C   UNL     1      92.925  31.804  11.108  1.00  0.00     0.008 C 
ENDBRANCH  12  17
ENDBRANCH  11  12
ENDBRANCH   1  11
TORSDOF 1
ENDMDL
MODEL 4
REMARK VINA RESULT:    -0.470      2.842      4.127
REMARK INTER + INTRA:          -1.302
REMARK INTER:                  -0.775
REMARK INTRA:                  -0.527
REMARK UNBOUND:                -0.585
REMARK SMILES CC1=CCC[C@H](C)C(=O)C[C@H](C(C)C)C(=O)C1
REMARK SMILES IDX 8 1 9 2 6 3 7 4 5 5 4 6 3 7 2 8 1 9 10 11 11 12 15 13 16 14
REMARK SMILES IDX 17 15 12 17 13 18 14 19
REMARK H PARENT
REMARK Flexibility Score: 70.00
ROOT
ATOM      1  C   UNL     1      89.542  26.856  12.397  1.00  0.00     0.136 C 
ATOM      2  O   UNL     1      88.611  26.432  13.068  1.00  0.00    -0.299 OA
ENDROOT
BRANCH   1   3
ATOM      3  C   UNL     1      90.927  26.988  13.022  1.00  0.00     0.053 C 
ATOM      4  C   UNL     1      92.054  26.794  11.995  1.00  0.00     0.016 C 
BRANCH   3   5
ATOM      5  C   UNL     1      91.086  28.356  13.741  1.00  0.00     0.015 C 
BRANCH   5   6
ATOM      6  C   UNL     1      92.136  29.325  13.156  1.00  0.00     0.028 C 
BRANCH   6   7
ATOM      7  C   UNL     1      91.663  30.644  12.581  1.00  0.00    -0.028 C 
ATOM      8  C   UNL     1      91.336  30.912  11.292  1.00  0.00    -0.070 CG0
ATOM      9  C   UNL     1      91.113  32.358  10.922  1.00  0.00     0.039 C 
ATOM     10  G   UNL     1      91.106  29.855  10.220  1.00  0.00     0.000 G0
ENDBRANCH   6   7
ENDBRANCH   5   6
ENDBRANCH   3   5
ENDBRANCH   1   3
BRANCH   1  11
ATOM     11  C   UNL     1      89.262  27.268  10.960  1.00  0.00     0.087 C 
BRANCH  11  12
ATOM     12  C   UNL     1      88.727  28.713  10.814  1.00  0.00     0.066 C 
BRANCH  12  13
ATOM     13  C   UNL     1      89.600  29.648   9.979  1.00  0.00     0.140 C 
ATOM     14  O   UNL     1      89.075  30.190   9.017  1.00  0.00    -0.299 OA
BRANCH  13  15
ATOM     15  C   UNL     1      91.089  29.875  10.211  1.00  0.00     0.106 CG0
ATOM     16  G   UNL     1      91.324  30.915  11.298  1.00  0.00     0.000 G0
ENDBRANCH  13  15
ENDBRANCH  12  13
BRANCH  12  17
ATOM     17  C   UNL     1      87.234  28.736  10.361  1.00  0.00    -0.006 C 
ATOM     18  C   UNL     1      86.867  27.487   9.544  1.00  0.00     0.008 C 
ATOM     19  C   UNL     1      86.236  28.919  11.516  1.00  0.00     0.008 C 
ENDBRANCH  12  17
ENDBRANCH  11  12
ENDBRANCH   1  11
TORSDOF 1
ENDMDL
MODEL 5
REMARK VINA RESULT:    -0.467      1.890      2.108
REMARK INTER + INTRA:          -1.298
REMARK INTER:                  -0.843
REMARK INTRA:                  -0.454
REMARK UNBOUND:                -0.585
REMARK SMILES CC1=CCC[C@H](C)C(=O)C[C@H](C(C)C)C(=O)C1
REMARK SMILES IDX 8 1 9 2 6 3 7 4 5 5 4 6 3 7 2 8 1 9 10 11 11 12 15 13 16 14
REMARK SMILES IDX 17 15 12 17 13 18 14 19
REMARK H PARENT
REMARK Flexibility Score: 70.00
ROOT
ATOM      1  C   UNL     1      90.214  27.641  13.420  1.00  0.00     0.136 C 
ATOM      2  O   UNL     1      90.189  26.460  13.736  1.00  0.00    -0.299 OA
ENDROOT
BRANCH   1   3
ATOM      3  C   UNL     1      88.955  28.489  13.565  1.00  0.00     0.053 C 
ATOM      4  C   UNL     1      87.711  27.798  12.983  1.00  0.00     0.016 C 
BRANCH   3   5
ATOM      5  C   UNL     1      88.708  28.873  15.051  1.00  0.00     0.015 C 
BRANCH   5   6
ATOM      6  C   UNL     1      89.470  30.107  15.581  1.00  0.00     0.028 C 
BRANCH   6   7
ATOM      7  C   UNL     1      89.430  31.385  14.768  1.00  0.00    -0.028 C 
ATOM      8  C   UNL     1      90.436  31.931  14.040  1.00  0.00    -0.070 CG0
ATOM      9  C   UNL     1      90.223  33.326  13.506  1.00  0.00     0.039 C 
ATOM     10  G   UNL     1      91.723  31.209  13.664  1.00  0.00     0.000 G0
ENDBRANCH   6   7
ENDBRANCH   5   6
ENDBRANCH   3   5
ENDBRANCH   1   3
BRANCH   1  11
ATOM     11  C   UNL     1      91.508  28.207  12.857  1.00  0.00     0.087 C 
BRANCH  11  12
ATOM     12  C   UNL     1      91.301  29.300  11.782  1.00  0.00     0.066 C 
BRANCH  12  13
ATOM     13  C   UNL     1      91.683  30.716  12.212  1.00  0.00     0.140 C 
ATOM     14  O   UNL     1      92.042  31.488  11.334  1.00  0.00    -0.299 OA
BRANCH  13  15
ATOM     15  C   UNL     1      91.732  31.194  13.658  1.00  0.00     0.106 CG0
ATOM     16  G   UNL     1      90.456  31.933  14.036  1.00  0.00     0.000 G0
ENDBRANCH  13  15
ENDBRANCH  12  13
BRANCH  12  17
ATOM     17  C   UNL     1      91.946  28.901  10.418  1.00  0.00    -0.006 C 
ATOM     18  C   UNL     1      92.910  27.713  10.569  1.00  0.00     0.008 C 
ATOM     19  C   UNL     1      90.924  28.611   9.308  1.00  0.00     0.008 C 
ENDBRANCH  12  17
ENDBRANCH  11  12
ENDBRANCH   1  11
TORSDOF 1
ENDMDL
MODEL 6
REMARK VINA RESULT:    -0.445      2.002      4.404
REMARK INTER + INTRA:          -1.264
REMARK INTER:                  -0.947
REMARK INTRA:                  -0.317
REMARK UNBOUND:                -0.585
REMARK SMILES CC1=CCC[C@H](C)C(=O)C[C@H](C(C)C)C(=O)C1
REMARK SMILES IDX 8 1 9 2 6 3 7 4 5 5 4 6 3 7 2 8 1 9 10 11 11 12 15 13 16 14
REMARK SMILES IDX 17 15 12 17 13 18 14 19
REMARK H PARENT
REMARK Flexibility Score: 70.00
ROOT
ATOM      1  C   UNL     1      90.581  29.888  15.637  1.00  0.00     0.136 C 
ATOM      2  O   UNL     1      89.389  30.098  15.809  1.00  0.00    -0.299 OA
ENDROOT
BRANCH   1   3
ATOM      3  C   UNL     1      91.597  30.972  15.985  1.00  0.00     0.053 C 
ATOM      4  C   UNL     1      91.707  31.209  17.499  1.00  0.00     0.016 C 
BRANCH   3   5
ATOM      5  C   UNL     1      92.994  30.638  15.392  1.00  0.00     0.015 C 
BRANCH   5   6
ATOM      6  C   UNL     1      93.385  31.372  14.091  1.00  0.00     0.028 C 
BRANCH   6   7
ATOM      7  C   UNL     1      92.364  31.462  12.976  1.00  0.00    -0.028 C 
ATOM      8  C   UNL     1      91.994  30.481  12.116  1.00  0.00    -0.070 CG0
ATOM      9  C   UNL     1      91.125  30.879  10.947  1.00  0.00     0.039 C 
ATOM     10  G   UNL     1      92.329  29.006  12.289  1.00  0.00     0.000 G0
ENDBRANCH   6   7
ENDBRANCH   5   6
ENDBRANCH   3   5
ENDBRANCH   1   3
BRANCH   1  11
ATOM     11  C   UNL     1      90.997  28.551  15.045  1.00  0.00     0.087 C 
BRANCH  11  12
ATOM     12  C   UNL     1      90.231  28.169  13.756  1.00  0.00     0.066 C 
BRANCH  12  13
ATOM     13  C   UNL     1      91.067  28.173  12.478  1.00  0.00     0.140 C 
ATOM     14  O   UNL     1      90.739  27.394  11.594  1.00  0.00    -0.299 OA
BRANCH  13  15
ATOM     15  C   UNL     1      92.324  29.010  12.271  1.00  0.00     0.106 CG0
ATOM     16  G   UNL     1      91.981  30.483  12.098  1.00  0.00     0.000 G0
ENDBRANCH  13  15
ENDBRANCH  12  13
BRANCH  12  17
ATOM     17  C   UNL     1      89.425  26.844  13.932  1.00  0.00    -0.006 C 
ATOM     18  C   UNL     1      89.963  25.999  15.098  1.00  0.00     0.008 C 
ATOM     19  C   UNL     1      87.911  27.054  14.092  1.00  0.00     0.008 C 
ENDBRANCH  12  17
ENDBRANCH  11  12
ENDBRANCH   1  11
TORSDOF 1
ENDMDL
MODEL 7
REMARK VINA RESULT:    -0.435      4.234      6.346
REMARK INTER + INTRA:          -1.249
REMARK INTER:                  -0.698
REMARK INTRA:                  -0.550
REMARK UNBOUND:                -0.585
REMARK SMILES CC1=CCC[C@H](C)C(=O)C[C@H](C(C)C)C(=O)C1
REMARK SMILES IDX 8 1 9 2 6 3 7 4 5 5 4 6 3 7 2 8 1 9 10 11 11 12 15 13 16 14
REMARK SMILES IDX 17 15 12 17 13 18 14 19
REMARK H PARENT
REMARK Flexibility Score: 70.00
ROOT
ATOM      1  C   UNL     1      90.108  29.958   9.275  1.00  0.00     0.136 C 
ATOM      2  O   UNL     1      89.242  30.432   9.997  1.00  0.00    -0.299 OA
ENDROOT
BRANCH   1   3
ATOM      3  C   UNL     1      89.780  29.617   7.825  1.00  0.00     0.053 C 
ATOM      4  C   UNL     1      88.780  28.455   7.709  1.00  0.00     0.016 C 
BRANCH   3   5
ATOM      5  C   UNL     1      89.247  30.862   7.065  1.00  0.00     0.015 C 
BRANCH   5   6
ATOM      6  C   UNL     1      90.307  31.802   6.450  1.00  0.00     0.028 C 
BRANCH   6   7
ATOM      7  C   UNL     1      91.482  31.186   5.719  1.00  0.00    -0.028 C 
ATOM      8  C   UNL     1      92.760  31.072   6.161  1.00  0.00    -0.070 CG0
ATOM      9  C   UNL     1      93.799  30.629   5.160  1.00  0.00     0.039 C 
ATOM     10  G   UNL     1      93.199  31.284   7.604  1.00  0.00     0.000 G0
ENDBRANCH   6   7
ENDBRANCH   5   6
ENDBRANCH   3   5
ENDBRANCH   1   3
BRANCH   1  11
ATOM     11  C   UNL     1      91.481  29.698   9.876  1.00  0.00     0.087 C 
BRANCH  11  12
ATOM     12  C   UNL     1      92.475  29.022   8.902  1.00  0.00     0.066 C 
BRANCH  12  13
ATOM     13  C   UNL     1      93.520  29.952   8.290  1.00  0.00     0.140 C 
ATOM     14  O   UNL     1      94.694  29.638   8.425  1.00  0.00    -0.299 OA
BRANCH  13  15
ATOM     15  C   UNL     1      93.201  31.278   7.609  1.00  0.00     0.106 CG0
ATOM     16  G   UNL     1      92.756  31.064   6.169  1.00  0.00     0.000 G0
ENDBRANCH  13  15
ENDBRANCH  12  13
BRANCH  12  17
ATOM     17  C   UNL     1      93.114  27.740   9.523  1.00  0.00    -0.006 C 
ATOM     18  C   UNL     1      92.626  27.499  10.961  1.00  0.00     0.008 C 
ATOM     19  C   UNL     1      92.909  26.472   8.680  1.00  0.00     0.008 C 
ENDBRANCH  12  17
ENDBRANCH  11  12
ENDBRANCH   1  11
TORSDOF 1
ENDMDL
MODEL 8
REMARK VINA RESULT:    -0.428      3.511      5.742
REMARK INTER + INTRA:          -1.237
REMARK INTER:                  -0.846
REMARK INTRA:                  -0.392
REMARK UNBOUND:                -0.585
REMARK SMILES CC1=CCC[C@H](C)C(=O)C[C@H](C(C)C)C(=O)C1
REMARK SMILES IDX 8 1 9 2 6 3 7 4 5 5 4 6 3 7 2 8 1 9 10 11 11 12 15 13 16 14
REMARK SMILES IDX 17 15 12 17 13 18 14 19
REMARK H PARENT
REMARK Flexibility Score: 70.00
ROOT
ATOM      1  C   UNL     1      91.904  31.299  10.203  1.00  0.00     0.136 C 
ATOM      2  O   UNL     1      91.323  32.275  10.655  1.00  0.00    -0.299 OA
ENDROOT
BRANCH   1   3
ATOM      3  C   UNL     1      92.856  30.506  11.092  1.00  0.00     0.053 C 
ATOM      4  C   UNL     1      93.312  31.307  12.323  1.00  0.00     0.016 C 
BRANCH   3   5
ATOM      5  C   UNL     1      92.216  29.161  11.536  1.00  0.00     0.015 C 
BRANCH   5   6
ATOM      6  C   UNL     1      92.839  27.875  10.951  1.00  0.00     0.028 C 
BRANCH   6   7
ATOM      7  C   UNL     1      92.021  27.052   9.978  1.00  0.00    -0.028 C 
ATOM      8  C   UNL     1      92.085  27.072   8.623  1.00  0.00    -0.070 CG0
ATOM      9  C   UNL     1      91.008  26.329   7.870  1.00  0.00     0.039 C 
ATOM     10  G   UNL     1      93.202  27.724   7.820  1.00  0.00     0.000 G0
ENDBRANCH   6   7
ENDBRANCH   5   6
ENDBRANCH   3   5
ENDBRANCH   1   3
BRANCH   1  11
ATOM     11  C   UNL     1      91.673  30.937   8.744  1.00  0.00     0.087 C 
BRANCH  11  12
ATOM     12  C   UNL     1      92.934  30.409   8.020  1.00  0.00     0.066 C 
BRANCH  12  13
ATOM     13  C   UNL     1      92.755  29.082   7.285  1.00  0.00     0.140 C 
ATOM     14  O   UNL     1      92.145  29.108   6.226  1.00  0.00    -0.299 OA
BRANCH  13  15
ATOM     15  C   UNL     1      93.203  27.729   7.827  1.00  0.00     0.106 CG0
ATOM     16  G   UNL     1      92.084  27.052   8.606  1.00  0.00     0.000 G0
ENDBRANCH  13  15
ENDBRANCH  12  13
BRANCH  12  17
ATOM     17  C   UNL     1      93.583  31.503   7.115  1.00  0.00    -0.006 C 
ATOM     18  C   UNL     1      92.576  32.600   6.733  1.00  0.00     0.008 C 
ATOM     19  C   UNL     1      94.847  32.139   7.717  1.00  0.00     0.008 C 
ENDBRANCH  12  17
ENDBRANCH  11  12
ENDBRANCH   1  11
TORSDOF 1
ENDMDL
MODEL 9
REMARK VINA RESULT:    -0.398      3.228      4.660
REMARK INTER + INTRA:          -1.192
REMARK INTER:                  -0.634
REMARK INTRA:                  -0.558
REMARK UNBOUND:                -0.585
REMARK SMILES CC1=CCC[C@H](C)C(=O)C[C@H](C(C)C)C(=O)C1
REMARK SMILES IDX 8 1 9 2 6 3 7 4 5 5 4 6 3 7 2 8 1 9 10 11 11 12 15 13 16 14
REMARK SMILES IDX 17 15 12 17 13 18 14 19
REMARK H PARENT
REMARK Flexibility Score: 70.00
ROOT
ATOM      1  C   UNL     1      88.014  29.434  12.246  1.00  0.00     0.136 C 
ATOM      2  O   UNL     1      87.295  29.663  11.285  1.00  0.00    -0.299 OA
ENDROOT
BRANCH   1   3
ATOM      3  C   UNL     1      88.236  30.514  13.300  1.00  0.00     0.053 C 
ATOM      4  C   UNL     1      88.462  31.902  12.679  1.00  0.00     0.016 C 
BRANCH   3   5
ATOM      5  C   UNL     1      87.052  30.563  14.306  1.00  0.00     0.015 C 
BRANCH   5   6
ATOM      6  C   UNL     1      87.183  29.687  15.570  1.00  0.00     0.028 C 
BRANCH   6   7
ATOM      7  C   UNL     1      88.536  29.589  16.245  1.00  0.00    -0.028 C 
ATOM      8  C   UNL     1      89.355  28.509  16.295  1.00  0.00    -0.070 CG0
ATOM      9  C   UNL     1      90.545  28.588  17.221  1.00  0.00     0.039 C 
ATOM     10  G   UNL     1      89.200  27.264  15.433  1.00  0.00     0.000 G0
ENDBRANCH   6   7
ENDBRANCH   5   6
ENDBRANCH   3   5
ENDBRANCH   1   3
BRANCH   1  11
ATOM     11  C   UNL     1      88.691  28.074  12.328  1.00  0.00     0.087 C 
BRANCH  11  12
ATOM     12  C   UNL     1      90.068  28.100  13.034  1.00  0.00     0.066 C 
BRANCH  12  13
ATOM     13  C   UNL     1      90.177  27.222  14.280  1.00  0.00     0.140 C 
ATOM     14  O   UNL     1      91.077  26.395  14.302  1.00  0.00    -0.299 OA
BRANCH  13  15
ATOM     15  C   UNL     1      89.192  27.249  15.442  1.00  0.00     0.106 CG0
ATOM     16  G   UNL     1      89.358  28.513  16.275  1.00  0.00     0.000 G0
ENDBRANCH  13  15
ENDBRANCH  12  13
BRANCH  12  17
ATOM     17  C   UNL     1      91.238  27.852  12.031  1.00  0.00    -0.006 C 
ATOM     18  C   UNL     1      90.728  27.338  10.676  1.00  0.00     0.008 C 
ATOM     19  C   UNL     1      92.146  29.074  11.821  1.00  0.00     0.008 C 
ENDBRANCH  12  17
ENDBRANCH  11  12
ENDBRANCH   1  11
TORSDOF 1
ENDMDL
