MODEL 1
REMARK VINA RESULT:    -2.665      0.000      0.000
REMARK INTER + INTRA:          -3.255
REMARK INTER:                  -3.132
REMARK INTRA:                  -0.123
REMARK UNBOUND:                -0.123
REMARK SMILES O=C([O-])CCC(=O)[O-]
REMARK SMILES IDX 4 1 2 2 1 3 3 4 5 5 6 6 7 7 8 8
REMARK H PARENT
REMARK Flexibility Score: inf
ROOT
ATOM      1  C   UNL     1      45.314  18.909  77.793  1.00  0.00     0.059 C 
ENDROOT
BRANCH   1   2
ATOM      2  C   UNL     1      45.620  17.986  76.653  1.00  0.00     0.042 C 
ATOM      3  O   UNL     1      45.787  18.444  75.492  1.00  0.00    -0.550 OA
ATOM      4  O   UNL     1      45.681  16.614  76.868  1.00  0.00    -0.550 OA
ENDBRANCH   1   2
BRANCH   1   5
ATOM      5  C   UNL     1      46.076  20.232  77.667  1.00  0.00     0.059 C 
BRANCH   5   6
ATOM      6  C   UNL     1      47.531  20.063  77.987  1.00  0.00     0.042 C 
ATOM      7  O   UNL     1      48.406  20.568  77.236  1.00  0.00    -0.550 OA
ATOM      8  O   UNL     1      47.917  19.383  79.135  1.00  0.00    -0.550 OA
ENDBRANCH   5   6
ENDBRANCH   1   5
TORSDOF 3
ENDMDL
MODEL 2
REMARK VINA RESULT:    -2.652      0.091      3.689
REMARK INTER + INTRA:          -3.241
REMARK INTER:                  -3.111
REMARK INTRA:                  -0.129
REMARK UNBOUND:                -0.123
REMARK SMILES O=C([O-])CCC(=O)[O-]
REMARK SMILES IDX 4 1 2 2 1 3 3 4 5 5 6 6 7 7 8 8
REMARK H PARENT
REMARK Flexibility Score: inf
ROOT
ATOM      1  C   UNL     1      46.074  20.174  77.620  1.00  0.00     0.059 C 
ENDROOT
BRANCH   1   2
ATOM      2  C   UNL     1      47.517  20.043  78.001  1.00  0.00     0.042 C 
ATOM      3  O   UNL     1      47.841  19.446  79.061  1.00  0.00    -0.550 OA
ATOM      4  O   UNL     1      48.501  20.615  77.205  1.00  0.00    -0.550 OA
ENDBRANCH   1   2
BRANCH   1   5
ATOM      5  C   UNL     1      45.322  18.851  77.794  1.00  0.00     0.059 C 
BRANCH   5   6
ATOM      6  C   UNL     1      45.619  17.896  76.678  1.00  0.00     0.042 C 
ATOM      7  O   UNL     1      45.649  16.657  76.897  1.00  0.00    -0.550 OA
ATOM      8  O   UNL     1      45.823  18.373  75.389  1.00  0.00    -0.550 OA
ENDBRANCH   5   6
ENDBRANCH   1   5
TORSDOF 3
ENDMDL
MODEL 3
REMARK VINA RESULT:    -2.646      7.427      8.116
REMARK INTER + INTRA:          -3.233
REMARK INTER:                  -3.191
REMARK INTRA:                  -0.041
REMARK UNBOUND:                -0.123
REMARK SMILES O=C([O-])CCC(=O)[O-]
REMARK SMILES IDX 4 1 2 2 1 3 3 4 5 5 6 6 7 7 8 8
REMARK H PARENT
REMARK Flexibility Score: inf
ROOT
ATOM      1  C   UNL     1      38.570  20.212  80.119  1.00  0.00     0.059 C 
ENDROOT
BRANCH   1   2
ATOM      2  C   UNL     1      37.562  19.283  80.725  1.00  0.00     0.042 C 
ATOM      3  O   UNL     1      37.057  19.542  81.849  1.00  0.00    -0.550 OA
ATOM      4  O   UNL     1      37.213  18.111  80.066  1.00  0.00    -0.550 OA
ENDBRANCH   1   2
BRANCH   1   5
ATOM      5  C   UNL     1      39.979  19.612  80.148  1.00  0.00     0.059 C 
BRANCH   5   6
ATOM      6  C   UNL     1      40.830  20.148  79.036  1.00  0.00     0.042 C 
ATOM      7  O   UNL     1      40.304  20.794  78.092  1.00  0.00    -0.550 OA
ATOM      8  O   UNL     1      42.207  19.966  79.064  1.00  0.00    -0.550 OA
ENDBRANCH   5   6
ENDBRANCH   1   5
TORSDOF 3
ENDMDL
MODEL 4
REMARK VINA RESULT:    -2.585      7.481      8.488
REMARK INTER + INTRA:          -3.161
REMARK INTER:                  -3.121
REMARK INTRA:                  -0.040
REMARK UNBOUND:                -0.123
REMARK SMILES O=C([O-])CCC(=O)[O-]
REMARK SMILES IDX 4 1 2 2 1 3 3 4 5 5 6 6 7 7 8 8
REMARK H PARENT
REMARK Flexibility Score: inf
ROOT
ATOM      1  C   UNL     1      39.933  19.510  80.014  1.00  0.00     0.059 C 
ENDROOT
BRANCH   1   2
ATOM      2  C   UNL     1      40.810  20.196  79.011  1.00  0.00     0.042 C 
ATOM      3  O   UNL     1      40.302  20.898  78.098  1.00  0.00    -0.550 OA
ATOM      4  O   UNL     1      42.188  20.025  79.062  1.00  0.00    -0.550 OA
ENDBRANCH   1   2
BRANCH   1   5
ATOM      5  C   UNL     1      38.599  20.242  80.189  1.00  0.00     0.059 C 
BRANCH   5   6
ATOM      6  C   UNL     1      37.555  19.351  80.793  1.00  0.00     0.042 C 
ATOM      7  O   UNL     1      37.166  18.326  80.175  1.00  0.00    -0.550 OA
ATOM      8  O   UNL     1      37.043  19.633  82.053  1.00  0.00    -0.550 OA
ENDBRANCH   5   6
ENDBRANCH   1   5
TORSDOF 3
ENDMDL
MODEL 5
REMARK VINA RESULT:    -2.581     17.117     18.372
REMARK INTER + INTRA:          -3.157
REMARK INTER:                  -3.116
REMARK INTRA:                  -0.041
REMARK UNBOUND:                -0.123
REMARK SMILES O=C([O-])CCC(=O)[O-]
REMARK SMILES IDX 4 1 2 2 1 3 3 4 5 5 6 6 7 7 8 8
REMARK H PARENT
REMARK Flexibility Score: inf
ROOT
ATOM      1  C   UNL     1      44.860  30.403  91.348  1.00  0.00     0.059 C 
ENDROOT
BRANCH   1   2
ATOM      2  C   UNL     1      43.693  30.756  92.220  1.00  0.00     0.042 C 
ATOM      3  O   UNL     1      43.800  31.664  93.086  1.00  0.00    -0.550 OA
ATOM      4  O   UNL     1      42.500  30.055  92.101  1.00  0.00    -0.550 OA
ENDBRANCH   1   2
BRANCH   1   5
ATOM      5  C   UNL     1      45.596  31.653  90.856  1.00  0.00     0.059 C 
BRANCH   5   6
ATOM      6  C   UNL     1      46.088  31.486  89.450  1.00  0.00     0.042 C 
ATOM      7  O   UNL     1      46.875  32.332  88.950  1.00  0.00    -0.550 OA
ATOM      8  O   UNL     1      45.710  30.375  88.707  1.00  0.00    -0.550 OA
ENDBRANCH   5   6
ENDBRANCH   1   5
TORSDOF 3
ENDMDL
MODEL 6
REMARK VINA RESULT:    -2.576      1.662      2.284
REMARK INTER + INTRA:          -3.151
REMARK INTER:                  -3.032
REMARK INTRA:                  -0.119
REMARK UNBOUND:                -0.123
REMARK SMILES O=C([O-])CCC(=O)[O-]
REMARK SMILES IDX 4 1 2 2 1 3 3 4 5 5 6 6 7 7 8 8
REMARK H PARENT
REMARK Flexibility Score: inf
ROOT
ATOM      1  C   UNL     1      45.913  18.786  75.443  1.00  0.00     0.059 C 
ENDROOT
BRANCH   1   2
ATOM      2  C   UNL     1      45.583  18.014  76.684  1.00  0.00     0.042 C 
ATOM      3  O   UNL     1      45.363  18.618  77.767  1.00  0.00    -0.550 OA
ATOM      4  O   UNL     1      45.558  16.625  76.653  1.00  0.00    -0.550 OA
ENDBRANCH   1   2
BRANCH   1   5
ATOM      5  C   UNL     1      46.140  20.271  75.746  1.00  0.00     0.059 C 
BRANCH   5   6
ATOM      6  C   UNL     1      47.598  20.592  75.872  1.00  0.00     0.042 C 
ATOM      7  O   UNL     1      48.161  20.548  76.997  1.00  0.00    -0.550 OA
ATOM      8  O   UNL     1      48.344  20.901  74.741  1.00  0.00    -0.550 OA
ENDBRANCH   5   6
ENDBRANCH   1   5
TORSDOF 3
ENDMDL
MODEL 7
REMARK VINA RESULT:    -2.570      7.392      8.813
REMARK INTER + INTRA:          -3.144
REMARK INTER:                  -3.022
REMARK INTRA:                  -0.122
REMARK UNBOUND:                -0.123
REMARK SMILES O=C([O-])CCC(=O)[O-]
REMARK SMILES IDX 4 1 2 2 1 3 3 4 5 5 6 6 7 7 8 8
REMARK H PARENT
REMARK Flexibility Score: inf
ROOT
ATOM      1  C   UNL     1      53.925  20.460  73.365  1.00  0.00     0.059 C 
ENDROOT
BRANCH   1   2
ATOM      2  C   UNL     1      53.230  21.034  74.562  1.00  0.00     0.042 C 
ATOM      3  O   UNL     1      53.800  21.040  75.684  1.00  0.00    -0.550 OA
ATOM      4  O   UNL     1      51.935  21.525  74.445  1.00  0.00    -0.550 OA
ENDBRANCH   1   2
BRANCH   1   5
ATOM      5  C   UNL     1      53.710  18.947  73.258  1.00  0.00     0.059 C 
BRANCH   5   6
ATOM      6  C   UNL     1      54.903  18.184  73.747  1.00  0.00     0.042 C 
ATOM      7  O   UNL     1      54.906  16.925  73.714  1.00  0.00    -0.550 OA
ATOM      8  O   UNL     1      56.026  18.864  74.202  1.00  0.00    -0.550 OA
ENDBRANCH   5   6
ENDBRANCH   1   5
TORSDOF 3
ENDMDL
MODEL 8
REMARK VINA RESULT:    -2.558      7.560      8.667
REMARK INTER + INTRA:          -3.130
REMARK INTER:                  -3.015
REMARK INTRA:                  -0.115
REMARK UNBOUND:                -0.123
REMARK SMILES O=C([O-])CCC(=O)[O-]
REMARK SMILES IDX 4 1 2 2 1 3 3 4 5 5 6 6 7 7 8 8
REMARK H PARENT
REMARK Flexibility Score: inf
ROOT
ATOM      1  C   UNL     1      53.833  18.842  73.165  1.00  0.00     0.059 C 
ENDROOT
BRANCH   1   2
ATOM      2  C   UNL     1      55.010  18.026  73.605  1.00  0.00     0.042 C 
ATOM      3  O   UNL     1      55.968  18.570  74.215  1.00  0.00    -0.550 OA
ATOM      4  O   UNL     1      55.067  16.670  73.304  1.00  0.00    -0.550 OA
ENDBRANCH   1   2
BRANCH   1   5
ATOM      5  C   UNL     1      54.098  20.343  73.320  1.00  0.00     0.059 C 
BRANCH   5   6
ATOM      6  C   UNL     1      53.361  20.915  74.494  1.00  0.00     0.042 C 
ATOM      7  O   UNL     1      52.222  21.426  74.337  1.00  0.00    -0.550 OA
ATOM      8  O   UNL     1      53.917  20.846  75.765  1.00  0.00    -0.550 OA
ENDBRANCH   5   6
ENDBRANCH   1   5
TORSDOF 3
ENDMDL
MODEL 9
REMARK VINA RESULT:    -2.521      9.752     11.451
REMARK INTER + INTRA:          -3.086
REMARK INTER:                  -3.053
REMARK INTRA:                  -0.033
REMARK UNBOUND:                -0.123
REMARK SMILES O=C([O-])CCC(=O)[O-]
REMARK SMILES IDX 4 1 2 2 1 3 3 4 5 5 6 6 7 7 8 8
REMARK H PARENT
REMARK Flexibility Score: inf
ROOT
ATOM      1  C   UNL     1      54.267  17.749  86.223  1.00  0.00     0.059 C 
ENDROOT
BRANCH   1   2
ATOM      2  C   UNL     1      55.390  16.953  85.632  1.00  0.00     0.042 C 
ATOM      3  O   UNL     1      55.801  17.203  84.468  1.00  0.00    -0.550 OA
ATOM      4  O   UNL     1      55.955  15.907  86.352  1.00  0.00    -0.550 OA
ENDBRANCH   1   2
BRANCH   1   5
ATOM      5  C   UNL     1      53.483  18.505  85.146  1.00  0.00     0.059 C 
BRANCH   5   6
ATOM      6  C   UNL     1      52.093  18.832  85.602  1.00  0.00     0.042 C 
ATOM      7  O   UNL     1      51.116  18.149  85.195  1.00  0.00    -0.550 OA
ATOM      8  O   UNL     1      51.882  19.864  86.508  1.00  0.00    -0.550 OA
ENDBRANCH   5   6
ENDBRANCH   1   5
TORSDOF 3
ENDMDL
