MODEL 1
REMARK VINA RESULT:    -0.974      0.000      0.000
REMARK INTER + INTRA:          -2.923
REMARK INTER:                  -1.856
REMARK INTRA:                  -1.067
REMARK UNBOUND:                -1.067
REMARK SMILES C[C@H]1O[C@@H](O[C@H]2[C@H](O)[C@@H](OCCc3ccc(O)c(O)c3)O[C@@H](CO)[C@@H]2OC(=O)C=Cc2ccc(O)c(O)c2)[C@@H](O)[C@H](O)[C@H]1O
REMARK SMILES IDX 6 1 7 2 9 3 21 4 22 5 25 6 5 7 4 8 1 9 2 10 43 11 3 12 41 13
REMARK SMILES IDX 39 14 44 15 42 17 40 19 8 21 26 23 27 24 28 25 29 26 30 27
REMARK SMILES IDX 31 28 38 29 32 30 36 31 33 32 34 33 37 34 35 36 10 38 11 39
REMARK SMILES IDX 12 40 13 41 20 42 14 43 18 44 15 45 16 46 19 47 17 49 23 51
REMARK SMILES IDX 24 52
REMARK H PARENT 44 16 42 18 40 20 8 22 37 35 35 37 19 48 17 50 24 53
REMARK Flexibility Score: inf
ROOT
ATOM      1  C   UNL     1       9.648  -0.559  16.796  1.00  0.00     0.199 C 
ATOM      2  C   UNL     1      10.751  -1.437  17.417  1.00  0.00     0.203 C 
ATOM      3  C   UNL     1      10.458  -3.042  17.384  1.00  0.00     0.282 C 
ATOM      4  O   UNL     1       9.602  -3.510  16.360  1.00  0.00    -0.340 OA
ATOM      5  C   UNL     1       8.524  -2.631  16.148  1.00  0.00     0.190 C 
ATOM      6  C   UNL     1       9.073  -1.319  15.594  1.00  0.00     0.240 C 
ENDROOT
BRANCH   1   7
ATOM      7  O   UNL     1       8.590  -0.293  17.697  1.00  0.00    -0.340 OA
BRANCH   7   8
ATOM      8  C   UNL     1       9.027   0.334  18.937  1.00  0.00     0.282 C 
ATOM      9  C   UNL     1       5.882   0.606  19.101  1.00  0.00     0.041 C 
ATOM     10  C   UNL     1       6.963   0.965  20.110  1.00  0.00     0.150 C 
ATOM     11  C   UNL     1       7.372   2.387  19.974  1.00  0.00     0.174 C 
ATOM     12  O   UNL     1       8.151   0.108  20.056  1.00  0.00    -0.344 OA
ATOM     13  C   UNL     1       8.085   2.598  18.609  1.00  0.00     0.179 C 
ATOM     14  C   UNL     1       9.395   1.828  18.633  1.00  0.00     0.202 C 
BRANCH  11  15
ATOM     15  O   UNL     1       6.219   3.174  20.125  1.00  0.00    -0.388 OA
ATOM     16  H   UNL     1       5.897   3.465  19.250  1.00  0.00     0.211 HD
ENDBRANCH  11  15
BRANCH  13  17
ATOM     17  O   UNL     1       8.321   3.965  18.459  1.00  0.00    -0.387 OA
ATOM     18  H   UNL     1       8.326   4.143  17.481  1.00  0.00     0.211 HD
ENDBRANCH  13  17
BRANCH  14  19
ATOM     19  O   UNL     1      10.061   1.879  17.384  1.00  0.00    -0.385 OA
ATOM     20  H   UNL     1       9.375   2.269  16.710  1.00  0.00     0.211 HD
ENDBRANCH  14  19
ENDBRANCH   7   8
ENDBRANCH   1   7
BRANCH   2  21
ATOM     21  O   UNL     1      11.937  -1.101  16.704  1.00  0.00    -0.385 OA
ATOM     22  H   UNL     1      12.460  -0.452  17.213  1.00  0.00     0.211 HD
ENDBRANCH   2  21
BRANCH   6  23
ATOM     23  O   UNL     1      10.111  -1.667  14.642  1.00  0.00    -0.453 OA
BRANCH  23  24
ATOM     24  C   UNL     1       9.988  -1.391  13.261  1.00  0.00     0.331 C 
ATOM     25  O   UNL     1      10.508  -2.116  12.352  1.00  0.00    -0.247 OA
BRANCH  24  26
ATOM     26  C   UNL     1       9.080  -0.259  12.827  1.00  0.00     0.094 C 
ATOM     27  C   UNL     1       9.302   0.511  11.769  1.00  0.00     0.016 C 
BRANCH  27  28
ATOM     28  C   UNL     1       8.365   1.521  11.140  1.00  0.00    -0.021 A 
ATOM     29  C   UNL     1       8.496   2.889  11.537  1.00  0.00     0.058 A 
ATOM     30  C   UNL     1       7.529   1.212  10.065  1.00  0.00     0.012 A 
ATOM     31  C   UNL     1       7.779   3.886  10.848  1.00  0.00     0.157 A 
ATOM     32  C   UNL     1       6.767   2.189   9.452  1.00  0.00     0.051 A 
ATOM     33  C   UNL     1       6.887   3.537   9.820  1.00  0.00     0.157 A 
BRANCH  31  34
ATOM     34  O   UNL     1       7.876   5.219  11.219  1.00  0.00    -0.504 OA
ATOM     35  H   UNL     1       8.489   5.867  10.740  1.00  0.00     0.293 HD
ENDBRANCH  31  34
BRANCH  33  36
ATOM     36  O   UNL     1       6.103   4.523   9.193  1.00  0.00    -0.504 OA
ATOM     37  H   UNL     1       5.615   5.221   9.716  1.00  0.00     0.293 HD
ENDBRANCH  33  36
ENDBRANCH  27  28
ENDBRANCH  24  26
ENDBRANCH  23  24
ENDBRANCH   6  23
BRANCH   3  38
ATOM     38  O   UNL     1       9.924  -3.535  18.595  1.00  0.00    -0.350 OA
BRANCH  38  39
ATOM     39  C   UNL     1      10.757  -3.243  19.717  1.00  0.00     0.168 C 
BRANCH  39  40
ATOM     40  C   UNL     1      12.112  -3.976  19.674  1.00  0.00     0.064 C 
BRANCH  40  41
ATOM     41  C   UNL     1      13.202  -2.962  19.806  1.00  0.00    -0.042 A 
ATOM     42  C   UNL     1      12.939  -1.618  19.612  1.00  0.00     0.054 A 
ATOM     43  C   UNL     1      14.519  -3.380  19.980  1.00  0.00     0.008 A 
ATOM     44  C   UNL     1      13.992  -0.737  19.372  1.00  0.00     0.157 A 
ATOM     45  C   UNL     1      15.585  -2.510  19.778  1.00  0.00     0.050 A 
ATOM     46  C   UNL     1      15.307  -1.195  19.430  1.00  0.00     0.157 A 
BRANCH  44  47
ATOM     47  O   UNL     1      13.683   0.583  19.033  1.00  0.00    -0.504 OA
ATOM     48  H   UNL     1      13.946   1.014  18.139  1.00  0.00     0.293 HD
ENDBRANCH  44  47
BRANCH  46  49
ATOM     49  O   UNL     1      16.332  -0.295  19.190  1.00  0.00    -0.504 OA
ATOM     50  H   UNL     1      16.359   0.638  19.559  1.00  0.00     0.293 HD
ENDBRANCH  46  49
ENDBRANCH  40  41
ENDBRANCH  39  40
ENDBRANCH  38  39
ENDBRANCH   3  38
BRANCH   5  51
ATOM     51  C   UNL     1       7.431  -2.567  17.242  1.00  0.00     0.192 C 
BRANCH  51  52
ATOM     52  O   UNL     1       6.157  -2.528  16.548  1.00  0.00    -0.394 OA
ATOM     53  H   UNL     1       6.023  -3.508  16.285  1.00  0.00     0.210 HD
ENDBRANCH  51  52
ENDBRANCH   5  51
TORSDOF 20
ENDMDL
MODEL 2
REMARK VINA RESULT:     0.741      2.076      3.652
REMARK INTER + INTRA:           0.346
REMARK INTER:                  -1.442
REMARK INTRA:                   1.788
REMARK UNBOUND:                -1.067
REMARK SMILES C[C@H]1O[C@@H](O[C@H]2[C@H](O)[C@@H](OCCc3ccc(O)c(O)c3)O[C@@H](CO)[C@@H]2OC(=O)C=Cc2ccc(O)c(O)c2)[C@@H](O)[C@H](O)[C@H]1O
REMARK SMILES IDX 6 1 7 2 9 3 21 4 22 5 25 6 5 7 4 8 1 9 2 10 43 11 3 12 41 13
REMARK SMILES IDX 39 14 44 15 42 17 40 19 8 21 26 23 27 24 28 25 29 26 30 27
REMARK SMILES IDX 31 28 38 29 32 30 36 31 33 32 34 33 37 34 35 36 10 38 11 39
REMARK SMILES IDX 12 40 13 41 20 42 14 43 18 44 15 45 16 46 19 47 17 49 23 51
REMARK SMILES IDX 24 52
REMARK H PARENT 44 16 42 18 40 20 8 22 37 35 35 37 19 48 17 50 24 53
REMARK Flexibility Score: inf
ROOT
ATOM      1  C   UNL     1      10.130  -0.709  18.407  1.00  0.00     0.199 C 
ATOM      2  C   UNL     1      11.355   0.224  18.435  1.00  0.00     0.203 C 
ATOM      3  C   UNL     1      12.794  -0.520  18.236  1.00  0.00     0.282 C 
ATOM      4  O   UNL     1      12.785  -1.740  17.521  1.00  0.00    -0.340 OA
ATOM      5  C   UNL     1      11.670  -2.527  17.860  1.00  0.00     0.190 C 
ATOM      6  C   UNL     1      10.409  -1.812  17.379  1.00  0.00     0.240 C 
ENDROOT
BRANCH   1   7
ATOM      7  O   UNL     1       9.883  -1.324  19.658  1.00  0.00    -0.340 OA
BRANCH   7   8
ATOM      8  C   UNL     1       8.509  -1.174  20.117  1.00  0.00     0.282 C 
ATOM      9  C   UNL     1       8.240  -3.351  17.842  1.00  0.00     0.041 C 
ATOM     10  C   UNL     1       7.205  -2.793  18.807  1.00  0.00     0.150 C 
ATOM     11  C   UNL     1       6.473  -1.649  18.205  1.00  0.00     0.174 C 
ATOM     12  O   UNL     1       7.746  -2.394  20.111  1.00  0.00    -0.344 OA
ATOM     13  C   UNL     1       7.444  -0.453  18.005  1.00  0.00     0.179 C 
ATOM     14  C   UNL     1       7.869   0.049  19.373  1.00  0.00     0.202 C 
BRANCH  11  15
ATOM     15  O   UNL     1       5.895  -2.102  17.008  1.00  0.00    -0.388 OA
ATOM     16  H   UNL     1       6.404  -2.858  16.657  1.00  0.00     0.211 HD
ENDBRANCH  11  15
BRANCH  13  17
ATOM     17  O   UNL     1       6.756   0.541  17.308  1.00  0.00    -0.387 OA
ATOM     18  H   UNL     1       7.444   1.074  16.827  1.00  0.00     0.211 HD
ENDBRANCH  13  17
BRANCH  14  19
ATOM     19  O   UNL     1       8.842   1.075  19.282  1.00  0.00    -0.385 OA
ATOM     20  H   UNL     1       9.126   1.111  18.285  1.00  0.00     0.211 HD
ENDBRANCH  14  19
ENDBRANCH   7   8
ENDBRANCH   1   7
BRANCH   2  21
ATOM     21  O   UNL     1      11.111   1.186  17.414  1.00  0.00    -0.385 OA
ATOM     22  H   UNL     1      11.631   0.966  16.617  1.00  0.00     0.211 HD
ENDBRANCH   2  21
BRANCH   6  23
ATOM     23  O   UNL     1      10.717  -1.255  16.075  1.00  0.00    -0.453 OA
BRANCH  23  24
ATOM     24  C   UNL     1      10.124  -1.747  14.889  1.00  0.00     0.331 C 
ATOM     25  O   UNL     1      10.142  -2.976  14.554  1.00  0.00    -0.247 OA
BRANCH  24  26
ATOM     26  C   UNL     1       9.305  -0.797  14.041  1.00  0.00     0.094 C 
ATOM     27  C   UNL     1       9.741  -0.236  12.918  1.00  0.00     0.016 C 
BRANCH  27  28
ATOM     28  C   UNL     1       8.941   0.555  11.904  1.00  0.00    -0.021 A 
ATOM     29  C   UNL     1       8.661   1.926  12.198  1.00  0.00     0.058 A 
ATOM     30  C   UNL     1       8.645   0.069  10.628  1.00  0.00     0.012 A 
ATOM     31  C   UNL     1       8.087   2.748  11.209  1.00  0.00     0.157 A 
ATOM     32  C   UNL     1       8.006   0.863   9.695  1.00  0.00     0.051 A 
ATOM     33  C   UNL     1       7.729   2.212   9.961  1.00  0.00     0.157 A 
BRANCH  31  34
ATOM     34  O   UNL     1       7.791   4.077  11.470  1.00  0.00    -0.504 OA
ATOM     35  H   UNL     1       8.453   4.821  11.289  1.00  0.00     0.293 HD
ENDBRANCH  31  34
BRANCH  33  36
ATOM     36  O   UNL     1       7.073   3.010   9.006  1.00  0.00    -0.504 OA
ATOM     37  H   UNL     1       7.362   3.035   8.050  1.00  0.00     0.293 HD
ENDBRANCH  33  36
ENDBRANCH  27  28
ENDBRANCH  24  26
ENDBRANCH  23  24
ENDBRANCH   6  23
BRANCH   3  38
ATOM     38  O   UNL     1      13.456  -0.786  19.455  1.00  0.00    -0.350 OA
BRANCH  38  39
ATOM     39  C   UNL     1      14.871  -0.886  19.297  1.00  0.00     0.168 C 
BRANCH  39  40
ATOM     40  C   UNL     1      15.458  -2.187  19.878  1.00  0.00     0.064 C 
BRANCH  40  41
ATOM     41  C   UNL     1      16.867  -2.324  19.400  1.00  0.00    -0.042 A 
ATOM     42  C   UNL     1      17.624  -3.426  19.752  1.00  0.00     0.054 A 
ATOM     43  C   UNL     1      17.472  -1.271  18.719  1.00  0.00     0.008 A 
ATOM     44  C   UNL     1      19.012  -3.378  19.624  1.00  0.00     0.157 A 
ATOM     45  C   UNL     1      18.852  -1.217  18.551  1.00  0.00     0.050 A 
ATOM     46  C   UNL     1      19.618  -2.263  19.049  1.00  0.00     0.157 A 
BRANCH  44  47
ATOM     47  O   UNL     1      19.757  -4.449  20.125  1.00  0.00    -0.504 OA
ATOM     48  H   UNL     1      20.733  -4.632  19.862  1.00  0.00     0.293 HD
ENDBRANCH  44  47
BRANCH  46  49
ATOM     49  O   UNL     1      20.998  -2.246  18.933  1.00  0.00    -0.504 OA
ATOM     50  H   UNL     1      21.625  -2.615  19.625  1.00  0.00     0.293 HD
ENDBRANCH  46  49
ENDBRANCH  40  41
ENDBRANCH  39  40
ENDBRANCH  38  39
ENDBRANCH   3  38
BRANCH   5  51
ATOM     51  C   UNL     1      11.655  -3.175  19.267  1.00  0.00     0.192 C 
BRANCH  51  52
ATOM     52  O   UNL     1      12.880  -3.944  19.377  1.00  0.00    -0.394 OA
ATOM     53  H   UNL     1      13.114  -3.840  20.369  1.00  0.00     0.210 HD
ENDBRANCH  51  52
ENDBRANCH   5  51
TORSDOF 20
ENDMDL
MODEL 3
REMARK VINA RESULT:     0.840      2.098      3.239
REMARK INTER + INTRA:           0.534
REMARK INTER:                  -1.752
REMARK INTRA:                   2.286
REMARK UNBOUND:                -1.067
REMARK SMILES C[C@H]1O[C@@H](O[C@H]2[C@H](O)[C@@H](OCCc3ccc(O)c(O)c3)O[C@@H](CO)[C@@H]2OC(=O)C=Cc2ccc(O)c(O)c2)[C@@H](O)[C@H](O)[C@H]1O
REMARK SMILES IDX 6 1 7 2 9 3 21 4 22 5 25 6 5 7 4 8 1 9 2 10 43 11 3 12 41 13
REMARK SMILES IDX 39 14 44 15 42 17 40 19 8 21 26 23 27 24 28 25 29 26 30 27
REMARK SMILES IDX 31 28 38 29 32 30 36 31 33 32 34 33 37 34 35 36 10 38 11 39
REMARK SMILES IDX 12 40 13 41 20 42 14 43 18 44 15 45 16 46 19 47 17 49 23 51
REMARK SMILES IDX 24 52
REMARK H PARENT 44 16 42 18 40 20 8 22 37 35 35 37 19 48 17 50 24 53
REMARK Flexibility Score: inf
ROOT
ATOM      1  C   UNL     1      10.205  -0.810  18.202  1.00  0.00     0.199 C 
ATOM      2  C   UNL     1      11.597  -0.153  18.260  1.00  0.00     0.203 C 
ATOM      3  C   UNL     1      12.854  -1.182  18.096  1.00  0.00     0.282 C 
ATOM      4  O   UNL     1      12.608  -2.376  17.380  1.00  0.00    -0.340 OA
ATOM      5  C   UNL     1      11.345  -2.912  17.692  1.00  0.00     0.190 C 
ATOM      6  C   UNL     1      10.273  -1.951  17.180  1.00  0.00     0.240 C 
ENDROOT
BRANCH   1   7
ATOM      7  O   UNL     1       9.806  -1.354  19.446  1.00  0.00    -0.340 OA
BRANCH   7   8
ATOM      8  C   UNL     1       8.786  -0.565  20.124  1.00  0.00     0.282 C 
ATOM      9  C   UNL     1       7.202  -1.775  17.672  1.00  0.00     0.041 C 
ATOM     10  C   UNL     1       6.722  -0.932  18.843  1.00  0.00     0.150 C 
ATOM     11  C   UNL     1       6.729   0.514  18.502  1.00  0.00     0.174 C 
ATOM     12  O   UNL     1       7.469  -1.143  20.088  1.00  0.00    -0.344 OA
ATOM     13  C   UNL     1       8.192   0.997  18.300  1.00  0.00     0.179 C 
ATOM     14  C   UNL     1       8.906   0.921  19.639  1.00  0.00     0.202 C 
BRANCH  11  15
ATOM     15  O   UNL     1       5.928   0.681  17.361  1.00  0.00    -0.388 OA
ATOM     16  H   UNL     1       5.884   1.627  17.120  1.00  0.00     0.211 HD
ENDBRANCH  11  15
BRANCH  13  17
ATOM     17  O   UNL     1       8.147   2.313  17.841  1.00  0.00    -0.387 OA
ATOM     18  H   UNL     1       8.997   2.469  17.350  1.00  0.00     0.211 HD
ENDBRANCH  13  17
BRANCH  14  19
ATOM     19  O   UNL     1      10.281   1.244  19.524  1.00  0.00    -0.385 OA
ATOM     20  H   UNL     1      10.475   1.311  18.507  1.00  0.00     0.211 HD
ENDBRANCH  14  19
ENDBRANCH   7   8
ENDBRANCH   1   7
BRANCH   2  21
ATOM     21  O   UNL     1      11.584   0.834  17.235  1.00  0.00    -0.385 OA
ATOM     22  H   UNL     1      11.756   1.715  17.618  1.00  0.00     0.211 HD
ENDBRANCH   2  21
BRANCH   6  23
ATOM     23  O   UNL     1      10.721  -1.477  15.885  1.00  0.00    -0.453 OA
BRANCH  23  24
ATOM     24  C   UNL     1      10.055  -1.823  14.686  1.00  0.00     0.331 C 
ATOM     25  O   UNL     1       9.858  -3.027  14.317  1.00  0.00    -0.247 OA
BRANCH  24  26
ATOM     26  C   UNL     1       9.421  -0.720  13.865  1.00  0.00     0.094 C 
ATOM     27  C   UNL     1       9.792  -0.403  12.630  1.00  0.00     0.016 C 
BRANCH  27  28
ATOM     28  C   UNL     1       9.097   0.532  11.662  1.00  0.00    -0.021 A 
ATOM     29  C   UNL     1       8.082  -0.017  10.817  1.00  0.00     0.058 A 
ATOM     30  C   UNL     1       9.262   1.919  11.698  1.00  0.00     0.012 A 
ATOM     31  C   UNL     1       7.283   0.843  10.039  1.00  0.00     0.157 A 
ATOM     32  C   UNL     1       8.528   2.745  10.867  1.00  0.00     0.051 A 
ATOM     33  C   UNL     1       7.523   2.227  10.038  1.00  0.00     0.157 A 
BRANCH  31  34
ATOM     34  O   UNL     1       6.301   0.338   9.201  1.00  0.00    -0.504 OA
ATOM     35  H   UNL     1       6.464  -0.464   8.604  1.00  0.00     0.293 HD
ENDBRANCH  31  34
BRANCH  33  36
ATOM     36  O   UNL     1       6.785   3.076   9.192  1.00  0.00    -0.504 OA
ATOM     37  H   UNL     1       5.990   3.586   9.518  1.00  0.00     0.293 HD
ENDBRANCH  33  36
ENDBRANCH  27  28
ENDBRANCH  24  26
ENDBRANCH  23  24
ENDBRANCH   6  23
BRANCH   3  38
ATOM     38  O   UNL     1      13.416  -1.575  19.331  1.00  0.00    -0.350 OA
BRANCH  38  39
ATOM     39  C   UNL     1      14.722  -2.132  19.183  1.00  0.00     0.168 C 
BRANCH  39  40
ATOM     40  C   UNL     1      15.806  -1.351  19.952  1.00  0.00     0.064 C 
BRANCH  40  41
ATOM     41  C   UNL     1      17.146  -1.813  19.478  1.00  0.00    -0.042 A 
ATOM     42  C   UNL     1      17.698  -1.297  18.319  1.00  0.00     0.054 A 
ATOM     43  C   UNL     1      17.780  -2.873  20.122  1.00  0.00     0.008 A 
ATOM     44  C   UNL     1      18.742  -1.975  17.692  1.00  0.00     0.157 A 
ATOM     45  C   UNL     1      18.846  -3.544  19.530  1.00  0.00     0.050 A 
ATOM     46  C   UNL     1      19.292  -3.109  18.288  1.00  0.00     0.157 A 
BRANCH  44  47
ATOM     47  O   UNL     1      19.177  -1.510  16.448  1.00  0.00    -0.504 OA
ATOM     48  H   UNL     1      20.088  -1.061  16.299  1.00  0.00     0.293 HD
ENDBRANCH  44  47
BRANCH  46  49
ATOM     49  O   UNL     1      20.330  -3.759  17.643  1.00  0.00    -0.504 OA
ATOM     50  H   UNL     1      20.269  -4.129  16.711  1.00  0.00     0.293 HD
ENDBRANCH  46  49
ENDBRANCH  40  41
ENDBRANCH  39  40
ENDBRANCH  38  39
ENDBRANCH   3  38
BRANCH   5  51
ATOM     51  C   UNL     1      11.161  -3.536  19.097  1.00  0.00     0.192 C 
BRANCH  51  52
ATOM     52  O   UNL     1       9.779  -3.967  19.178  1.00  0.00    -0.394 OA
ATOM     53  H   UNL     1       9.621  -4.004  20.189  1.00  0.00     0.210 HD
ENDBRANCH  51  52
ENDBRANCH   5  51
TORSDOF 20
ENDMDL
MODEL 4
REMARK VINA RESULT:     1.893      3.357      9.530
REMARK INTER + INTRA:           2.541
REMARK INTER:                   2.578
REMARK INTRA:                  -0.037
REMARK UNBOUND:                -1.067
REMARK SMILES C[C@H]1O[C@@H](O[C@H]2[C@H](O)[C@@H](OCCc3ccc(O)c(O)c3)O[C@@H](CO)[C@@H]2OC(=O)C=Cc2ccc(O)c(O)c2)[C@@H](O)[C@H](O)[C@H]1O
REMARK SMILES IDX 6 1 7 2 9 3 21 4 22 5 25 6 5 7 4 8 1 9 2 10 43 11 3 12 41 13
REMARK SMILES IDX 39 14 44 15 42 17 40 19 8 21 26 23 27 24 28 25 29 26 30 27
REMARK SMILES IDX 31 28 38 29 32 30 36 31 33 32 34 33 37 34 35 36 10 38 11 39
REMARK SMILES IDX 12 40 13 41 20 42 14 43 18 44 15 45 16 46 19 47 17 49 23 51
REMARK SMILES IDX 24 52
REMARK H PARENT 44 16 42 18 40 20 8 22 37 35 35 37 19 48 17 50 24 53
REMARK Flexibility Score: inf
ROOT
ATOM      1  C   UNL     1      11.402  -1.210  17.589  1.00  0.00     0.199 C 
ATOM      2  C   UNL     1      10.651   0.123  17.766  1.00  0.00     0.203 C 
ATOM      3  C   UNL     1       9.630   0.177  19.038  1.00  0.00     0.282 C 
ATOM      4  O   UNL     1       9.925  -0.678  20.125  1.00  0.00    -0.340 OA
ATOM      5  C   UNL     1      10.372  -1.937  19.684  1.00  0.00     0.190 C 
ATOM      6  C   UNL     1      11.719  -1.753  18.988  1.00  0.00     0.240 C 
ENDROOT
BRANCH   1   7
ATOM      7  O   UNL     1      10.636  -2.182  16.901  1.00  0.00    -0.340 OA
BRANCH   7   8
ATOM      8  C   UNL     1       9.549  -1.614  16.116  1.00  0.00     0.282 C 
ATOM      9  C   UNL     1       8.571  -4.580  16.601  1.00  0.00     0.041 C 
ATOM     10  C   UNL     1       7.875  -3.404  15.934  1.00  0.00     0.150 C 
ATOM     11  C   UNL     1       8.103  -3.407  14.466  1.00  0.00     0.174 C 
ATOM     12  O   UNL     1       8.241  -2.093  16.482  1.00  0.00    -0.344 OA
ATOM     13  C   UNL     1       9.604  -3.138  14.169  1.00  0.00     0.179 C 
ATOM     14  C   UNL     1       9.927  -1.718  14.598  1.00  0.00     0.202 C 
BRANCH  11  15
ATOM     15  O   UNL     1       7.652  -4.642  13.973  1.00  0.00    -0.388 OA
ATOM     16  H   UNL     1       7.039  -4.500  13.226  1.00  0.00     0.211 HD
ENDBRANCH  11  15
BRANCH  13  17
ATOM     17  O   UNL     1       9.801  -3.295  12.797  1.00  0.00    -0.387 OA
ATOM     18  H   UNL     1       9.142  -3.974  12.494  1.00  0.00     0.211 HD
ENDBRANCH  13  17
BRANCH  14  19
ATOM     19  O   UNL     1      11.306  -1.423  14.460  1.00  0.00    -0.385 OA
ATOM     20  H   UNL     1      11.371  -0.390  14.383  1.00  0.00     0.211 HD
ENDBRANCH  14  19
ENDBRANCH   7   8
ENDBRANCH   1   7
BRANCH   2  21
ATOM     21  O   UNL     1      11.670   1.112  17.862  1.00  0.00    -0.385 OA
ATOM     22  H   UNL     1      12.466   0.819  17.379  1.00  0.00     0.211 HD
ENDBRANCH   2  21
BRANCH   6  23
ATOM     23  O   UNL     1      12.468  -0.790  19.772  1.00  0.00    -0.453 OA
BRANCH  23  24
ATOM     24  C   UNL     1      13.801  -0.440  19.458  1.00  0.00     0.331 C 
ATOM     25  O   UNL     1      14.149   0.725  19.076  1.00  0.00    -0.247 OA
BRANCH  24  26
ATOM     26  C   UNL     1      14.897  -1.452  19.720  1.00  0.00     0.094 C 
ATOM     27  C   UNL     1      16.107  -1.399  19.174  1.00  0.00     0.016 C 
BRANCH  27  28
ATOM     28  C   UNL     1      17.322  -2.233  19.523  1.00  0.00    -0.021 A 
ATOM     29  C   UNL     1      17.127  -3.632  19.749  1.00  0.00     0.058 A 
ATOM     30  C   UNL     1      18.627  -1.743  19.439  1.00  0.00     0.012 A 
ATOM     31  C   UNL     1      18.245  -4.477  19.891  1.00  0.00     0.157 A 
ATOM     32  C   UNL     1      19.713  -2.568  19.663  1.00  0.00     0.051 A 
ATOM     33  C   UNL     1      19.543  -3.943  19.879  1.00  0.00     0.157 A 
BRANCH  31  34
ATOM     34  O   UNL     1      18.087  -5.834  20.125  1.00  0.00    -0.504 OA
ATOM     35  H   UNL     1      17.339  -6.196  20.705  1.00  0.00     0.293 HD
ENDBRANCH  31  34
BRANCH  33  36
ATOM     36  O   UNL     1      20.656  -4.774  20.111  1.00  0.00    -0.504 OA
ATOM     37  H   UNL     1      21.455  -4.456  20.620  1.00  0.00     0.293 HD
ENDBRANCH  33  36
ENDBRANCH  27  28
ENDBRANCH  24  26
ENDBRANCH  23  24
ENDBRANCH   6  23
BRANCH   3  38
ATOM     38  O   UNL     1       8.288  -0.086  18.686  1.00  0.00    -0.350 OA
BRANCH  38  39
ATOM     39  C   UNL     1       7.563   1.104  18.377  1.00  0.00     0.168 C 
BRANCH  39  40
ATOM     40  C   UNL     1       8.471   2.284  17.978  1.00  0.00     0.064 C 
BRANCH  40  41
ATOM     41  C   UNL     1       7.793   3.556  18.372  1.00  0.00    -0.042 A 
ATOM     42  C   UNL     1       8.001   4.716  17.649  1.00  0.00     0.054 A 
ATOM     43  C   UNL     1       7.064   3.613  19.557  1.00  0.00     0.008 A 
ATOM     44  C   UNL     1       7.677   5.948  18.215  1.00  0.00     0.157 A 
ATOM     45  C   UNL     1       6.702   4.830  20.124  1.00  0.00     0.050 A 
ATOM     46  C   UNL     1       7.054   5.998  19.460  1.00  0.00     0.157 A 
BRANCH  44  47
ATOM     47  O   UNL     1       8.036   7.107  17.521  1.00  0.00    -0.504 OA
ATOM     48  H   UNL     1       7.677   8.041  17.754  1.00  0.00     0.293 HD
ENDBRANCH  44  47
BRANCH  46  49
ATOM     49  O   UNL     1       6.743   7.237  19.996  1.00  0.00    -0.504 OA
ATOM     50  H   UNL     1       6.299   7.977  19.481  1.00  0.00     0.293 HD
ENDBRANCH  46  49
ENDBRANCH  40  41
ENDBRANCH  39  40
ENDBRANCH  38  39
ENDBRANCH   3  38
BRANCH   5  51
ATOM     51  C   UNL     1       9.329  -2.875  19.030  1.00  0.00     0.192 C 
BRANCH  51  52
ATOM     52  O   UNL     1       8.087  -2.675  19.752  1.00  0.00    -0.394 OA
ATOM     53  H   UNL     1       7.845  -1.711  19.506  1.00  0.00     0.210 HD
ENDBRANCH  51  52
ENDBRANCH   5  51
TORSDOF 20
ENDMDL
