MODEL 1
REMARK VINA RESULT:    -5.204      0.000      0.000
REMARK INTER + INTRA:          -7.163
REMARK INTER:                  -6.725
REMARK INTRA:                  -0.438
REMARK UNBOUND:                -0.438
REMARK SMILES CCO[C@H]1O[C@H](CO)[C@@H](O)[C@@H](O)[C@@H]1O
REMARK SMILES IDX 4 1 13 2 11 3 9 4 6 5 5 6 3 7 2 8 1 9 14 10 12 12 7 14 8 15
REMARK SMILES IDX 10 17
REMARK H PARENT 14 11 12 13 8 16 10 18
REMARK Flexibility Score: inf
ROOT
ATOM      1  C   UNL     1     233.486 240.464 241.189  1.00  0.00     0.281 C 
ATOM      2  C   UNL     1     232.580 239.539 240.336  1.00  0.00     0.202 C 
ATOM      3  C   UNL     1     232.792 239.838 238.834  1.00  0.00     0.179 C 
ATOM      4  C   UNL     1     234.235 240.325 238.535  1.00  0.00     0.177 C 
ATOM      5  C   UNL     1     235.208 239.828 239.638  1.00  0.00     0.178 C 
ATOM      6  O   UNL     1     234.886 240.340 240.927  1.00  0.00    -0.341 OA
ENDROOT
BRANCH   1   7
ATOM      7  O   UNL     1     233.202 240.315 242.573  1.00  0.00    -0.350 OA
BRANCH   7   8
ATOM      8  C   UNL     1     233.465 241.499 243.304  1.00  0.00     0.160 C 
ATOM      9  C   UNL     1     232.782 242.669 242.617  1.00  0.00     0.035 C 
ENDBRANCH   7   8
ENDBRANCH   1   7
BRANCH   2  10
ATOM     10  O   UNL     1     231.228 239.746 240.661  1.00  0.00    -0.385 OA
ATOM     11  H   UNL     1     230.992 239.079 241.357  1.00  0.00     0.211 HD
ENDBRANCH   2  10
BRANCH   3  12
ATOM     12  O   UNL     1     232.446 238.712 238.062  1.00  0.00    -0.387 OA
ATOM     13  H   UNL     1     231.485 238.796 237.823  1.00  0.00     0.211 HD
ENDBRANCH   3  12
BRANCH   5  14
ATOM     14  C   UNL     1     236.663 240.203 239.328  1.00  0.00     0.191 C 
BRANCH  14  15
ATOM     15  O   UNL     1     236.719 241.447 238.684  1.00  0.00    -0.394 OA
ATOM     16  H   UNL     1     237.667 241.579 238.423  1.00  0.00     0.210 HD
ENDBRANCH  14  15
ENDBRANCH   5  14
BRANCH   4  17
ATOM     17  O   UNL     1     234.642 239.872 237.266  1.00  0.00    -0.387 OA
ATOM     18  H   UNL     1     235.614 239.675 237.321  1.00  0.00     0.211 HD
ENDBRANCH   4  17
TORSDOF 7
ENDMDL
MODEL 2
REMARK VINA RESULT:    -4.910      1.779      5.005
REMARK INTER + INTRA:          -6.783
REMARK INTER:                  -6.347
REMARK INTRA:                  -0.436
REMARK UNBOUND:                -0.438
REMARK SMILES CCO[C@H]1O[C@H](CO)[C@@H](O)[C@@H](O)[C@@H]1O
REMARK SMILES IDX 4 1 13 2 11 3 9 4 6 5 5 6 3 7 2 8 1 9 14 10 12 12 7 14 8 15
REMARK SMILES IDX 10 17
REMARK H PARENT 14 11 12 13 8 16 10 18
REMARK Flexibility Score: inf
ROOT
ATOM      1  C   UNL     1     235.425 239.316 238.995  1.00  0.00     0.281 C 
ATOM      2  C   UNL     1     235.945 239.831 240.361  1.00  0.00     0.202 C 
ATOM      3  C   UNL     1     234.954 240.864 240.944  1.00  0.00     0.179 C 
ATOM      4  C   UNL     1     233.492 240.580 240.509  1.00  0.00     0.177 C 
ATOM      5  C   UNL     1     233.324 239.082 240.139  1.00  0.00     0.178 C 
ATOM      6  O   UNL     1     234.139 238.692 239.038  1.00  0.00    -0.341 OA
ENDROOT
BRANCH   1   7
ATOM      7  O   UNL     1     236.386 238.479 238.368  1.00  0.00    -0.350 OA
BRANCH   7   8
ATOM      8  C   UNL     1     236.419 238.659 236.964  1.00  0.00     0.160 C 
ATOM      9  C   UNL     1     236.378 240.146 236.652  1.00  0.00     0.035 C 
ENDBRANCH   7   8
ENDBRANCH   1   7
BRANCH   2  10
ATOM     10  O   UNL     1     237.206 240.435 240.207  1.00  0.00    -0.385 OA
ATOM     11  H   UNL     1     237.148 241.335 240.620  1.00  0.00     0.211 HD
ENDBRANCH   2  10
BRANCH   3  12
ATOM     12  O   UNL     1     235.085 240.924 242.345  1.00  0.00    -0.387 OA
ATOM     13  H   UNL     1     235.873 241.494 242.549  1.00  0.00     0.211 HD
ENDBRANCH   3  12
BRANCH   5  14
ATOM     14  C   UNL     1     231.868 238.737 239.800  1.00  0.00     0.191 C 
BRANCH  14  15
ATOM     15  O   UNL     1     231.121 238.569 240.973  1.00  0.00    -0.394 OA
ATOM     16  H   UNL     1     231.154 237.599 241.183  1.00  0.00     0.210 HD
ENDBRANCH  14  15
ENDBRANCH   5  14
BRANCH   4  17
ATOM     17  O   UNL     1     232.605 240.945 241.538  1.00  0.00    -0.387 OA
ATOM     18  H   UNL     1     233.132 240.997 242.378  1.00  0.00     0.211 HD
ENDBRANCH   4  17
TORSDOF 7
ENDMDL
MODEL 3
REMARK VINA RESULT:    -4.874      1.611      3.998
REMARK INTER + INTRA:          -6.736
REMARK INTER:                  -6.352
REMARK INTRA:                  -0.384
REMARK UNBOUND:                -0.438
REMARK SMILES CCO[C@H]1O[C@H](CO)[C@@H](O)[C@@H](O)[C@@H]1O
REMARK SMILES IDX 4 1 13 2 11 3 9 4 6 5 5 6 3 7 2 8 1 9 14 10 12 12 7 14 8 15
REMARK SMILES IDX 10 17
REMARK H PARENT 14 11 12 13 8 16 10 18
REMARK Flexibility Score: inf
ROOT
ATOM      1  C   UNL     1     233.285 238.960 239.073  1.00  0.00     0.281 C 
ATOM      2  C   UNL     1     232.360 239.885 239.906  1.00  0.00     0.202 C 
ATOM      3  C   UNL     1     233.065 240.284 241.222  1.00  0.00     0.179 C 
ATOM      4  C   UNL     1     234.608 240.346 241.062  1.00  0.00     0.177 C 
ATOM      5  C   UNL     1     234.983 240.586 239.574  1.00  0.00     0.178 C 
ATOM      6  O   UNL     1     234.547 239.533 238.720  1.00  0.00    -0.341 OA
ENDROOT
BRANCH   1   7
ATOM      7  O   UNL     1     232.606 238.458 237.930  1.00  0.00    -0.350 OA
BRANCH   7   8
ATOM      8  C   UNL     1     233.272 238.785 236.725  1.00  0.00     0.160 C 
ATOM      9  C   UNL     1     233.657 237.503 236.007  1.00  0.00     0.035 C 
ENDBRANCH   7   8
ENDBRANCH   1   7
BRANCH   2  10
ATOM     10  O   UNL     1     231.155 239.226 240.207  1.00  0.00    -0.385 OA
ATOM     11  H   UNL     1     230.557 239.344 239.425  1.00  0.00     0.211 HD
ENDBRANCH   2  10
BRANCH   3  12
ATOM     12  O   UNL     1     232.537 241.496 241.707  1.00  0.00    -0.387 OA
ATOM     13  H   UNL     1     231.638 241.302 242.083  1.00  0.00     0.211 HD
ENDBRANCH   3  12
BRANCH   5  14
ATOM     14  C   UNL     1     236.497 240.754 239.387  1.00  0.00     0.191 C 
BRANCH  14  15
ATOM     15  O   UNL     1     237.191 240.054 240.383  1.00  0.00    -0.394 OA
ATOM     16  H   UNL     1     237.458 239.189 239.976  1.00  0.00     0.210 HD
ENDBRANCH  14  15
ENDBRANCH   5  14
BRANCH   4  17
ATOM     17  O   UNL     1     235.136 241.361 241.881  1.00  0.00    -0.387 OA
ATOM     18  H   UNL     1     235.109 241.028 242.817  1.00  0.00     0.211 HD
ENDBRANCH   4  17
TORSDOF 7
ENDMDL
MODEL 4
REMARK VINA RESULT:    -4.836      1.683      2.301
REMARK INTER + INTRA:          -6.688
REMARK INTER:                  -6.252
REMARK INTRA:                  -0.435
REMARK UNBOUND:                -0.438
REMARK SMILES CCO[C@H]1O[C@H](CO)[C@@H](O)[C@@H](O)[C@@H]1O
REMARK SMILES IDX 4 1 13 2 11 3 9 4 6 5 5 6 3 7 2 8 1 9 14 10 12 12 7 14 8 15
REMARK SMILES IDX 10 17
REMARK H PARENT 14 11 12 13 8 16 10 18
REMARK Flexibility Score: inf
ROOT
ATOM      1  C   UNL     1     234.547 241.156 241.516  1.00  0.00     0.281 C 
ATOM      2  C   UNL     1     233.013 241.105 241.299  1.00  0.00     0.202 C 
ATOM      3  C   UNL     1     232.703 240.747 239.827  1.00  0.00     0.179 C 
ATOM      4  C   UNL     1     233.801 239.844 239.204  1.00  0.00     0.177 C 
ATOM      5  C   UNL     1     234.557 239.072 240.318  1.00  0.00     0.178 C 
ATOM      6  O   UNL     1     235.235 239.937 241.224  1.00  0.00    -0.341 OA
ENDROOT
BRANCH   1   7
ATOM      7  O   UNL     1     234.859 241.628 242.819  1.00  0.00    -0.350 OA
BRANCH   7   8
ATOM      8  C   UNL     1     234.600 240.657 243.817  1.00  0.00     0.160 C 
ATOM      9  C   UNL     1     233.761 241.287 244.916  1.00  0.00     0.035 C 
ENDBRANCH   7   8
ENDBRANCH   1   7
BRANCH   2  10
ATOM     10  O   UNL     1     232.435 242.350 241.603  1.00  0.00    -0.385 OA
ATOM     11  H   UNL     1     231.492 242.178 241.858  1.00  0.00     0.211 HD
ENDBRANCH   2  10
BRANCH   3  12
ATOM     12  O   UNL     1     231.424 240.166 239.728  1.00  0.00    -0.387 OA
ATOM     13  H   UNL     1     231.446 239.306 240.226  1.00  0.00     0.211 HD
ENDBRANCH   3  12
BRANCH   5  14
ATOM     14  C   UNL     1     235.585 238.091 239.737  1.00  0.00     0.191 C 
BRANCH  14  15
ATOM     15  O   UNL     1     234.975 236.863 239.448  1.00  0.00    -0.394 OA
ATOM     16  H   UNL     1     235.539 236.435 238.752  1.00  0.00     0.210 HD
ENDBRANCH  14  15
ENDBRANCH   5  14
BRANCH   4  17
ATOM     17  O   UNL     1     233.223 238.953 238.280  1.00  0.00    -0.387 OA
ATOM     18  H   UNL     1     232.364 238.641 238.669  1.00  0.00     0.211 HD
ENDBRANCH   4  17
TORSDOF 7
ENDMDL
MODEL 5
REMARK VINA RESULT:    -4.829      2.202      4.983
REMARK INTER + INTRA:          -6.678
REMARK INTER:                  -6.271
REMARK INTRA:                  -0.407
REMARK UNBOUND:                -0.438
REMARK SMILES CCO[C@H]1O[C@H](CO)[C@@H](O)[C@@H](O)[C@@H]1O
REMARK SMILES IDX 4 1 13 2 11 3 9 4 6 5 5 6 3 7 2 8 1 9 14 10 12 12 7 14 8 15
REMARK SMILES IDX 10 17
REMARK H PARENT 14 11 12 13 8 16 10 18
REMARK Flexibility Score: inf
ROOT
ATOM      1  C   UNL     1     235.569 238.716 239.279  1.00  0.00     0.281 C 
ATOM      2  C   UNL     1     236.002 239.542 240.517  1.00  0.00     0.202 C 
ATOM      3  C   UNL     1     235.050 240.745 240.704  1.00  0.00     0.179 C 
ATOM      4  C   UNL     1     233.615 240.438 240.196  1.00  0.00     0.177 C 
ATOM      5  C   UNL     1     233.360 238.907 240.205  1.00  0.00     0.178 C 
ATOM      6  O   UNL     1     234.238 238.197 239.338  1.00  0.00    -0.341 OA
ENDROOT
BRANCH   1   7
ATOM      7  O   UNL     1     236.513 237.691 238.997  1.00  0.00    -0.350 OA
BRANCH   7   8
ATOM      8  C   UNL     1     235.978 236.398 239.208  1.00  0.00     0.160 C 
ATOM      9  C   UNL     1     236.498 235.854 240.528  1.00  0.00     0.035 C 
ENDBRANCH   7   8
ENDBRANCH   1   7
BRANCH   2  10
ATOM     10  O   UNL     1     237.316 240.013 240.355  1.00  0.00    -0.385 OA
ATOM     11  H   UNL     1     237.334 240.945 240.694  1.00  0.00     0.211 HD
ENDBRANCH   2  10
BRANCH   3  12
ATOM     12  O   UNL     1     235.054 241.163 242.048  1.00  0.00    -0.387 OA
ATOM     13  H   UNL     1     234.743 240.399 242.601  1.00  0.00     0.211 HD
ENDBRANCH   3  12
BRANCH   5  14
ATOM     14  C   UNL     1     231.918 238.566 239.805  1.00  0.00     0.191 C 
BRANCH  14  15
ATOM     15  O   UNL     1     231.087 238.563 240.934  1.00  0.00    -0.394 OA
ATOM     16  H   UNL     1     231.467 239.237 241.556  1.00  0.00     0.210 HD
ENDBRANCH  14  15
ENDBRANCH   5  14
BRANCH   4  17
ATOM     17  O   UNL     1     232.669 241.109 240.993  1.00  0.00    -0.387 OA
ATOM     18  H   UNL     1     231.989 240.441 241.269  1.00  0.00     0.211 HD
ENDBRANCH   4  17
TORSDOF 7
ENDMDL
MODEL 6
REMARK VINA RESULT:    -4.737      1.989      5.413
REMARK INTER + INTRA:          -6.560
REMARK INTER:                  -6.186
REMARK INTRA:                  -0.373
REMARK UNBOUND:                -0.438
REMARK SMILES CCO[C@H]1O[C@H](CO)[C@@H](O)[C@@H](O)[C@@H]1O
REMARK SMILES IDX 4 1 13 2 11 3 9 4 6 5 5 6 3 7 2 8 1 9 14 10 12 12 7 14 8 15
REMARK SMILES IDX 10 17
REMARK H PARENT 14 11 12 13 8 16 10 18
REMARK Flexibility Score: inf
ROOT
ATOM      1  C   UNL     1     234.667 239.970 237.262  1.00  0.00     0.281 C 
ATOM      2  C   UNL     1     235.965 240.062 238.105  1.00  0.00     0.202 C 
ATOM      3  C   UNL     1     235.659 240.718 239.470  1.00  0.00     0.179 C 
ATOM      4  C   UNL     1     234.212 240.421 239.948  1.00  0.00     0.177 C 
ATOM      5  C   UNL     1     233.685 239.120 239.285  1.00  0.00     0.178 C 
ATOM      6  O   UNL     1     233.612 239.217 237.866  1.00  0.00    -0.341 OA
ENDROOT
BRANCH   1   7
ATOM      7  O   UNL     1     234.947 239.508 235.948  1.00  0.00    -0.350 OA
BRANCH   7   8
ATOM      8  C   UNL     1     233.916 238.681 235.440  1.00  0.00     0.160 C 
ATOM      9  C   UNL     1     233.963 238.706 233.921  1.00  0.00     0.035 C 
ENDBRANCH   7   8
ENDBRANCH   1   7
BRANCH   2  10
ATOM     10  O   UNL     1     236.931 240.829 237.430  1.00  0.00    -0.385 OA
ATOM     11  H   UNL     1     237.113 241.627 237.992  1.00  0.00     0.211 HD
ENDBRANCH   2  10
BRANCH   3  12
ATOM     12  O   UNL     1     236.619 240.327 240.423  1.00  0.00    -0.387 OA
ATOM     13  H   UNL     1     236.700 241.063 241.087  1.00  0.00     0.211 HD
ENDBRANCH   3  12
BRANCH   5  14
ATOM     14  C   UNL     1     232.295 238.735 239.808  1.00  0.00     0.191 C 
BRANCH  14  15
ATOM     15  O   UNL     1     231.515 239.882 240.009  1.00  0.00    -0.394 OA
ATOM     16  H   UNL     1     230.582 239.564 240.124  1.00  0.00     0.210 HD
ENDBRANCH  14  15
ENDBRANCH   5  14
BRANCH   4  17
ATOM     17  O   UNL     1     234.182 240.317 241.351  1.00  0.00    -0.387 OA
ATOM     18  H   UNL     1     234.143 241.240 241.715  1.00  0.00     0.211 HD
ENDBRANCH   4  17
TORSDOF 7
ENDMDL
MODEL 7
REMARK VINA RESULT:    -4.627      1.648      3.475
REMARK INTER + INTRA:          -6.417
REMARK INTER:                  -6.025
REMARK INTRA:                  -0.393
REMARK UNBOUND:                -0.438
REMARK SMILES CCO[C@H]1O[C@H](CO)[C@@H](O)[C@@H](O)[C@@H]1O
REMARK SMILES IDX 4 1 13 2 11 3 9 4 6 5 5 6 3 7 2 8 1 9 14 10 12 12 7 14 8 15
REMARK SMILES IDX 10 17
REMARK H PARENT 14 11 12 13 8 16 10 18
REMARK Flexibility Score: inf
ROOT
ATOM      1  C   UNL     1     234.559 239.453 239.900  1.00  0.00     0.281 C 
ATOM      2  C   UNL     1     235.602 240.478 239.385  1.00  0.00     0.202 C 
ATOM      3  C   UNL     1     236.373 239.882 238.185  1.00  0.00     0.179 C 
ATOM      4  C   UNL     1     235.503 238.890 237.368  1.00  0.00     0.177 C 
ATOM      5  C   UNL     1     233.996 239.199 237.578  1.00  0.00     0.178 C 
ATOM      6  O   UNL     1     233.588 239.047 238.933  1.00  0.00    -0.341 OA
ENDROOT
BRANCH   1   7
ATOM      7  O   UNL     1     233.941 239.915 241.093  1.00  0.00    -0.350 OA
BRANCH   7   8
ATOM      8  C   UNL     1     233.033 240.974 240.851  1.00  0.00     0.160 C 
ATOM      9  C   UNL     1     233.149 241.994 241.972  1.00  0.00     0.035 C 
ENDBRANCH   7   8
ENDBRANCH   1   7
BRANCH   2  10
ATOM     10  O   UNL     1     236.514 240.801 240.405  1.00  0.00    -0.385 OA
ATOM     11  H   UNL     1     236.315 240.204 241.172  1.00  0.00     0.211 HD
ENDBRANCH   2  10
BRANCH   3  12
ATOM     12  O   UNL     1     236.890 240.915 237.380  1.00  0.00    -0.387 OA
ATOM     13  H   UNL     1     237.057 240.537 236.476  1.00  0.00     0.211 HD
ENDBRANCH   3  12
BRANCH   5  14
ATOM     14  C   UNL     1     233.103 238.304 236.708  1.00  0.00     0.191 C 
BRANCH  14  15
ATOM     15  O   UNL     1     233.238 238.648 235.356  1.00  0.00    -0.394 OA
ATOM     16  H   UNL     1     234.089 239.155 235.285  1.00  0.00     0.210 HD
ENDBRANCH  14  15
ENDBRANCH   5  14
BRANCH   4  17
ATOM     17  O   UNL     1     235.845 238.961 236.004  1.00  0.00    -0.387 OA
ATOM     18  H   UNL     1     236.796 238.688 235.923  1.00  0.00     0.211 HD
ENDBRANCH   4  17
TORSDOF 7
ENDMDL
MODEL 8
REMARK VINA RESULT:    -4.520      9.044     11.173
REMARK INTER + INTRA:          -6.279
REMARK INTER:                  -5.854
REMARK INTRA:                  -0.425
REMARK UNBOUND:                -0.438
REMARK SMILES CCO[C@H]1O[C@H](CO)[C@@H](O)[C@@H](O)[C@@H]1O
REMARK SMILES IDX 4 1 13 2 11 3 9 4 6 5 5 6 3 7 2 8 1 9 14 10 12 12 7 14 8 15
REMARK SMILES IDX 10 17
REMARK H PARENT 14 11 12 13 8 16 10 18
REMARK Flexibility Score: inf
ROOT
ATOM      1  C   UNL     1     235.809 238.758 230.624  1.00  0.00     0.281 C 
ATOM      2  C   UNL     1     235.224 239.264 229.280  1.00  0.00     0.202 C 
ATOM      3  C   UNL     1     236.003 238.640 228.100  1.00  0.00     0.179 C 
ATOM      4  C   UNL     1     236.557 237.232 228.447  1.00  0.00     0.177 C 
ATOM      5  C   UNL     1     235.719 236.592 229.586  1.00  0.00     0.178 C 
ATOM      6  O   UNL     1     235.774 237.339 230.797  1.00  0.00    -0.341 OA
ENDROOT
BRANCH   1   7
ATOM      7  O   UNL     1     235.210 239.429 231.723  1.00  0.00    -0.350 OA
BRANCH   7   8
ATOM      8  C   UNL     1     234.152 238.683 232.295  1.00  0.00     0.160 C 
ATOM      9  C   UNL     1     232.840 239.408 232.043  1.00  0.00     0.035 C 
ENDBRANCH   7   8
ENDBRANCH   1   7
BRANCH   2  10
ATOM     10  O   UNL     1     235.315 240.665 229.205  1.00  0.00    -0.385 OA
ATOM     11  H   UNL     1     234.456 241.029 229.542  1.00  0.00     0.211 HD
ENDBRANCH   2  10
BRANCH   3  12
ATOM     12  O   UNL     1     235.199 238.619 226.945  1.00  0.00    -0.387 OA
ATOM     13  H   UNL     1     234.819 237.705 226.860  1.00  0.00     0.211 HD
ENDBRANCH   3  12
BRANCH   5  14
ATOM     14  C   UNL     1     236.171 235.157 229.891  1.00  0.00     0.191 C 
BRANCH  14  15
ATOM     15  O   UNL     1     235.534 234.253 229.030  1.00  0.00    -0.394 OA
ATOM     16  H   UNL     1     234.591 234.200 229.336  1.00  0.00     0.210 HD
ENDBRANCH  14  15
ENDBRANCH   5  14
BRANCH   4  17
ATOM     17  O   UNL     1     236.550 236.417 227.300  1.00  0.00    -0.387 OA
ATOM     18  H   UNL     1     236.028 236.893 226.602  1.00  0.00     0.211 HD
ENDBRANCH   4  17
TORSDOF 7
ENDMDL
MODEL 9
REMARK VINA RESULT:    -4.499      2.009      4.082
REMARK INTER + INTRA:          -6.252
REMARK INTER:                  -5.825
REMARK INTRA:                  -0.427
REMARK UNBOUND:                -0.438
REMARK SMILES CCO[C@H]1O[C@H](CO)[C@@H](O)[C@@H](O)[C@@H]1O
REMARK SMILES IDX 4 1 13 2 11 3 9 4 6 5 5 6 3 7 2 8 1 9 14 10 12 12 7 14 8 15
REMARK SMILES IDX 10 17
REMARK H PARENT 14 11 12 13 8 16 10 18
REMARK Flexibility Score: inf
ROOT
ATOM      1  C   UNL     1     235.375 238.653 240.320  1.00  0.00     0.281 C 
ATOM      2  C   UNL     1     234.650 238.465 238.963  1.00  0.00     0.202 C 
ATOM      3  C   UNL     1     233.124 238.370 239.192  1.00  0.00     0.179 C 
ATOM      4  C   UNL     1     232.668 239.190 240.428  1.00  0.00     0.177 C 
ATOM      5  C   UNL     1     233.691 240.318 240.730  1.00  0.00     0.178 C 
ATOM      6  O   UNL     1     234.984 239.817 241.053  1.00  0.00    -0.341 OA
ENDROOT
BRANCH   1   7
ATOM      7  O   UNL     1     236.785 238.594 240.155  1.00  0.00    -0.350 OA
BRANCH   7   8
ATOM      8  C   UNL     1     237.425 237.950 241.241  1.00  0.00     0.160 C 
ATOM      9  C   UNL     1     237.073 236.471 241.218  1.00  0.00     0.035 C 
ENDBRANCH   7   8
ENDBRANCH   1   7
BRANCH   2  10
ATOM     10  O   UNL     1     235.097 237.292 238.330  1.00  0.00    -0.385 OA
ATOM     11  H   UNL     1     234.305 236.873 237.903  1.00  0.00     0.211 HD
ENDBRANCH   2  10
BRANCH   3  12
ATOM     12  O   UNL     1     232.434 238.750 238.025  1.00  0.00    -0.387 OA
ATOM     13  H   UNL     1     233.109 238.882 237.307  1.00  0.00     0.211 HD
ENDBRANCH   3  12
BRANCH   5  14
ATOM     14  C   UNL     1     233.226 241.216 241.885  1.00  0.00     0.191 C 
BRANCH  14  15
ATOM     15  O   UNL     1     232.416 242.251 241.402  1.00  0.00    -0.394 OA
ATOM     16  H   UNL     1     232.618 243.044 241.964  1.00  0.00     0.210 HD
ENDBRANCH  14  15
ENDBRANCH   5  14
BRANCH   4  17
ATOM     17  O   UNL     1     231.385 239.722 240.206  1.00  0.00    -0.387 OA
ATOM     18  H   UNL     1     231.426 240.250 239.366  1.00  0.00     0.211 HD
ENDBRANCH   4  17
TORSDOF 7
ENDMDL
