MODEL 1
REMARK VINA RESULT:    -3.517      0.000      0.000
REMARK INTER + INTRA:          -5.223
REMARK INTER:                  -5.367
REMARK INTRA:                   0.145
REMARK UNBOUND:                 0.145
REMARK SMILES CC1=CCC[C@H](C)C(=O)C[C@H](C(C)C)C(=O)C1
REMARK SMILES IDX 8 1 9 2 6 3 7 4 5 5 4 6 3 7 2 8 1 9 10 11 11 12 15 13 16 14
REMARK SMILES IDX 17 15 12 17 13 18 14 19
REMARK H PARENT
REMARK Flexibility Score: 70.00
ROOT
ATOM      1  C   UNL     1       9.363  -7.014  41.478  1.00  0.00     0.136 C 
ATOM      2  O   UNL     1       9.832  -7.988  40.906  1.00  0.00    -0.299 OA
ENDROOT
BRANCH   1   3
ATOM      3  C   UNL     1       8.088  -7.194  42.283  1.00  0.00     0.053 C 
ATOM      4  C   UNL     1       7.968  -8.630  42.814  1.00  0.00     0.016 C 
BRANCH   3   5
ATOM      5  C   UNL     1       8.042  -6.165  43.436  1.00  0.00     0.015 C 
BRANCH   5   6
ATOM      6  C   UNL     1       7.073  -4.995  43.155  1.00  0.00     0.028 C 
BRANCH   6   7
ATOM      7  C   UNL     1       7.785  -3.663  43.142  1.00  0.00    -0.028 C 
ATOM      8  C   UNL     1       8.255  -3.040  42.035  1.00  0.00    -0.070 CG0
ATOM      9  C   UNL     1       8.971  -1.726  42.211  1.00  0.00     0.039 C 
ATOM     10  G   UNL     1       8.105  -3.606  40.633  1.00  0.00     0.000 G0
ENDBRANCH   6   7
ENDBRANCH   5   6
ENDBRANCH   3   5
ENDBRANCH   1   3
BRANCH   1  11
ATOM     11  C   UNL     1      10.129  -5.705  41.372  1.00  0.00     0.087 C 
BRANCH  11  12
ATOM     12  C   UNL     1      10.225  -5.044  39.968  1.00  0.00     0.066 C 
BRANCH  12  13
ATOM     13  C   UNL     1       9.434  -3.745  39.898  1.00  0.00     0.140 C 
ATOM     14  O   UNL     1       9.843  -2.823  39.205  1.00  0.00    -0.299 OA
BRANCH  13  15
ATOM     15  C   UNL     1       8.112  -3.606  40.623  1.00  0.00     0.106 CG0
ATOM     16  G   UNL     1       8.267  -3.015  42.014  1.00  0.00     0.000 G0
ENDBRANCH  13  15
ENDBRANCH  12  13
BRANCH  12  17
ATOM     17  C   UNL     1      11.712  -4.859  39.522  1.00  0.00    -0.006 C 
ATOM     18  C   UNL     1      12.554  -4.202  40.628  1.00  0.00     0.008 C 
ATOM     19  C   UNL     1      12.399  -6.150  39.043  1.00  0.00     0.008 C 
ENDBRANCH  12  17
ENDBRANCH  11  12
ENDBRANCH   1  11
TORSDOF 1
ENDMDL
MODEL 2
REMARK VINA RESULT:    -3.489      2.276      4.406
REMARK INTER + INTRA:          -5.180
REMARK INTER:                  -5.263
REMARK INTRA:                   0.083
REMARK UNBOUND:                 0.145
REMARK SMILES CC1=CCC[C@H](C)C(=O)C[C@H](C(C)C)C(=O)C1
REMARK SMILES IDX 8 1 9 2 6 3 7 4 5 5 4 6 3 7 2 8 1 9 10 11 11 12 15 13 16 14
REMARK SMILES IDX 17 15 12 17 13 18 14 19
REMARK H PARENT
REMARK Flexibility Score: 70.00
ROOT
ATOM      1  C   UNL     1       8.064  -4.125  42.720  1.00  0.00     0.136 C 
ATOM      2  O   UNL     1       7.084  -4.509  43.343  1.00  0.00    -0.299 OA
ENDROOT
BRANCH   1   3
ATOM      3  C   UNL     1       8.964  -5.166  42.079  1.00  0.00     0.053 C 
ATOM      4  C   UNL     1       9.105  -6.404  42.976  1.00  0.00     0.016 C 
BRANCH   3   5
ATOM      5  C   UNL     1       8.420  -5.545  40.682  1.00  0.00     0.015 C 
BRANCH   5   6
ATOM      6  C   UNL     1       8.692  -4.458  39.618  1.00  0.00     0.028 C 
BRANCH   6   7
ATOM      7  C   UNL     1      10.170  -4.201  39.440  1.00  0.00    -0.028 C 
ATOM      8  C   UNL     1      10.818  -3.076  39.825  1.00  0.00    -0.070 CG0
ATOM      9  C   UNL     1      12.295  -2.975  39.540  1.00  0.00     0.039 C 
ATOM     10  G   UNL     1      10.129  -1.911  40.517  1.00  0.00     0.000 G0
ENDBRANCH   6   7
ENDBRANCH   5   6
ENDBRANCH   3   5
ENDBRANCH   1   3
BRANCH   1  11
ATOM     11  C   UNL     1       8.273  -2.624  42.602  1.00  0.00     0.087 C 
BRANCH  11  12
ATOM     12  C   UNL     1       9.622  -2.046  43.117  1.00  0.00     0.066 C 
BRANCH  12  13
ATOM     13  C   UNL     1      10.584  -1.748  41.974  1.00  0.00     0.140 C 
ATOM     14  O   UNL     1      11.742  -1.441  42.222  1.00  0.00    -0.299 OA
BRANCH  13  15
ATOM     15  C   UNL     1      10.141  -1.894  40.534  1.00  0.00     0.106 CG0
ATOM     16  G   UNL     1      10.809  -3.064  39.831  1.00  0.00     0.000 G0
ENDBRANCH  13  15
ENDBRANCH  12  13
BRANCH  12  17
ATOM     17  C   UNL     1       9.398  -0.807  44.043  1.00  0.00    -0.006 C 
ATOM     18  C   UNL     1       9.074   0.455  43.227  1.00  0.00     0.008 C 
ATOM     19  C   UNL     1       8.331  -1.011  45.133  1.00  0.00     0.008 C 
ENDBRANCH  12  17
ENDBRANCH  11  12
ENDBRANCH   1  11
TORSDOF 1
ENDMDL
MODEL 3
REMARK VINA RESULT:    -3.475      3.236      5.855
REMARK INTER + INTRA:          -5.159
REMARK INTER:                  -4.942
REMARK INTRA:                  -0.217
REMARK UNBOUND:                 0.145
REMARK SMILES CC1=CCC[C@H](C)C(=O)C[C@H](C(C)C)C(=O)C1
REMARK SMILES IDX 8 1 9 2 6 3 7 4 5 5 4 6 3 7 2 8 1 9 10 11 11 12 15 13 16 14
REMARK SMILES IDX 17 15 12 17 13 18 14 19
REMARK H PARENT
REMARK Flexibility Score: 70.00
ROOT
ATOM      1  C   UNL     1       8.813  -1.791  42.188  1.00  0.00     0.136 C 
ATOM      2  O   UNL     1       8.571  -1.644  40.998  1.00  0.00    -0.299 OA
ENDROOT
BRANCH   1   3
ATOM      3  C   UNL     1       9.057  -3.197  42.707  1.00  0.00     0.053 C 
ATOM      4  C   UNL     1       7.734  -3.955  42.892  1.00  0.00     0.016 C 
BRANCH   3   5
ATOM      5  C   UNL     1      10.007  -3.954  41.750  1.00  0.00     0.015 C 
BRANCH   5   6
ATOM      6  C   UNL     1      11.498  -3.750  42.102  1.00  0.00     0.028 C 
BRANCH   6   7
ATOM      7  C   UNL     1      12.167  -2.765  41.172  1.00  0.00    -0.028 C 
ATOM      8  C   UNL     1      12.616  -1.538  41.528  1.00  0.00    -0.070 CG0
ATOM      9  C   UNL     1      13.232  -0.671  40.461  1.00  0.00     0.039 C 
ATOM     10  G   UNL     1      12.517  -0.992  42.943  1.00  0.00     0.000 G0
ENDBRANCH   6   7
ENDBRANCH   5   6
ENDBRANCH   3   5
ENDBRANCH   1   3
BRANCH   1  11
ATOM     11  C   UNL     1       8.894  -0.538  43.045  1.00  0.00     0.087 C 
BRANCH  11  12
ATOM     12  C   UNL     1      10.161  -0.355  43.928  1.00  0.00     0.066 C 
BRANCH  12  13
ATOM     13  C   UNL     1      11.384   0.008  43.096  1.00  0.00     0.140 C 
ATOM     14  O   UNL     1      11.465   1.120  42.591  1.00  0.00    -0.299 OA
BRANCH  13  15
ATOM     15  C   UNL     1      12.530  -0.969  42.942  1.00  0.00     0.106 CG0
ATOM     16  G   UNL     1      12.629  -1.539  41.537  1.00  0.00     0.000 G0
ENDBRANCH  13  15
ENDBRANCH  12  13
BRANCH  12  17
ATOM     17  C   UNL     1       9.909   0.662  45.088  1.00  0.00    -0.006 C 
ATOM     18  C   UNL     1       8.429   1.072  45.166  1.00  0.00     0.008 C 
ATOM     19  C   UNL     1      10.390   0.183  46.469  1.00  0.00     0.008 C 
ENDBRANCH  12  17
ENDBRANCH  11  12
ENDBRANCH   1  11
TORSDOF 1
ENDMDL
MODEL 4
REMARK VINA RESULT:    -3.443      2.393      5.087
REMARK INTER + INTRA:          -5.109
REMARK INTER:                  -4.933
REMARK INTRA:                  -0.176
REMARK UNBOUND:                 0.145
REMARK SMILES CC1=CCC[C@H](C)C(=O)C[C@H](C(C)C)C(=O)C1
REMARK SMILES IDX 8 1 9 2 6 3 7 4 5 5 4 6 3 7 2 8 1 9 10 11 11 12 15 13 16 14
REMARK SMILES IDX 17 15 12 17 13 18 14 19
REMARK H PARENT
REMARK Flexibility Score: 70.00
ROOT
ATOM      1  C   UNL     1       8.979  -1.323  41.069  1.00  0.00     0.136 C 
ATOM      2  O   UNL     1       8.608  -1.487  42.223  1.00  0.00    -0.299 OA
ENDROOT
BRANCH   1   3
ATOM      3  C   UNL     1      10.360  -0.740  40.831  1.00  0.00     0.053 C 
ATOM      4  C   UNL     1      10.353   0.786  41.004  1.00  0.00     0.016 C 
BRANCH   3   5
ATOM      5  C   UNL     1      11.385  -1.407  41.778  1.00  0.00     0.015 C 
BRANCH   5   6
ATOM      6  C   UNL     1      11.786  -2.828  41.321  1.00  0.00     0.028 C 
BRANCH   6   7
ATOM      7  C   UNL     1      11.149  -3.896  42.177  1.00  0.00    -0.028 C 
ATOM      8  C   UNL     1      10.282  -4.837  41.734  1.00  0.00    -0.070 CG0
ATOM      9  C   UNL     1       9.718  -5.811  42.737  1.00  0.00     0.039 C 
ATOM     10  G   UNL     1       9.844  -4.951  40.283  1.00  0.00     0.000 G0
ENDBRANCH   6   7
ENDBRANCH   5   6
ENDBRANCH   3   5
ENDBRANCH   1   3
BRANCH   1  11
ATOM     11  C   UNL     1       8.035  -1.765  39.963  1.00  0.00     0.087 C 
BRANCH  11  12
ATOM     12  C   UNL     1       8.427  -3.030  39.149  1.00  0.00     0.066 C 
BRANCH  12  13
ATOM     13  C   UNL     1       8.507  -4.270  40.032  1.00  0.00     0.140 C 
ATOM     14  O   UNL     1       7.482  -4.749  40.496  1.00  0.00    -0.299 OA
BRANCH  13  15
ATOM     15  C   UNL     1       9.834  -4.953  40.284  1.00  0.00     0.106 CG0
ATOM     16  G   UNL     1      10.275  -4.856  41.735  1.00  0.00     0.000 G0
ENDBRANCH  13  15
ENDBRANCH  12  13
BRANCH  12  17
ATOM     17  C   UNL     1       7.485  -3.236  37.920  1.00  0.00    -0.006 C 
ATOM     18  C   UNL     1       6.472  -2.087  37.787  1.00  0.00     0.008 C 
ATOM     19  C   UNL     1       8.218  -3.441  36.582  1.00  0.00     0.008 C 
ENDBRANCH  12  17
ENDBRANCH  11  12
ENDBRANCH   1  11
TORSDOF 1
ENDMDL
MODEL 5
REMARK VINA RESULT:    -3.350     14.509     16.486
REMARK INTER + INTRA:          -4.968
REMARK INTER:                  -4.742
REMARK INTRA:                  -0.226
REMARK UNBOUND:                 0.145
REMARK SMILES CC1=CCC[C@H](C)C(=O)C[C@H](C(C)C)C(=O)C1
REMARK SMILES IDX 8 1 9 2 6 3 7 4 5 5 4 6 3 7 2 8 1 9 10 11 11 12 15 13 16 14
REMARK SMILES IDX 17 15 12 17 13 18 14 19
REMARK H PARENT
REMARK Flexibility Score: 70.00
ROOT
ATOM      1  C   UNL     1      21.141 -14.142  45.587  1.00  0.00     0.136 C 
ATOM      2  O   UNL     1      19.944 -13.967  45.763  1.00  0.00    -0.299 OA
ENDROOT
BRANCH   1   3
ATOM      3  C   UNL     1      22.035 -14.302  46.804  1.00  0.00     0.053 C 
ATOM      4  C   UNL     1      23.189 -15.274  46.518  1.00  0.00     0.016 C 
BRANCH   3   5
ATOM      5  C   UNL     1      22.564 -12.920  47.255  1.00  0.00     0.015 C 
BRANCH   5   6
ATOM      6  C   UNL     1      24.092 -12.779  47.078  1.00  0.00     0.028 C 
BRANCH   6   7
ATOM      7  C   UNL     1      24.452 -11.609  46.193  1.00  0.00    -0.028 C 
ATOM      8  C   UNL     1      24.759 -11.693  44.876  1.00  0.00    -0.070 CG0
ATOM      9  C   UNL     1      25.125 -10.424  44.151  1.00  0.00     0.039 C 
ATOM     10  G   UNL     1      24.763 -13.001  44.102  1.00  0.00     0.000 G0
ENDBRANCH   6   7
ENDBRANCH   5   6
ENDBRANCH   3   5
ENDBRANCH   1   3
BRANCH   1  11
ATOM     11  C   UNL     1      21.629 -14.232  44.150  1.00  0.00     0.087 C 
BRANCH  11  12
ATOM     12  C   UNL     1      22.198 -12.936  43.504  1.00  0.00     0.066 C 
BRANCH  12  13
ATOM     13  C   UNL     1      23.650 -13.106  43.076  1.00  0.00     0.140 C 
ATOM     14  O   UNL     1      23.917 -13.267  41.892  1.00  0.00    -0.299 OA
BRANCH  13  15
ATOM     15  C   UNL     1      24.770 -13.010  44.089  1.00  0.00     0.106 CG0
ATOM     16  G   UNL     1      24.737 -11.711  44.876  1.00  0.00     0.000 G0
ENDBRANCH  13  15
ENDBRANCH  12  13
BRANCH  12  17
ATOM     17  C   UNL     1      21.289 -12.432  42.337  1.00  0.00    -0.006 C 
ATOM     18  C   UNL     1      19.904 -13.098  42.373  1.00  0.00     0.008 C 
ATOM     19  C   UNL     1      21.129 -10.902  42.270  1.00  0.00     0.008 C 
ENDBRANCH  12  17
ENDBRANCH  11  12
ENDBRANCH   1  11
TORSDOF 1
ENDMDL
MODEL 6
REMARK VINA RESULT:    -3.297      1.969      4.825
REMARK INTER + INTRA:          -4.887
REMARK INTER:                  -5.352
REMARK INTRA:                   0.465
REMARK UNBOUND:                 0.145
REMARK SMILES CC1=CCC[C@H](C)C(=O)C[C@H](C(C)C)C(=O)C1
REMARK SMILES IDX 8 1 9 2 6 3 7 4 5 5 4 6 3 7 2 8 1 9 10 11 11 12 15 13 16 14
REMARK SMILES IDX 17 15 12 17 13 18 14 19
REMARK H PARENT
REMARK Flexibility Score: 70.00
ROOT
ATOM      1  C   UNL     1       8.380  -1.902  40.733  1.00  0.00     0.136 C 
ATOM      2  O   UNL     1       8.283  -1.938  39.514  1.00  0.00    -0.299 OA
ENDROOT
BRANCH   1   3
ATOM      3  C   UNL     1       8.926  -0.641  41.378  1.00  0.00     0.053 C 
ATOM      4  C   UNL     1       8.091   0.586  40.984  1.00  0.00     0.016 C 
BRANCH   3   5
ATOM      5  C   UNL     1       8.979  -0.814  42.914  1.00  0.00     0.015 C 
BRANCH   5   6
ATOM      6  C   UNL     1      10.364  -1.281  43.415  1.00  0.00     0.028 C 
BRANCH   6   7
ATOM      7  C   UNL     1      11.358  -1.411  42.285  1.00  0.00    -0.028 C 
ATOM      8  C   UNL     1      11.652  -2.561  41.634  1.00  0.00    -0.070 CG0
ATOM      9  C   UNL     1      12.697  -2.514  40.548  1.00  0.00     0.039 C 
ATOM     10  G   UNL     1      10.991  -3.892  41.951  1.00  0.00     0.000 G0
ENDBRANCH   6   7
ENDBRANCH   5   6
ENDBRANCH   3   5
ENDBRANCH   1   3
BRANCH   1  11
ATOM     11  C   UNL     1       7.897  -3.118  41.507  1.00  0.00     0.087 C 
BRANCH  11  12
ATOM     12  C   UNL     1       8.540  -4.491  41.159  1.00  0.00     0.066 C 
BRANCH  12  13
ATOM     13  C   UNL     1      10.030  -4.362  40.869  1.00  0.00     0.140 C 
ATOM     14  O   UNL     1      10.448  -4.583  39.741  1.00  0.00    -0.299 OA
BRANCH  13  15
ATOM     15  C   UNL     1      10.988  -3.898  41.946  1.00  0.00     0.106 CG0
ATOM     16  G   UNL     1      11.644  -2.569  41.612  1.00  0.00     0.000 G0
ENDBRANCH  13  15
ENDBRANCH  12  13
BRANCH  12  17
ATOM     17  C   UNL     1       8.239  -5.560  42.259  1.00  0.00    -0.006 C 
ATOM     18  C   UNL     1       7.132  -5.087  43.216  1.00  0.00     0.008 C 
ATOM     19  C   UNL     1       7.892  -6.956  41.712  1.00  0.00     0.008 C 
ENDBRANCH  12  17
ENDBRANCH  11  12
ENDBRANCH   1  11
TORSDOF 1
ENDMDL
MODEL 7
REMARK VINA RESULT:    -3.290      3.142      5.805
REMARK INTER + INTRA:          -4.876
REMARK INTER:                  -5.060
REMARK INTRA:                   0.184
REMARK UNBOUND:                 0.145
REMARK SMILES CC1=CCC[C@H](C)C(=O)C[C@H](C(C)C)C(=O)C1
REMARK SMILES IDX 8 1 9 2 6 3 7 4 5 5 4 6 3 7 2 8 1 9 10 11 11 12 15 13 16 14
REMARK SMILES IDX 17 15 12 17 13 18 14 19
REMARK H PARENT
REMARK Flexibility Score: 70.00
ROOT
ATOM      1  C   UNL     1       9.086  -0.217  43.436  1.00  0.00     0.136 C 
ATOM      2  O   UNL     1       8.641   0.444  42.508  1.00  0.00    -0.299 OA
ENDROOT
BRANCH   1   3
ATOM      3  C   UNL     1       9.616   0.517  44.655  1.00  0.00     0.053 C 
ATOM      4  C   UNL     1       9.560  -0.375  45.904  1.00  0.00     0.016 C 
BRANCH   3   5
ATOM      5  C   UNL     1      11.056   1.015  44.386  1.00  0.00     0.015 C 
BRANCH   5   6
ATOM      6  C   UNL     1      12.096  -0.127  44.405  1.00  0.00     0.028 C 
BRANCH   6   7
ATOM      7  C   UNL     1      12.937  -0.145  43.149  1.00  0.00    -0.028 C 
ATOM      8  C   UNL     1      12.857  -1.078  42.171  1.00  0.00    -0.070 CG0
ATOM      9  C   UNL     1      13.797  -0.958  40.998  1.00  0.00     0.039 C 
ATOM     10  G   UNL     1      11.878  -2.240  42.204  1.00  0.00     0.000 G0
ENDBRANCH   6   7
ENDBRANCH   5   6
ENDBRANCH   3   5
ENDBRANCH   1   3
BRANCH   1  11
ATOM     11  C   UNL     1       9.025  -1.730  43.308  1.00  0.00     0.087 C 
BRANCH  11  12
ATOM     12  C   UNL     1       9.245  -2.338  41.894  1.00  0.00     0.066 C 
BRANCH  12  13
ATOM     13  C   UNL     1      10.632  -2.022  41.350  1.00  0.00     0.140 C 
ATOM     14  O   UNL     1      10.747  -1.524  40.239  1.00  0.00    -0.299 OA
BRANCH  13  15
ATOM     15  C   UNL     1      11.865  -2.257  42.196  1.00  0.00     0.106 CG0
ATOM     16  G   UNL     1      12.832  -1.086  42.158  1.00  0.00     0.000 G0
ENDBRANCH  13  15
ENDBRANCH  12  13
BRANCH  12  17
ATOM     17  C   UNL     1       8.933  -3.870  41.874  1.00  0.00    -0.006 C 
ATOM     18  C   UNL     1       7.891  -4.247  42.940  1.00  0.00     0.008 C 
ATOM     19  C   UNL     1       8.495  -4.413  40.503  1.00  0.00     0.008 C 
ENDBRANCH  12  17
ENDBRANCH  11  12
ENDBRANCH   1  11
TORSDOF 1
ENDMDL
MODEL 8
REMARK VINA RESULT:    -3.267     14.958     16.907
REMARK INTER + INTRA:          -4.841
REMARK INTER:                  -5.135
REMARK INTRA:                   0.293
REMARK UNBOUND:                 0.145
REMARK SMILES CC1=CCC[C@H](C)C(=O)C[C@H](C(C)C)C(=O)C1
REMARK SMILES IDX 8 1 9 2 6 3 7 4 5 5 4 6 3 7 2 8 1 9 10 11 11 12 15 13 16 14
REMARK SMILES IDX 17 15 12 17 13 18 14 19
REMARK H PARENT
REMARK Flexibility Score: 70.00
ROOT
ATOM      1  C   UNL     1      21.030 -14.086  45.751  1.00  0.00     0.136 C 
ATOM      2  O   UNL     1      19.968 -14.494  46.200  1.00  0.00    -0.299 OA
ENDROOT
BRANCH   1   3
ATOM      3  C   UNL     1      20.997 -12.983  44.707  1.00  0.00     0.053 C 
ATOM      4  C   UNL     1      19.949 -13.280  43.624  1.00  0.00     0.016 C 
BRANCH   3   5
ATOM      5  C   UNL     1      20.729 -11.621  45.388  1.00  0.00     0.015 C 
BRANCH   5   6
ATOM      6  C   UNL     1      21.952 -10.678  45.341  1.00  0.00     0.028 C 
BRANCH   6   7
ATOM      7  C   UNL     1      22.870 -11.003  44.185  1.00  0.00    -0.028 C 
ATOM      8  C   UNL     1      24.129 -11.488  44.302  1.00  0.00    -0.070 CG0
ATOM      9  C   UNL     1      24.917 -11.726  43.039  1.00  0.00     0.039 C 
ATOM     10  G   UNL     1      24.786 -11.791  45.638  1.00  0.00     0.000 G0
ENDBRANCH   6   7
ENDBRANCH   5   6
ENDBRANCH   3   5
ENDBRANCH   1   3
BRANCH   1  11
ATOM     11  C   UNL     1      22.305 -14.691  46.315  1.00  0.00     0.087 C 
BRANCH  11  12
ATOM     12  C   UNL     1      23.656 -14.168  45.751  1.00  0.00     0.066 C 
BRANCH  12  13
ATOM     13  C   UNL     1      24.089 -12.872  46.424  1.00  0.00     0.140 C 
ATOM     14  O   UNL     1      23.905 -12.723  47.624  1.00  0.00    -0.299 OA
BRANCH  13  15
ATOM     15  C   UNL     1      24.804 -11.795  45.637  1.00  0.00     0.106 CG0
ATOM     16  G   UNL     1      24.128 -11.495  44.309  1.00  0.00     0.000 G0
ENDBRANCH  13  15
ENDBRANCH  12  13
BRANCH  12  17
ATOM     17  C   UNL     1      24.766 -15.267  45.810  1.00  0.00    -0.006 C 
ATOM     18  C   UNL     1      24.733 -16.031  47.144  1.00  0.00     0.008 C 
ATOM     19  C   UNL     1      24.736 -16.266  44.639  1.00  0.00     0.008 C 
ENDBRANCH  12  17
ENDBRANCH  11  12
ENDBRANCH   1  11
TORSDOF 1
ENDMDL
MODEL 9
REMARK VINA RESULT:    -3.250     14.803     16.844
REMARK INTER + INTRA:          -4.815
REMARK INTER:                  -4.786
REMARK INTRA:                  -0.029
REMARK UNBOUND:                 0.145
REMARK SMILES CC1=CCC[C@H](C)C(=O)C[C@H](C(C)C)C(=O)C1
REMARK SMILES IDX 8 1 9 2 6 3 7 4 5 5 4 6 3 7 2 8 1 9 10 11 11 12 15 13 16 14
REMARK SMILES IDX 17 15 12 17 13 18 14 19
REMARK H PARENT
REMARK Flexibility Score: 70.00
ROOT
ATOM      1  C   UNL     1      21.183 -11.992  45.470  1.00  0.00     0.136 C 
ATOM      2  O   UNL     1      21.223 -11.156  46.362  1.00  0.00    -0.299 OA
ENDROOT
BRANCH   1   3
ATOM      3  C   UNL     1      19.845 -12.627  45.136  1.00  0.00     0.053 C 
ATOM      4  C   UNL     1      19.437 -12.326  43.686  1.00  0.00     0.016 C 
BRANCH   3   5
ATOM      5  C   UNL     1      19.905 -14.151  45.396  1.00  0.00     0.015 C 
BRANCH   5   6
ATOM      6  C   UNL     1      20.105 -14.971  44.101  1.00  0.00     0.028 C 
BRANCH   6   7
ATOM      7  C   UNL     1      21.035 -16.142  44.314  1.00  0.00    -0.028 C 
ATOM      8  C   UNL     1      22.371 -16.127  44.089  1.00  0.00    -0.070 CG0
ATOM      9  C   UNL     1      23.144 -17.400  44.326  1.00  0.00     0.039 C 
ATOM     10  G   UNL     1      23.122 -14.899  43.602  1.00  0.00     0.000 G0
ENDBRANCH   6   7
ENDBRANCH   5   6
ENDBRANCH   3   5
ENDBRANCH   1   3
BRANCH   1  11
ATOM     11  C   UNL     1      22.479 -12.291  44.734  1.00  0.00     0.087 C 
BRANCH  11  12
ATOM     12  C   UNL     1      23.565 -13.102  45.497  1.00  0.00     0.066 C 
BRANCH  12  13
ATOM     13  C   UNL     1      24.007 -14.332  44.715  1.00  0.00     0.140 C 
ATOM     14  O   UNL     1      25.051 -14.897  45.014  1.00  0.00    -0.299 OA
BRANCH  13  15
ATOM     15  C   UNL     1      23.136 -14.903  43.616  1.00  0.00     0.106 CG0
ATOM     16  G   UNL     1      22.358 -16.129  44.063  1.00  0.00     0.000 G0
ENDBRANCH  13  15
ENDBRANCH  12  13
BRANCH  12  17
ATOM     17  C   UNL     1      24.769 -12.198  45.913  1.00  0.00    -0.006 C 
ATOM     18  C   UNL     1      24.578 -10.749  45.435  1.00  0.00     0.008 C 
ATOM     19  C   UNL     1      25.085 -12.211  47.419  1.00  0.00     0.008 C 
ENDBRANCH  12  17
ENDBRANCH  11  12
ENDBRANCH   1  11
TORSDOF 1
ENDMDL
