MODEL 1
REMARK VINA RESULT:    -5.210      0.000      0.000
REMARK INTER + INTRA:          -5.819
REMARK INTER:                  -5.819
REMARK INTRA:                   0.000
REMARK UNBOUND:                 0.000
REMARK SMILES Oc1cc(O)c2c(c1)CCc1cc(O)c(O)cc1-2
REMARK SMILES IDX 10 1 9 2 7 3 6 4 18 5 17 6 15 7 13 8 12 9 11 10 4 11 3 12
REMARK SMILES IDX 2 13 8 14 14 15 5 17 1 19 16 21
REMARK H PARENT 14 16 5 18 1 20 16 22
REMARK Flexibility Score: inf
ROOT
ATOM      1  C   UNL     1     144.999 145.408 158.097  1.00  0.00     0.041 C 
ATOM      2  C   UNL     1     144.783 146.504 157.047  1.00  0.00     0.041 C 
ATOM      3  C   UNL     1     145.960 147.449 157.019  1.00  0.00    -0.032 A 
ATOM      4  C   UNL     1     147.270 146.957 157.233  1.00  0.00     0.027 A 
ATOM      5  C   UNL     1     147.442 145.484 157.453  1.00  0.00    -0.007 A 
ATOM      6  C   UNL     1     148.642 144.808 157.158  1.00  0.00     0.059 A 
ATOM      7  C   UNL     1     148.762 143.429 157.384  1.00  0.00     0.158 A 
ATOM      8  C   UNL     1     147.675 142.705 157.881  1.00  0.00     0.157 A 
ATOM      9  C   UNL     1     146.459 143.353 158.124  1.00  0.00     0.054 A 
ATOM     10  C   UNL     1     146.326 144.728 157.881  1.00  0.00    -0.036 A 
ATOM     11  C   UNL     1     148.340 147.881 157.302  1.00  0.00     0.127 A 
ATOM     12  C   UNL     1     148.112 149.239 157.031  1.00  0.00     0.093 A 
ATOM     13  C   UNL     1     146.828 149.700 156.742  1.00  0.00     0.119 A 
ATOM     14  C   UNL     1     145.752 148.808 156.744  1.00  0.00     0.050 A 
ENDROOT
BRANCH   8  15
ATOM     15  O   UNL     1     147.806 141.338 158.120  1.00  0.00    -0.504 OA
ATOM     16  H   UNL     1     147.062 140.800 158.549  1.00  0.00     0.293 HD
ENDBRANCH   8  15
BRANCH  11  17
ATOM     17  O   UNL     1     149.620 147.475 157.677  1.00  0.00    -0.507 OA
ATOM     18  H   UNL     1     150.360 147.341 156.998  1.00  0.00     0.293 HD
ENDBRANCH  11  17
BRANCH  13  19
ATOM     19  O   UNL     1     146.629 151.052 156.469  1.00  0.00    -0.508 OA
ATOM     20  H   UNL     1     147.310 151.752 156.738  1.00  0.00     0.293 HD
ENDBRANCH  13  19
BRANCH   7  21
ATOM     21  O   UNL     1     149.959 142.771 157.108  1.00  0.00    -0.504 OA
ATOM     22  H   UNL     1     149.974 141.822 156.750  1.00  0.00     0.293 HD
ENDBRANCH   7  21
TORSDOF 4
ENDMDL
MODEL 2
REMARK VINA RESULT:    -5.102      0.880      5.453
REMARK INTER + INTRA:          -5.699
REMARK INTER:                  -5.699
REMARK INTRA:                   0.000
REMARK UNBOUND:                 0.000
REMARK SMILES Oc1cc(O)c2c(c1)CCc1cc(O)c(O)cc1-2
REMARK SMILES IDX 10 1 9 2 7 3 6 4 18 5 17 6 15 7 13 8 12 9 11 10 4 11 3 12
REMARK SMILES IDX 2 13 8 14 14 15 5 17 1 19 16 21
REMARK H PARENT 14 16 5 18 1 20 16 22
REMARK Flexibility Score: inf
ROOT
ATOM      1  C   UNL     1     144.941 146.140 157.107  1.00  0.00     0.041 C 
ATOM      2  C   UNL     1     145.128 144.999 158.113  1.00  0.00     0.041 C 
ATOM      3  C   UNL     1     146.454 144.312 157.894  1.00  0.00    -0.032 A 
ATOM      4  C   UNL     1     147.586 145.065 157.497  1.00  0.00     0.027 A 
ATOM      5  C   UNL     1     147.425 146.546 157.336  1.00  0.00    -0.007 A 
ATOM      6  C   UNL     1     148.502 147.445 157.468  1.00  0.00     0.059 A 
ATOM      7  C   UNL     1     148.308 148.824 157.305  1.00  0.00     0.158 A 
ATOM      8  C   UNL     1     147.032 149.324 157.034  1.00  0.00     0.157 A 
ATOM      9  C   UNL     1     145.943 148.448 156.957  1.00  0.00     0.054 A 
ATOM     10  C   UNL     1     146.126 147.070 157.140  1.00  0.00    -0.036 A 
ATOM     11  C   UNL     1     148.789 144.378 157.200  1.00  0.00     0.127 A 
ATOM     12  C   UNL     1     148.881 142.997 157.427  1.00  0.00     0.093 A 
ATOM     13  C   UNL     1     147.781 142.279 157.896  1.00  0.00     0.119 A 
ATOM     14  C   UNL     1     146.567 142.933 158.121  1.00  0.00     0.050 A 
ENDROOT
BRANCH   8  15
ATOM     15  O   UNL     1     146.849 150.695 156.856  1.00  0.00    -0.504 OA
ATOM     16  H   UNL     1     147.624 151.345 156.914  1.00  0.00     0.293 HD
ENDBRANCH   8  15
BRANCH  11  17
ATOM     17  O   UNL     1     149.880 145.044 156.644  1.00  0.00    -0.507 OA
ATOM     18  H   UNL     1     150.202 145.936 157.002  1.00  0.00     0.293 HD
ENDBRANCH  11  17
BRANCH  13  19
ATOM     19  O   UNL     1     147.901 140.908 158.120  1.00  0.00    -0.508 OA
ATOM     20  H   UNL     1     148.570 140.536 158.783  1.00  0.00     0.293 HD
ENDBRANCH  13  19
BRANCH   7  21
ATOM     21  O   UNL     1     149.383 149.705 157.417  1.00  0.00    -0.504 OA
ATOM     22  H   UNL     1     150.046 149.639 158.182  1.00  0.00     0.293 HD
ENDBRANCH   7  21
TORSDOF 4
ENDMDL
MODEL 3
REMARK VINA RESULT:    -3.012      2.232      4.201
REMARK INTER + INTRA:          -3.364
REMARK INTER:                  -3.364
REMARK INTRA:                   0.000
REMARK UNBOUND:                 0.000
REMARK SMILES Oc1cc(O)c2c(c1)CCc1cc(O)c(O)cc1-2
REMARK SMILES IDX 10 1 9 2 7 3 6 4 18 5 17 6 15 7 13 8 12 9 11 10 4 11 3 12
REMARK SMILES IDX 2 13 8 14 14 15 5 17 1 19 16 21
REMARK H PARENT 14 16 5 18 1 20 16 22
REMARK Flexibility Score: inf
ROOT
ATOM      1  C   UNL     1     150.246 148.751 157.117  1.00  0.00     0.041 C 
ATOM      2  C   UNL     1     150.108 149.902 158.121  1.00  0.00     0.041 C 
ATOM      3  C   UNL     1     148.818 150.651 157.892  1.00  0.00    -0.032 A 
ATOM      4  C   UNL     1     147.654 149.953 157.489  1.00  0.00     0.027 A 
ATOM      5  C   UNL     1     147.744 148.466 157.332  1.00  0.00    -0.007 A 
ATOM      6  C   UNL     1     146.624 147.620 157.459  1.00  0.00     0.059 A 
ATOM      7  C   UNL     1     146.752 146.233 157.299  1.00  0.00     0.158 A 
ATOM      8  C   UNL     1     148.005 145.672 157.037  1.00  0.00     0.157 A 
ATOM      9  C   UNL     1     149.135 146.494 156.965  1.00  0.00     0.054 A 
ATOM     10  C   UNL     1     149.018 147.880 157.145  1.00  0.00    -0.036 A 
ATOM     11  C   UNL     1     146.487 150.696 157.184  1.00  0.00     0.127 A 
ATOM     12  C   UNL     1     146.460 152.081 157.408  1.00  0.00     0.093 A 
ATOM     13  C   UNL     1     147.590 152.746 157.883  1.00  0.00     0.119 A 
ATOM     14  C   UNL     1     148.770 152.034 158.116  1.00  0.00     0.050 A 
ENDROOT
BRANCH   8  15
ATOM     15  O   UNL     1     148.122 144.293 156.862  1.00  0.00    -0.504 OA
ATOM     16  H   UNL     1     147.868 143.846 155.989  1.00  0.00     0.293 HD
ENDBRANCH   8  15
BRANCH  11  17
ATOM     17  O   UNL     1     145.368 150.082 156.622  1.00  0.00    -0.507 OA
ATOM     18  H   UNL     1     144.684 149.595 157.189  1.00  0.00     0.293 HD
ENDBRANCH  11  17
BRANCH  13  19
ATOM     19  O   UNL     1     147.535 154.122 158.104  1.00  0.00    -0.508 OA
ATOM     20  H   UNL     1     147.019 154.512 158.883  1.00  0.00     0.293 HD
ENDBRANCH  13  19
BRANCH   7  21
ATOM     21  O   UNL     1     145.636 145.405 157.406  1.00  0.00    -0.504 OA
ATOM     22  H   UNL     1     144.909 145.398 156.699  1.00  0.00     0.293 HD
ENDBRANCH   7  21
TORSDOF 4
ENDMDL
MODEL 4
REMARK VINA RESULT:    -2.453      1.832      6.534
REMARK INTER + INTRA:          -2.740
REMARK INTER:                  -2.740
REMARK INTRA:                   0.000
REMARK UNBOUND:                 0.000
REMARK SMILES Oc1cc(O)c2c(c1)CCc1cc(O)c(O)cc1-2
REMARK SMILES IDX 10 1 9 2 7 3 6 4 18 5 17 6 15 7 13 8 12 9 11 10 4 11 3 12
REMARK SMILES IDX 2 13 8 14 14 15 5 17 1 19 16 21
REMARK H PARENT 14 16 5 18 1 20 16 22
REMARK Flexibility Score: inf
ROOT
ATOM      1  C   UNL     1     149.937 149.230 158.125  1.00  0.00     0.041 C 
ATOM      2  C   UNL     1     150.237 148.092 157.142  1.00  0.00     0.041 C 
ATOM      3  C   UNL     1     149.074 147.133 157.071  1.00  0.00    -0.032 A 
ATOM      4  C   UNL     1     147.747 147.619 157.169  1.00  0.00     0.027 A 
ATOM      5  C   UNL     1     147.548 149.098 157.312  1.00  0.00    -0.007 A 
ATOM      6  C   UNL     1     146.366 149.747 156.902  1.00  0.00     0.059 A 
ATOM      7  C   UNL     1     146.219 151.132 157.058  1.00  0.00     0.158 A 
ATOM      8  C   UNL     1     147.261 151.890 157.600  1.00  0.00     0.157 A 
ATOM      9  C   UNL     1     148.462 151.267 157.958  1.00  0.00     0.054 A 
ATOM     10  C   UNL     1     148.623 149.884 157.785  1.00  0.00    -0.036 A 
ATOM     11  C   UNL     1     146.682 146.686 157.202  1.00  0.00     0.127 A 
ATOM     12  C   UNL     1     146.941 145.321 157.007  1.00  0.00     0.093 A 
ATOM     13  C   UNL     1     148.246 144.863 156.832  1.00  0.00     0.119 A 
ATOM     14  C   UNL     1     149.312 145.766 156.872  1.00  0.00     0.050 A 
ENDROOT
BRANCH   8  15
ATOM     15  O   UNL     1     147.101 153.264 157.769  1.00  0.00    -0.504 OA
ATOM     16  H   UNL     1     146.877 153.666 158.672  1.00  0.00     0.293 HD
ENDBRANCH   8  15
BRANCH  11  17
ATOM     17  O   UNL     1     145.375 147.093 157.466  1.00  0.00    -0.507 OA
ATOM     18  H   UNL     1     145.143 147.652 158.280  1.00  0.00     0.293 HD
ENDBRANCH  11  17
BRANCH  13  19
ATOM     19  O   UNL     1     148.476 143.502 156.633  1.00  0.00    -0.508 OA
ATOM     20  H   UNL     1     148.039 142.997 155.872  1.00  0.00     0.293 HD
ENDBRANCH  13  19
BRANCH   7  21
ATOM     21  O   UNL     1     145.039 151.764 156.669  1.00  0.00    -0.504 OA
ATOM     22  H   UNL     1     144.681 151.685 155.724  1.00  0.00     0.293 HD
ENDBRANCH   7  21
TORSDOF 4
ENDMDL
