MODEL 1
REMARK VINA RESULT:    -4.294      0.000      0.000
REMARK INTER + INTRA:          -4.851
REMARK INTER:                  -4.796
REMARK INTRA:                  -0.055
REMARK UNBOUND:                -0.055
REMARK SMILES COc1ccc(C(=O)[O-])cc1
REMARK SMILES IDX 6 1 5 2 10 3 4 4 11 5 3 6 7 7 8 8 9 9 2 10 1 11
REMARK H PARENT
REMARK Flexibility Score: inf
ROOT
ATOM      1  C   UNL     1      21.951  37.692   1.616  1.00  0.00    -0.003 A 
ATOM      2  C   UNL     1      22.535  37.245   2.812  1.00  0.00     0.014 A 
ATOM      3  C   UNL     1      22.010  39.061   1.300  1.00  0.00     0.014 A 
ATOM      4  C   UNL     1      23.165  38.148   3.675  1.00  0.00     0.047 A 
ATOM      5  C   UNL     1      22.639  39.963   2.164  1.00  0.00     0.047 A 
ATOM      6  C   UNL     1      23.223  39.509   3.362  1.00  0.00     0.118 A 
ENDROOT
BRANCH   1   7
ATOM      7  C   UNL     1      21.286  36.735   0.705  1.00  0.00     0.071 C 
ATOM      8  O   UNL     1      21.814  36.425  -0.395  1.00  0.00    -0.545 OA
ATOM      9  O   UNL     1      20.067  36.162   1.052  1.00  0.00    -0.545 OA
ENDBRANCH   1   7
BRANCH   6  10
ATOM     10  O   UNL     1      23.865  40.374   4.260  1.00  0.00    -0.497 OA
ATOM     11  C   UNL     1      23.396  41.675   4.599  1.00  0.00     0.278 C 
ENDBRANCH   6  10
TORSDOF 2
ENDMDL
MODEL 2
REMARK VINA RESULT:    -3.982      1.450      4.959
REMARK INTER + INTRA:          -4.503
REMARK INTER:                  -4.441
REMARK INTRA:                  -0.062
REMARK UNBOUND:                -0.055
REMARK SMILES COc1ccc(C(=O)[O-])cc1
REMARK SMILES IDX 6 1 5 2 10 3 4 4 11 5 3 6 7 7 8 8 9 9 2 10 1 11
REMARK H PARENT
REMARK Flexibility Score: inf
ROOT
ATOM      1  C   UNL     1      22.727  37.979   2.839  1.00  0.00    -0.003 A 
ATOM      2  C   UNL     1      22.329  38.314   1.535  1.00  0.00     0.014 A 
ATOM      3  C   UNL     1      22.160  36.849   3.455  1.00  0.00     0.014 A 
ATOM      4  C   UNL     1      21.384  37.535   0.859  1.00  0.00     0.047 A 
ATOM      5  C   UNL     1      21.215  36.072   2.778  1.00  0.00     0.047 A 
ATOM      6  C   UNL     1      20.819  36.412   1.471  1.00  0.00     0.118 A 
ENDROOT
BRANCH   1   7
ATOM      7  C   UNL     1      23.727  38.805   3.551  1.00  0.00     0.071 C 
ATOM      8  O   UNL     1      24.906  38.388   3.708  1.00  0.00    -0.545 OA
ATOM      9  O   UNL     1      23.381  40.053   4.055  1.00  0.00    -0.545 OA
ENDBRANCH   1   7
BRANCH   6  10
ATOM     10  O   UNL     1      19.875  35.664   0.752  1.00  0.00    -0.497 OA
ATOM     11  C   UNL     1      19.270  36.089  -0.465  1.00  0.00     0.278 C 
ENDBRANCH   6  10
TORSDOF 2
ENDMDL
MODEL 3
REMARK VINA RESULT:    -3.935      1.490      4.824
REMARK INTER + INTRA:          -4.450
REMARK INTER:                  -4.393
REMARK INTRA:                  -0.057
REMARK UNBOUND:                -0.055
REMARK SMILES COc1ccc(C(=O)[O-])cc1
REMARK SMILES IDX 6 1 5 2 10 3 4 4 11 5 3 6 7 7 8 8 9 9 2 10 1 11
REMARK H PARENT
REMARK Flexibility Score: inf
ROOT
ATOM      1  C   UNL     1      22.737  37.924   2.791  1.00  0.00    -0.003 A 
ATOM      2  C   UNL     1      22.160  36.797   3.399  1.00  0.00     0.014 A 
ATOM      3  C   UNL     1      22.335  38.276   1.491  1.00  0.00     0.014 A 
ATOM      4  C   UNL     1      21.201  36.038   2.721  1.00  0.00     0.047 A 
ATOM      5  C   UNL     1      21.376  37.517   0.814  1.00  0.00     0.047 A 
ATOM      6  C   UNL     1      20.801  36.388   1.427  1.00  0.00     0.118 A 
ENDROOT
BRANCH   1   7
ATOM      7  C   UNL     1      23.751  38.724   3.512  1.00  0.00     0.071 C 
ATOM      8  O   UNL     1      23.431  39.801   4.081  1.00  0.00    -0.545 OA
ATOM      9  O   UNL     1      25.073  38.298   3.572  1.00  0.00    -0.545 OA
ENDBRANCH   1   7
BRANCH   6  10
ATOM     10  O   UNL     1      19.837  35.595   0.789  1.00  0.00    -0.497 OA
ATOM     11  C   UNL     1      19.117  35.985  -0.376  1.00  0.00     0.278 C 
ENDBRANCH   6  10
TORSDOF 2
ENDMDL
MODEL 4
REMARK VINA RESULT:    -3.836      1.724      5.105
REMARK INTER + INTRA:          -4.340
REMARK INTER:                  -4.276
REMARK INTRA:                  -0.064
REMARK UNBOUND:                -0.055
REMARK SMILES COc1ccc(C(=O)[O-])cc1
REMARK SMILES IDX 6 1 5 2 10 3 4 4 11 5 3 6 7 7 8 8 9 9 2 10 1 11
REMARK H PARENT
REMARK Flexibility Score: inf
ROOT
ATOM      1  C   UNL     1      22.235  37.960   2.353  1.00  0.00    -0.003 A 
ATOM      2  C   UNL     1      21.730  37.677   1.073  1.00  0.00     0.014 A 
ATOM      3  C   UNL     1      22.121  36.986   3.361  1.00  0.00     0.014 A 
ATOM      4  C   UNL     1      21.125  36.444   0.807  1.00  0.00     0.047 A 
ATOM      5  C   UNL     1      21.516  35.755   3.093  1.00  0.00     0.047 A 
ATOM      6  C   UNL     1      21.011  35.475   1.809  1.00  0.00     0.118 A 
ENDROOT
BRANCH   1   7
ATOM      7  C   UNL     1      22.874  39.265   2.631  1.00  0.00     0.071 C 
ATOM      8  O   UNL     1      23.759  39.367   3.523  1.00  0.00    -0.545 OA
ATOM      9  O   UNL     1      22.510  40.397   1.912  1.00  0.00    -0.545 OA
ENDBRANCH   1   7
BRANCH   6  10
ATOM     10  O   UNL     1      20.396  34.256   1.492  1.00  0.00    -0.497 OA
ATOM     11  C   UNL     1      20.615  33.534   0.284  1.00  0.00     0.278 C 
ENDBRANCH   6  10
TORSDOF 2
ENDMDL
MODEL 5
REMARK VINA RESULT:    -3.784      2.770      4.429
REMARK INTER + INTRA:          -4.281
REMARK INTER:                  -4.218
REMARK INTRA:                  -0.063
REMARK UNBOUND:                -0.055
REMARK SMILES COc1ccc(C(=O)[O-])cc1
REMARK SMILES IDX 6 1 5 2 10 3 4 4 11 5 3 6 7 7 8 8 9 9 2 10 1 11
REMARK H PARENT
REMARK Flexibility Score: inf
ROOT
ATOM      1  C   UNL     1      22.396  41.150   1.172  1.00  0.00    -0.003 A 
ATOM      2  C   UNL     1      21.903  39.927   0.690  1.00  0.00     0.014 A 
ATOM      3  C   UNL     1      23.008  41.186   2.438  1.00  0.00     0.014 A 
ATOM      4  C   UNL     1      22.020  38.763   1.457  1.00  0.00     0.047 A 
ATOM      5  C   UNL     1      23.123  40.022   3.204  1.00  0.00     0.047 A 
ATOM      6  C   UNL     1      22.628  38.798   2.716  1.00  0.00     0.118 A 
ENDROOT
BRANCH   1   7
ATOM      7  C   UNL     1      22.272  42.379   0.358  1.00  0.00     0.071 C 
ATOM      8  O   UNL     1      21.145  42.759  -0.059  1.00  0.00    -0.545 OA
ATOM      9  O   UNL     1      23.396  43.134   0.043  1.00  0.00    -0.545 OA
ENDBRANCH   1   7
BRANCH   6  10
ATOM     10  O   UNL     1      22.720  37.605   3.446  1.00  0.00    -0.497 OA
ATOM     11  C   UNL     1      21.917  36.453   3.210  1.00  0.00     0.278 C 
ENDBRANCH   6  10
TORSDOF 2
ENDMDL
MODEL 6
REMARK VINA RESULT:    -3.775      1.830      2.693
REMARK INTER + INTRA:          -4.272
REMARK INTER:                  -4.202
REMARK INTRA:                  -0.070
REMARK UNBOUND:                -0.055
REMARK SMILES COc1ccc(C(=O)[O-])cc1
REMARK SMILES IDX 6 1 5 2 10 3 4 4 11 5 3 6 7 7 8 8 9 9 2 10 1 11
REMARK H PARENT
REMARK Flexibility Score: inf
ROOT
ATOM      1  C   UNL     1      21.802  36.765   2.384  1.00  0.00    -0.003 A 
ATOM      2  C   UNL     1      21.394  37.422   1.212  1.00  0.00     0.014 A 
ATOM      3  C   UNL     1      22.551  37.476   3.338  1.00  0.00     0.014 A 
ATOM      4  C   UNL     1      21.729  38.764   0.998  1.00  0.00     0.047 A 
ATOM      5  C   UNL     1      22.885  38.816   3.123  1.00  0.00     0.047 A 
ATOM      6  C   UNL     1      22.475  39.471   1.946  1.00  0.00     0.118 A 
ENDROOT
BRANCH   1   7
ATOM      7  C   UNL     1      21.446  35.346   2.607  1.00  0.00     0.071 C 
ATOM      8  O   UNL     1      20.628  34.764   1.846  1.00  0.00    -0.545 OA
ATOM      9  O   UNL     1      22.009  34.635   3.660  1.00  0.00    -0.545 OA
ENDBRANCH   1   7
BRANCH   6  10
ATOM     10  O   UNL     1      22.785  40.813   1.685  1.00  0.00    -0.497 OA
ATOM     11  C   UNL     1      22.260  41.563   0.595  1.00  0.00     0.278 C 
ENDBRANCH   6  10
TORSDOF 2
ENDMDL
MODEL 7
REMARK VINA RESULT:    -3.687      1.913      2.748
REMARK INTER + INTRA:          -4.173
REMARK INTER:                  -4.111
REMARK INTRA:                  -0.062
REMARK UNBOUND:                -0.055
REMARK SMILES COc1ccc(C(=O)[O-])cc1
REMARK SMILES IDX 6 1 5 2 10 3 4 4 11 5 3 6 7 7 8 8 9 9 2 10 1 11
REMARK H PARENT
REMARK Flexibility Score: inf
ROOT
ATOM      1  C   UNL     1      20.651  36.293   1.197  1.00  0.00    -0.003 A 
ATOM      2  C   UNL     1      21.418  37.374   0.732  1.00  0.00     0.014 A 
ATOM      3  C   UNL     1      20.799  35.878   2.532  1.00  0.00     0.014 A 
ATOM      4  C   UNL     1      22.315  38.026   1.585  1.00  0.00     0.047 A 
ATOM      5  C   UNL     1      21.696  36.531   3.383  1.00  0.00     0.047 A 
ATOM      6  C   UNL     1      22.463  37.613   2.913  1.00  0.00     0.118 A 
ENDROOT
BRANCH   1   7
ATOM      7  C   UNL     1      19.704  35.606   0.292  1.00  0.00     0.071 C 
ATOM      8  O   UNL     1      19.412  34.393   0.473  1.00  0.00    -0.545 OA
ATOM      9  O   UNL     1      19.122  36.288  -0.770  1.00  0.00    -0.545 OA
ENDBRANCH   1   7
BRANCH   6  10
ATOM     10  O   UNL     1      23.375  38.299   3.727  1.00  0.00    -0.497 OA
ATOM     11  C   UNL     1      24.743  38.518   3.397  1.00  0.00     0.278 C 
ENDBRANCH   6  10
TORSDOF 2
ENDMDL
MODEL 8
REMARK VINA RESULT:    -3.615      6.907      9.491
REMARK INTER + INTRA:          -4.093
REMARK INTER:                  -4.035
REMARK INTRA:                  -0.058
REMARK UNBOUND:                -0.055
REMARK SMILES COc1ccc(C(=O)[O-])cc1
REMARK SMILES IDX 6 1 5 2 10 3 4 4 11 5 3 6 7 7 8 8 9 9 2 10 1 11
REMARK H PARENT
REMARK Flexibility Score: inf
ROOT
ATOM      1  C   UNL     1      16.293  36.697  -2.079  1.00  0.00    -0.003 A 
ATOM      2  C   UNL     1      15.505  35.907  -2.932  1.00  0.00     0.014 A 
ATOM      3  C   UNL     1      16.404  38.075  -2.338  1.00  0.00     0.014 A 
ATOM      4  C   UNL     1      14.841  36.483  -4.021  1.00  0.00     0.047 A 
ATOM      5  C   UNL     1      15.741  38.649  -3.426  1.00  0.00     0.047 A 
ATOM      6  C   UNL     1      14.952  37.853  -4.278  1.00  0.00     0.118 A 
ENDROOT
BRANCH   1   7
ATOM      7  C   UNL     1      16.993  36.085  -0.929  1.00  0.00     0.071 C 
ATOM      8  O   UNL     1      16.342  35.515  -0.013  1.00  0.00    -0.545 OA
ATOM      9  O   UNL     1      18.380  36.128  -0.843  1.00  0.00    -0.545 OA
ENDBRANCH   1   7
BRANCH   6  10
ATOM     10  O   UNL     1      14.268  38.382  -5.382  1.00  0.00    -0.497 OA
ATOM     11  C   UNL     1      14.298  37.823  -6.691  1.00  0.00     0.278 C 
ENDBRANCH   6  10
TORSDOF 2
ENDMDL
MODEL 9
REMARK VINA RESULT:    -3.190      7.241      9.240
REMARK INTER + INTRA:          -3.618
REMARK INTER:                  -3.560
REMARK INTRA:                  -0.058
REMARK UNBOUND:                -0.055
REMARK SMILES COc1ccc(C(=O)[O-])cc1
REMARK SMILES IDX 6 1 5 2 10 3 4 4 11 5 3 6 7 7 8 8 9 9 2 10 1 11
REMARK H PARENT
REMARK Flexibility Score: inf
ROOT
ATOM      1  C   UNL     1      15.020  37.744  -4.154  1.00  0.00    -0.003 A 
ATOM      2  C   UNL     1      14.990  36.379  -3.827  1.00  0.00     0.014 A 
ATOM      3  C   UNL     1      15.776  38.619  -3.354  1.00  0.00     0.014 A 
ATOM      4  C   UNL     1      15.702  35.898  -2.723  1.00  0.00     0.047 A 
ATOM      5  C   UNL     1      16.487  38.137  -2.251  1.00  0.00     0.047 A 
ATOM      6  C   UNL     1      16.453  36.768  -1.927  1.00  0.00     0.118 A 
ENDROOT
BRANCH   1   7
ATOM      7  C   UNL     1      14.267  38.250  -5.323  1.00  0.00     0.071 C 
ATOM      8  O   UNL     1      13.875  39.446  -5.363  1.00  0.00    -0.545 OA
ATOM      9  O   UNL     1      13.981  37.411  -6.394  1.00  0.00    -0.545 OA
ENDBRANCH   1   7
BRANCH   6  10
ATOM     10  O   UNL     1      17.148  36.237  -0.831  1.00  0.00    -0.497 OA
ATOM     11  C   UNL     1      18.553  36.009  -0.802  1.00  0.00     0.278 C 
ENDBRANCH   6  10
TORSDOF 2
ENDMDL
