MODEL 1
REMARK VINA RESULT:    12.373      0.000      0.000
REMARK INTER + INTRA:          22.329
REMARK INTER:                  22.500
REMARK INTRA:                  -0.172
REMARK UNBOUND:                -0.172
REMARK SMILES CCCCCCCCCCCCCC[C@@H](C)C(=O)[O-]
REMARK SMILES IDX 9 1 10 2 11 3 12 4 13 5 14 6 15 7 16 8 17 9 18 10 19 11 8 12
REMARK SMILES IDX 7 13 6 14 5 15 4 16 3 17 2 18 1 19
REMARK H PARENT
REMARK Flexibility Score: inf
ROOT
ATOM      1  C   UNL     1       2.224  -5.661  11.254  1.00  0.00     0.000 C 
ENDROOT
BRANCH   1   2
ATOM      2  C   UNL     1       0.915  -6.212  10.658  1.00  0.00     0.000 C 
BRANCH   2   3
ATOM      3  C   UNL     1       0.509  -7.570  11.250  1.00  0.00     0.000 C 
BRANCH   3   4
ATOM      4  C   UNL     1       1.748  -8.387  11.648  1.00  0.00     0.000 C 
BRANCH   4   5
ATOM      5  C   UNL     1       2.748  -8.549  10.492  1.00  0.00     0.001 C 
BRANCH   5   6
ATOM      6  C   UNL     1       4.212  -8.544  10.971  1.00  0.00     0.009 C 
BRANCH   6   7
ATOM      7  C   UNL     1       4.388  -7.859  12.343  1.00  0.00     0.032 C 
ATOM      8  C   UNL     1       4.436  -8.869  13.498  1.00  0.00     0.014 C 
BRANCH   7   9
ATOM      9  C   UNL     1       5.647  -7.037  12.344  1.00  0.00     0.044 C 
ATOM     10  O   UNL     1       5.745  -6.027  11.599  1.00  0.00    -0.550 OA
ATOM     11  O   UNL     1       6.712  -7.386  13.168  1.00  0.00    -0.550 OA
ENDBRANCH   7   9
ENDBRANCH   6   7
ENDBRANCH   5   6
ENDBRANCH   4   5
ENDBRANCH   3   4
ENDBRANCH   2   3
ENDBRANCH   1   2
BRANCH   1  12
ATOM     12  C   UNL     1       2.989  -4.669  10.356  1.00  0.00     0.000 C 
BRANCH  12  13
ATOM     13  C   UNL     1       2.087  -3.570   9.770  1.00  0.00    -0.000 C 
BRANCH  13  14
ATOM     14  C   UNL     1       2.795  -2.207   9.661  1.00  0.00    -0.000 C 
BRANCH  14  15
ATOM     15  C   UNL     1       2.124  -1.055  10.430  1.00  0.00    -0.000 C 
BRANCH  15  16
ATOM     16  C   UNL     1       1.449  -0.029   9.508  1.00  0.00    -0.000 C 
BRANCH  16  17
ATOM     17  C   UNL     1       0.343   0.733  10.249  1.00  0.00    -0.000 C 
BRANCH  17  18
ATOM     18  C   UNL     1      -0.422   1.657   9.296  1.00  0.00    -0.003 C 
ATOM     19  C   UNL     1       0.525   2.615   8.579  1.00  0.00     0.004 C 
ENDBRANCH  17  18
ENDBRANCH  16  17
ENDBRANCH  15  16
ENDBRANCH  14  15
ENDBRANCH  13  14
ENDBRANCH  12  13
ENDBRANCH   1  12
TORSDOF 14
ENDMDL
MODEL 2
REMARK VINA RESULT:    13.125      3.355      5.416
REMARK INTER + INTRA:          23.695
REMARK INTER:                  23.549
REMARK INTRA:                   0.147
REMARK UNBOUND:                -0.172
REMARK SMILES CCCCCCCCCCCCCC[C@@H](C)C(=O)[O-]
REMARK SMILES IDX 9 1 10 2 11 3 12 4 13 5 14 6 15 7 16 8 17 9 18 10 19 11 8 12
REMARK SMILES IDX 7 13 6 14 5 15 4 16 3 17 2 18 1 19
REMARK H PARENT
REMARK Flexibility Score: inf
ROOT
ATOM      1  C   UNL     1       2.999  -8.597  10.159  1.00  0.00     0.000 C 
ENDROOT
BRANCH   1   2
ATOM      2  C   UNL     1       4.253  -8.992  10.961  1.00  0.00     0.000 C 
BRANCH   2   3
ATOM      3  C   UNL     1       4.120  -8.708  12.465  1.00  0.00     0.000 C 
BRANCH   3   4
ATOM      4  C   UNL     1       4.648  -7.306  12.808  1.00  0.00     0.000 C 
BRANCH   4   5
ATOM      5  C   UNL     1       5.892  -6.925  11.989  1.00  0.00     0.001 C 
BRANCH   5   6
ATOM      6  C   UNL     1       6.761  -5.866  12.692  1.00  0.00     0.009 C 
BRANCH   6   7
ATOM      7  C   UNL     1       7.509  -6.429  13.921  1.00  0.00     0.032 C 
ATOM      8  C   UNL     1       8.752  -7.238  13.527  1.00  0.00     0.014 C 
BRANCH   7   9
ATOM      9  C   UNL     1       7.912  -5.302  14.831  1.00  0.00     0.044 C 
ATOM     10  O   UNL     1       7.034  -4.597  15.393  1.00  0.00    -0.550 OA
ATOM     11  O   UNL     1       9.257  -5.031  15.060  1.00  0.00    -0.550 OA
ENDBRANCH   7   9
ENDBRANCH   6   7
ENDBRANCH   5   6
ENDBRANCH   4   5
ENDBRANCH   3   4
ENDBRANCH   2   3
ENDBRANCH   1   2
BRANCH   1  12
ATOM     12  C   UNL     1       1.725  -9.397  10.492  1.00  0.00     0.000 C 
BRANCH  12  13
ATOM     13  C   UNL     1       0.471  -8.852   9.788  1.00  0.00    -0.000 C 
BRANCH  13  14
ATOM     14  C   UNL     1      -0.663  -8.500  10.768  1.00  0.00    -0.000 C 
BRANCH  14  15
ATOM     15  C   UNL     1      -0.412  -7.260  11.645  1.00  0.00    -0.000 C 
BRANCH  15  16
ATOM     16  C   UNL     1       0.982  -7.252  12.289  1.00  0.00    -0.000 C 
BRANCH  16  17
ATOM     17  C   UNL     1       1.683  -5.906  12.065  1.00  0.00    -0.000 C 
BRANCH  17  18
ATOM     18  C   UNL     1       2.418  -5.885  10.720  1.00  0.00    -0.003 C 
ATOM     19  C   UNL     1       2.382  -4.494  10.093  1.00  0.00     0.004 C 
ENDBRANCH  17  18
ENDBRANCH  16  17
ENDBRANCH  15  16
ENDBRANCH  14  15
ENDBRANCH  13  14
ENDBRANCH  12  13
ENDBRANCH   1  12
TORSDOF 14
ENDMDL
MODEL 3
REMARK VINA RESULT:    13.235      3.670      6.776
REMARK INTER + INTRA:          23.896
REMARK INTER:                  24.288
REMARK INTRA:                  -0.391
REMARK UNBOUND:                -0.172
REMARK SMILES CCCCCCCCCCCCCC[C@@H](C)C(=O)[O-]
REMARK SMILES IDX 9 1 10 2 11 3 12 4 13 5 14 6 15 7 16 8 17 9 18 10 19 11 8 12
REMARK SMILES IDX 7 13 6 14 5 15 4 16 3 17 2 18 1 19
REMARK H PARENT
REMARK Flexibility Score: inf
ROOT
ATOM      1  C   UNL     1       3.716  -8.676  10.718  1.00  0.00     0.000 C 
ENDROOT
BRANCH   1   2
ATOM      2  C   UNL     1       2.347  -9.095  10.149  1.00  0.00     0.000 C 
BRANCH   2   3
ATOM      3  C   UNL     1       1.231  -9.098  11.205  1.00  0.00     0.000 C 
BRANCH   3   4
ATOM      4  C   UNL     1      -0.152  -9.169  10.541  1.00  0.00     0.000 C 
BRANCH   4   5
ATOM      5  C   UNL     1      -0.861  -7.805  10.500  1.00  0.00     0.001 C 
BRANCH   5   6
ATOM      6  C   UNL     1       0.022  -6.663  11.035  1.00  0.00     0.009 C 
BRANCH   6   7
ATOM      7  C   UNL     1       1.040  -6.157   9.990  1.00  0.00     0.032 C 
ATOM      8  C   UNL     1       0.376  -5.332   8.879  1.00  0.00     0.014 C 
BRANCH   7   9
ATOM      9  C   UNL     1       2.094  -5.326  10.668  1.00  0.00     0.044 C 
ATOM     10  O   UNL     1       2.520  -5.649  11.808  1.00  0.00    -0.550 OA
ATOM     11  O   UNL     1       2.607  -4.195  10.042  1.00  0.00    -0.550 OA
ENDBRANCH   7   9
ENDBRANCH   6   7
ENDBRANCH   5   6
ENDBRANCH   4   5
ENDBRANCH   3   4
ENDBRANCH   2   3
ENDBRANCH   1   2
BRANCH   1  12
ATOM     12  C   UNL     1       3.796  -8.607  12.256  1.00  0.00     0.000 C 
BRANCH  12  13
ATOM     13  C   UNL     1       4.609  -7.404  12.762  1.00  0.00    -0.000 C 
BRANCH  13  14
ATOM     14  C   UNL     1       5.593  -6.858  11.711  1.00  0.00    -0.000 C 
BRANCH  14  15
ATOM     15  C   UNL     1       7.059  -6.763  12.170  1.00  0.00    -0.000 C 
BRANCH  15  16
ATOM     16  C   UNL     1       7.214  -6.804  13.697  1.00  0.00    -0.000 C 
BRANCH  16  17
ATOM     17  C   UNL     1       8.568  -6.225  14.127  1.00  0.00    -0.000 C 
BRANCH  17  18
ATOM     18  C   UNL     1       8.382  -5.064  15.110  1.00  0.00    -0.003 C 
ATOM     19  C   UNL     1       6.908  -4.857  15.448  1.00  0.00     0.004 C 
ENDBRANCH  17  18
ENDBRANCH  16  17
ENDBRANCH  15  16
ENDBRANCH  14  15
ENDBRANCH  13  14
ENDBRANCH  12  13
ENDBRANCH   1  12
TORSDOF 14
ENDMDL
MODEL 4
REMARK VINA RESULT:    13.311      3.008      4.890
REMARK INTER + INTRA:          24.034
REMARK INTER:                  24.158
REMARK INTRA:                  -0.124
REMARK UNBOUND:                -0.172
REMARK SMILES CCCCCCCCCCCCCC[C@@H](C)C(=O)[O-]
REMARK SMILES IDX 9 1 10 2 11 3 12 4 13 5 14 6 15 7 16 8 17 9 18 10 19 11 8 12
REMARK SMILES IDX 7 13 6 14 5 15 4 16 3 17 2 18 1 19
REMARK H PARENT
REMARK Flexibility Score: inf
ROOT
ATOM      1  C   UNL     1       1.918  -7.387  11.511  1.00  0.00     0.000 C 
ENDROOT
BRANCH   1   2
ATOM      2  C   UNL     1       2.713  -8.388  10.653  1.00  0.00     0.000 C 
BRANCH   2   3
ATOM      3  C   UNL     1       4.224  -8.350  10.929  1.00  0.00     0.000 C 
BRANCH   3   4
ATOM      4  C   UNL     1       4.504  -8.151  12.426  1.00  0.00     0.000 C 
BRANCH   4   5
ATOM      5  C   UNL     1       4.945  -6.717  12.761  1.00  0.00     0.001 C 
BRANCH   5   6
ATOM      6  C   UNL     1       6.453  -6.494  12.540  1.00  0.00     0.009 C 
BRANCH   6   7
ATOM      7  C   UNL     1       7.295  -6.835  13.788  1.00  0.00     0.032 C 
ATOM      8  C   UNL     1       8.652  -7.454  13.427  1.00  0.00     0.014 C 
BRANCH   7   9
ATOM      9  C   UNL     1       7.514  -5.593  14.608  1.00  0.00     0.044 C 
ATOM     10  O   UNL     1       6.559  -5.079  15.247  1.00  0.00    -0.550 OA
ATOM     11  O   UNL     1       8.773  -5.005  14.668  1.00  0.00    -0.550 OA
ENDBRANCH   7   9
ENDBRANCH   6   7
ENDBRANCH   5   6
ENDBRANCH   4   5
ENDBRANCH   3   4
ENDBRANCH   2   3
ENDBRANCH   1   2
BRANCH   1  12
ATOM     12  C   UNL     1       0.754  -7.992  12.319  1.00  0.00     0.000 C 
BRANCH  12  13
ATOM     13  C   UNL     1      -0.626  -7.527  11.825  1.00  0.00    -0.000 C 
BRANCH  13  14
ATOM     14  C   UNL     1      -1.046  -8.192  10.501  1.00  0.00    -0.000 C 
BRANCH  14  15
ATOM     15  C   UNL     1      -0.749  -7.373   9.232  1.00  0.00    -0.000 C 
BRANCH  15  16
ATOM     16  C   UNL     1      -0.505  -5.885   9.519  1.00  0.00    -0.000 C 
BRANCH  16  17
ATOM     17  C   UNL     1       0.779  -5.396   8.836  1.00  0.00    -0.000 C 
BRANCH  17  18
ATOM     18  C   UNL     1       1.923  -5.263   9.847  1.00  0.00    -0.003 C 
ATOM     19  C   UNL     1       2.388  -3.814   9.966  1.00  0.00     0.004 C 
ENDBRANCH  17  18
ENDBRANCH  16  17
ENDBRANCH  15  16
ENDBRANCH  14  15
ENDBRANCH  13  14
ENDBRANCH  12  13
ENDBRANCH   1  12
TORSDOF 14
ENDMDL
MODEL 5
REMARK VINA RESULT:    13.467      4.162      6.662
REMARK INTER + INTRA:          24.317
REMARK INTER:                  24.293
REMARK INTRA:                   0.024
REMARK UNBOUND:                -0.172
REMARK SMILES CCCCCCCCCCCCCC[C@@H](C)C(=O)[O-]
REMARK SMILES IDX 9 1 10 2 11 3 12 4 13 5 14 6 15 7 16 8 17 9 18 10 19 11 8 12
REMARK SMILES IDX 7 13 6 14 5 15 4 16 3 17 2 18 1 19
REMARK H PARENT
REMARK Flexibility Score: inf
ROOT
ATOM      1  C   UNL     1       2.930  -9.637  14.742  1.00  0.00     0.000 C 
ENDROOT
BRANCH   1   2
ATOM      2  C   UNL     1       2.048  -8.565  14.075  1.00  0.00     0.000 C 
BRANCH   2   3
ATOM      3  C   UNL     1       0.767  -9.141  13.452  1.00  0.00     0.000 C 
BRANCH   3   4
ATOM      4  C   UNL     1      -0.127  -8.020  12.900  1.00  0.00     0.000 C 
BRANCH   4   5
ATOM      5  C   UNL     1      -0.549  -8.262  11.442  1.00  0.00     0.001 C 
BRANCH   5   6
ATOM      6  C   UNL     1       0.434  -7.644  10.431  1.00  0.00     0.009 C 
BRANCH   6   7
ATOM      7  C   UNL     1       1.861  -7.494  11.002  1.00  0.00     0.032 C 
ATOM      8  C   UNL     1       2.873  -8.403  10.291  1.00  0.00     0.014 C 
BRANCH   7   9
ATOM      9  C   UNL     1       2.307  -6.063  10.888  1.00  0.00     0.044 C 
ATOM     10  O   UNL     1       1.982  -5.376   9.884  1.00  0.00    -0.550 OA
ATOM     11  O   UNL     1       3.079  -5.486  11.890  1.00  0.00    -0.550 OA
ENDBRANCH   7   9
ENDBRANCH   6   7
ENDBRANCH   5   6
ENDBRANCH   4   5
ENDBRANCH   3   4
ENDBRANCH   2   3
ENDBRANCH   1   2
BRANCH   1  12
ATOM     12  C   UNL     1       4.359  -9.758  14.179  1.00  0.00     0.000 C 
BRANCH  12  13
ATOM     13  C   UNL     1       4.557  -8.975  12.870  1.00  0.00    -0.000 C 
BRANCH  13  14
ATOM     14  C   UNL     1       4.936  -7.501  13.102  1.00  0.00    -0.000 C 
BRANCH  14  15
ATOM     15  C   UNL     1       5.706  -6.832  11.949  1.00  0.00    -0.000 C 
BRANCH  15  16
ATOM     16  C   UNL     1       7.196  -6.630  12.257  1.00  0.00    -0.000 C 
BRANCH  16  17
ATOM     17  C   UNL     1       7.498  -6.930  13.731  1.00  0.00    -0.000 C 
BRANCH  17  18
ATOM     18  C   UNL     1       8.096  -5.704  14.430  1.00  0.00    -0.003 C 
ATOM     19  C   UNL     1       7.050  -4.990  15.282  1.00  0.00     0.004 C 
ENDBRANCH  17  18
ENDBRANCH  16  17
ENDBRANCH  15  16
ENDBRANCH  14  15
ENDBRANCH  13  14
ENDBRANCH  12  13
ENDBRANCH   1  12
TORSDOF 14
ENDMDL
MODEL 6
REMARK VINA RESULT:    13.479      3.661      8.435
REMARK INTER + INTRA:          24.340
REMARK INTER:                  25.066
REMARK INTRA:                  -0.726
REMARK UNBOUND:                -0.172
REMARK SMILES CCCCCCCCCCCCCC[C@@H](C)C(=O)[O-]
REMARK SMILES IDX 9 1 10 2 11 3 12 4 13 5 14 6 15 7 16 8 17 9 18 10 19 11 8 12
REMARK SMILES IDX 7 13 6 14 5 15 4 16 3 17 2 18 1 19
REMARK H PARENT
REMARK Flexibility Score: inf
ROOT
ATOM      1  C   UNL     1       1.998  -5.761  11.810  1.00  0.00     0.000 C 
ENDROOT
BRANCH   1   2
ATOM      2  C   UNL     1       2.862  -5.150  10.692  1.00  0.00     0.000 C 
BRANCH   2   3
ATOM      3  C   UNL     1       2.063  -4.253   9.734  1.00  0.00     0.000 C 
BRANCH   3   4
ATOM      4  C   UNL     1       2.635  -2.827   9.712  1.00  0.00     0.000 C 
BRANCH   4   5
ATOM      5  C   UNL     1       1.632  -1.778  10.222  1.00  0.00     0.001 C 
BRANCH   5   6
ATOM      6  C   UNL     1       1.794  -0.416   9.522  1.00  0.00     0.009 C 
BRANCH   6   7
ATOM      7  C   UNL     1       1.097   0.731  10.285  1.00  0.00     0.032 C 
ATOM      8  C   UNL     1       2.094   1.774  10.809  1.00  0.00     0.014 C 
BRANCH   7   9
ATOM      9  C   UNL     1       0.095   1.403   9.388  1.00  0.00     0.044 C 
ATOM     10  O   UNL     1      -1.065   0.930   9.267  1.00  0.00    -0.550 OA
ATOM     11  O   UNL     1       0.441   2.554   8.687  1.00  0.00    -0.550 OA
ENDBRANCH   7   9
ENDBRANCH   6   7
ENDBRANCH   5   6
ENDBRANCH   4   5
ENDBRANCH   3   4
ENDBRANCH   2   3
ENDBRANCH   1   2
BRANCH   1  12
ATOM     12  C   UNL     1       1.020  -6.862  11.358  1.00  0.00     0.000 C 
BRANCH  12  13
ATOM     13  C   UNL     1       1.634  -8.271  11.415  1.00  0.00    -0.000 C 
BRANCH  13  14
ATOM     14  C   UNL     1       2.775  -8.471  10.401  1.00  0.00    -0.000 C 
BRANCH  14  15
ATOM     15  C   UNL     1       4.166  -8.709  11.017  1.00  0.00    -0.000 C 
BRANCH  15  16
ATOM     16  C   UNL     1       4.208  -8.445  12.528  1.00  0.00    -0.000 C 
BRANCH  16  17
ATOM     17  C   UNL     1       4.796  -7.061  12.829  1.00  0.00    -0.000 C 
BRANCH  17  18
ATOM     18  C   UNL     1       6.096  -6.835  12.050  1.00  0.00    -0.003 C 
ATOM     19  C   UNL     1       7.309  -6.882  12.975  1.00  0.00     0.004 C 
ENDBRANCH  17  18
ENDBRANCH  16  17
ENDBRANCH  15  16
ENDBRANCH  14  15
ENDBRANCH  13  14
ENDBRANCH  12  13
ENDBRANCH   1  12
TORSDOF 14
ENDMDL
MODEL 7
REMARK VINA RESULT:    13.974      5.090      7.142
REMARK INTER + INTRA:          25.240
REMARK INTER:                  25.368
REMARK INTRA:                  -0.128
REMARK UNBOUND:                -0.172
REMARK SMILES CCCCCCCCCCCCCC[C@@H](C)C(=O)[O-]
REMARK SMILES IDX 9 1 10 2 11 3 12 4 13 5 14 6 15 7 16 8 17 9 18 10 19 11 8 12
REMARK SMILES IDX 7 13 6 14 5 15 4 16 3 17 2 18 1 19
REMARK H PARENT
REMARK Flexibility Score: inf
ROOT
ATOM      1  C   UNL     1       4.670  -8.686  13.560  1.00  0.00     0.000 C 
ENDROOT
BRANCH   1   2
ATOM      2  C   UNL     1       4.138  -9.968  14.228  1.00  0.00     0.000 C 
BRANCH   2   3
ATOM      3  C   UNL     1       2.977  -9.704  15.199  1.00  0.00     0.000 C 
BRANCH   3   4
ATOM      4  C   UNL     1       1.636  -9.656  14.450  1.00  0.00     0.000 C 
BRANCH   4   5
ATOM      5  C   UNL     1       1.515  -8.433  13.527  1.00  0.00     0.001 C 
BRANCH   5   6
ATOM      6  C   UNL     1       0.470  -8.633  12.414  1.00  0.00     0.009 C 
BRANCH   6   7
ATOM      7  C   UNL     1       0.271  -7.369  11.549  1.00  0.00     0.032 C 
ATOM      8  C   UNL     1       1.601  -6.797  11.037  1.00  0.00     0.014 C 
BRANCH   7   9
ATOM      9  C   UNL     1      -0.620  -7.687  10.381  1.00  0.00     0.044 C 
ATOM     10  O   UNL     1      -1.081  -8.849  10.233  1.00  0.00    -0.550 OA
ATOM     11  O   UNL     1      -0.943  -6.700   9.456  1.00  0.00    -0.550 OA
ENDBRANCH   7   9
ENDBRANCH   6   7
ENDBRANCH   5   6
ENDBRANCH   4   5
ENDBRANCH   3   4
ENDBRANCH   2   3
ENDBRANCH   1   2
BRANCH   1  12
ATOM     12  C   UNL     1       4.453  -8.598  12.037  1.00  0.00     0.000 C 
BRANCH  12  13
ATOM     13  C   UNL     1       4.383  -7.151  11.523  1.00  0.00    -0.000 C 
BRANCH  13  14
ATOM     14  C   UNL     1       5.522  -6.266  12.059  1.00  0.00    -0.000 C 
BRANCH  14  15
ATOM     15  C   UNL     1       6.941  -6.700  11.649  1.00  0.00    -0.000 C 
BRANCH  15  16
ATOM     16  C   UNL     1       7.842  -7.024  12.849  1.00  0.00    -0.000 C 
BRANCH  16  17
ATOM     17  C   UNL     1       7.126  -6.722  14.171  1.00  0.00    -0.000 C 
BRANCH  17  18
ATOM     18  C   UNL     1       7.905  -5.691  14.996  1.00  0.00    -0.003 C 
ATOM     19  C   UNL     1       7.035  -4.484  15.335  1.00  0.00     0.004 C 
ENDBRANCH  17  18
ENDBRANCH  16  17
ENDBRANCH  15  16
ENDBRANCH  14  15
ENDBRANCH  13  14
ENDBRANCH  12  13
ENDBRANCH   1  12
TORSDOF 14
ENDMDL
MODEL 8
REMARK VINA RESULT:    14.398      4.065      6.262
REMARK INTER + INTRA:          26.011
REMARK INTER:                  24.300
REMARK INTRA:                   1.710
REMARK UNBOUND:                -0.172
REMARK SMILES CCCCCCCCCCCCCC[C@@H](C)C(=O)[O-]
REMARK SMILES IDX 9 1 10 2 11 3 12 4 13 5 14 6 15 7 16 8 17 9 18 10 19 11 8 12
REMARK SMILES IDX 7 13 6 14 5 15 4 16 3 17 2 18 1 19
REMARK H PARENT
REMARK Flexibility Score: inf
ROOT
ATOM      1  C   UNL     1       2.908  -5.842  11.299  1.00  0.00     0.000 C 
ENDROOT
BRANCH   1   2
ATOM      2  C   UNL     1       3.138  -6.386  12.721  1.00  0.00     0.000 C 
BRANCH   2   3
ATOM      3  C   UNL     1       3.499  -7.879  12.743  1.00  0.00     0.000 C 
BRANCH   3   4
ATOM      4  C   UNL     1       4.999  -8.077  13.013  1.00  0.00     0.000 C 
BRANCH   4   5
ATOM      5  C   UNL     1       5.885  -7.263  12.057  1.00  0.00     0.001 C 
BRANCH   5   6
ATOM      6  C   UNL     1       6.603  -6.098  12.763  1.00  0.00     0.009 C 
BRANCH   6   7
ATOM      7  C   UNL     1       7.464  -6.564  13.956  1.00  0.00     0.032 C 
ATOM      8  C   UNL     1       8.728  -7.311  13.508  1.00  0.00     0.014 C 
BRANCH   7   9
ATOM      9  C   UNL     1       7.854  -5.379  14.796  1.00  0.00     0.044 C 
ATOM     10  O   UNL     1       9.063  -5.039  14.889  1.00  0.00    -0.550 OA
ATOM     11  O   UNL     1       6.884  -4.649  15.474  1.00  0.00    -0.550 OA
ENDBRANCH   7   9
ENDBRANCH   6   7
ENDBRANCH   5   6
ENDBRANCH   4   5
ENDBRANCH   3   4
ENDBRANCH   2   3
ENDBRANCH   1   2
BRANCH   1  12
ATOM     12  C   UNL     1       1.461  -5.946  10.780  1.00  0.00     0.000 C 
BRANCH  12  13
ATOM     13  C   UNL     1       0.563  -6.817  11.675  1.00  0.00    -0.000 C 
BRANCH  13  14
ATOM     14  C   UNL     1      -0.783  -7.170  11.015  1.00  0.00    -0.000 C 
BRANCH  14  15
ATOM     15  C   UNL     1      -0.778  -8.445  10.154  1.00  0.00    -0.000 C 
BRANCH  15  16
ATOM     16  C   UNL     1       0.201  -9.512  10.665  1.00  0.00    -0.000 C 
BRANCH  16  17
ATOM     17  C   UNL     1       1.446  -9.589   9.772  1.00  0.00    -0.000 C 
BRANCH  17  18
ATOM     18  C   UNL     1       2.578  -8.721  10.332  1.00  0.00    -0.003 C 
ATOM     19  C   UNL     1       3.942  -9.352  10.063  1.00  0.00     0.004 C 
ENDBRANCH  17  18
ENDBRANCH  16  17
ENDBRANCH  15  16
ENDBRANCH  14  15
ENDBRANCH  13  14
ENDBRANCH  12  13
ENDBRANCH   1  12
TORSDOF 14
ENDMDL
MODEL 9
REMARK VINA RESULT:    14.880      3.450      5.146
REMARK INTER + INTRA:          26.887
REMARK INTER:                  25.961
REMARK INTRA:                   0.926
REMARK UNBOUND:                -0.172
REMARK SMILES CCCCCCCCCCCCCC[C@@H](C)C(=O)[O-]
REMARK SMILES IDX 9 1 10 2 11 3 12 4 13 5 14 6 15 7 16 8 17 9 18 10 19 11 8 12
REMARK SMILES IDX 7 13 6 14 5 15 4 16 3 17 2 18 1 19
REMARK H PARENT
REMARK Flexibility Score: inf
ROOT
ATOM      1  C   UNL     1       1.126  -8.225  13.050  1.00  0.00     0.000 C 
ENDROOT
BRANCH   1   2
ATOM      2  C   UNL     1       1.105  -9.621  13.699  1.00  0.00     0.000 C 
BRANCH   2   3
ATOM      3  C   UNL     1       1.828  -9.666  15.054  1.00  0.00     0.000 C 
BRANCH   3   4
ATOM      4  C   UNL     1       3.330  -9.931  14.866  1.00  0.00     0.000 C 
BRANCH   4   5
ATOM      5  C   UNL     1       4.096  -8.685  14.393  1.00  0.00     0.001 C 
BRANCH   5   6
ATOM      6  C   UNL     1       4.800  -8.901  13.040  1.00  0.00     0.009 C 
BRANCH   6   7
ATOM      7  C   UNL     1       4.600  -7.717  12.069  1.00  0.00     0.032 C 
ATOM      8  C   UNL     1       5.870  -6.869  11.913  1.00  0.00     0.014 C 
BRANCH   7   9
ATOM      9  C   UNL     1       4.173  -8.230  10.722  1.00  0.00     0.044 C 
ATOM     10  O   UNL     1       5.034  -8.498   9.844  1.00  0.00    -0.550 OA
ATOM     11  O   UNL     1       2.824  -8.414  10.437  1.00  0.00    -0.550 OA
ENDBRANCH   7   9
ENDBRANCH   6   7
ENDBRANCH   5   6
ENDBRANCH   4   5
ENDBRANCH   3   4
ENDBRANCH   2   3
ENDBRANCH   1   2
BRANCH   1  12
ATOM     12  C   UNL     1      -0.082  -7.898  12.151  1.00  0.00     0.000 C 
BRANCH  12  13
ATOM     13  C   UNL     1      -0.252  -8.891  10.989  1.00  0.00    -0.000 C 
BRANCH  13  14
ATOM     14  C   UNL     1      -1.124  -8.336   9.847  1.00  0.00    -0.000 C 
BRANCH  14  15
ATOM     15  C   UNL     1      -0.755  -6.921   9.367  1.00  0.00    -0.000 C 
BRANCH  15  16
ATOM     16  C   UNL     1       0.329  -6.257  10.229  1.00  0.00    -0.000 C 
BRANCH  16  17
ATOM     17  C   UNL     1       1.338  -5.500   9.357  1.00  0.00    -0.000 C 
BRANCH  17  18
ATOM     18  C   UNL     1       2.390  -4.795  10.220  1.00  0.00    -0.003 C 
ATOM     19  C   UNL     1       2.539  -5.477  11.577  1.00  0.00     0.004 C 
ENDBRANCH  17  18
ENDBRANCH  16  17
ENDBRANCH  15  16
ENDBRANCH  14  15
ENDBRANCH  13  14
ENDBRANCH  12  13
ENDBRANCH   1  12
TORSDOF 14
ENDMDL
