MODEL 1
REMARK VINA RESULT:    -4.879      0.000      0.000
REMARK INTER + INTRA:          -6.209
REMARK INTER:                  -5.878
REMARK INTRA:                  -0.332
REMARK UNBOUND:                -0.332
REMARK SMILES O=c1c(O)c(-c2ccc(O)c(O)c2)oc2cc(O)cc(O)c12
REMARK SMILES IDX 5 1 3 2 2 3 1 4 22 5 20 6 19 7 17 8 16 9 15 10 14 11 6 12
REMARK SMILES IDX 7 13 8 14 9 15 13 16 11 17 10 18 12 20 4 22 21 24 18 26
REMARK H PARENT 10 19 12 21 4 23 21 25 18 27
REMARK Flexibility Score: inf
ROOT
ATOM      1  C   UNL     1       4.316  14.581  73.221  1.00  0.00     0.180 A 
ATOM      2  C   UNL     1       4.483  15.973  73.114  1.00  0.00     0.208 A 
ATOM      3  C   UNL     1       3.370  16.809  73.301  1.00  0.00     0.238 A 
ATOM      4  O   UNL     1       3.537  18.056  73.259  1.00  0.00    -0.285 OA
ATOM      5  C   UNL     1       2.103  16.242  73.575  1.00  0.00     0.111 A 
ATOM      6  C   UNL     1       0.898  16.991  73.741  1.00  0.00     0.134 A 
ATOM      7  C   UNL     1      -0.273  16.336  74.138  1.00  0.00     0.093 A 
ATOM      8  C   UNL     1      -0.301  14.950  74.311  1.00  0.00     0.123 A 
ATOM      9  C   UNL     1       0.854  14.203  74.092  1.00  0.00     0.094 A 
ATOM     10  C   UNL     1       2.048  14.832  73.731  1.00  0.00     0.146 A 
ATOM     11  O   UNL     1       3.128  14.084  73.544  1.00  0.00    -0.452 OA
ENDROOT
BRANCH   1  12
ATOM     12  C   UNL     1       5.437  13.635  73.013  1.00  0.00     0.025 A 
ATOM     13  C   UNL     1       5.779  13.177  71.732  1.00  0.00     0.016 A 
ATOM     14  C   UNL     1       6.823  12.266  71.563  1.00  0.00     0.051 A 
ATOM     15  C   UNL     1       7.537  11.785  72.667  1.00  0.00     0.157 A 
ATOM     16  C   UNL     1       6.136  13.138  74.124  1.00  0.00     0.062 A 
ATOM     17  C   UNL     1       7.185  12.224  73.965  1.00  0.00     0.158 A 
BRANCH  15  18
ATOM     18  O   UNL     1       8.574  10.880  72.430  1.00  0.00    -0.504 OA
ATOM     19  H   UNL     1       9.529  11.029  72.719  1.00  0.00     0.293 HD
ENDBRANCH  15  18
BRANCH  17  20
ATOM     20  O   UNL     1       7.845  11.781  75.114  1.00  0.00    -0.504 OA
ATOM     21  H   UNL     1       8.020  12.359  75.923  1.00  0.00     0.293 HD
ENDBRANCH  17  20
ENDBRANCH   1  12
BRANCH   2  22
ATOM     22  O   UNL     1       5.749  16.512  72.865  1.00  0.00    -0.502 OA
ATOM     23  H   UNL     1       6.603  16.002  73.052  1.00  0.00     0.293 HD
ENDBRANCH   2  22
BRANCH   6  24
ATOM     24  O   UNL     1       0.796  18.365  73.504  1.00  0.00    -0.507 OA
ATOM     25  H   UNL     1       0.500  19.045  74.188  1.00  0.00     0.293 HD
ENDBRANCH   6  24
BRANCH   8  26
ATOM     26  O   UNL     1      -1.475  14.305  74.691  1.00  0.00    -0.508 OA
ATOM     27  H   UNL     1      -2.330  14.399  74.155  1.00  0.00     0.293 HD
ENDBRANCH   8  26
TORSDOF 6
ENDMDL
MODEL 2
REMARK VINA RESULT:    -4.860     12.391     15.029
REMARK INTER + INTRA:          -6.186
REMARK INTER:                  -5.862
REMARK INTRA:                  -0.324
REMARK UNBOUND:                -0.332
REMARK SMILES O=c1c(O)c(-c2ccc(O)c(O)c2)oc2cc(O)cc(O)c12
REMARK SMILES IDX 5 1 3 2 2 3 1 4 22 5 20 6 19 7 17 8 16 9 15 10 14 11 6 12
REMARK SMILES IDX 7 13 8 14 9 15 13 16 11 17 10 18 12 20 4 22 21 24 18 26
REMARK H PARENT 10 19 12 21 4 23 21 25 18 27
REMARK Flexibility Score: inf
ROOT
ATOM      1  C   UNL     1      10.706  11.898  60.177  1.00  0.00     0.180 A 
ATOM      2  C   UNL     1      11.860  12.581  60.600  1.00  0.00     0.208 A 
ATOM      3  C   UNL     1      11.717  13.800  61.284  1.00  0.00     0.238 A 
ATOM      4  O   UNL     1      12.750  14.380  61.708  1.00  0.00    -0.285 OA
ATOM      5  C   UNL     1      10.425  14.327  61.519  1.00  0.00     0.111 A 
ATOM      6  C   UNL     1      10.163  15.573  62.166  1.00  0.00     0.134 A 
ATOM      7  C   UNL     1       8.843  15.934  62.462  1.00  0.00     0.093 A 
ATOM      8  C   UNL     1       7.771  15.125  62.078  1.00  0.00     0.123 A 
ATOM      9  C   UNL     1       8.013  13.937  61.394  1.00  0.00     0.094 A 
ATOM     10  C   UNL     1       9.321  13.532  61.115  1.00  0.00     0.146 A 
ATOM     11  O   UNL     1       9.507  12.386  60.471  1.00  0.00    -0.452 OA
ENDROOT
BRANCH   1  12
ATOM     12  C   UNL     1      10.777  10.621  59.430  1.00  0.00     0.025 A 
ATOM     13  C   UNL     1      10.755  10.592  58.027  1.00  0.00     0.016 A 
ATOM     14  C   UNL     1      10.798   9.375  57.346  1.00  0.00     0.051 A 
ATOM     15  C   UNL     1      10.850   8.165  58.046  1.00  0.00     0.157 A 
ATOM     16  C   UNL     1      10.807   9.408  60.136  1.00  0.00     0.062 A 
ATOM     17  C   UNL     1      10.851   8.182  59.461  1.00  0.00     0.158 A 
BRANCH  15  18
ATOM     18  O   UNL     1      10.897   6.982  57.305  1.00  0.00    -0.504 OA
ATOM     19  H   UNL     1      10.281   6.776  56.532  1.00  0.00     0.293 HD
ENDBRANCH  15  18
BRANCH  17  20
ATOM     20  O   UNL     1      10.891   7.016  60.229  1.00  0.00    -0.504 OA
ATOM     21  H   UNL     1      10.497   6.935  61.154  1.00  0.00     0.293 HD
ENDBRANCH  17  20
ENDBRANCH   1  12
BRANCH   2  22
ATOM     22  O   UNL     1      13.125  12.031  60.376  1.00  0.00    -0.502 OA
ATOM     23  H   UNL     1      13.372  11.097  60.677  1.00  0.00     0.293 HD
ENDBRANCH   2  22
BRANCH   6  24
ATOM     24  O   UNL     1      11.155  16.497  62.509  1.00  0.00    -0.507 OA
ATOM     25  H   UNL     1      11.915  16.774  61.907  1.00  0.00     0.293 HD
ENDBRANCH   6  24
BRANCH   8  26
ATOM     26  O   UNL     1       6.461  15.499  62.364  1.00  0.00    -0.508 OA
ATOM     27  H   UNL     1       5.879  15.962  61.676  1.00  0.00     0.293 HD
ENDBRANCH   8  26
TORSDOF 6
ENDMDL
MODEL 3
REMARK VINA RESULT:    -4.797     12.556     15.997
REMARK INTER + INTRA:          -6.111
REMARK INTER:                  -5.789
REMARK INTRA:                  -0.321
REMARK UNBOUND:                -0.332
REMARK SMILES O=c1c(O)c(-c2ccc(O)c(O)c2)oc2cc(O)cc(O)c12
REMARK SMILES IDX 5 1 3 2 2 3 1 4 22 5 20 6 19 7 17 8 16 9 15 10 14 11 6 12
REMARK SMILES IDX 7 13 8 14 9 15 13 16 11 17 10 18 12 20 4 22 21 24 18 26
REMARK H PARENT 10 19 12 21 4 23 21 25 18 27
REMARK Flexibility Score: inf
ROOT
ATOM      1  C   UNL     1      10.088  12.187  60.936  1.00  0.00     0.180 A 
ATOM      2  C   UNL     1      10.285  11.168  61.885  1.00  0.00     0.208 A 
ATOM      3  C   UNL     1      10.550   9.863  61.438  1.00  0.00     0.238 A 
ATOM      4  O   UNL     1      10.780   8.967  62.292  1.00  0.00    -0.285 OA
ATOM      5  C   UNL     1      10.596   9.591  60.050  1.00  0.00     0.111 A 
ATOM      6  C   UNL     1      10.816   8.298  59.485  1.00  0.00     0.134 A 
ATOM      7  C   UNL     1      10.972   8.167  58.100  1.00  0.00     0.093 A 
ATOM      8  C   UNL     1      10.851   9.272  57.254  1.00  0.00     0.123 A 
ATOM      9  C   UNL     1      10.577  10.527  57.791  1.00  0.00     0.094 A 
ATOM     10  C   UNL     1      10.452  10.696  59.172  1.00  0.00     0.146 A 
ATOM     11  O   UNL     1      10.203  11.912  59.642  1.00  0.00    -0.452 OA
ENDROOT
BRANCH   1  12
ATOM     12  C   UNL     1       9.781  13.581  61.331  1.00  0.00     0.025 A 
ATOM     13  C   UNL     1      10.801  14.504  61.608  1.00  0.00     0.016 A 
ATOM     14  C   UNL     1      10.487  15.806  62.002  1.00  0.00     0.051 A 
ATOM     15  C   UNL     1       9.154  16.209  62.140  1.00  0.00     0.157 A 
ATOM     16  C   UNL     1       8.443  13.976  61.490  1.00  0.00     0.062 A 
ATOM     17  C   UNL     1       8.119  15.280  61.884  1.00  0.00     0.158 A 
BRANCH  15  18
ATOM     18  O   UNL     1       8.908  17.526  62.533  1.00  0.00    -0.504 OA
ATOM     19  H   UNL     1       8.168  17.797  63.164  1.00  0.00     0.293 HD
ENDBRANCH  15  18
BRANCH  17  20
ATOM     20  O   UNL     1       6.766  15.605  62.010  1.00  0.00    -0.504 OA
ATOM     21  H   UNL     1       6.199  15.363  62.809  1.00  0.00     0.293 HD
ENDBRANCH  17  20
ENDBRANCH   1  12
BRANCH   2  22
ATOM     22  O   UNL     1      10.257  11.464  63.251  1.00  0.00    -0.502 OA
ATOM     23  H   UNL     1      11.052  11.858  63.738  1.00  0.00     0.293 HD
ENDBRANCH   2  22
BRANCH   6  24
ATOM     24  O   UNL     1      10.861   7.117  60.232  1.00  0.00    -0.507 OA
ATOM     25  H   UNL     1      10.059   6.548  60.456  1.00  0.00     0.293 HD
ENDBRANCH   6  24
BRANCH   8  26
ATOM     26  O   UNL     1      10.992   9.130  55.875  1.00  0.00    -0.508 OA
ATOM     27  H   UNL     1      10.188   9.068  55.263  1.00  0.00     0.293 HD
ENDBRANCH   8  26
TORSDOF 6
ENDMDL
MODEL 4
REMARK VINA RESULT:    -4.701      1.307      3.059
REMARK INTER + INTRA:          -5.995
REMARK INTER:                  -5.696
REMARK INTRA:                  -0.299
REMARK UNBOUND:                -0.332
REMARK SMILES O=c1c(O)c(-c2ccc(O)c(O)c2)oc2cc(O)cc(O)c12
REMARK SMILES IDX 5 1 3 2 2 3 1 4 22 5 20 6 19 7 17 8 16 9 15 10 14 11 6 12
REMARK SMILES IDX 7 13 8 14 9 15 13 16 11 17 10 18 12 20 4 22 21 24 18 26
REMARK H PARENT 10 19 12 21 4 23 21 25 18 27
REMARK Flexibility Score: inf
ROOT
ATOM      1  C   UNL     1       3.353  13.245  73.428  1.00  0.00     0.180 A 
ATOM      2  C   UNL     1       2.265  12.371  73.596  1.00  0.00     0.208 A 
ATOM      3  C   UNL     1       0.997  12.908  73.872  1.00  0.00     0.238 A 
ATOM      4  O   UNL     1       0.016  12.124  73.967  1.00  0.00    -0.285 OA
ATOM      5  C   UNL     1       0.837  14.309  73.994  1.00  0.00     0.111 A 
ATOM      6  C   UNL     1      -0.394  14.960  74.311  1.00  0.00     0.134 A 
ATOM      7  C   UNL     1      -0.464  16.357  74.277  1.00  0.00     0.093 A 
ATOM      8  C   UNL     1       0.666  17.130  74.001  1.00  0.00     0.123 A 
ATOM      9  C   UNL     1       1.885  16.505  73.748  1.00  0.00     0.094 A 
ATOM     10  C   UNL     1       1.979  15.112  73.740  1.00  0.00     0.146 A 
ATOM     11  O   UNL     1       3.158  14.557  73.483  1.00  0.00    -0.452 OA
ENDROOT
BRANCH   1  12
ATOM     12  C   UNL     1       4.724  12.753  73.158  1.00  0.00     0.025 A 
ATOM     13  C   UNL     1       5.126  12.379  71.867  1.00  0.00     0.016 A 
ATOM     14  C   UNL     1       6.415  11.894  71.642  1.00  0.00     0.051 A 
ATOM     15  C   UNL     1       7.323  11.760  72.698  1.00  0.00     0.157 A 
ATOM     16  C   UNL     1       5.625  12.599  74.224  1.00  0.00     0.062 A 
ATOM     17  C   UNL     1       6.920  12.114  74.008  1.00  0.00     0.158 A 
BRANCH  15  18
ATOM     18  O   UNL     1       8.599  11.274  72.406  1.00  0.00    -0.504 OA
ATOM     19  H   UNL     1       8.792  10.595  71.684  1.00  0.00     0.293 HD
ENDBRANCH  15  18
BRANCH  17  20
ATOM     20  O   UNL     1       7.767  11.999  75.113  1.00  0.00    -0.504 OA
ATOM     21  H   UNL     1       7.807  12.670  75.866  1.00  0.00     0.293 HD
ENDBRANCH  17  20
ENDBRANCH   1  12
BRANCH   2  22
ATOM     22  O   UNL     1       2.441  10.992  73.449  1.00  0.00    -0.502 OA
ATOM     23  H   UNL     1       2.307  10.343  74.214  1.00  0.00     0.293 HD
ENDBRANCH   2  22
BRANCH   6  24
ATOM     24  O   UNL     1      -1.557  14.285  74.691  1.00  0.00    -0.507 OA
ATOM     25  H   UNL     1      -1.590  13.523  75.352  1.00  0.00     0.293 HD
ENDBRANCH   6  24
BRANCH   8  26
ATOM     26  O   UNL     1       0.590  18.520  73.984  1.00  0.00    -0.508 OA
ATOM     27  H   UNL     1      -0.300  19.003  74.024  1.00  0.00     0.293 HD
ENDBRANCH   8  26
TORSDOF 6
ENDMDL
MODEL 5
REMARK VINA RESULT:    -4.632      2.482      6.380
REMARK INTER + INTRA:          -5.911
REMARK INTER:                  -5.576
REMARK INTRA:                  -0.335
REMARK UNBOUND:                -0.332
REMARK SMILES O=c1c(O)c(-c2ccc(O)c(O)c2)oc2cc(O)cc(O)c12
REMARK SMILES IDX 5 1 3 2 2 3 1 4 22 5 20 6 19 7 17 8 16 9 15 10 14 11 6 12
REMARK SMILES IDX 7 13 8 14 9 15 13 16 11 17 10 18 12 20 4 22 21 24 18 26
REMARK H PARENT 10 19 12 21 4 23 21 25 18 27
REMARK Flexibility Score: inf
ROOT
ATOM      1  C   UNL     1       2.939  16.172  73.943  1.00  0.00     0.180 A 
ATOM      2  C   UNL     1       4.201  15.683  73.559  1.00  0.00     0.208 A 
ATOM      3  C   UNL     1       4.428  14.298  73.573  1.00  0.00     0.238 A 
ATOM      4  O   UNL     1       5.541  13.863  73.177  1.00  0.00    -0.285 OA
ATOM      5  C   UNL     1       3.398  13.420  73.988  1.00  0.00     0.111 A 
ATOM      6  C   UNL     1       3.530  12.001  74.081  1.00  0.00     0.134 A 
ATOM      7  C   UNL     1       2.406  11.221  74.377  1.00  0.00     0.093 A 
ATOM      8  C   UNL     1       1.170  11.812  74.648  1.00  0.00     0.123 A 
ATOM      9  C   UNL     1       1.045  13.198  74.619  1.00  0.00     0.094 A 
ATOM     10  C   UNL     1       2.139  14.002  74.291  1.00  0.00     0.146 A 
ATOM     11  O   UNL     1       1.973  15.319  74.263  1.00  0.00    -0.452 OA
ENDROOT
BRANCH   1  12
ATOM     12  C   UNL     1       2.632  17.620  73.976  1.00  0.00     0.025 A 
ATOM     13  C   UNL     1       2.873  18.392  75.123  1.00  0.00     0.016 A 
ATOM     14  C   UNL     1       2.552  19.751  75.139  1.00  0.00     0.051 A 
ATOM     15  C   UNL     1       1.976  20.362  74.020  1.00  0.00     0.157 A 
ATOM     16  C   UNL     1       2.034  18.225  72.860  1.00  0.00     0.062 A 
ATOM     17  C   UNL     1       1.709  19.588  72.866  1.00  0.00     0.158 A 
BRANCH  15  18
ATOM     18  O   UNL     1       1.684  21.726  74.098  1.00  0.00    -0.504 OA
ATOM     19  H   UNL     1       0.775  22.120  73.903  1.00  0.00     0.293 HD
ENDBRANCH  15  18
BRANCH  17  20
ATOM     20  O   UNL     1       1.127  20.125  71.716  1.00  0.00    -0.504 OA
ATOM     21  H   UNL     1       0.158  20.398  71.648  1.00  0.00     0.293 HD
ENDBRANCH  17  20
ENDBRANCH   1  12
BRANCH   2  22
ATOM     22  O   UNL     1       5.196  16.566  73.132  1.00  0.00    -0.502 OA
ATOM     23  H   UNL     1       5.023  17.289  72.444  1.00  0.00     0.293 HD
ENDBRANCH   2  22
BRANCH   6  24
ATOM     24  O   UNL     1       4.739  11.318  73.920  1.00  0.00    -0.507 OA
ATOM     25  H   UNL     1       5.603  11.744  73.618  1.00  0.00     0.293 HD
ENDBRANCH   6  24
BRANCH   8  26
ATOM     26  O   UNL     1       0.061  11.028  74.957  1.00  0.00    -0.508 OA
ATOM     27  H   UNL     1      -0.863  11.256  74.610  1.00  0.00     0.293 HD
ENDBRANCH   8  26
TORSDOF 6
ENDMDL
MODEL 6
REMARK VINA RESULT:    -4.521     13.358     15.206
REMARK INTER + INTRA:          -5.778
REMARK INTER:                  -5.457
REMARK INTRA:                  -0.321
REMARK UNBOUND:                -0.332
REMARK SMILES O=c1c(O)c(-c2ccc(O)c(O)c2)oc2cc(O)cc(O)c12
REMARK SMILES IDX 5 1 3 2 2 3 1 4 22 5 20 6 19 7 17 8 16 9 15 10 14 11 6 12
REMARK SMILES IDX 7 13 8 14 9 15 13 16 11 17 10 18 12 20 4 22 21 24 18 26
REMARK H PARENT 10 19 12 21 4 23 21 25 18 27
REMARK Flexibility Score: inf
ROOT
ATOM      1  C   UNL     1      -1.449  13.185  60.621  1.00  0.00     0.180 A 
ATOM      2  C   UNL     1      -1.785  12.260  59.616  1.00  0.00     0.208 A 
ATOM      3  C   UNL     1      -1.313  10.941  59.720  1.00  0.00     0.238 A 
ATOM      4  O   UNL     1      -1.661  10.104  58.846  1.00  0.00    -0.285 OA
ATOM      5  C   UNL     1      -0.499  10.569  60.816  1.00  0.00     0.111 A 
ATOM      6  C   UNL     1       0.068   9.271  61.001  1.00  0.00     0.134 A 
ATOM      7  C   UNL     1       0.750   8.979  62.189  1.00  0.00     0.093 A 
ATOM      8  C   UNL     1       0.941   9.955  63.169  1.00  0.00     0.123 A 
ATOM      9  C   UNL     1       0.444  11.240  62.971  1.00  0.00     0.094 A 
ATOM     10  C   UNL     1      -0.272  11.553  61.813  1.00  0.00     0.146 A 
ATOM     11  O   UNL     1      -0.739  12.787  61.670  1.00  0.00    -0.452 OA
ENDROOT
BRANCH   1  12
ATOM     12  C   UNL     1      -1.889  14.598  60.568  1.00  0.00     0.025 A 
ATOM     13  C   UNL     1      -3.133  14.995  61.080  1.00  0.00     0.016 A 
ATOM     14  C   UNL     1      -3.537  16.329  60.997  1.00  0.00     0.051 A 
ATOM     15  C   UNL     1      -2.717  17.288  60.392  1.00  0.00     0.157 A 
ATOM     16  C   UNL     1      -1.074  15.552  59.941  1.00  0.00     0.062 A 
ATOM     17  C   UNL     1      -1.470  16.893  59.853  1.00  0.00     0.158 A 
BRANCH  15  18
ATOM     18  O   UNL     1      -3.177  18.605  60.345  1.00  0.00    -0.504 OA
ATOM     19  H   UNL     1      -3.584  19.032  59.526  1.00  0.00     0.293 HD
ENDBRANCH  15  18
BRANCH  17  20
ATOM     20  O   UNL     1      -0.602  17.790  59.225  1.00  0.00    -0.504 OA
ATOM     21  H   UNL     1      -0.068  18.494  59.713  1.00  0.00     0.293 HD
ENDBRANCH  17  20
ENDBRANCH   1  12
BRANCH   2  22
ATOM     22  O   UNL     1      -2.608  12.643  58.554  1.00  0.00    -0.502 OA
ATOM     23  H   UNL     1      -2.861  13.608  58.384  1.00  0.00     0.293 HD
ENDBRANCH   2  22
BRANCH   6  24
ATOM     24  O   UNL     1       0.014   8.253  60.045  1.00  0.00    -0.507 OA
ATOM     25  H   UNL     1       0.410   8.313  59.119  1.00  0.00     0.293 HD
ENDBRANCH   6  24
BRANCH   8  26
ATOM     26  O   UNL     1       1.634   9.658  64.341  1.00  0.00    -0.508 OA
ATOM     27  H   UNL     1       1.315   8.937  64.977  1.00  0.00     0.293 HD
ENDBRANCH   8  26
TORSDOF 6
ENDMDL
MODEL 7
REMARK VINA RESULT:    -4.476     14.595     15.630
REMARK INTER + INTRA:          -5.723
REMARK INTER:                  -5.493
REMARK INTRA:                  -0.231
REMARK UNBOUND:                -0.332
REMARK SMILES O=c1c(O)c(-c2ccc(O)c(O)c2)oc2cc(O)cc(O)c12
REMARK SMILES IDX 5 1 3 2 2 3 1 4 22 5 20 6 19 7 17 8 16 9 15 10 14 11 6 12
REMARK SMILES IDX 7 13 8 14 9 15 13 16 11 17 10 18 12 20 4 22 21 24 18 26
REMARK H PARENT 10 19 12 21 4 23 21 25 18 27
REMARK Flexibility Score: inf
ROOT
ATOM      1  C   UNL     1      -1.250  17.539  59.639  1.00  0.00     0.180 A 
ATOM      2  C   UNL     1      -1.916  16.425  59.099  1.00  0.00     0.208 A 
ATOM      3  C   UNL     1      -3.298  16.506  58.862  1.00  0.00     0.238 A 
ATOM      4  O   UNL     1      -3.878  15.525  58.328  1.00  0.00    -0.285 OA
ATOM      5  C   UNL     1      -3.999  17.692  59.185  1.00  0.00     0.111 A 
ATOM      6  C   UNL     1      -5.406  17.871  59.025  1.00  0.00     0.134 A 
ATOM      7  C   UNL     1      -5.973  19.131  59.254  1.00  0.00     0.093 A 
ATOM      8  C   UNL     1      -5.193  20.201  59.699  1.00  0.00     0.123 A 
ATOM      9  C   UNL     1      -3.830  20.021  59.915  1.00  0.00     0.094 A 
ATOM     10  C   UNL     1      -3.229  18.786  59.661  1.00  0.00     0.146 A 
ATOM     11  O   UNL     1      -1.924  18.660  59.869  1.00  0.00    -0.452 OA
ENDROOT
BRANCH   1  12
ATOM     12  C   UNL     1       0.200  17.521  59.938  1.00  0.00     0.025 A 
ATOM     13  C   UNL     1       0.723  16.730  60.973  1.00  0.00     0.016 A 
ATOM     14  C   UNL     1       2.091  16.748  61.253  1.00  0.00     0.051 A 
ATOM     15  C   UNL     1       2.960  17.562  60.518  1.00  0.00     0.157 A 
ATOM     16  C   UNL     1       1.066  18.355  59.215  1.00  0.00     0.062 A 
ATOM     17  C   UNL     1       2.439  18.380  59.488  1.00  0.00     0.158 A 
BRANCH  15  18
ATOM     18  O   UNL     1       4.317  17.531  60.845  1.00  0.00    -0.504 OA
ATOM     19  H   UNL     1       5.039  17.976  60.298  1.00  0.00     0.293 HD
ENDBRANCH  15  18
BRANCH  17  20
ATOM     20  O   UNL     1       3.242  19.226  58.719  1.00  0.00    -0.504 OA
ATOM     21  H   UNL     1       3.530  20.149  59.008  1.00  0.00     0.293 HD
ENDBRANCH  17  20
ENDBRANCH   1  12
BRANCH   2  22
ATOM     22  O   UNL     1      -1.200  15.271  58.767  1.00  0.00    -0.502 OA
ATOM     23  H   UNL     1      -0.444  15.275  58.094  1.00  0.00     0.293 HD
ENDBRANCH   2  22
BRANCH   6  24
ATOM     24  O   UNL     1      -6.288  16.845  58.674  1.00  0.00    -0.507 OA
ATOM     25  H   UNL     1      -6.853  16.834  57.838  1.00  0.00     0.293 HD
ENDBRANCH   6  24
BRANCH   8  26
ATOM     26  O   UNL     1      -5.768  21.447  59.939  1.00  0.00    -0.508 OA
ATOM     27  H   UNL     1      -5.202  22.265  60.131  1.00  0.00     0.293 HD
ENDBRANCH   8  26
TORSDOF 6
ENDMDL
MODEL 8
REMARK VINA RESULT:    -4.454     12.313     14.937
REMARK INTER + INTRA:          -5.696
REMARK INTER:                  -5.362
REMARK INTRA:                  -0.335
REMARK UNBOUND:                -0.332
REMARK SMILES O=c1c(O)c(-c2ccc(O)c(O)c2)oc2cc(O)cc(O)c12
REMARK SMILES IDX 5 1 3 2 2 3 1 4 22 5 20 6 19 7 17 8 16 9 15 10 14 11 6 12
REMARK SMILES IDX 7 13 8 14 9 15 13 16 11 17 10 18 12 20 4 22 21 24 18 26
REMARK H PARENT 10 19 12 21 4 23 21 25 18 27
REMARK Flexibility Score: inf
ROOT
ATOM      1  C   UNL     1       9.800  12.032  61.393  1.00  0.00     0.180 A 
ATOM      2  C   UNL     1      10.003  11.475  60.118  1.00  0.00     0.208 A 
ATOM      3  C   UNL     1      10.216  10.091  60.005  1.00  0.00     0.238 A 
ATOM      4  O   UNL     1      10.342   9.590  58.858  1.00  0.00    -0.285 OA
ATOM      5  C   UNL     1      10.241   9.286  61.169  1.00  0.00     0.111 A 
ATOM      6  C   UNL     1      10.488   7.880  61.178  1.00  0.00     0.134 A 
ATOM      7  C   UNL     1      10.360   7.163  62.373  1.00  0.00     0.093 A 
ATOM      8  C   UNL     1      10.057   7.811  63.573  1.00  0.00     0.123 A 
ATOM      9  C   UNL     1       9.872   9.191  63.586  1.00  0.00     0.094 A 
ATOM     10  C   UNL     1       9.958   9.929  62.403  1.00  0.00     0.146 A 
ATOM     11  O   UNL     1       9.764  11.241  62.458  1.00  0.00    -0.452 OA
ENDROOT
BRANCH   1  12
ATOM     12  C   UNL     1       9.594  13.485  61.593  1.00  0.00     0.025 A 
ATOM     13  C   UNL     1      10.676  14.358  61.780  1.00  0.00     0.016 A 
ATOM     14  C   UNL     1      10.456  15.720  61.992  1.00  0.00     0.051 A 
ATOM     15  C   UNL     1       9.155  16.235  62.033  1.00  0.00     0.157 A 
ATOM     16  C   UNL     1       8.288  13.995  61.656  1.00  0.00     0.062 A 
ATOM     17  C   UNL     1       8.057  15.360  61.868  1.00  0.00     0.158 A 
BRANCH  15  18
ATOM     18  O   UNL     1       9.003  17.608  62.244  1.00  0.00    -0.504 OA
ATOM     19  H   UNL     1       9.195  18.310  61.544  1.00  0.00     0.293 HD
ENDBRANCH  15  18
BRANCH  17  20
ATOM     20  O   UNL     1       6.731  15.798  61.907  1.00  0.00    -0.504 OA
ATOM     21  H   UNL     1       6.177  15.846  62.749  1.00  0.00     0.293 HD
ENDBRANCH  17  20
ENDBRANCH   1  12
BRANCH   2  22
ATOM     22  O   UNL     1       9.953  12.285  58.980  1.00  0.00    -0.502 OA
ATOM     23  H   UNL     1       9.346  13.092  58.914  1.00  0.00     0.293 HD
ENDBRANCH   2  22
BRANCH   6  24
ATOM     24  O   UNL     1      10.887   7.152  60.053  1.00  0.00    -0.507 OA
ATOM     25  H   UNL     1      11.532   7.485  59.352  1.00  0.00     0.293 HD
ENDBRANCH   6  24
BRANCH   8  26
ATOM     26  O   UNL     1       9.946   7.091  64.761  1.00  0.00    -0.508 OA
ATOM     27  H   UNL     1       9.456   6.205  64.800  1.00  0.00     0.293 HD
ENDBRANCH   8  26
TORSDOF 6
ENDMDL
MODEL 9
REMARK VINA RESULT:    -4.366      2.078      6.790
REMARK INTER + INTRA:          -5.591
REMARK INTER:                  -5.327
REMARK INTRA:                  -0.264
REMARK UNBOUND:                -0.332
REMARK SMILES O=c1c(O)c(-c2ccc(O)c(O)c2)oc2cc(O)cc(O)c12
REMARK SMILES IDX 5 1 3 2 2 3 1 4 22 5 20 6 19 7 17 8 16 9 15 10 14 11 6 12
REMARK SMILES IDX 7 13 8 14 9 15 13 16 11 17 10 18 12 20 4 22 21 24 18 26
REMARK H PARENT 10 19 12 21 4 23 21 25 18 27
REMARK Flexibility Score: inf
ROOT
ATOM      1  C   UNL     1       3.328  16.552  73.888  1.00  0.00     0.180 A 
ATOM      2  C   UNL     1       4.454  16.838  73.095  1.00  0.00     0.208 A 
ATOM      3  C   UNL     1       5.288  15.783  72.691  1.00  0.00     0.238 A 
ATOM      4  O   UNL     1       6.263  16.039  71.936  1.00  0.00    -0.285 OA
ATOM      5  C   UNL     1       4.998  14.460  73.100  1.00  0.00     0.111 A 
ATOM      6  C   UNL     1       5.797  13.320  72.783  1.00  0.00     0.134 A 
ATOM      7  C   UNL     1       5.344  12.041  73.130  1.00  0.00     0.093 A 
ATOM      8  C   UNL     1       4.153  11.866  73.838  1.00  0.00     0.123 A 
ATOM      9  C   UNL     1       3.396  12.976  74.203  1.00  0.00     0.094 A 
ATOM     10  C   UNL     1       3.803  14.262  73.841  1.00  0.00     0.146 A 
ATOM     11  O   UNL     1       3.046  15.292  74.199  1.00  0.00    -0.452 OA
ENDROOT
BRANCH   1  12
ATOM     12  C   UNL     1       2.416  17.613  74.372  1.00  0.00     0.025 A 
ATOM     13  C   UNL     1       2.800  18.499  75.390  1.00  0.00     0.016 A 
ATOM     14  C   UNL     1       1.913  19.475  75.848  1.00  0.00     0.051 A 
ATOM     15  C   UNL     1       0.626  19.580  75.310  1.00  0.00     0.157 A 
ATOM     16  C   UNL     1       1.118  17.701  73.846  1.00  0.00     0.062 A 
ATOM     17  C   UNL     1       0.221  18.677  74.298  1.00  0.00     0.158 A 
BRANCH  15  18
ATOM     18  O   UNL     1      -0.210  20.582  75.807  1.00  0.00    -0.504 OA
ATOM     19  H   UNL     1      -0.964  21.000  75.282  1.00  0.00     0.293 HD
ENDBRANCH  15  18
BRANCH  17  20
ATOM     20  O   UNL     1      -1.050  18.713  73.721  1.00  0.00    -0.504 OA
ATOM     21  H   UNL     1      -1.637  17.902  73.596  1.00  0.00     0.293 HD
ENDBRANCH  17  20
ENDBRANCH   1  12
BRANCH   2  22
ATOM     22  O   UNL     1       4.710  18.150  72.685  1.00  0.00    -0.502 OA
ATOM     23  H   UNL     1       4.018  18.885  72.755  1.00  0.00     0.293 HD
ENDBRANCH   2  22
BRANCH   6  24
ATOM     24  O   UNL     1       7.046  13.392  72.160  1.00  0.00    -0.507 OA
ATOM     25  H   UNL     1       7.655  12.603  72.001  1.00  0.00     0.293 HD
ENDBRANCH   6  24
BRANCH   8  26
ATOM     26  O   UNL     1       3.717  10.591  74.191  1.00  0.00    -0.508 OA
ATOM     27  H   UNL     1       4.234  10.016  74.846  1.00  0.00     0.293 HD
ENDBRANCH   8  26
TORSDOF 6
ENDMDL
