MODEL 1
REMARK VINA RESULT:    -3.756      0.000      0.000
REMARK INTER + INTRA:          -4.490
REMARK INTER:                  -4.414
REMARK INTRA:                  -0.076
REMARK UNBOUND:                -0.076
REMARK SMILES O=C([O-])CCC(=O)[O-]
REMARK SMILES IDX 4 1 2 2 1 3 3 4 5 5 6 6 7 7 8 8
REMARK H PARENT
REMARK Flexibility Score: inf
ROOT
ATOM      1  C   UNL     1     -14.091   2.376  -9.262  1.00  0.00     0.059 C 
ENDROOT
BRANCH   1   2
ATOM      2  C   UNL     1     -13.890   0.963  -9.712  1.00  0.00     0.042 C 
ATOM      3  O   UNL     1     -14.880   0.250 -10.024  1.00  0.00    -0.550 OA
ATOM      4  O   UNL     1     -12.613   0.418  -9.740  1.00  0.00    -0.550 OA
ENDBRANCH   1   2
BRANCH   1   5
ATOM      5  C   UNL     1     -12.821   3.197  -9.496  1.00  0.00     0.059 C 
BRANCH   5   6
ATOM      6  C   UNL     1     -12.288   3.717  -8.199  1.00  0.00     0.042 C 
ATOM      7  O   UNL     1     -11.056   3.655  -7.950  1.00  0.00    -0.550 OA
ATOM      8  O   UNL     1     -13.159   4.226  -7.243  1.00  0.00    -0.550 OA
ENDBRANCH   5   6
ENDBRANCH   1   5
TORSDOF 3
ENDMDL
MODEL 2
REMARK VINA RESULT:    -3.631      1.326      2.145
REMARK INTER + INTRA:          -4.343
REMARK INTER:                  -4.308
REMARK INTRA:                  -0.035
REMARK UNBOUND:                -0.076
REMARK SMILES O=C([O-])CCC(=O)[O-]
REMARK SMILES IDX 4 1 2 2 1 3 3 4 5 5 6 6 7 7 8 8
REMARK H PARENT
REMARK Flexibility Score: inf
ROOT
ATOM      1  C   UNL     1     -12.249   1.251  -9.344  1.00  0.00     0.059 C 
ENDROOT
BRANCH   1   2
ATOM      2  C   UNL     1     -12.572  -0.006 -10.087  1.00  0.00     0.042 C 
ATOM      3  O   UNL     1     -11.647  -0.750 -10.507  1.00  0.00    -0.550 OA
ATOM      4  O   UNL     1     -13.894  -0.333 -10.360  1.00  0.00    -0.550 OA
ENDBRANCH   1   2
BRANCH   1   5
ATOM      5  C   UNL     1     -13.416   2.238  -9.431  1.00  0.00     0.059 C 
BRANCH   5   6
ATOM      6  C   UNL     1     -13.084   3.504  -8.708  1.00  0.00     0.042 C 
ATOM      7  O   UNL     1     -14.001   4.294  -8.360  1.00  0.00    -0.550 OA
ATOM      8  O   UNL     1     -11.757   3.837  -8.461  1.00  0.00    -0.550 OA
ENDBRANCH   5   6
ENDBRANCH   1   5
TORSDOF 3
ENDMDL
MODEL 3
REMARK VINA RESULT:    -3.609      0.425      4.053
REMARK INTER + INTRA:          -4.318
REMARK INTER:                  -4.264
REMARK INTRA:                  -0.053
REMARK UNBOUND:                -0.076
REMARK SMILES O=C([O-])CCC(=O)[O-]
REMARK SMILES IDX 4 1 2 2 1 3 3 4 5 5 6 6 7 7 8 8
REMARK H PARENT
REMARK Flexibility Score: inf
ROOT
ATOM      1  C   UNL     1     -12.893   2.855  -9.601  1.00  0.00     0.059 C 
ENDROOT
BRANCH   1   2
ATOM      2  C   UNL     1     -12.573   3.697  -8.407  1.00  0.00     0.042 C 
ATOM      3  O   UNL     1     -11.378   3.848  -8.039  1.00  0.00    -0.550 OA
ATOM      4  O   UNL     1     -13.598   4.277  -7.670  1.00  0.00    -0.550 OA
ENDBRANCH   1   2
BRANCH   1   5
ATOM      5  C   UNL     1     -14.166   2.043  -9.357  1.00  0.00     0.059 C 
BRANCH   5   6
ATOM      6  C   UNL     1     -13.997   0.643  -9.858  1.00  0.00     0.042 C 
ATOM      7  O   UNL     1     -12.847   0.139  -9.953  1.00  0.00    -0.550 OA
ATOM      8  O   UNL     1     -15.106  -0.088 -10.266  1.00  0.00    -0.550 OA
ENDBRANCH   5   6
ENDBRANCH   1   5
TORSDOF 3
ENDMDL
MODEL 4
REMARK VINA RESULT:    -3.592      2.957      4.639
REMARK INTER + INTRA:          -4.297
REMARK INTER:                  -4.263
REMARK INTRA:                  -0.034
REMARK UNBOUND:                -0.076
REMARK SMILES O=C([O-])CCC(=O)[O-]
REMARK SMILES IDX 4 1 2 2 1 3 3 4 5 5 6 6 7 7 8 8
REMARK H PARENT
REMARK Flexibility Score: inf
ROOT
ATOM      1  C   UNL     1     -12.288  -0.620 -10.352  1.00  0.00     0.059 C 
ENDROOT
BRANCH   1   2
ATOM      2  C   UNL     1     -13.253   0.427  -9.893  1.00  0.00     0.042 C 
ATOM      3  O   UNL     1     -14.493   0.222  -9.966  1.00  0.00    -0.550 OA
ATOM      4  O   UNL     1     -12.784   1.649  -9.428  1.00  0.00    -0.550 OA
ENDBRANCH   1   2
BRANCH   1   5
ATOM      5  C   UNL     1     -11.042  -0.624  -9.464  1.00  0.00     0.059 C 
BRANCH   5   6
ATOM      6  C   UNL     1     -10.678  -2.024  -9.081  1.00  0.00     0.042 C 
ATOM      7  O   UNL     1     -10.264  -2.275  -7.919  1.00  0.00    -0.550 OA
ATOM      8  O   UNL     1     -10.750  -3.044 -10.022  1.00  0.00    -0.550 OA
ENDBRANCH   5   6
ENDBRANCH   1   5
TORSDOF 3
ENDMDL
MODEL 5
REMARK VINA RESULT:    -3.568      2.737      3.885
REMARK INTER + INTRA:          -4.270
REMARK INTER:                  -4.213
REMARK INTRA:                  -0.057
REMARK UNBOUND:                -0.076
REMARK SMILES O=C([O-])CCC(=O)[O-]
REMARK SMILES IDX 4 1 2 2 1 3 3 4 5 5 6 6 7 7 8 8
REMARK H PARENT
REMARK Flexibility Score: inf
ROOT
ATOM      1  C   UNL     1     -11.254  -0.636  -9.853  1.00  0.00     0.059 C 
ENDROOT
BRANCH   1   2
ATOM      2  C   UNL     1     -11.090  -1.977  -9.210  1.00  0.00     0.042 C 
ATOM      3  O   UNL     1     -11.749  -2.965  -9.627  1.00  0.00    -0.550 OA
ATOM      4  O   UNL     1     -10.245  -2.125  -8.118  1.00  0.00    -0.550 OA
ENDBRANCH   1   2
BRANCH   1   5
ATOM      5  C   UNL     1     -12.700  -0.434 -10.310  1.00  0.00     0.059 C 
BRANCH   5   6
ATOM      6  C   UNL     1     -13.267   0.814  -9.713  1.00  0.00     0.042 C 
ATOM      7  O   UNL     1     -12.502   1.701  -9.251  1.00  0.00    -0.550 OA
ATOM      8  O   UNL     1     -14.645   0.978  -9.621  1.00  0.00    -0.550 OA
ENDBRANCH   5   6
ENDBRANCH   1   5
TORSDOF 3
ENDMDL
MODEL 6
REMARK VINA RESULT:    -3.440      7.358      8.329
REMARK INTER + INTRA:          -4.119
REMARK INTER:                  -4.040
REMARK INTRA:                  -0.079
REMARK UNBOUND:                -0.076
REMARK SMILES O=C([O-])CCC(=O)[O-]
REMARK SMILES IDX 4 1 2 2 1 3 3 4 5 5 6 6 7 7 8 8
REMARK H PARENT
REMARK Flexibility Score: inf
ROOT
ATOM      1  C   UNL     1     -10.808  -4.507  -6.871  1.00  0.00     0.059 C 
ENDROOT
BRANCH   1   2
ATOM      2  C   UNL     1     -10.968  -5.807  -6.147  1.00  0.00     0.042 C 
ATOM      3  O   UNL     1     -10.421  -6.851  -6.590  1.00  0.00    -0.550 OA
ATOM      4  O   UNL     1     -11.763  -5.876  -5.010  1.00  0.00    -0.550 OA
ENDBRANCH   1   2
BRANCH   1   5
ATOM      5  C   UNL     1     -10.995  -4.706  -8.376  1.00  0.00     0.059 C 
BRANCH   5   6
ATOM      6  C   UNL     1      -9.907  -4.014  -9.133  1.00  0.00     0.042 C 
ATOM      7  O   UNL     1     -10.050  -3.759 -10.358  1.00  0.00    -0.550 OA
ATOM      8  O   UNL     1      -8.712  -3.694  -8.499  1.00  0.00    -0.550 OA
ENDBRANCH   5   6
ENDBRANCH   1   5
TORSDOF 3
ENDMDL
MODEL 7
REMARK VINA RESULT:    -3.433      7.352      8.308
REMARK INTER + INTRA:          -4.111
REMARK INTER:                  -4.006
REMARK INTRA:                  -0.104
REMARK UNBOUND:                -0.076
REMARK SMILES O=C([O-])CCC(=O)[O-]
REMARK SMILES IDX 4 1 2 2 1 3 3 4 5 5 6 6 7 7 8 8
REMARK H PARENT
REMARK Flexibility Score: inf
ROOT
ATOM      1  C   UNL     1     -10.866  -4.510  -6.823  1.00  0.00     0.059 C 
ENDROOT
BRANCH   1   2
ATOM      2  C   UNL     1     -10.997  -5.844  -6.158  1.00  0.00     0.042 C 
ATOM      3  O   UNL     1     -11.667  -5.961  -5.098  1.00  0.00    -0.550 OA
ATOM      4  O   UNL     1     -10.338  -6.949  -6.681  1.00  0.00    -0.550 OA
ENDBRANCH   1   2
BRANCH   1   5
ATOM      5  C   UNL     1     -11.075  -4.643  -8.333  1.00  0.00     0.059 C 
BRANCH   5   6
ATOM      6  C   UNL     1      -9.895  -4.100  -9.074  1.00  0.00     0.042 C 
ATOM      7  O   UNL     1      -8.769  -4.037  -8.514  1.00  0.00    -0.550 OA
ATOM      8  O   UNL     1     -10.048  -3.616 -10.368  1.00  0.00    -0.550 OA
ENDBRANCH   5   6
ENDBRANCH   1   5
TORSDOF 3
ENDMDL
MODEL 8
REMARK VINA RESULT:    -3.422      7.390      8.515
REMARK INTER + INTRA:          -4.098
REMARK INTER:                  -3.991
REMARK INTRA:                  -0.107
REMARK UNBOUND:                -0.076
REMARK SMILES O=C([O-])CCC(=O)[O-]
REMARK SMILES IDX 4 1 2 2 1 3 3 4 5 5 6 6 7 7 8 8
REMARK H PARENT
REMARK Flexibility Score: inf
ROOT
ATOM      1  C   UNL     1     -11.053  -4.670  -8.390  1.00  0.00     0.059 C 
ENDROOT
BRANCH   1   2
ATOM      2  C   UNL     1      -9.862  -4.121  -9.111  1.00  0.00     0.042 C 
ATOM      3  O   UNL     1      -8.746  -4.053  -8.532  1.00  0.00    -0.550 OA
ATOM      4  O   UNL     1      -9.996  -3.639 -10.407  1.00  0.00    -0.550 OA
ENDBRANCH   1   2
BRANCH   1   5
ATOM      5  C   UNL     1     -10.908  -4.463  -6.881  1.00  0.00     0.059 C 
BRANCH   5   6
ATOM      6  C   UNL     1     -11.011  -5.770  -6.162  1.00  0.00     0.042 C 
ATOM      7  O   UNL     1     -11.703  -5.864  -5.114  1.00  0.00    -0.550 OA
ATOM      8  O   UNL     1     -10.302  -6.875  -6.620  1.00  0.00    -0.550 OA
ENDBRANCH   5   6
ENDBRANCH   1   5
TORSDOF 3
ENDMDL
MODEL 9
REMARK VINA RESULT:    -3.245      7.904      9.169
REMARK INTER + INTRA:          -3.890
REMARK INTER:                  -3.807
REMARK INTRA:                  -0.083
REMARK UNBOUND:                -0.076
REMARK SMILES O=C([O-])CCC(=O)[O-]
REMARK SMILES IDX 4 1 2 2 1 3 3 4 5 5 6 6 7 7 8 8
REMARK H PARENT
REMARK Flexibility Score: inf
ROOT
ATOM      1  C   UNL     1     -12.074  -5.999  -6.331  1.00  0.00     0.059 C 
ENDROOT
BRANCH   1   2
ATOM      2  C   UNL     1     -11.573  -7.300  -5.786  1.00  0.00     0.042 C 
ATOM      3  O   UNL     1     -10.658  -7.927  -6.382  1.00  0.00    -0.550 OA
ATOM      4  O   UNL     1     -12.151  -7.844  -4.646  1.00  0.00    -0.550 OA
ENDBRANCH   1   2
BRANCH   1   5
ATOM      5  C   UNL     1     -10.942  -4.971  -6.385  1.00  0.00     0.059 C 
BRANCH   5   6
ATOM      6  C   UNL     1     -10.523  -4.729  -7.800  1.00  0.00     0.042 C 
ATOM      7  O   UNL     1      -9.306  -4.787  -8.119  1.00  0.00    -0.550 OA
ATOM      8  O   UNL     1     -11.471  -4.391  -8.759  1.00  0.00    -0.550 OA
ENDBRANCH   5   6
ENDBRANCH   1   5
TORSDOF 3
ENDMDL
