MODEL 1
REMARK VINA RESULT:    -5.639      0.000      0.000
REMARK INTER + INTRA:          -9.648
REMARK INTER:                  -8.276
REMARK INTRA:                  -1.372
REMARK UNBOUND:                -1.372
REMARK SMILES Cc1cc2c(C(C)C)c(O)c(O)c(C=O)c2c(O)c1-c1c(C)cc2c(C(C)C)c(O)c(O)c(C=O)c2c1O
REMARK SMILES IDX 1 1 2 2 3 3 4 4 16 5 13 6 11 7 9 8 5 9 17 10 19 11 20 12
REMARK SMILES IDX 37 13 21 14 36 15 23 16 22 17 24 18 33 19 25 20 31 21 29 22
REMARK SMILES IDX 38 23 34 25 35 26 26 27 27 28 28 29 32 30 30 32 18 34 6 36
REMARK SMILES IDX 7 37 8 38 14 39 15 40 10 41 12 43
REMARK H PARENT 38 24 32 31 30 33 18 35 10 42 12 44
REMARK Flexibility Score: inf
ROOT
ATOM      1  C   UNL     1      66.781  26.515  59.597  1.00  0.00     0.045 C 
ATOM      2  C   UNL     1      65.728  27.471  60.103  1.00  0.00    -0.039 A 
ATOM      3  C   UNL     1      64.469  26.982  60.455  1.00  0.00     0.013 A 
ATOM      4  C   UNL     1      63.442  27.833  60.919  1.00  0.00    -0.006 A 
ATOM      5  C   UNL     1      63.654  29.245  60.885  1.00  0.00     0.039 A 
ATOM      6  C   UNL     1      62.550  30.112  61.146  1.00  0.00     0.072 A 
ATOM      7  C   UNL     1      61.280  29.566  61.424  1.00  0.00     0.169 A 
ATOM      8  C   UNL     1      61.111  28.183  61.549  1.00  0.00     0.162 A 
ATOM      9  C   UNL     1      62.202  27.303  61.388  1.00  0.00     0.008 A 
ATOM     10  C   UNL     1      64.964  29.735  60.603  1.00  0.00     0.132 A 
ATOM     11  C   UNL     1      65.990  28.847  60.209  1.00  0.00     0.031 A 
ENDROOT
BRANCH  11  12
ATOM     12  C   UNL     1      67.344  29.368  59.885  1.00  0.00     0.031 A 
ATOM     13  C   UNL     1      67.644  29.804  58.577  1.00  0.00     0.132 A 
ATOM     14  C   UNL     1      68.336  29.390  60.879  1.00  0.00    -0.039 A 
ATOM     15  C   UNL     1      68.935  30.327  58.266  1.00  0.00     0.039 A 
ATOM     16  C   UNL     1      69.623  29.822  60.557  1.00  0.00     0.013 A 
ATOM     17  C   UNL     1      68.047  28.899  62.277  1.00  0.00     0.045 C 
ATOM     18  C   UNL     1      69.944  30.325  59.276  1.00  0.00    -0.006 A 
ATOM     19  C   UNL     1      69.264  30.809  56.966  1.00  0.00     0.072 A 
ATOM     20  C   UNL     1      71.265  30.783  58.972  1.00  0.00     0.008 A 
ATOM     21  C   UNL     1      70.600  31.103  56.643  1.00  0.00     0.169 A 
ATOM     22  C   UNL     1      71.606  31.007  57.620  1.00  0.00     0.162 A 
BRANCH  13  23
ATOM     23  O   UNL     1      66.674  29.674  57.576  1.00  0.00    -0.507 OA
ATOM     24  H   UNL     1      66.330  28.786  57.233  1.00  0.00     0.293 HD
ENDBRANCH  13  23
BRANCH  19  25
ATOM     25  C   UNL     1      68.228  31.097  55.944  1.00  0.00     0.264 C 
ATOM     26  O   UNL     1      68.074  30.347  54.944  1.00  0.00    -0.298 OA
ENDBRANCH  19  25
BRANCH  20  27
ATOM     27  C   UNL     1      72.326  30.987  60.070  1.00  0.00     0.017 C 
ATOM     28  C   UNL     1      71.944  32.151  60.989  1.00  0.00     0.012 C 
ATOM     29  C   UNL     1      72.637  29.713  60.880  1.00  0.00     0.012 C 
ENDBRANCH  20  27
BRANCH  21  30
ATOM     30  O   UNL     1      70.900  31.541  55.347  1.00  0.00    -0.504 OA
ATOM     31  H   UNL     1      70.266  31.470  54.564  1.00  0.00     0.293 HD
ENDBRANCH  21  30
BRANCH  22  32
ATOM     32  O   UNL     1      72.953  31.120  57.268  1.00  0.00    -0.504 OA
ATOM     33  H   UNL     1      73.584  31.808  57.653  1.00  0.00     0.293 HD
ENDBRANCH  22  32
ENDBRANCH  11  12
BRANCH  10  34
ATOM     34  O   UNL     1      65.255  31.097  60.735  1.00  0.00    -0.507 OA
ATOM     35  H   UNL     1      65.922  31.473  61.396  1.00  0.00     0.293 HD
ENDBRANCH  10  34
BRANCH   9  36
ATOM     36  C   UNL     1      62.031  25.807  61.704  1.00  0.00     0.017 C 
ATOM     37  C   UNL     1      61.138  25.126  60.662  1.00  0.00     0.012 C 
ATOM     38  C   UNL     1      61.534  25.529  63.135  1.00  0.00     0.012 C 
ENDBRANCH   9  36
BRANCH   6  39
ATOM     39  C   UNL     1      62.671  31.581  61.043  1.00  0.00     0.264 C 
ATOM     40  O   UNL     1      62.319  32.180  59.993  1.00  0.00    -0.298 OA
ENDBRANCH   6  39
BRANCH   8  41
ATOM     41  O   UNL     1      59.837  27.672  61.812  1.00  0.00    -0.504 OA
ATOM     42  H   UNL     1      59.097  27.649  61.122  1.00  0.00     0.293 HD
ENDBRANCH   8  41
BRANCH   7  43
ATOM     43  O   UNL     1      60.148  30.379  61.564  1.00  0.00    -0.504 OA
ATOM     44  H   UNL     1      59.285  30.080  62.000  1.00  0.00     0.293 HD
ENDBRANCH   7  43
TORSDOF 11
ENDMDL
MODEL 2
REMARK VINA RESULT:    -5.559     10.308     14.803
REMARK INTER + INTRA:          -9.530
REMARK INTER:                  -8.145
REMARK INTRA:                  -1.385
REMARK UNBOUND:                -1.372
REMARK SMILES Cc1cc2c(C(C)C)c(O)c(O)c(C=O)c2c(O)c1-c1c(C)cc2c(C(C)C)c(O)c(O)c(C=O)c2c1O
REMARK SMILES IDX 1 1 2 2 3 3 4 4 16 5 13 6 11 7 9 8 5 9 17 10 19 11 20 12
REMARK SMILES IDX 37 13 21 14 36 15 23 16 22 17 24 18 33 19 25 20 31 21 29 22
REMARK SMILES IDX 38 23 34 25 35 26 26 27 27 28 28 29 32 30 30 32 18 34 6 36
REMARK SMILES IDX 7 37 8 38 14 39 15 40 10 41 12 43
REMARK H PARENT 38 24 32 31 30 33 18 35 10 42 12 44
REMARK Flexibility Score: inf
ROOT
ATOM      1  C   UNL     1      62.988  22.803  51.385  1.00  0.00     0.045 C 
ATOM      2  C   UNL     1      62.158  23.951  50.864  1.00  0.00    -0.039 A 
ATOM      3  C   UNL     1      62.790  25.131  50.471  1.00  0.00     0.013 A 
ATOM      4  C   UNL     1      62.063  26.242  49.990  1.00  0.00    -0.006 A 
ATOM      5  C   UNL     1      60.636  26.204  50.048  1.00  0.00     0.039 A 
ATOM      6  C   UNL     1      59.905  27.397  49.768  1.00  0.00     0.072 A 
ATOM      7  C   UNL     1      60.596  28.585  49.449  1.00  0.00     0.169 A 
ATOM      8  C   UNL     1      61.987  28.581  49.302  1.00  0.00     0.162 A 
ATOM      9  C   UNL     1      62.731  27.396  49.481  1.00  0.00     0.008 A 
ATOM     10  C   UNL     1      59.996  24.970  50.372  1.00  0.00     0.132 A 
ATOM     11  C   UNL     1      60.759  23.855  50.782  1.00  0.00     0.031 A 
ENDROOT
BRANCH  11  12
ATOM     12  C   UNL     1      60.083  22.582  51.149  1.00  0.00     0.031 A 
ATOM     13  C   UNL     1      59.647  22.365  52.473  1.00  0.00     0.132 A 
ATOM     14  C   UNL     1      59.915  21.580  50.180  1.00  0.00    -0.039 A 
ATOM     15  C   UNL     1      58.977  21.156  52.826  1.00  0.00     0.039 A 
ATOM     16  C   UNL     1      59.336  20.363  50.541  1.00  0.00     0.013 A 
ATOM     17  C   UNL     1      60.403  21.777  48.764  1.00  0.00     0.045 C 
ATOM     18  C   UNL     1      58.829  20.133  51.840  1.00  0.00    -0.006 A 
ATOM     19  C   UNL     1      58.489  20.916  54.143  1.00  0.00     0.072 A 
ATOM     20  C   UNL     1      58.219  18.886  52.185  1.00  0.00     0.008 A 
ATOM     21  C   UNL     1      58.041  19.633  54.504  1.00  0.00     0.169 A 
ATOM     22  C   UNL     1      57.989  18.604  53.549  1.00  0.00     0.162 A 
BRANCH  13  23
ATOM     23  O   UNL     1      59.920  23.333  53.447  1.00  0.00    -0.507 OA
ATOM     24  H   UNL     1      59.555  23.305  54.390  1.00  0.00     0.293 HD
ENDBRANCH  13  23
BRANCH  19  25
ATOM     25  C   UNL     1      58.357  22.001  55.147  1.00  0.00     0.264 C 
ATOM     26  O   UNL     1      59.146  22.082  56.125  1.00  0.00    -0.298 OA
ENDBRANCH  19  25
BRANCH  20  27
ATOM     27  C   UNL     1      57.860  17.836  51.117  1.00  0.00     0.017 C 
ATOM     28  C   UNL     1      56.830  18.392  50.129  1.00  0.00     0.012 C 
ATOM     29  C   UNL     1      59.081  17.251  50.383  1.00  0.00     0.012 C 
ENDBRANCH  20  27
BRANCH  21  30
ATOM     30  O   UNL     1      57.602  19.417  55.816  1.00  0.00    -0.504 OA
ATOM     31  H   UNL     1      58.170  19.004  56.543  1.00  0.00     0.293 HD
ENDBRANCH  21  30
BRANCH  22  32
ATOM     32  O   UNL     1      57.720  17.288  53.936  1.00  0.00    -0.504 OA
ATOM     33  H   UNL     1      57.085  16.673  53.447  1.00  0.00     0.293 HD
ENDBRANCH  22  32
ENDBRANCH  11  12
BRANCH  10  34
ATOM     34  O   UNL     1      58.606  24.843  50.265  1.00  0.00    -0.507 OA
ATOM     35  H   UNL     1      58.060  25.223  49.503  1.00  0.00     0.293 HD
ENDBRANCH  10  34
BRANCH   9  36
ATOM     36  C   UNL     1      64.232  27.377  49.142  1.00  0.00     0.017 C 
ATOM     37  C   UNL     1      65.042  28.131  50.200  1.00  0.00     0.012 C 
ATOM     38  C   UNL     1      64.552  27.885  47.724  1.00  0.00     0.012 C 
ENDBRANCH   9  36
BRANCH   6  39
ATOM     39  C   UNL     1      58.433  27.458  49.892  1.00  0.00     0.264 C 
ATOM     40  O   UNL     1      57.898  27.903  50.942  1.00  0.00    -0.298 OA
ENDBRANCH   6  39
BRANCH   8  41
ATOM     41  O   UNL     1      62.644  29.777  48.998  1.00  0.00    -0.504 OA
ATOM     42  H   UNL     1      63.652  29.862  48.972  1.00  0.00     0.293 HD
ENDBRANCH   8  41
BRANCH   7  43
ATOM     43  O   UNL     1      59.924  29.803  49.289  1.00  0.00    -0.504 OA
ATOM     44  H   UNL     1      60.044  30.417  48.494  1.00  0.00     0.293 HD
ENDBRANCH   7  43
TORSDOF 11
ENDMDL
MODEL 3
REMARK VINA RESULT:    -5.188      8.933     13.555
REMARK INTER + INTRA:          -8.987
REMARK INTER:                  -7.595
REMARK INTRA:                  -1.393
REMARK UNBOUND:                -1.372
REMARK SMILES Cc1cc2c(C(C)C)c(O)c(O)c(C=O)c2c(O)c1-c1c(C)cc2c(C(C)C)c(O)c(O)c(C=O)c2c1O
REMARK SMILES IDX 1 1 2 2 3 3 4 4 16 5 13 6 11 7 9 8 5 9 17 10 19 11 20 12
REMARK SMILES IDX 37 13 21 14 36 15 23 16 22 17 24 18 33 19 25 20 31 21 29 22
REMARK SMILES IDX 38 23 34 25 35 26 26 27 27 28 28 29 32 30 30 32 18 34 6 36
REMARK SMILES IDX 7 37 8 38 14 39 15 40 10 41 12 43
REMARK H PARENT 38 24 32 31 30 33 18 35 10 42 12 44
REMARK Flexibility Score: inf
ROOT
ATOM      1  C   UNL     1      64.741  28.564  46.735  1.00  0.00     0.045 C 
ATOM      2  C   UNL     1      65.018  29.551  47.843  1.00  0.00    -0.039 A 
ATOM      3  C   UNL     1      65.796  30.679  47.579  1.00  0.00     0.013 A 
ATOM      4  C   UNL     1      66.099  31.627  48.580  1.00  0.00    -0.006 A 
ATOM      5  C   UNL     1      65.721  31.345  49.928  1.00  0.00     0.039 A 
ATOM      6  C   UNL     1      66.210  32.189  50.971  1.00  0.00     0.072 A 
ATOM      7  C   UNL     1      67.056  33.273  50.656  1.00  0.00     0.169 A 
ATOM      8  C   UNL     1      67.338  33.593  49.325  1.00  0.00     0.162 A 
ATOM      9  C   UNL     1      66.795  32.834  48.267  1.00  0.00     0.008 A 
ATOM     10  C   UNL     1      64.859  30.236  50.181  1.00  0.00     0.132 A 
ATOM     11  C   UNL     1      64.517  29.345  49.139  1.00  0.00     0.031 A 
ENDROOT
BRANCH  11  12
ATOM     12  C   UNL     1      63.644  28.174  49.416  1.00  0.00     0.031 A 
ATOM     13  C   UNL     1      62.240  28.312  49.388  1.00  0.00     0.132 A 
ATOM     14  C   UNL     1      64.223  26.937  49.742  1.00  0.00    -0.039 A 
ATOM     15  C   UNL     1      61.396  27.187  49.630  1.00  0.00     0.039 A 
ATOM     16  C   UNL     1      63.401  25.856  50.061  1.00  0.00     0.013 A 
ATOM     17  C   UNL     1      65.722  26.774  49.809  1.00  0.00     0.045 C 
ATOM     18  C   UNL     1      61.992  25.938  49.983  1.00  0.00    -0.006 A 
ATOM     19  C   UNL     1      59.975  27.279  49.575  1.00  0.00     0.072 A 
ATOM     20  C   UNL     1      61.168  24.811  50.293  1.00  0.00     0.008 A 
ATOM     21  C   UNL     1      59.183  26.213  50.037  1.00  0.00     0.169 A 
ATOM     22  C   UNL     1      59.783  25.019  50.474  1.00  0.00     0.162 A 
BRANCH  13  23
ATOM     23  O   UNL     1      61.684  29.578  49.166  1.00  0.00    -0.507 OA
ATOM     24  H   UNL     1      62.078  30.439  49.522  1.00  0.00     0.293 HD
ENDBRANCH  13  23
BRANCH  19  25
ATOM     25  C   UNL     1      59.281  28.440  48.967  1.00  0.00     0.264 C 
ATOM     26  O   UNL     1      58.665  29.276  49.679  1.00  0.00    -0.298 OA
ENDBRANCH  19  25
BRANCH  20  27
ATOM     27  C   UNL     1      61.759  23.402  50.483  1.00  0.00     0.017 C 
ATOM     28  C   UNL     1      61.773  23.011  51.965  1.00  0.00     0.012 C 
ATOM     29  C   UNL     1      61.077  22.319  49.625  1.00  0.00     0.012 C 
ENDBRANCH  20  27
BRANCH  21  30
ATOM     30  O   UNL     1      57.790  26.345  50.006  1.00  0.00    -0.504 OA
ATOM     31  H   UNL     1      57.284  27.119  50.415  1.00  0.00     0.293 HD
ENDBRANCH  21  30
BRANCH  22  32
ATOM     32  O   UNL     1      59.022  24.029  51.100  1.00  0.00    -0.504 OA
ATOM     33  H   UNL     1      58.218  23.583  50.681  1.00  0.00     0.293 HD
ENDBRANCH  22  32
ENDBRANCH  11  12
BRANCH  10  34
ATOM     34  O   UNL     1      64.322  30.032  51.457  1.00  0.00    -0.507 OA
ATOM     35  H   UNL     1      63.643  30.643  51.890  1.00  0.00     0.293 HD
ENDBRANCH  10  34
BRANCH   9  36
ATOM     36  C   UNL     1      66.973  33.309  46.814  1.00  0.00     0.017 C 
ATOM     37  C   UNL     1      68.439  33.212  46.382  1.00  0.00     0.012 C 
ATOM     38  C   UNL     1      66.403  34.715  46.549  1.00  0.00     0.012 C 
ENDBRANCH   9  36
BRANCH   6  39
ATOM     39  C   UNL     1      65.934  31.909  52.395  1.00  0.00     0.264 C 
ATOM     40  O   UNL     1      65.127  32.627  53.043  1.00  0.00    -0.298 OA
ENDBRANCH   6  39
BRANCH   8  41
ATOM     41  O   UNL     1      68.190  34.665  49.046  1.00  0.00    -0.504 OA
ATOM     42  H   UNL     1      69.200  34.587  49.058  1.00  0.00     0.293 HD
ENDBRANCH   8  41
BRANCH   7  43
ATOM     43  O   UNL     1      67.655  34.048  51.657  1.00  0.00    -0.504 OA
ATOM     44  H   UNL     1      67.212  34.841  52.102  1.00  0.00     0.293 HD
ENDBRANCH   7  43
TORSDOF 11
ENDMDL
MODEL 4
REMARK VINA RESULT:    -5.077      2.109      3.398
REMARK INTER + INTRA:          -8.824
REMARK INTER:                  -7.631
REMARK INTRA:                  -1.192
REMARK UNBOUND:                -1.372
REMARK SMILES Cc1cc2c(C(C)C)c(O)c(O)c(C=O)c2c(O)c1-c1c(C)cc2c(C(C)C)c(O)c(O)c(C=O)c2c1O
REMARK SMILES IDX 1 1 2 2 3 3 4 4 16 5 13 6 11 7 9 8 5 9 17 10 19 11 20 12
REMARK SMILES IDX 37 13 21 14 36 15 23 16 22 17 24 18 33 19 25 20 31 21 29 22
REMARK SMILES IDX 38 23 34 25 35 26 26 27 27 28 28 29 32 30 30 32 18 34 6 36
REMARK SMILES IDX 7 37 8 38 14 39 15 40 10 41 12 43
REMARK H PARENT 38 24 32 31 30 33 18 35 10 42 12 44
REMARK Flexibility Score: inf
ROOT
ATOM      1  C   UNL     1      67.560  26.973  58.098  1.00  0.00     0.045 C 
ATOM      2  C   UNL     1      66.444  27.358  59.038  1.00  0.00    -0.039 A 
ATOM      3  C   UNL     1      65.519  26.393  59.437  1.00  0.00     0.013 A 
ATOM      4  C   UNL     1      64.447  26.700  60.303  1.00  0.00    -0.006 A 
ATOM      5  C   UNL     1      64.222  28.065  60.658  1.00  0.00     0.039 A 
ATOM      6  C   UNL     1      63.022  28.407  61.350  1.00  0.00     0.072 A 
ATOM      7  C   UNL     1      62.083  27.402  61.664  1.00  0.00     0.169 A 
ATOM      8  C   UNL     1      62.362  26.058  61.396  1.00  0.00     0.162 A 
ATOM      9  C   UNL     1      63.580  25.677  60.795  1.00  0.00     0.008 A 
ATOM     10  C   UNL     1      65.213  29.034  60.316  1.00  0.00     0.132 A 
ATOM     11  C   UNL     1      66.313  28.676  59.506  1.00  0.00     0.031 A 
ENDROOT
BRANCH  11  12
ATOM     12  C   UNL     1      67.324  29.698  59.128  1.00  0.00     0.031 A 
ATOM     13  C   UNL     1      68.481  29.879  59.916  1.00  0.00     0.132 A 
ATOM     14  C   UNL     1      67.105  30.509  58.003  1.00  0.00    -0.039 A 
ATOM     15  C   UNL     1      69.466  30.842  59.545  1.00  0.00     0.039 A 
ATOM     16  C   UNL     1      68.026  31.508  57.685  1.00  0.00     0.013 A 
ATOM     17  C   UNL     1      65.860  30.355  57.163  1.00  0.00     0.045 C 
ATOM     18  C   UNL     1      69.226  31.678  58.412  1.00  0.00    -0.006 A 
ATOM     19  C   UNL     1      70.664  31.029  60.295  1.00  0.00     0.072 A 
ATOM     20  C   UNL     1      70.167  32.695  58.057  1.00  0.00     0.008 A 
ATOM     21  C   UNL     1      71.494  32.132  60.030  1.00  0.00     0.169 A 
ATOM     22  C   UNL     1      71.198  33.007  58.970  1.00  0.00     0.162 A 
BRANCH  13  23
ATOM     23  O   UNL     1      68.627  29.134  61.092  1.00  0.00    -0.507 OA
ATOM     24  H   UNL     1      69.203  29.419  61.874  1.00  0.00     0.293 HD
ENDBRANCH  13  23
BRANCH  19  25
ATOM     25  C   UNL     1      71.122  30.048  61.309  1.00  0.00     0.264 C 
ATOM     26  O   UNL     1      72.216  29.439  61.177  1.00  0.00    -0.298 OA
ENDBRANCH  19  25
BRANCH  20  27
ATOM     27  C   UNL     1      70.052  33.483  56.739  1.00  0.00     0.017 C 
ATOM     28  C   UNL     1      69.515  34.896  56.993  1.00  0.00     0.012 C 
ATOM     29  C   UNL     1      71.355  33.519  55.918  1.00  0.00     0.012 C 
ENDBRANCH  20  27
BRANCH  21  30
ATOM     30  O   UNL     1      72.645  32.311  60.806  1.00  0.00    -0.504 OA
ATOM     31  H   UNL     1      73.538  32.610  60.437  1.00  0.00     0.293 HD
ENDBRANCH  21  30
BRANCH  22  32
ATOM     32  O   UNL     1      71.909  34.199  58.813  1.00  0.00    -0.504 OA
ATOM     33  H   UNL     1      71.768  35.022  59.382  1.00  0.00     0.293 HD
ENDBRANCH  22  32
ENDBRANCH  11  12
BRANCH  10  34
ATOM     34  O   UNL     1      65.118  30.344  60.799  1.00  0.00    -0.507 OA
ATOM     35  H   UNL     1      64.566  31.070  60.362  1.00  0.00     0.293 HD
ENDBRANCH  10  34
BRANCH   9  36
ATOM     36  C   UNL     1      63.940  24.186  60.672  1.00  0.00     0.017 C 
ATOM     37  C   UNL     1      63.195  23.538  59.501  1.00  0.00     0.012 C 
ATOM     38  C   UNL     1      63.735  23.391  61.975  1.00  0.00     0.012 C 
ENDBRANCH   9  36
BRANCH   6  39
ATOM     39  C   UNL     1      62.679  29.807  61.674  1.00  0.00     0.264 C 
ATOM     40  O   UNL     1      61.907  30.465  60.928  1.00  0.00    -0.298 OA
ENDBRANCH   6  39
BRANCH   8  41
ATOM     41  O   UNL     1      61.406  25.087  61.706  1.00  0.00    -0.504 OA
ATOM     42  H   UNL     1      61.627  24.232  62.201  1.00  0.00     0.293 HD
ENDBRANCH   8  41
BRANCH   7  43
ATOM     43  O   UNL     1      60.840  27.711  62.232  1.00  0.00    -0.504 OA
ATOM     44  H   UNL     1      59.951  27.492  61.804  1.00  0.00     0.293 HD
ENDBRANCH   7  43
TORSDOF 11
ENDMDL
MODEL 5
REMARK VINA RESULT:    -5.012      8.741     11.109
REMARK INTER + INTRA:          -8.728
REMARK INTER:                  -7.327
REMARK INTRA:                  -1.401
REMARK UNBOUND:                -1.372
REMARK SMILES Cc1cc2c(C(C)C)c(O)c(O)c(C=O)c2c(O)c1-c1c(C)cc2c(C(C)C)c(O)c(O)c(C=O)c2c1O
REMARK SMILES IDX 1 1 2 2 3 3 4 4 16 5 13 6 11 7 9 8 5 9 17 10 19 11 20 12
REMARK SMILES IDX 37 13 21 14 36 15 23 16 22 17 24 18 33 19 25 20 31 21 29 22
REMARK SMILES IDX 38 23 34 25 35 26 26 27 27 28 28 29 32 30 30 32 18 34 6 36
REMARK SMILES IDX 7 37 8 38 14 39 15 40 10 41 12 43
REMARK H PARENT 38 24 32 31 30 33 18 35 10 42 12 44
REMARK Flexibility Score: inf
ROOT
ATOM      1  C   UNL     1      66.141  26.970  49.723  1.00  0.00     0.045 C 
ATOM      2  C   UNL     1      64.637  27.105  49.752  1.00  0.00    -0.039 A 
ATOM      3  C   UNL     1      63.853  25.987  50.037  1.00  0.00     0.013 A 
ATOM      4  C   UNL     1      62.443  26.052  50.064  1.00  0.00    -0.006 A 
ATOM      5  C   UNL     1      61.805  27.258  49.643  1.00  0.00     0.039 A 
ATOM      6  C   UNL     1      60.389  27.259  49.461  1.00  0.00     0.072 A 
ATOM      7  C   UNL     1      59.651  26.079  49.691  1.00  0.00     0.169 A 
ATOM      8  C   UNL     1      60.278  24.935  50.195  1.00  0.00     0.162 A 
ATOM      9  C   UNL     1      61.661  24.930  50.473  1.00  0.00     0.008 A 
ATOM     10  C   UNL     1      62.606  28.420  49.432  1.00  0.00     0.132 A 
ATOM     11  C   UNL     1      64.015  28.335  49.483  1.00  0.00     0.031 A 
ENDROOT
BRANCH  11  12
ATOM     12  C   UNL     1      64.845  29.543  49.230  1.00  0.00     0.031 A 
ATOM     13  C   UNL     1      65.180  30.410  50.292  1.00  0.00     0.132 A 
ATOM     14  C   UNL     1      65.262  29.839  47.923  1.00  0.00    -0.039 A 
ATOM     15  C   UNL     1      65.995  31.558  50.060  1.00  0.00     0.039 A 
ATOM     16  C   UNL     1      65.988  31.005  47.679  1.00  0.00     0.013 A 
ATOM     17  C   UNL     1      64.888  28.943  46.766  1.00  0.00     0.045 C 
ATOM     18  C   UNL     1      66.397  31.863  48.725  1.00  0.00    -0.006 A 
ATOM     19  C   UNL     1      66.384  32.437  51.113  1.00  0.00     0.072 A 
ATOM     20  C   UNL     1      67.160  33.043  48.456  1.00  0.00     0.008 A 
ATOM     21  C   UNL     1      66.992  33.668  50.812  1.00  0.00     0.169 A 
ATOM     22  C   UNL     1      67.299  34.003  49.482  1.00  0.00     0.162 A 
BRANCH  13  23
ATOM     23  O   UNL     1      64.664  30.155  51.569  1.00  0.00    -0.507 OA
ATOM     24  H   UNL     1      64.532  30.865  52.278  1.00  0.00     0.293 HD
ENDBRANCH  13  23
BRANCH  19  25
ATOM     25  C   UNL     1      66.246  32.066  52.543  1.00  0.00     0.264 C 
ATOM     26  O   UNL     1      65.367  32.599  53.271  1.00  0.00    -0.298 OA
ENDBRANCH  19  25
BRANCH  20  27
ATOM     27  C   UNL     1      67.782  33.309  47.073  1.00  0.00     0.017 C 
ATOM     28  C   UNL     1      67.048  34.445  46.353  1.00  0.00     0.012 C 
ATOM     29  C   UNL     1      69.301  33.562  47.111  1.00  0.00     0.012 C 
ENDBRANCH  20  27
BRANCH  21  30
ATOM     30  O   UNL     1      67.331  34.528  51.864  1.00  0.00    -0.504 OA
ATOM     31  H   UNL     1      66.743  35.282  52.192  1.00  0.00     0.293 HD
ENDBRANCH  21  30
BRANCH  22  32
ATOM     32  O   UNL     1      67.733  35.290  49.155  1.00  0.00    -0.504 OA
ATOM     33  H   UNL     1      68.663  35.639  49.343  1.00  0.00     0.293 HD
ENDBRANCH  22  32
ENDBRANCH  11  12
BRANCH  10  34
ATOM     34  O   UNL     1      62.005  29.662  49.195  1.00  0.00    -0.507 OA
ATOM     35  H   UNL     1      62.481  30.450  48.776  1.00  0.00     0.293 HD
ENDBRANCH  10  34
BRANCH   9  36
ATOM     36  C   UNL     1      62.292  23.723  51.190  1.00  0.00     0.017 C 
ATOM     37  C   UNL     1      62.091  22.439  50.382  1.00  0.00     0.012 C 
ATOM     38  C   UNL     1      61.817  23.550  52.645  1.00  0.00     0.012 C 
ENDBRANCH   9  36
BRANCH   6  39
ATOM     39  C   UNL     1      59.670  28.443  48.945  1.00  0.00     0.264 C 
ATOM     40  O   UNL     1      58.921  29.116  49.701  1.00  0.00    -0.298 OA
ENDBRANCH   6  39
BRANCH   8  41
ATOM     41  O   UNL     1      59.522  23.777  50.400  1.00  0.00    -0.504 OA
ATOM     42  H   UNL     1      59.764  23.073  51.086  1.00  0.00     0.293 HD
ENDBRANCH   8  41
BRANCH   7  43
ATOM     43  O   UNL     1      58.282  26.004  49.407  1.00  0.00    -0.504 OA
ATOM     44  H   UNL     1      57.675  25.262  49.730  1.00  0.00     0.293 HD
ENDBRANCH   7  43
TORSDOF 11
ENDMDL
MODEL 6
REMARK VINA RESULT:    -4.981      9.442     11.389
REMARK INTER + INTRA:          -8.682
REMARK INTER:                  -7.355
REMARK INTRA:                  -1.327
REMARK UNBOUND:                -1.372
REMARK SMILES Cc1cc2c(C(C)C)c(O)c(O)c(C=O)c2c(O)c1-c1c(C)cc2c(C(C)C)c(O)c(O)c(C=O)c2c1O
REMARK SMILES IDX 1 1 2 2 3 3 4 4 16 5 13 6 11 7 9 8 5 9 17 10 19 11 20 12
REMARK SMILES IDX 37 13 21 14 36 15 23 16 22 17 24 18 33 19 25 20 31 21 29 22
REMARK SMILES IDX 38 23 34 25 35 26 26 27 27 28 28 29 32 30 30 32 18 34 6 36
REMARK SMILES IDX 7 37 8 38 14 39 15 40 10 41 12 43
REMARK H PARENT 38 24 32 31 30 33 18 35 10 42 12 44
REMARK Flexibility Score: inf
ROOT
ATOM      1  C   UNL     1      58.498  29.637  48.538  1.00  0.00     0.045 C 
ATOM      2  C   UNL     1      58.234  29.141  49.939  1.00  0.00    -0.039 A 
ATOM      3  C   UNL     1      56.919  29.046  50.396  1.00  0.00     0.013 A 
ATOM      4  C   UNL     1      56.614  28.603  51.702  1.00  0.00    -0.006 A 
ATOM      5  C   UNL     1      57.686  28.388  52.621  1.00  0.00     0.039 A 
ATOM      6  C   UNL     1      57.377  28.152  53.994  1.00  0.00     0.072 A 
ATOM      7  C   UNL     1      56.032  28.141  54.419  1.00  0.00     0.169 A 
ATOM      8  C   UNL     1      54.992  28.256  53.491  1.00  0.00     0.162 A 
ATOM      9  C   UNL     1      55.262  28.398  52.114  1.00  0.00     0.008 A 
ATOM     10  C   UNL     1      59.025  28.407  52.128  1.00  0.00     0.132 A 
ATOM     11  C   UNL     1      59.291  28.787  50.794  1.00  0.00     0.031 A 
ENDROOT
BRANCH  11  12
ATOM     12  C   UNL     1      60.691  28.835  50.296  1.00  0.00     0.031 A 
ATOM     13  C   UNL     1      61.409  30.050  50.309  1.00  0.00     0.132 A 
ATOM     14  C   UNL     1      61.285  27.673  49.778  1.00  0.00    -0.039 A 
ATOM     15  C   UNL     1      62.760  30.098  49.855  1.00  0.00     0.039 A 
ATOM     16  C   UNL     1      62.577  27.735  49.255  1.00  0.00     0.013 A 
ATOM     17  C   UNL     1      60.525  26.369  49.724  1.00  0.00     0.045 C 
ATOM     18  C   UNL     1      63.349  28.917  49.309  1.00  0.00    -0.006 A 
ATOM     19  C   UNL     1      63.529  31.298  49.886  1.00  0.00     0.072 A 
ATOM     20  C   UNL     1      64.681  28.954  48.787  1.00  0.00     0.008 A 
ATOM     21  C   UNL     1      64.769  31.356  49.227  1.00  0.00     0.169 A 
ATOM     22  C   UNL     1      65.299  30.211  48.608  1.00  0.00     0.162 A 
BRANCH  13  23
ATOM     23  O   UNL     1      60.762  31.219  50.731  1.00  0.00    -0.507 OA
ATOM     24  H   UNL     1      61.140  32.149  50.609  1.00  0.00     0.293 HD
ENDBRANCH  13  23
BRANCH  19  25
ATOM     25  C   UNL     1      63.106  32.487  50.667  1.00  0.00     0.264 C 
ATOM     26  O   UNL     1      62.659  33.516  50.094  1.00  0.00    -0.298 OA
ENDBRANCH  19  25
BRANCH  20  27
ATOM     27  C   UNL     1      65.426  27.672  48.373  1.00  0.00     0.017 C 
ATOM     28  C   UNL     1      65.583  27.599  46.851  1.00  0.00     0.012 C 
ATOM     29  C   UNL     1      66.778  27.479  49.085  1.00  0.00     0.012 C 
ENDBRANCH  20  27
BRANCH  21  30
ATOM     30  O   UNL     1      65.486  32.559  49.243  1.00  0.00    -0.504 OA
ATOM     31  H   UNL     1      65.062  33.473  49.160  1.00  0.00     0.293 HD
ENDBRANCH  21  30
BRANCH  22  32
ATOM     32  O   UNL     1      66.436  30.301  47.800  1.00  0.00    -0.504 OA
ATOM     33  H   UNL     1      67.376  30.398  48.155  1.00  0.00     0.293 HD
ENDBRANCH  22  32
ENDBRANCH  11  12
BRANCH  10  34
ATOM     34  O   UNL     1      60.089  28.027  52.954  1.00  0.00    -0.507 OA
ATOM     35  H   UNL     1      60.402  28.558  53.756  1.00  0.00     0.293 HD
ENDBRANCH  10  34
BRANCH   9  36
ATOM     36  C   UNL     1      54.107  28.344  51.098  1.00  0.00     0.017 C 
ATOM     37  C   UNL     1      54.368  27.280  50.028  1.00  0.00     0.012 C 
ATOM     38  C   UNL     1      53.778  29.708  50.462  1.00  0.00     0.012 C 
ENDBRANCH   9  36
BRANCH   6  39
ATOM     39  C   UNL     1      58.433  28.008  55.018  1.00  0.00     0.264 C 
ATOM     40  O   UNL     1      58.669  26.887  55.540  1.00  0.00    -0.298 OA
ENDBRANCH   6  39
BRANCH   8  41
ATOM     41  O   UNL     1      53.670  28.254  53.944  1.00  0.00    -0.504 OA
ATOM     42  H   UNL     1      53.421  28.208  54.924  1.00  0.00     0.293 HD
ENDBRANCH   8  41
BRANCH   7  43
ATOM     43  O   UNL     1      55.692  28.035  55.773  1.00  0.00    -0.504 OA
ATOM     44  H   UNL     1      56.209  27.484  56.446  1.00  0.00     0.293 HD
ENDBRANCH   7  43
TORSDOF 11
ENDMDL
MODEL 7
REMARK VINA RESULT:    -4.969     10.096     12.709
REMARK INTER + INTRA:          -8.665
REMARK INTER:                  -7.456
REMARK INTRA:                  -1.209
REMARK UNBOUND:                -1.372
REMARK SMILES Cc1cc2c(C(C)C)c(O)c(O)c(C=O)c2c(O)c1-c1c(C)cc2c(C(C)C)c(O)c(O)c(C=O)c2c1O
REMARK SMILES IDX 1 1 2 2 3 3 4 4 16 5 13 6 11 7 9 8 5 9 17 10 19 11 20 12
REMARK SMILES IDX 37 13 21 14 36 15 23 16 22 17 24 18 33 19 25 20 31 21 29 22
REMARK SMILES IDX 38 23 34 25 35 26 26 27 27 28 28 29 32 30 30 32 18 34 6 36
REMARK SMILES IDX 7 37 8 38 14 39 15 40 10 41 12 43
REMARK H PARENT 38 24 32 31 30 33 18 35 10 42 12 44
REMARK Flexibility Score: inf
ROOT
ATOM      1  C   UNL     1      60.244  21.704  48.943  1.00  0.00     0.045 C 
ATOM      2  C   UNL     1      59.953  21.450  50.403  1.00  0.00    -0.039 A 
ATOM      3  C   UNL     1      59.358  20.247  50.784  1.00  0.00     0.013 A 
ATOM      4  C   UNL     1      59.050  19.962  52.132  1.00  0.00    -0.006 A 
ATOM      5  C   UNL     1      59.217  20.993  53.106  1.00  0.00     0.039 A 
ATOM      6  C   UNL     1      58.707  20.784  54.423  1.00  0.00     0.072 A 
ATOM      7  C   UNL     1      58.047  19.578  54.736  1.00  0.00     0.169 A 
ATOM      8  C   UNL     1      57.976  18.541  53.800  1.00  0.00     0.162 A 
ATOM      9  C   UNL     1      58.552  18.681  52.519  1.00  0.00     0.008 A 
ATOM     10  C   UNL     1      59.899  22.188  52.728  1.00  0.00     0.132 A 
ATOM     11  C   UNL     1      60.258  22.411  51.381  1.00  0.00     0.031 A 
ENDROOT
BRANCH  11  12
ATOM     12  C   UNL     1      60.940  23.673  50.989  1.00  0.00     0.031 A 
ATOM     13  C   UNL     1      60.183  24.798  50.596  1.00  0.00     0.132 A 
ATOM     14  C   UNL     1      62.342  23.730  50.974  1.00  0.00    -0.039 A 
ATOM     15  C   UNL     1      60.830  26.019  50.242  1.00  0.00     0.039 A 
ATOM     16  C   UNL     1      62.980  24.895  50.548  1.00  0.00     0.013 A 
ATOM     17  C   UNL     1      63.173  22.529  51.359  1.00  0.00     0.045 C 
ATOM     18  C   UNL     1      62.257  26.061  50.209  1.00  0.00    -0.006 A 
ATOM     19  C   UNL     1      60.099  27.186  49.875  1.00  0.00     0.072 A 
ATOM     20  C   UNL     1      62.930  27.253  49.794  1.00  0.00     0.008 A 
ATOM     21  C   UNL     1      60.770  28.290  49.319  1.00  0.00     0.169 A 
ATOM     22  C   UNL     1      62.170  28.285  49.202  1.00  0.00     0.162 A 
BRANCH  13  23
ATOM     23  O   UNL     1      58.789  24.686  50.515  1.00  0.00    -0.507 OA
ATOM     24  H   UNL     1      58.202  24.366  51.274  1.00  0.00     0.293 HD
ENDBRANCH  13  23
BRANCH  19  25
ATOM     25  C   UNL     1      58.644  27.320  50.133  1.00  0.00     0.264 C 
ATOM     26  O   UNL     1      58.210  27.586  51.284  1.00  0.00    -0.298 OA
ENDBRANCH  19  25
BRANCH  20  27
ATOM     27  C   UNL     1      64.456  27.413  49.931  1.00  0.00     0.017 C 
ATOM     28  C   UNL     1      65.146  27.254  48.572  1.00  0.00     0.012 C 
ATOM     29  C   UNL     1      64.887  28.718  50.627  1.00  0.00     0.012 C 
ENDBRANCH  20  27
BRANCH  21  30
ATOM     30  O   UNL     1      60.022  29.409  48.934  1.00  0.00    -0.504 OA
ATOM     31  H   UNL     1      59.718  29.589  47.987  1.00  0.00     0.293 HD
ENDBRANCH  21  30
BRANCH  22  32
ATOM     32  O   UNL     1      62.827  29.292  48.490  1.00  0.00    -0.504 OA
ATOM     33  H   UNL     1      62.488  29.687  47.625  1.00  0.00     0.293 HD
ENDBRANCH  22  32
ENDBRANCH  11  12
BRANCH  10  34
ATOM     34  O   UNL     1      60.241  23.144  53.692  1.00  0.00    -0.507 OA
ATOM     35  H   UNL     1      60.521  22.919  54.638  1.00  0.00     0.293 HD
ENDBRANCH  10  34
BRANCH   9  36
ATOM     36  C   UNL     1      58.617  17.469  51.574  1.00  0.00     0.017 C 
ATOM     37  C   UNL     1      60.039  17.264  51.044  1.00  0.00     0.012 C 
ATOM     38  C   UNL     1      57.593  17.524  50.424  1.00  0.00     0.012 C 
ENDBRANCH   9  36
BRANCH   6  39
ATOM     39  C   UNL     1      58.766  21.837  55.458  1.00  0.00     0.264 C 
ATOM     40  O   UNL     1      57.771  22.580  55.672  1.00  0.00    -0.298 OA
ENDBRANCH   6  39
BRANCH   8  41
ATOM     41  O   UNL     1      57.304  17.363  54.135  1.00  0.00    -0.504 OA
ATOM     42  H   UNL     1      57.359  16.936  55.052  1.00  0.00     0.293 HD
ENDBRANCH   8  41
BRANCH   7  43
ATOM     43  O   UNL     1      57.426  19.383  55.976  1.00  0.00    -0.504 OA
ATOM     44  H   UNL     1      57.870  19.562  56.867  1.00  0.00     0.293 HD
ENDBRANCH   7  43
TORSDOF 11
ENDMDL
MODEL 8
REMARK VINA RESULT:    -4.967      9.341     14.008
REMARK INTER + INTRA:          -8.662
REMARK INTER:                  -7.308
REMARK INTRA:                  -1.354
REMARK UNBOUND:                -1.372
REMARK SMILES Cc1cc2c(C(C)C)c(O)c(O)c(C=O)c2c(O)c1-c1c(C)cc2c(C(C)C)c(O)c(O)c(C=O)c2c1O
REMARK SMILES IDX 1 1 2 2 3 3 4 4 16 5 13 6 11 7 9 8 5 9 17 10 19 11 20 12
REMARK SMILES IDX 37 13 21 14 36 15 23 16 22 17 24 18 33 19 25 20 31 21 29 22
REMARK SMILES IDX 38 23 34 25 35 26 26 27 27 28 28 29 32 30 30 32 18 34 6 36
REMARK SMILES IDX 7 37 8 38 14 39 15 40 10 41 12 43
REMARK H PARENT 38 24 32 31 30 33 18 35 10 42 12 44
REMARK Flexibility Score: inf
ROOT
ATOM      1  C   UNL     1      61.109  27.414  52.448  1.00  0.00     0.045 C 
ATOM      2  C   UNL     1      61.747  28.450  51.554  1.00  0.00    -0.039 A 
ATOM      3  C   UNL     1      63.136  28.483  51.425  1.00  0.00     0.013 A 
ATOM      4  C   UNL     1      63.787  29.438  50.614  1.00  0.00    -0.006 A 
ATOM      5  C   UNL     1      63.011  30.486  50.032  1.00  0.00     0.039 A 
ATOM      6  C   UNL     1      63.687  31.571  49.396  1.00  0.00     0.072 A 
ATOM      7  C   UNL     1      65.097  31.593  49.358  1.00  0.00     0.169 A 
ATOM      8  C   UNL     1      65.839  30.513  49.847  1.00  0.00     0.162 A 
ATOM      9  C   UNL     1      65.198  29.384  50.399  1.00  0.00     0.008 A 
ATOM     10  C   UNL     1      61.588  30.403  50.099  1.00  0.00     0.132 A 
ATOM     11  C   UNL     1      60.966  29.390  50.862  1.00  0.00     0.031 A 
ENDROOT
BRANCH  11  12
ATOM     12  C   UNL     1      59.483  29.329  50.953  1.00  0.00     0.031 A 
ATOM     13  C   UNL     1      58.801  30.070  51.941  1.00  0.00     0.132 A 
ATOM     14  C   UNL     1      58.767  28.500  50.075  1.00  0.00    -0.039 A 
ATOM     15  C   UNL     1      57.376  30.033  52.019  1.00  0.00     0.039 A 
ATOM     16  C   UNL     1      57.381  28.397  50.203  1.00  0.00     0.013 A 
ATOM     17  C   UNL     1      59.478  27.674  49.031  1.00  0.00     0.045 C 
ATOM     18  C   UNL     1      56.657  29.171  51.137  1.00  0.00    -0.006 A 
ATOM     19  C   UNL     1      56.650  30.795  52.980  1.00  0.00     0.072 A 
ATOM     20  C   UNL     1      55.234  29.067  51.238  1.00  0.00     0.008 A 
ATOM     21  C   UNL     1      55.277  30.561  53.171  1.00  0.00     0.169 A 
ATOM     22  C   UNL     1      54.594  29.638  52.359  1.00  0.00     0.162 A 
BRANCH  13  23
ATOM     23  O   UNL     1      59.541  30.806  52.875  1.00  0.00    -0.507 OA
ATOM     24  H   UNL     1      59.264  31.712  53.229  1.00  0.00     0.293 HD
ENDBRANCH  13  23
BRANCH  19  25
ATOM     25  C   UNL     1      57.274  31.902  53.746  1.00  0.00     0.264 C 
ATOM     26  O   UNL     1      57.534  31.779  54.972  1.00  0.00    -0.298 OA
ENDBRANCH  19  25
BRANCH  20  27
ATOM     27  C   UNL     1      54.400  28.310  50.188  1.00  0.00     0.017 C 
ATOM     28  C   UNL     1      54.157  26.861  50.624  1.00  0.00     0.012 C 
ATOM     29  C   UNL     1      53.079  29.011  49.817  1.00  0.00     0.012 C 
ENDBRANCH  20  27
BRANCH  21  30
ATOM     30  O   UNL     1      54.596  31.298  54.147  1.00  0.00    -0.504 OA
ATOM     31  H   UNL     1      54.570  31.054  55.127  1.00  0.00     0.293 HD
ENDBRANCH  21  30
BRANCH  22  32
ATOM     32  O   UNL     1      53.281  29.266  52.657  1.00  0.00    -0.504 OA
ATOM     33  H   UNL     1      52.479  29.867  52.529  1.00  0.00     0.293 HD
ENDBRANCH  22  32
ENDBRANCH  11  12
BRANCH  10  34
ATOM     34  O   UNL     1      60.791  31.310  49.391  1.00  0.00    -0.507 OA
ATOM     35  H   UNL     1      61.081  32.248  49.147  1.00  0.00     0.293 HD
ENDBRANCH  10  34
BRANCH   9  36
ATOM     36  C   UNL     1      66.023  28.138  50.765  1.00  0.00     0.017 C 
ATOM     37  C   UNL     1      66.910  28.407  51.984  1.00  0.00     0.012 C 
ATOM     38  C   UNL     1      66.843  27.571  49.590  1.00  0.00     0.012 C 
ENDBRANCH   9  36
BRANCH   6  39
ATOM     39  C   UNL     1      62.956  32.732  48.849  1.00  0.00     0.264 C 
ATOM     40  O   UNL     1      62.826  33.784  49.529  1.00  0.00    -0.298 OA
ENDBRANCH   6  39
BRANCH   8  41
ATOM     41  O   UNL     1      67.235  30.570  49.807  1.00  0.00    -0.504 OA
ATOM     42  H   UNL     1      67.800  30.838  50.604  1.00  0.00     0.293 HD
ENDBRANCH   8  41
BRANCH   7  43
ATOM     43  O   UNL     1      65.799  32.695  48.854  1.00  0.00    -0.504 OA
ATOM     44  H   UNL     1      65.370  33.454  48.341  1.00  0.00     0.293 HD
ENDBRANCH   7  43
TORSDOF 11
ENDMDL
MODEL 9
REMARK VINA RESULT:    -4.950      6.198      7.732
REMARK INTER + INTRA:          -8.637
REMARK INTER:                  -7.327
REMARK INTRA:                  -1.310
REMARK UNBOUND:                -1.372
REMARK SMILES Cc1cc2c(C(C)C)c(O)c(O)c(C=O)c2c(O)c1-c1c(C)cc2c(C(C)C)c(O)c(O)c(C=O)c2c1O
REMARK SMILES IDX 1 1 2 2 3 3 4 4 16 5 13 6 11 7 9 8 5 9 17 10 19 11 20 12
REMARK SMILES IDX 37 13 21 14 36 15 23 16 22 17 24 18 33 19 25 20 31 21 29 22
REMARK SMILES IDX 38 23 34 25 35 26 26 27 27 28 28 29 32 30 30 32 18 34 6 36
REMARK SMILES IDX 7 37 8 38 14 39 15 40 10 41 12 43
REMARK H PARENT 38 24 32 31 30 33 18 35 10 42 12 44
REMARK Flexibility Score: inf
ROOT
ATOM      1  C   UNL     1      62.504  28.932  58.284  1.00  0.00     0.045 C 
ATOM      2  C   UNL     1      61.449  28.385  59.215  1.00  0.00    -0.039 A 
ATOM      3  C   UNL     1      61.228  27.008  59.267  1.00  0.00     0.013 A 
ATOM      4  C   UNL     1      60.244  26.442  60.107  1.00  0.00    -0.006 A 
ATOM      5  C   UNL     1      59.357  27.315  60.808  1.00  0.00     0.039 A 
ATOM      6  C   UNL     1      58.231  26.754  61.483  1.00  0.00     0.072 A 
ATOM      7  C   UNL     1      58.012  25.361  61.442  1.00  0.00     0.169 A 
ATOM      8  C   UNL     1      58.941  24.512  60.834  1.00  0.00     0.162 A 
ATOM      9  C   UNL     1      60.111  25.027  60.238  1.00  0.00     0.008 A 
ATOM     10  C   UNL     1      59.637  28.715  60.816  1.00  0.00     0.132 A 
ATOM     11  C   UNL     1      60.676  29.240  60.017  1.00  0.00     0.031 A 
ENDROOT
BRANCH  11  12
ATOM     12  C   UNL     1      60.942  30.703  60.006  1.00  0.00     0.031 A 
ATOM     13  C   UNL     1      60.230  31.548  59.128  1.00  0.00     0.132 A 
ATOM     14  C   UNL     1      61.932  31.236  60.846  1.00  0.00    -0.039 A 
ATOM     15  C   UNL     1      60.463  32.956  59.129  1.00  0.00     0.039 A 
ATOM     16  C   UNL     1      62.222  32.600  60.790  1.00  0.00     0.013 A 
ATOM     17  C   UNL     1      62.729  30.347  61.771  1.00  0.00     0.045 C 
ATOM     18  C   UNL     1      61.487  33.487  59.971  1.00  0.00    -0.006 A 
ATOM     19  C   UNL     1      59.739  33.845  58.283  1.00  0.00     0.072 A 
ATOM     20  C   UNL     1      61.785  34.886  59.944  1.00  0.00     0.008 A 
ATOM     21  C   UNL     1      60.152  35.183  58.152  1.00  0.00     0.169 A 
ATOM     22  C   UNL     1      61.224  35.674  58.916  1.00  0.00     0.162 A 
BRANCH  13  23
ATOM     23  O   UNL     1      59.323  30.982  58.223  1.00  0.00    -0.507 OA
ATOM     24  H   UNL     1      59.177  31.323  57.282  1.00  0.00     0.293 HD
ENDBRANCH  13  23
BRANCH  19  25
ATOM     25  C   UNL     1      58.496  33.434  57.584  1.00  0.00     0.264 C 
ATOM     26  O   UNL     1      58.482  33.247  56.339  1.00  0.00    -0.298 OA
ENDBRANCH  19  25
BRANCH  20  27
ATOM     27  C   UNL     1      62.736  35.533  60.968  1.00  0.00     0.017 C 
ATOM     28  C   UNL     1      64.173  35.562  60.438  1.00  0.00     0.012 C 
ATOM     29  C   UNL     1      62.286  36.928  61.442  1.00  0.00     0.012 C 
ENDBRANCH  20  27
BRANCH  21  30
ATOM     30  O   UNL     1      59.443  36.025  57.286  1.00  0.00    -0.504 OA
ATOM     31  H   UNL     1      59.696  36.985  57.097  1.00  0.00     0.293 HD
ENDBRANCH  21  30
BRANCH  22  32
ATOM     32  O   UNL     1      61.755  36.941  58.662  1.00  0.00    -0.504 OA
ATOM     33  H   UNL     1      62.697  37.105  58.336  1.00  0.00     0.293 HD
ENDBRANCH  22  32
ENDBRANCH  11  12
BRANCH  10  34
ATOM     34  O   UNL     1      58.901  29.580  61.634  1.00  0.00    -0.507 OA
ATOM     35  H   UNL     1      58.683  29.394  62.604  1.00  0.00     0.293 HD
ENDBRANCH  10  34
BRANCH   9  36
ATOM     36  C   UNL     1      61.201  24.064  59.734  1.00  0.00     0.017 C 
ATOM     37  C   UNL     1      60.747  23.341  58.462  1.00  0.00     0.012 C 
ATOM     38  C   UNL     1      61.687  23.067  60.802  1.00  0.00     0.012 C 
ENDBRANCH   9  36
BRANCH   6  39
ATOM     39  C   UNL     1      57.224  27.600  62.156  1.00  0.00     0.264 C 
ATOM     40  O   UNL     1      56.164  27.929  61.559  1.00  0.00    -0.298 OA
ENDBRANCH   6  39
BRANCH   8  41
ATOM     41  O   UNL     1      58.689  23.138  60.798  1.00  0.00    -0.504 OA
ATOM     42  H   UNL     1      57.789  22.734  61.030  1.00  0.00     0.293 HD
ENDBRANCH   8  41
BRANCH   7  43
ATOM     43  O   UNL     1      56.856  24.786  61.986  1.00  0.00    -0.504 OA
ATOM     44  H   UNL     1      56.060  24.486  61.438  1.00  0.00     0.293 HD
ENDBRANCH   7  43
TORSDOF 11
ENDMDL
