MODEL 1
REMARK VINA RESULT:    -4.493      0.000      0.000
REMARK INTER + INTRA:          -8.972
REMARK INTER:                  -8.170
REMARK INTRA:                  -0.802
REMARK UNBOUND:                -0.802
REMARK SMILES CCCCCCCCCCCCCCCC(=O)[O-]
REMARK SMILES IDX 9 1 10 2 11 3 12 4 13 5 14 6 15 7 16 8 17 9 18 10 8 11 7 12
REMARK SMILES IDX 6 13 5 14 4 15 3 16 2 17 1 18
REMARK H PARENT
REMARK Flexibility Score: inf
ROOT
ATOM      1  C   UNL     1      -7.734 -40.058 -13.666  1.00  0.00     0.000 C 
ENDROOT
BRANCH   1   2
ATOM      2  C   UNL     1      -6.518 -40.854 -14.172  1.00  0.00     0.000 C 
BRANCH   2   3
ATOM      3  C   UNL     1      -6.480 -40.958 -15.705  1.00  0.00     0.000 C 
BRANCH   3   4
ATOM      4  C   UNL     1      -7.101 -39.734 -16.394  1.00  0.00     0.000 C 
BRANCH   4   5
ATOM      5  C   UNL     1      -7.091 -39.901 -17.921  1.00  0.00     0.000 C 
BRANCH   5   6
ATOM      6  C   UNL     1      -7.060 -38.556 -18.665  1.00  0.00     0.006 C 
BRANCH   6   7
ATOM      7  C   UNL     1      -8.428 -38.167 -19.239  1.00  0.00     0.053 C 
BRANCH   7   8
ATOM      8  C   UNL     1      -8.931 -36.918 -18.586  1.00  0.00     0.041 C 
ATOM      9  O   UNL     1      -9.045 -36.859 -17.335  1.00  0.00    -0.550 OA
ATOM     10  O   UNL     1      -9.231 -35.802 -19.359  1.00  0.00    -0.550 OA
ENDBRANCH   7   8
ENDBRANCH   6   7
ENDBRANCH   5   6
ENDBRANCH   4   5
ENDBRANCH   3   4
ENDBRANCH   2   3
ENDBRANCH   1   2
BRANCH   1  11
ATOM     11  C   UNL     1      -7.573 -39.600 -12.207  1.00  0.00     0.000 C 
BRANCH  11  12
ATOM     12  C   UNL     1      -6.387 -40.278 -11.505  1.00  0.00    -0.000 C 
BRANCH  12  13
ATOM     13  C   UNL     1      -5.725 -39.321 -10.501  1.00  0.00    -0.000 C 
BRANCH  13  14
ATOM     14  C   UNL     1      -6.720 -38.758  -9.475  1.00  0.00    -0.000 C 
BRANCH  14  15
ATOM     15  C   UNL     1      -6.357 -37.336  -9.020  1.00  0.00    -0.000 C 
BRANCH  15  16
ATOM     16  C   UNL     1      -4.898 -37.004  -9.370  1.00  0.00    -0.000 C 
BRANCH  16  17
ATOM     17  C   UNL     1      -4.461 -35.630  -8.837  1.00  0.00    -0.003 C 
ATOM     18  C   UNL     1      -3.067 -35.657  -8.210  1.00  0.00     0.004 C 
ENDBRANCH  16  17
ENDBRANCH  15  16
ENDBRANCH  14  15
ENDBRANCH  13  14
ENDBRANCH  12  13
ENDBRANCH  11  12
ENDBRANCH   1  11
TORSDOF 14
ENDMDL
MODEL 2
REMARK VINA RESULT:    -4.413      3.706      8.471
REMARK INTER + INTRA:          -8.827
REMARK INTER:                  -7.948
REMARK INTRA:                  -0.879
REMARK UNBOUND:                -0.802
REMARK SMILES CCCCCCCCCCCCCCCC(=O)[O-]
REMARK SMILES IDX 9 1 10 2 11 3 12 4 13 5 14 6 15 7 16 8 17 9 18 10 8 11 7 12
REMARK SMILES IDX 6 13 5 14 4 15 3 16 2 17 1 18
REMARK H PARENT
REMARK Flexibility Score: inf
ROOT
ATOM      1  C   UNL     1      -7.509 -39.505 -13.386  1.00  0.00     0.000 C 
ENDROOT
BRANCH   1   2
ATOM      2  C   UNL     1      -6.665 -40.560 -12.650  1.00  0.00     0.000 C 
BRANCH   2   3
ATOM      3  C   UNL     1      -6.335 -40.148 -11.207  1.00  0.00     0.000 C 
BRANCH   3   4
ATOM      4  C   UNL     1      -7.201 -38.979 -10.716  1.00  0.00     0.000 C 
BRANCH   4   5
ATOM      5  C   UNL     1      -6.808 -38.566  -9.290  1.00  0.00     0.000 C 
BRANCH   5   6
ATOM      6  C   UNL     1      -6.375 -37.094  -9.196  1.00  0.00     0.006 C 
BRANCH   6   7
ATOM      7  C   UNL     1      -4.872 -36.904  -9.439  1.00  0.00     0.053 C 
BRANCH   7   8
ATOM      8  C   UNL     1      -4.361 -35.736  -8.655  1.00  0.00     0.041 C 
ATOM      9  O   UNL     1      -5.105 -34.746  -8.435  1.00  0.00    -0.550 OA
ATOM     10  O   UNL     1      -3.075 -35.762  -8.128  1.00  0.00    -0.550 OA
ENDBRANCH   7   8
ENDBRANCH   6   7
ENDBRANCH   5   6
ENDBRANCH   4   5
ENDBRANCH   3   4
ENDBRANCH   2   3
ENDBRANCH   1   2
BRANCH   1  11
ATOM     11  C   UNL     1      -7.417 -39.638 -14.915  1.00  0.00     0.000 C 
BRANCH  11  12
ATOM     12  C   UNL     1      -6.556 -40.832 -15.351  1.00  0.00    -0.000 C 
BRANCH  12  13
ATOM     13  C   UNL     1      -6.274 -40.781 -16.861  1.00  0.00    -0.000 C 
BRANCH  13  14
ATOM     14  C   UNL     1      -7.373 -40.047 -17.644  1.00  0.00    -0.000 C 
BRANCH  14  15
ATOM     15  C   UNL     1      -6.805 -39.086 -18.700  1.00  0.00    -0.000 C 
BRANCH  15  16
ATOM     16  C   UNL     1      -7.240 -37.640 -18.414  1.00  0.00    -0.000 C 
BRANCH  16  17
ATOM     17  C   UNL     1      -8.703 -37.377 -18.802  1.00  0.00    -0.003 C 
ATOM     18  C   UNL     1      -9.439 -36.514 -17.777  1.00  0.00     0.004 C 
ENDBRANCH  16  17
ENDBRANCH  15  16
ENDBRANCH  14  15
ENDBRANCH  13  14
ENDBRANCH  12  13
ENDBRANCH  11  12
ENDBRANCH   1  11
TORSDOF 14
ENDMDL
MODEL 3
REMARK VINA RESULT:    -4.384      2.985      7.387
REMARK INTER + INTRA:          -8.773
REMARK INTER:                  -7.389
REMARK INTRA:                  -1.384
REMARK UNBOUND:                -0.802
REMARK SMILES CCCCCCCCCCCCCCCC(=O)[O-]
REMARK SMILES IDX 9 1 10 2 11 3 12 4 13 5 14 6 15 7 16 8 17 9 18 10 8 11 7 12
REMARK SMILES IDX 6 13 5 14 4 15 3 16 2 17 1 18
REMARK H PARENT
REMARK Flexibility Score: inf
ROOT
ATOM      1  C   UNL     1      -4.902 -36.013  -9.786  1.00  0.00     0.000 C 
ENDROOT
BRANCH   1   2
ATOM      2  C   UNL     1      -5.308 -35.084  -8.629  1.00  0.00     0.000 C 
BRANCH   2   3
ATOM      3  C   UNL     1      -6.241 -33.951  -9.083  1.00  0.00     0.000 C 
BRANCH   3   4
ATOM      4  C   UNL     1      -7.496 -34.473  -9.799  1.00  0.00     0.000 C 
BRANCH   4   5
ATOM      5  C   UNL     1      -8.452 -35.150  -8.807  1.00  0.00     0.000 C 
BRANCH   5   6
ATOM      6  C   UNL     1      -9.767 -35.602  -9.463  1.00  0.00     0.006 C 
BRANCH   6   7
ATOM      7  C   UNL     1      -9.575 -36.059 -10.915  1.00  0.00     0.053 C 
BRANCH   7   8
ATOM      8  C   UNL     1      -9.734 -37.543 -11.021  1.00  0.00     0.041 C 
ATOM      9  O   UNL     1      -9.565 -38.121 -12.125  1.00  0.00    -0.550 OA
ATOM     10  O   UNL     1     -10.023 -38.293  -9.887  1.00  0.00    -0.550 OA
ENDBRANCH   7   8
ENDBRANCH   6   7
ENDBRANCH   5   6
ENDBRANCH   4   5
ENDBRANCH   3   4
ENDBRANCH   2   3
ENDBRANCH   1   2
BRANCH   1  11
ATOM     11  C   UNL     1      -5.011 -37.500  -9.415  1.00  0.00     0.000 C 
BRANCH  11  12
ATOM     12  C   UNL     1      -6.468 -37.971  -9.291  1.00  0.00    -0.000 C 
BRANCH  12  13
ATOM     13  C   UNL     1      -6.603 -39.447  -9.699  1.00  0.00    -0.000 C 
BRANCH  13  14
ATOM     14  C   UNL     1      -6.030 -39.729 -11.096  1.00  0.00    -0.000 C 
BRANCH  14  15
ATOM     15  C   UNL     1      -7.004 -40.520 -11.984  1.00  0.00    -0.000 C 
BRANCH  15  16
ATOM     16  C   UNL     1      -6.378 -40.814 -13.356  1.00  0.00    -0.000 C 
BRANCH  16  17
ATOM     17  C   UNL     1      -7.374 -40.627 -14.511  1.00  0.00    -0.003 C 
ATOM     18  C   UNL     1      -6.683 -40.393 -15.855  1.00  0.00     0.004 C 
ENDBRANCH  16  17
ENDBRANCH  15  16
ENDBRANCH  14  15
ENDBRANCH  13  14
ENDBRANCH  12  13
ENDBRANCH  11  12
ENDBRANCH   1  11
TORSDOF 14
ENDMDL
MODEL 4
REMARK VINA RESULT:    -4.371      3.010      7.875
REMARK INTER + INTRA:          -8.750
REMARK INTER:                  -7.672
REMARK INTRA:                  -1.078
REMARK UNBOUND:                -0.802
REMARK SMILES CCCCCCCCCCCCCCCC(=O)[O-]
REMARK SMILES IDX 9 1 10 2 11 3 12 4 13 5 14 6 15 7 16 8 17 9 18 10 8 11 7 12
REMARK SMILES IDX 6 13 5 14 4 15 3 16 2 17 1 18
REMARK H PARENT
REMARK Flexibility Score: inf
ROOT
ATOM      1  C   UNL     1      -7.540 -39.193 -11.725  1.00  0.00     0.000 C 
ENDROOT
BRANCH   1   2
ATOM      2  C   UNL     1      -7.299 -38.192 -10.581  1.00  0.00     0.000 C 
BRANCH   2   3
ATOM      3  C   UNL     1      -6.075 -38.559  -9.728  1.00  0.00     0.000 C 
BRANCH   3   4
ATOM      4  C   UNL     1      -5.003 -37.459  -9.731  1.00  0.00     0.000 C 
BRANCH   4   5
ATOM      5  C   UNL     1      -5.344 -36.358  -8.715  1.00  0.00     0.000 C 
BRANCH   5   6
ATOM      6  C   UNL     1      -5.250 -34.947  -9.316  1.00  0.00     0.006 C 
BRANCH   6   7
ATOM      7  C   UNL     1      -6.439 -34.059  -8.927  1.00  0.00     0.053 C 
BRANCH   7   8
ATOM      8  C   UNL     1      -7.722 -34.671  -9.396  1.00  0.00     0.041 C 
ATOM      9  O   UNL     1      -7.972 -34.753 -10.626  1.00  0.00    -0.550 OA
ATOM     10  O   UNL     1      -8.621 -35.194  -8.474  1.00  0.00    -0.550 OA
ENDBRANCH   7   8
ENDBRANCH   6   7
ENDBRANCH   5   6
ENDBRANCH   4   5
ENDBRANCH   3   4
ENDBRANCH   2   3
ENDBRANCH   1   2
BRANCH   1  11
ATOM     11  C   UNL     1      -6.448 -40.271 -11.806  1.00  0.00     0.000 C 
BRANCH  11  12
ATOM     12  C   UNL     1      -6.351 -40.908 -13.200  1.00  0.00    -0.000 C 
BRANCH  12  13
ATOM     13  C   UNL     1      -7.081 -40.050 -14.246  1.00  0.00    -0.000 C 
BRANCH  13  14
ATOM     14  C   UNL     1      -6.932 -40.602 -15.672  1.00  0.00    -0.000 C 
BRANCH  14  15
ATOM     15  C   UNL     1      -7.326 -39.576 -16.746  1.00  0.00    -0.000 C 
BRANCH  15  16
ATOM     16  C   UNL     1      -8.486 -38.693 -16.262  1.00  0.00    -0.000 C 
BRANCH  16  17
ATOM     17  C   UNL     1      -8.664 -37.430 -17.119  1.00  0.00    -0.003 C 
ATOM     18  C   UNL     1      -7.555 -37.260 -18.157  1.00  0.00     0.004 C 
ENDBRANCH  16  17
ENDBRANCH  15  16
ENDBRANCH  14  15
ENDBRANCH  13  14
ENDBRANCH  12  13
ENDBRANCH  11  12
ENDBRANCH   1  11
TORSDOF 14
ENDMDL
MODEL 5
REMARK VINA RESULT:    -4.362      3.125      8.128
REMARK INTER + INTRA:          -8.734
REMARK INTER:                  -7.794
REMARK INTRA:                  -0.941
REMARK UNBOUND:                -0.802
REMARK SMILES CCCCCCCCCCCCCCCC(=O)[O-]
REMARK SMILES IDX 9 1 10 2 11 3 12 4 13 5 14 6 15 7 16 8 17 9 18 10 8 11 7 12
REMARK SMILES IDX 6 13 5 14 4 15 3 16 2 17 1 18
REMARK H PARENT
REMARK Flexibility Score: inf
ROOT
ATOM      1  C   UNL     1      -6.080 -41.246 -14.149  1.00  0.00     0.000 C 
ENDROOT
BRANCH   1   2
ATOM      2  C   UNL     1      -7.184 -41.593 -13.135  1.00  0.00     0.000 C 
BRANCH   2   3
ATOM      3  C   UNL     1      -6.836 -41.141 -11.708  1.00  0.00     0.000 C 
BRANCH   3   4
ATOM      4  C   UNL     1      -6.411 -39.667 -11.644  1.00  0.00     0.000 C 
BRANCH   4   5
ATOM      5  C   UNL     1      -5.628 -39.377 -10.355  1.00  0.00     0.000 C 
BRANCH   5   6
ATOM      6  C   UNL     1      -6.087 -38.085  -9.660  1.00  0.00     0.006 C 
BRANCH   6   7
ATOM      7  C   UNL     1      -4.923 -37.135  -9.352  1.00  0.00     0.053 C 
BRANCH   7   8
ATOM      8  C   UNL     1      -5.350 -35.712  -9.532  1.00  0.00     0.041 C 
ATOM      9  O   UNL     1      -4.837 -34.803  -8.830  1.00  0.00    -0.550 OA
ATOM     10  O   UNL     1      -6.283 -35.385 -10.508  1.00  0.00    -0.550 OA
ENDBRANCH   7   8
ENDBRANCH   6   7
ENDBRANCH   5   6
ENDBRANCH   4   5
ENDBRANCH   3   4
ENDBRANCH   2   3
ENDBRANCH   1   2
BRANCH   1  11
ATOM     11  C   UNL     1      -6.636 -40.596 -15.426  1.00  0.00     0.000 C 
BRANCH  11  12
ATOM     12  C   UNL     1      -7.569 -39.413 -15.127  1.00  0.00    -0.000 C 
BRANCH  12  13
ATOM     13  C   UNL     1      -8.512 -39.147 -16.311  1.00  0.00    -0.000 C 
BRANCH  13  14
ATOM     14  C   UNL     1      -8.351 -37.732 -16.888  1.00  0.00    -0.000 C 
BRANCH  14  15
ATOM     15  C   UNL     1      -7.973 -37.742 -18.378  1.00  0.00    -0.000 C 
BRANCH  15  16
ATOM     16  C   UNL     1      -6.606 -38.410 -18.592  1.00  0.00    -0.000 C 
BRANCH  16  17
ATOM     17  C   UNL     1      -6.658 -39.536 -19.636  1.00  0.00    -0.003 C 
ATOM     18  C   UNL     1      -5.302 -39.794 -20.294  1.00  0.00     0.004 C 
ENDBRANCH  16  17
ENDBRANCH  15  16
ENDBRANCH  14  15
ENDBRANCH  13  14
ENDBRANCH  12  13
ENDBRANCH  11  12
ENDBRANCH   1  11
TORSDOF 14
ENDMDL
MODEL 6
REMARK VINA RESULT:    -4.360      1.723      3.402
REMARK INTER + INTRA:          -8.731
REMARK INTER:                  -7.338
REMARK INTRA:                  -1.393
REMARK UNBOUND:                -0.802
REMARK SMILES CCCCCCCCCCCCCCCC(=O)[O-]
REMARK SMILES IDX 9 1 10 2 11 3 12 4 13 5 14 6 15 7 16 8 17 9 18 10 8 11 7 12
REMARK SMILES IDX 6 13 5 14 4 15 3 16 2 17 1 18
REMARK H PARENT
REMARK Flexibility Score: inf
ROOT
ATOM      1  C   UNL     1      -6.343 -39.705  -9.814  1.00  0.00     0.000 C 
ENDROOT
BRANCH   1   2
ATOM      2  C   UNL     1      -6.917 -41.117 -10.023  1.00  0.00     0.000 C 
BRANCH   2   3
ATOM      3  C   UNL     1      -7.385 -41.355 -11.467  1.00  0.00     0.000 C 
BRANCH   3   4
ATOM      4  C   UNL     1      -6.592 -40.525 -12.488  1.00  0.00     0.000 C 
BRANCH   4   5
ATOM      5  C   UNL     1      -7.215 -40.635 -13.887  1.00  0.00     0.000 C 
BRANCH   5   6
ATOM      6  C   UNL     1      -7.893 -39.332 -14.339  1.00  0.00     0.006 C 
BRANCH   6   7
ATOM      7  C   UNL     1      -7.658 -39.027 -15.823  1.00  0.00     0.053 C 
BRANCH   7   8
ATOM      8  C   UNL     1      -8.725 -38.117 -16.345  1.00  0.00     0.041 C 
ATOM      9  O   UNL     1      -9.890 -38.172 -15.874  1.00  0.00    -0.550 OA
ATOM     10  O   UNL     1      -8.419 -37.175 -17.320  1.00  0.00    -0.550 OA
ENDBRANCH   7   8
ENDBRANCH   6   7
ENDBRANCH   5   6
ENDBRANCH   4   5
ENDBRANCH   3   4
ENDBRANCH   2   3
ENDBRANCH   1   2
BRANCH   1  11
ATOM     11  C   UNL     1      -7.382 -38.725  -9.247  1.00  0.00     0.000 C 
BRANCH  11  12
ATOM     12  C   UNL     1      -7.788 -37.644 -10.260  1.00  0.00    -0.000 C 
BRANCH  12  13
ATOM     13  C   UNL     1      -8.188 -36.345  -9.544  1.00  0.00    -0.000 C 
BRANCH  13  14
ATOM     14  C   UNL     1      -7.860 -35.090 -10.368  1.00  0.00    -0.000 C 
BRANCH  14  15
ATOM     15  C   UNL     1      -6.419 -34.600 -10.150  1.00  0.00    -0.000 C 
BRANCH  15  16
ATOM     16  C   UNL     1      -6.045 -34.646  -8.661  1.00  0.00    -0.000 C 
BRANCH  16  17
ATOM     17  C   UNL     1      -4.630 -35.197  -8.425  1.00  0.00    -0.003 C 
ATOM     18  C   UNL     1      -4.390 -36.530  -9.134  1.00  0.00     0.004 C 
ENDBRANCH  16  17
ENDBRANCH  15  16
ENDBRANCH  14  15
ENDBRANCH  13  14
ENDBRANCH  12  13
ENDBRANCH  11  12
ENDBRANCH   1  11
TORSDOF 14
ENDMDL
MODEL 7
REMARK VINA RESULT:    -4.356      6.053      7.139
REMARK INTER + INTRA:          -8.723
REMARK INTER:                  -7.576
REMARK INTRA:                  -1.147
REMARK UNBOUND:                -0.802
REMARK SMILES CCCCCCCCCCCCCCCC(=O)[O-]
REMARK SMILES IDX 9 1 10 2 11 3 12 4 13 5 14 6 15 7 16 8 17 9 18 10 8 11 7 12
REMARK SMILES IDX 6 13 5 14 4 15 3 16 2 17 1 18
REMARK H PARENT
REMARK Flexibility Score: inf
ROOT
ATOM      1  C   UNL     1      -6.236 -38.474  -9.363  1.00  0.00     0.000 C 
ENDROOT
BRANCH   1   2
ATOM      2  C   UNL     1      -6.349 -39.743 -10.226  1.00  0.00     0.000 C 
BRANCH   2   3
ATOM      3  C   UNL     1      -6.980 -40.919  -9.464  1.00  0.00     0.000 C 
BRANCH   3   4
ATOM      4  C   UNL     1      -8.410 -41.225  -9.932  1.00  0.00     0.000 C 
BRANCH   4   5
ATOM      5  C   UNL     1      -8.514 -42.656 -10.479  1.00  0.00     0.000 C 
BRANCH   5   6
ATOM      6  C   UNL     1      -7.158 -43.217 -10.936  1.00  0.00     0.006 C 
BRANCH   6   7
ATOM      7  C   UNL     1      -6.793 -44.528 -10.228  1.00  0.00     0.053 C 
BRANCH   7   8
ATOM      8  C   UNL     1      -6.023 -45.421 -11.150  1.00  0.00     0.041 C 
ATOM      9  O   UNL     1      -6.518 -45.773 -12.251  1.00  0.00    -0.550 OA
ATOM     10  O   UNL     1      -4.738 -45.827 -10.811  1.00  0.00    -0.550 OA
ENDBRANCH   7   8
ENDBRANCH   6   7
ENDBRANCH   5   6
ENDBRANCH   4   5
ENDBRANCH   3   4
ENDBRANCH   2   3
ENDBRANCH   1   2
BRANCH   1  11
ATOM     11  C   UNL     1      -7.596 -37.795  -9.133  1.00  0.00     0.000 C 
BRANCH  11  12
ATOM     12  C   UNL     1      -8.074 -37.004 -10.360  1.00  0.00    -0.000 C 
BRANCH  12  13
ATOM     13  C   UNL     1      -8.023 -35.492 -10.090  1.00  0.00    -0.000 C 
BRANCH  13  14
ATOM     14  C   UNL     1      -6.648 -34.881 -10.403  1.00  0.00    -0.000 C 
BRANCH  14  15
ATOM     15  C   UNL     1      -6.085 -34.062  -9.231  1.00  0.00    -0.000 C 
BRANCH  15  16
ATOM     16  C   UNL     1      -5.336 -34.967  -8.240  1.00  0.00    -0.000 C 
BRANCH  16  17
ATOM     17  C   UNL     1      -4.173 -35.725  -8.897  1.00  0.00    -0.003 C 
ATOM     18  C   UNL     1      -2.928 -35.778  -8.011  1.00  0.00     0.004 C 
ENDBRANCH  16  17
ENDBRANCH  15  16
ENDBRANCH  14  15
ENDBRANCH  13  14
ENDBRANCH  12  13
ENDBRANCH  11  12
ENDBRANCH   1  11
TORSDOF 14
ENDMDL
MODEL 8
REMARK VINA RESULT:    -4.343      1.852      2.780
REMARK INTER + INTRA:          -8.699
REMARK INTER:                  -7.727
REMARK INTRA:                  -0.972
REMARK UNBOUND:                -0.802
REMARK SMILES CCCCCCCCCCCCCCCC(=O)[O-]
REMARK SMILES IDX 9 1 10 2 11 3 12 4 13 5 14 6 15 7 16 8 17 9 18 10 8 11 7 12
REMARK SMILES IDX 6 13 5 14 4 15 3 16 2 17 1 18
REMARK H PARENT
REMARK Flexibility Score: inf
ROOT
ATOM      1  C   UNL     1      -7.664 -39.393 -11.958  1.00  0.00     0.000 C 
ENDROOT
BRANCH   1   2
ATOM      2  C   UNL     1      -6.496 -40.392 -12.033  1.00  0.00     0.000 C 
BRANCH   2   3
ATOM      3  C   UNL     1      -6.315 -40.981 -13.441  1.00  0.00     0.000 C 
BRANCH   3   4
ATOM      4  C   UNL     1      -7.081 -40.193 -14.513  1.00  0.00     0.000 C 
BRANCH   4   5
ATOM      5  C   UNL     1      -6.554 -40.522 -15.918  1.00  0.00     0.000 C 
BRANCH   5   6
ATOM      6  C   UNL     1      -7.450 -39.962 -17.034  1.00  0.00     0.006 C 
BRANCH   6   7
ATOM      7  C   UNL     1      -6.958 -40.347 -18.435  1.00  0.00     0.053 C 
BRANCH   7   8
ATOM      8  C   UNL     1      -6.325 -39.169 -19.107  1.00  0.00     0.041 C 
ATOM      9  O   UNL     1      -5.443 -39.340 -19.987  1.00  0.00    -0.550 OA
ATOM     10  O   UNL     1      -6.745 -37.882 -18.794  1.00  0.00    -0.550 OA
ENDBRANCH   7   8
ENDBRANCH   6   7
ENDBRANCH   5   6
ENDBRANCH   4   5
ENDBRANCH   3   4
ENDBRANCH   2   3
ENDBRANCH   1   2
BRANCH   1  11
ATOM     11  C   UNL     1      -8.131 -39.139 -10.516  1.00  0.00     0.000 C 
BRANCH  11  12
ATOM     12  C   UNL     1      -7.808 -37.717 -10.035  1.00  0.00    -0.000 C 
BRANCH  12  13
ATOM     13  C   UNL     1      -6.725 -37.740  -8.945  1.00  0.00    -0.000 C 
BRANCH  13  14
ATOM     14  C   UNL     1      -5.309 -37.559  -9.514  1.00  0.00    -0.000 C 
BRANCH  14  15
ATOM     15  C   UNL     1      -4.871 -36.087  -9.552  1.00  0.00    -0.000 C 
BRANCH  15  16
ATOM     16  C   UNL     1      -5.325 -35.348  -8.283  1.00  0.00    -0.000 C 
BRANCH  16  17
ATOM     17  C   UNL     1      -6.283 -34.186  -8.589  1.00  0.00    -0.003 C 
ATOM     18  C   UNL     1      -6.677 -34.117 -10.064  1.00  0.00     0.004 C 
ENDBRANCH  16  17
ENDBRANCH  15  16
ENDBRANCH  14  15
ENDBRANCH  13  14
ENDBRANCH  12  13
ENDBRANCH  11  12
ENDBRANCH   1  11
TORSDOF 14
ENDMDL
MODEL 9
REMARK VINA RESULT:    -4.339      3.876      8.205
REMARK INTER + INTRA:          -8.692
REMARK INTER:                  -7.351
REMARK INTRA:                  -1.341
REMARK UNBOUND:                -0.802
REMARK SMILES CCCCCCCCCCCCCCCC(=O)[O-]
REMARK SMILES IDX 9 1 10 2 11 3 12 4 13 5 14 6 15 7 16 8 17 9 18 10 8 11 7 12
REMARK SMILES IDX 6 13 5 14 4 15 3 16 2 17 1 18
REMARK H PARENT
REMARK Flexibility Score: inf
ROOT
ATOM      1  C   UNL     1      -7.142 -40.902 -10.997  1.00  0.00     0.000 C 
ENDROOT
BRANCH   1   2
ATOM      2  C   UNL     1      -6.616 -40.363  -9.655  1.00  0.00     0.000 C 
BRANCH   2   3
ATOM      3  C   UNL     1      -7.718 -39.697  -8.816  1.00  0.00     0.000 C 
BRANCH   3   4
ATOM      4  C   UNL     1      -7.454 -38.204  -8.574  1.00  0.00     0.000 C 
BRANCH   4   5
ATOM      5  C   UNL     1      -7.632 -37.398  -9.869  1.00  0.00     0.000 C 
BRANCH   5   6
ATOM      6  C   UNL     1      -6.526 -36.350 -10.074  1.00  0.00     0.006 C 
BRANCH   6   7
ATOM      7  C   UNL     1      -5.151 -36.845  -9.608  1.00  0.00     0.053 C 
BRANCH   7   8
ATOM      8  C   UNL     1      -4.528 -35.852  -8.677  1.00  0.00     0.041 C 
ATOM      9  O   UNL     1      -3.279 -35.819  -8.529  1.00  0.00    -0.550 OA
ATOM     10  O   UNL     1      -5.325 -34.930  -8.009  1.00  0.00    -0.550 OA
ENDBRANCH   7   8
ENDBRANCH   6   7
ENDBRANCH   5   6
ENDBRANCH   4   5
ENDBRANCH   3   4
ENDBRANCH   2   3
ENDBRANCH   1   2
BRANCH   1  11
ATOM     11  C   UNL     1      -6.481 -40.221 -12.206  1.00  0.00     0.000 C 
BRANCH  11  12
ATOM     12  C   UNL     1      -7.473 -39.378 -13.022  1.00  0.00    -0.000 C 
BRANCH  12  13
ATOM     13  C   UNL     1      -7.900 -40.120 -14.298  1.00  0.00    -0.000 C 
BRANCH  13  14
ATOM     14  C   UNL     1      -6.704 -40.655 -15.101  1.00  0.00    -0.000 C 
BRANCH  14  15
ATOM     15  C   UNL     1      -6.719 -40.189 -16.565  1.00  0.00    -0.000 C 
BRANCH  15  16
ATOM     16  C   UNL     1      -7.706 -39.027 -16.760  1.00  0.00    -0.000 C 
BRANCH  16  17
ATOM     17  C   UNL     1      -7.634 -38.422 -18.170  1.00  0.00    -0.003 C 
ATOM     18  C   UNL     1      -6.520 -39.034 -19.019  1.00  0.00     0.004 C 
ENDBRANCH  16  17
ENDBRANCH  15  16
ENDBRANCH  14  15
ENDBRANCH  13  14
ENDBRANCH  12  13
ENDBRANCH  11  12
ENDBRANCH   1  11
TORSDOF 14
ENDMDL
