MODEL 1
REMARK VINA RESULT:   109.027      0.000      0.000
REMARK INTER + INTRA:         164.921
REMARK INTER:                 160.017
REMARK INTRA:                   4.904
REMARK UNBOUND:                 4.904
REMARK SMILES Cc1cc2c(C(C)C)c(O)c(O)c(C=O)c2c(O)c1-c1c(C)cc2c(C(C)C)c(O)c(O)c(C=O)c2c1O
REMARK SMILES IDX 1 1 2 2 3 3 4 4 16 5 13 6 11 7 9 8 5 9 17 10 19 11 20 12
REMARK SMILES IDX 37 13 21 14 36 15 23 16 22 17 24 18 33 19 25 20 31 21 29 22
REMARK SMILES IDX 38 23 34 25 35 26 26 27 27 28 28 29 32 30 30 32 18 34 6 36
REMARK SMILES IDX 7 37 8 38 14 39 15 40 10 41 12 43
REMARK H PARENT 38 24 32 31 30 33 18 35 10 42 12 44
REMARK Flexibility Score: inf
ROOT
ATOM      1  C   UNL     1      -6.402  -1.520  23.770  1.00  0.00     0.045 C 
ATOM      2  C   UNL     1      -6.791  -2.451  22.647  1.00  0.00    -0.039 A 
ATOM      3  C   UNL     1      -7.200  -3.752  22.945  1.00  0.00     0.013 A 
ATOM      4  C   UNL     1      -7.581  -4.667  21.941  1.00  0.00    -0.006 A 
ATOM      5  C   UNL     1      -7.419  -4.279  20.577  1.00  0.00     0.039 A 
ATOM      6  C   UNL     1      -7.581  -5.259  19.558  1.00  0.00     0.072 A 
ATOM      7  C   UNL     1      -8.000  -6.559  19.888  1.00  0.00     0.169 A 
ATOM      8  C   UNL     1      -8.321  -6.888  21.219  1.00  0.00     0.162 A 
ATOM      9  C   UNL     1      -8.118  -5.954  22.263  1.00  0.00     0.008 A 
ATOM     10  C   UNL     1      -7.117  -2.917  20.278  1.00  0.00     0.132 A 
ATOM     11  C   UNL     1      -6.798  -2.014  21.313  1.00  0.00     0.031 A 
ENDROOT
BRANCH  11  12
ATOM     12  C   UNL     1      -6.474  -0.598  20.998  1.00  0.00     0.031 A 
ATOM     13  C   UNL     1      -5.334   0.013  21.561  1.00  0.00     0.132 A 
ATOM     14  C   UNL     1      -7.315   0.136  20.145  1.00  0.00    -0.039 A 
ATOM     15  C   UNL     1      -5.057   1.390  21.312  1.00  0.00     0.039 A 
ATOM     16  C   UNL     1      -6.984   1.451  19.817  1.00  0.00     0.013 A 
ATOM     17  C   UNL     1      -8.570  -0.479  19.571  1.00  0.00     0.045 C 
ATOM     18  C   UNL     1      -5.825   2.076  20.326  1.00  0.00    -0.006 A 
ATOM     19  C   UNL     1      -4.024   2.096  21.996  1.00  0.00     0.072 A 
ATOM     20  C   UNL     1      -5.440   3.382  19.897  1.00  0.00     0.008 A 
ATOM     21  C   UNL     1      -3.740   3.433  21.659  1.00  0.00     0.169 A 
ATOM     22  C   UNL     1      -4.470   4.085  20.645  1.00  0.00     0.162 A 
BRANCH  13  23
ATOM     23  O   UNL     1      -4.457  -0.755  22.333  1.00  0.00    -0.507 OA
ATOM     24  H   UNL     1      -3.614  -0.392  22.761  1.00  0.00     0.293 HD
ENDBRANCH  13  23
BRANCH  19  25
ATOM     25  C   UNL     1      -3.306   1.515  23.154  1.00  0.00     0.264 C 
ATOM     26  O   UNL     1      -2.874   2.248  24.083  1.00  0.00    -0.298 OA
ENDBRANCH  19  25
BRANCH  20  27
ATOM     27  C   UNL     1      -6.067   4.037  18.653  1.00  0.00     0.017 C 
ATOM     28  C   UNL     1      -6.056   3.077  17.458  1.00  0.00     0.012 C 
ATOM     29  C   UNL     1      -7.475   4.610  18.900  1.00  0.00     0.012 C 
ENDBRANCH  20  27
BRANCH  21  30
ATOM     30  O   UNL     1      -2.724   4.095  22.359  1.00  0.00    -0.504 OA
ATOM     31  H   UNL     1      -1.848   4.392  21.952  1.00  0.00     0.293 HD
ENDBRANCH  21  30
BRANCH  22  32
ATOM     32  O   UNL     1      -4.276   5.446  20.389  1.00  0.00    -0.504 OA
ATOM     33  H   UNL     1      -3.831   6.093  21.022  1.00  0.00     0.293 HD
ENDBRANCH  22  32
ENDBRANCH  11  12
BRANCH  10  34
ATOM     34  O   UNL     1      -7.176  -2.456  18.959  1.00  0.00    -0.507 OA
ATOM     35  H   UNL     1      -6.595  -1.712  18.593  1.00  0.00     0.293 HD
ENDBRANCH  10  34
BRANCH   9  36
ATOM     36  C   UNL     1      -8.527  -6.379  23.690  1.00  0.00     0.017 C 
ATOM     37  C   UNL     1      -9.124  -7.792  23.726  1.00  0.00     0.012 C 
ATOM     38  C   UNL     1      -7.438  -6.152  24.759  1.00  0.00     0.012 C 
ENDBRANCH   9  36
BRANCH   6  39
ATOM     39  C   UNL     1      -7.180  -5.005  18.153  1.00  0.00     0.264 C 
ATOM     40  O   UNL     1      -6.453  -5.822  17.527  1.00  0.00    -0.298 OA
ENDBRANCH   6  39
BRANCH   8  41
ATOM     41  O   UNL     1      -8.844  -8.150  21.528  1.00  0.00    -0.504 OA
ATOM     42  H   UNL     1      -8.339  -9.020  21.431  1.00  0.00     0.293 HD
ENDBRANCH   8  41
BRANCH   7  43
ATOM     43  O   UNL     1      -8.054  -7.522  18.872  1.00  0.00    -0.504 OA
ATOM     44  H   UNL     1      -7.440  -7.543  18.070  1.00  0.00     0.293 HD
ENDBRANCH   7  43
TORSDOF 11
ENDMDL
