MODEL 1
REMARK VINA RESULT:    -3.613      0.000      0.000
REMARK INTER + INTRA:          -4.551
REMARK INTER:                  -4.458
REMARK INTRA:                  -0.093
REMARK UNBOUND:                -0.093
REMARK SMILES CCCCCC(=O)[O-]
REMARK SMILES IDX 4 1 5 2 6 3 7 4 8 5 3 6 2 7 1 8
REMARK H PARENT
REMARK Flexibility Score: inf
ROOT
ATOM      1  C   UNL     1       6.218  18.968   0.462  1.00  0.00     0.006 C 
ENDROOT
BRANCH   1   2
ATOM      2  C   UNL     1       7.362  19.151   1.468  1.00  0.00     0.053 C 
BRANCH   2   3
ATOM      3  C   UNL     1       6.967  18.713   2.845  1.00  0.00     0.041 C 
ATOM      4  O   UNL     1       7.277  17.565   3.258  1.00  0.00    -0.550 OA
ATOM      5  O   UNL     1       6.288  19.587   3.686  1.00  0.00    -0.550 OA
ENDBRANCH   2   3
ENDBRANCH   1   2
BRANCH   1   6
ATOM      6  C   UNL     1       5.314  20.210   0.377  1.00  0.00     0.000 C 
BRANCH   6   7
ATOM      7  C   UNL     1       4.802  20.470  -1.047  1.00  0.00    -0.003 C 
ATOM      8  C   UNL     1       5.516  21.639  -1.727  1.00  0.00     0.004 C 
ENDBRANCH   6   7
ENDBRANCH   1   6
TORSDOF 4
ENDMDL
MODEL 2
REMARK VINA RESULT:    -3.448      1.062      1.106
REMARK INTER + INTRA:          -4.348
REMARK INTER:                  -4.287
REMARK INTRA:                  -0.061
REMARK UNBOUND:                -0.093
REMARK SMILES CCCCCC(=O)[O-]
REMARK SMILES IDX 4 1 5 2 6 3 7 4 8 5 3 6 2 7 1 8
REMARK H PARENT
REMARK Flexibility Score: inf
ROOT
ATOM      1  C   UNL     1       5.449  20.173   1.211  1.00  0.00     0.006 C 
ENDROOT
BRANCH   1   2
ATOM      2  C   UNL     1       6.564  19.424   1.953  1.00  0.00     0.053 C 
BRANCH   2   3
ATOM      3  C   UNL     1       6.458  19.596   3.437  1.00  0.00     0.041 C 
ATOM      4  O   UNL     1       7.027  18.784   4.212  1.00  0.00    -0.550 OA
ATOM      5  O   UNL     1       5.761  20.677   3.964  1.00  0.00    -0.550 OA
ENDBRANCH   2   3
ENDBRANCH   1   2
BRANCH   1   6
ATOM      6  C   UNL     1       5.384  19.791  -0.278  1.00  0.00     0.000 C 
BRANCH   6   7
ATOM      7  C   UNL     1       4.672  20.854  -1.128  1.00  0.00    -0.003 C 
ATOM      8  C   UNL     1       5.644  21.716  -1.932  1.00  0.00     0.004 C 
ENDBRANCH   6   7
ENDBRANCH   1   6
TORSDOF 4
ENDMDL
MODEL 3
REMARK VINA RESULT:    -3.411      3.281      4.748
REMARK INTER + INTRA:          -4.302
REMARK INTER:                  -4.216
REMARK INTRA:                  -0.085
REMARK UNBOUND:                -0.093
REMARK SMILES CCCCCC(=O)[O-]
REMARK SMILES IDX 4 1 5 2 6 3 7 4 8 5 3 6 2 7 1 8
REMARK H PARENT
REMARK Flexibility Score: inf
ROOT
ATOM      1  C   UNL     1       5.617  19.939   0.722  1.00  0.00     0.006 C 
ENDROOT
BRANCH   1   2
ATOM      2  C   UNL     1       5.127  19.804  -0.726  1.00  0.00     0.053 C 
BRANCH   2   3
ATOM      3  C   UNL     1       4.933  21.140  -1.375  1.00  0.00     0.041 C 
ATOM      4  O   UNL     1       3.853  21.767  -1.223  1.00  0.00    -0.550 OA
ATOM      5  O   UNL     1       5.962  21.709  -2.117  1.00  0.00    -0.550 OA
ENDBRANCH   2   3
ENDBRANCH   1   2
BRANCH   1   6
ATOM      6  C   UNL     1       6.879  19.099   0.989  1.00  0.00     0.000 C 
BRANCH   6   7
ATOM      7  C   UNL     1       7.435  19.306   2.405  1.00  0.00    -0.003 C 
ATOM      8  C   UNL     1       6.462  20.050   3.320  1.00  0.00     0.004 C 
ENDBRANCH   6   7
ENDBRANCH   1   6
TORSDOF 4
ENDMDL
MODEL 4
REMARK VINA RESULT:    -3.101     15.072     15.814
REMARK INTER + INTRA:          -3.919
REMARK INTER:                  -3.837
REMARK INTRA:                  -0.082
REMARK UNBOUND:                -0.093
REMARK SMILES CCCCCC(=O)[O-]
REMARK SMILES IDX 4 1 5 2 6 3 7 4 8 5 3 6 2 7 1 8
REMARK H PARENT
REMARK Flexibility Score: inf
ROOT
ATOM      1  C   UNL     1      -9.475  18.414   3.297  1.00  0.00     0.006 C 
ENDROOT
BRANCH   1   2
ATOM      2  C   UNL     1      -8.033  17.972   3.578  1.00  0.00     0.053 C 
BRANCH   2   3
ATOM      3  C   UNL     1      -7.208  19.089   4.138  1.00  0.00     0.041 C 
ATOM      4  O   UNL     1      -7.493  20.285   3.869  1.00  0.00    -0.550 OA
ATOM      5  O   UNL     1      -6.145  18.811   4.989  1.00  0.00    -0.550 OA
ENDBRANCH   2   3
ENDBRANCH   1   2
BRANCH   1   6
ATOM      6  C   UNL     1     -10.471  17.246   3.396  1.00  0.00     0.000 C 
BRANCH   6   7
ATOM      7  C   UNL     1     -11.918  17.720   3.601  1.00  0.00    -0.003 C 
ATOM      8  C   UNL     1     -12.074  19.231   3.426  1.00  0.00     0.004 C 
ENDBRANCH   6   7
ENDBRANCH   1   6
TORSDOF 4
ENDMDL
MODEL 5
REMARK VINA RESULT:    -3.076     14.443     15.195
REMARK INTER + INTRA:          -3.888
REMARK INTER:                  -3.818
REMARK INTRA:                  -0.070
REMARK UNBOUND:                -0.093
REMARK SMILES CCCCCC(=O)[O-]
REMARK SMILES IDX 4 1 5 2 6 3 7 4 8 5 3 6 2 7 1 8
REMARK H PARENT
REMARK Flexibility Score: inf
ROOT
ATOM      1  C   UNL     1      -8.947  16.602   2.359  1.00  0.00     0.006 C 
ENDROOT
BRANCH   1   2
ATOM      2  C   UNL     1      -8.032  16.692   1.130  1.00  0.00     0.053 C 
BRANCH   2   3
ATOM      3  C   UNL     1      -6.609  16.956   1.515  1.00  0.00     0.041 C 
ATOM      4  O   UNL     1      -5.686  16.220   1.078  1.00  0.00    -0.550 OA
ATOM      5  O   UNL     1      -6.298  18.040   2.328  1.00  0.00    -0.550 OA
ENDBRANCH   2   3
ENDBRANCH   1   2
BRANCH   1   6
ATOM      6  C   UNL     1     -10.241  17.415   2.179  1.00  0.00     0.000 C 
BRANCH   6   7
ATOM      7  C   UNL     1     -10.402  18.508   3.246  1.00  0.00    -0.003 C 
ATOM      8  C   UNL     1     -11.814  19.093   3.285  1.00  0.00     0.004 C 
ENDBRANCH   6   7
ENDBRANCH   1   6
TORSDOF 4
ENDMDL
MODEL 6
REMARK VINA RESULT:    -3.055     15.493     16.326
REMARK INTER + INTRA:          -3.862
REMARK INTER:                  -3.763
REMARK INTRA:                  -0.099
REMARK UNBOUND:                -0.093
REMARK SMILES CCCCCC(=O)[O-]
REMARK SMILES IDX 4 1 5 2 6 3 7 4 8 5 3 6 2 7 1 8
REMARK H PARENT
REMARK Flexibility Score: inf
ROOT
ATOM      1  C   UNL     1      -8.736  15.123  -3.889  1.00  0.00     0.006 C 
ENDROOT
BRANCH   1   2
ATOM      2  C   UNL     1      -8.423  15.881  -5.187  1.00  0.00     0.053 C 
BRANCH   2   3
ATOM      3  C   UNL     1      -7.387  15.176  -6.006  1.00  0.00     0.041 C 
ATOM      4  O   UNL     1      -6.360  14.700  -5.456  1.00  0.00    -0.550 OA
ATOM      5  O   UNL     1      -7.574  15.011  -7.374  1.00  0.00    -0.550 OA
ENDBRANCH   2   3
ENDBRANCH   1   2
BRANCH   1   6
ATOM      6  C   UNL     1      -8.135  15.815  -2.654  1.00  0.00     0.000 C 
BRANCH   6   7
ATOM      7  C   UNL     1      -8.855  17.126  -2.304  1.00  0.00    -0.003 C 
ATOM      8  C   UNL     1      -9.894  16.953  -1.197  1.00  0.00     0.004 C 
ENDBRANCH   6   7
ENDBRANCH   1   6
TORSDOF 4
ENDMDL
MODEL 7
REMARK VINA RESULT:    -2.984     13.755     14.590
REMARK INTER + INTRA:          -3.774
REMARK INTER:                  -3.655
REMARK INTRA:                  -0.119
REMARK UNBOUND:                -0.093
REMARK SMILES CCCCCC(=O)[O-]
REMARK SMILES IDX 4 1 5 2 6 3 7 4 8 5 3 6 2 7 1 8
REMARK H PARENT
REMARK Flexibility Score: inf
ROOT
ATOM      1  C   UNL     1      -9.054  16.792   0.293  1.00  0.00     0.006 C 
ENDROOT
BRANCH   1   2
ATOM      2  C   UNL     1      -7.825  15.873   0.284  1.00  0.00     0.053 C 
BRANCH   2   3
ATOM      3  C   UNL     1      -6.691  16.455   1.070  1.00  0.00     0.041 C 
ATOM      4  O   UNL     1      -5.509  16.084   0.847  1.00  0.00    -0.550 OA
ATOM      5  O   UNL     1      -6.936  17.435   2.025  1.00  0.00    -0.550 OA
ENDBRANCH   2   3
ENDBRANCH   1   2
BRANCH   1   6
ATOM      6  C   UNL     1      -9.765  16.824  -1.072  1.00  0.00     0.000 C 
BRANCH   6   7
ATOM      7  C   UNL     1      -8.826  17.234  -2.216  1.00  0.00    -0.003 C 
ATOM      8  C   UNL     1      -8.718  16.165  -3.303  1.00  0.00     0.004 C 
ENDBRANCH   6   7
ENDBRANCH   1   6
TORSDOF 4
ENDMDL
MODEL 8
REMARK VINA RESULT:    -2.939     12.826     13.526
REMARK INTER + INTRA:          -3.719
REMARK INTER:                  -3.620
REMARK INTRA:                  -0.099
REMARK UNBOUND:                -0.093
REMARK SMILES CCCCCC(=O)[O-]
REMARK SMILES IDX 4 1 5 2 6 3 7 4 8 5 3 6 2 7 1 8
REMARK H PARENT
REMARK Flexibility Score: inf
ROOT
ATOM      1  C   UNL     1      -6.463  17.576   2.066  1.00  0.00     0.006 C 
ENDROOT
BRANCH   1   2
ATOM      2  C   UNL     1      -6.488  17.421   3.593  1.00  0.00     0.053 C 
BRANCH   2   3
ATOM      3  C   UNL     1      -6.743  18.727   4.280  1.00  0.00     0.041 C 
ATOM      4  O   UNL     1      -7.575  19.542   3.803  1.00  0.00    -0.550 OA
ATOM      5  O   UNL     1      -6.089  19.027   5.469  1.00  0.00    -0.550 OA
ENDBRANCH   2   3
ENDBRANCH   1   2
BRANCH   1   6
ATOM      6  C   UNL     1      -5.991  16.293   1.360  1.00  0.00     0.000 C 
BRANCH   6   7
ATOM      7  C   UNL     1      -6.991  15.799   0.305  1.00  0.00    -0.003 C 
ATOM      8  C   UNL     1      -8.304  16.582   0.323  1.00  0.00     0.004 C 
ENDBRANCH   6   7
ENDBRANCH   1   6
TORSDOF 4
ENDMDL
MODEL 9
REMARK VINA RESULT:    -2.929     14.666     15.690
REMARK INTER + INTRA:          -3.706
REMARK INTER:                  -3.474
REMARK INTRA:                  -0.232
REMARK UNBOUND:                -0.093
REMARK SMILES CCCCCC(=O)[O-]
REMARK SMILES IDX 4 1 5 2 6 3 7 4 8 5 3 6 2 7 1 8
REMARK H PARENT
REMARK Flexibility Score: inf
ROOT
ATOM      1  C   UNL     1      -8.798  17.179  -2.172  1.00  0.00     0.006 C 
ENDROOT
BRANCH   1   2
ATOM      2  C   UNL     1      -9.875  16.861  -1.126  1.00  0.00     0.053 C 
BRANCH   2   3
ATOM      3  C   UNL     1      -9.304  16.800   0.258  1.00  0.00     0.041 C 
ATOM      4  O   UNL     1      -8.102  16.472   0.434  1.00  0.00    -0.550 OA
ATOM      5  O   UNL     1     -10.092  17.142   1.351  1.00  0.00    -0.550 OA
ENDBRANCH   2   3
ENDBRANCH   1   2
BRANCH   1   6
ATOM      6  C   UNL     1      -8.751  16.128  -3.295  1.00  0.00     0.000 C 
BRANCH   6   7
ATOM      7  C   UNL     1      -8.128  14.801  -2.835  1.00  0.00    -0.003 C 
ATOM      8  C   UNL     1      -6.665  14.949  -2.419  1.00  0.00     0.004 C 
ENDBRANCH   6   7
ENDBRANCH   1   6
TORSDOF 4
ENDMDL
