MODEL 1
REMARK VINA RESULT:    -3.288      0.000      0.000
REMARK INTER + INTRA:          -5.570
REMARK INTER:                  -5.018
REMARK INTRA:                  -0.552
REMARK UNBOUND:                -0.552
REMARK SMILES CC1=CCC[C@@H](C)C(=O)C[C@@H](C(C)C)C(=O)C1
REMARK SMILES IDX 8 1 9 2 6 3 7 4 5 5 4 6 3 7 2 8 1 9 10 11 11 12 15 13 16 14
REMARK SMILES IDX 17 15 12 17 13 18 14 19
REMARK H PARENT
REMARK Flexibility Score: 70.00
ROOT
ATOM      1  C   UNL     1      83.586  35.831  30.248  1.00  0.00     0.136 C 
ATOM      2  O   UNL     1      82.489  36.031  29.746  1.00  0.00    -0.299 OA
ENDROOT
BRANCH   1   3
ATOM      3  C   UNL     1      84.723  36.811  30.011  1.00  0.00     0.053 C 
ATOM      4  C   UNL     1      84.476  38.169  30.688  1.00  0.00     0.016 C 
BRANCH   3   5
ATOM      5  C   UNL     1      85.023  36.982  28.506  1.00  0.00     0.015 C 
BRANCH   5   6
ATOM      6  C   UNL     1      86.204  36.123  27.998  1.00  0.00     0.028 C 
BRANCH   6   7
ATOM      7  C   UNL     1      85.706  34.855  27.348  1.00  0.00    -0.028 C 
ATOM      8  C   UNL     1      85.923  33.598  27.806  1.00  0.00    -0.070 CG0
ATOM      9  C   UNL     1      85.422  32.449  26.967  1.00  0.00     0.039 C 
ATOM     10  G   UNL     1      86.609  33.294  29.130  1.00  0.00     0.000 G0
ENDBRANCH   6   7
ENDBRANCH   5   6
ENDBRANCH   3   5
ENDBRANCH   1   3
BRANCH   1  11
ATOM     11  C   UNL     1      83.790  34.590  31.087  1.00  0.00     0.087 C 
BRANCH  11  12
ATOM     12  C   UNL     1      85.285  34.206  31.281  1.00  0.00     0.066 C 
BRANCH  12  13
ATOM     13  C   UNL     1      85.684  33.089  30.321  1.00  0.00     0.140 C 
ATOM     14  O   UNL     1      85.243  31.966  30.523  1.00  0.00    -0.299 OA
BRANCH  13  15
ATOM     15  C   UNL     1      86.611  33.272  29.133  1.00  0.00     0.106 CG0
ATOM     16  G   UNL     1      85.936  33.596  27.808  1.00  0.00     0.000 G0
ENDBRANCH  13  15
ENDBRANCH  12  13
BRANCH  12  17
ATOM     17  C   UNL     1      85.584  33.781  32.755  1.00  0.00    -0.006 C 
ATOM     18  C   UNL     1      85.014  34.783  33.776  1.00  0.00     0.008 C 
ATOM     19  C   UNL     1      87.096  33.631  33.001  1.00  0.00     0.008 C 
ENDBRANCH  12  17
ENDBRANCH  11  12
ENDBRANCH   1  11
TORSDOF 1
ENDMDL
MODEL 2
REMARK VINA RESULT:    -3.061      4.979      7.960
REMARK INTER + INTRA:          -5.224
REMARK INTER:                  -4.819
REMARK INTRA:                  -0.405
REMARK UNBOUND:                -0.552
REMARK SMILES CC1=CCC[C@@H](C)C(=O)C[C@@H](C(C)C)C(=O)C1
REMARK SMILES IDX 8 1 9 2 6 3 7 4 5 5 4 6 3 7 2 8 1 9 10 11 11 12 15 13 16 14
REMARK SMILES IDX 17 15 12 17 13 18 14 19
REMARK H PARENT
REMARK Flexibility Score: 70.00
ROOT
ATOM      1  C   UNL     1      84.682  34.489  23.494  1.00  0.00     0.136 C 
ATOM      2  O   UNL     1      84.367  33.471  24.092  1.00  0.00    -0.299 OA
ENDROOT
BRANCH   1   3
ATOM      3  C   UNL     1      86.008  35.169  23.791  1.00  0.00     0.053 C 
ATOM      4  C   UNL     1      87.196  34.451  23.129  1.00  0.00     0.016 C 
BRANCH   3   5
ATOM      5  C   UNL     1      86.233  35.339  25.310  1.00  0.00     0.015 C 
BRANCH   5   6
ATOM      6  C   UNL     1      85.711  36.680  25.877  1.00  0.00     0.028 C 
BRANCH   6   7
ATOM      7  C   UNL     1      84.514  36.456  26.770  1.00  0.00    -0.028 C 
ATOM      8  C   UNL     1      83.251  36.875  26.514  1.00  0.00    -0.070 CG0
ATOM      9  C   UNL     1      82.203  36.636  27.572  1.00  0.00     0.039 C 
ATOM     10  G   UNL     1      82.835  37.538  25.209  1.00  0.00     0.000 G0
ENDBRANCH   6   7
ENDBRANCH   5   6
ENDBRANCH   3   5
ENDBRANCH   1   3
BRANCH   1  11
ATOM     11  C   UNL     1      83.724  35.063  22.474  1.00  0.00     0.087 C 
BRANCH  11  12
ATOM     12  C   UNL     1      83.319  36.538  22.757  1.00  0.00     0.066 C 
BRANCH  12  13
ATOM     13  C   UNL     1      82.488  36.633  24.034  1.00  0.00     0.140 C 
ATOM     14  O   UNL     1      81.489  35.935  24.128  1.00  0.00    -0.299 OA
BRANCH  13  15
ATOM     15  C   UNL     1      82.810  37.553  25.197  1.00  0.00     0.106 CG0
ATOM     16  G   UNL     1      83.231  36.868  26.489  1.00  0.00     0.000 G0
ENDBRANCH  13  15
ENDBRANCH  12  13
BRANCH  12  17
ATOM     17  C   UNL     1      82.536  37.161  21.558  1.00  0.00    -0.006 C 
ATOM     18  C   UNL     1      82.813  36.422  20.235  1.00  0.00     0.008 C 
ATOM     19  C   UNL     1      82.879  38.650  21.374  1.00  0.00     0.008 C 
ENDBRANCH  12  17
ENDBRANCH  11  12
ENDBRANCH   1  11
TORSDOF 1
ENDMDL
MODEL 3
REMARK VINA RESULT:    -3.039      3.288      6.032
REMARK INTER + INTRA:          -5.190
REMARK INTER:                  -4.959
REMARK INTRA:                  -0.231
REMARK UNBOUND:                -0.552
REMARK SMILES CC1=CCC[C@@H](C)C(=O)C[C@@H](C(C)C)C(=O)C1
REMARK SMILES IDX 8 1 9 2 6 3 7 4 5 5 4 6 3 7 2 8 1 9 10 11 11 12 15 13 16 14
REMARK SMILES IDX 17 15 12 17 13 18 14 19
REMARK H PARENT
REMARK Flexibility Score: 70.00
ROOT
ATOM      1  C   UNL     1      87.232  37.157  25.641  1.00  0.00     0.136 C 
ATOM      2  O   UNL     1      87.715  37.424  24.551  1.00  0.00    -0.299 OA
ENDROOT
BRANCH   1   3
ATOM      3  C   UNL     1      87.611  37.974  26.865  1.00  0.00     0.053 C 
ATOM      4  C   UNL     1      89.095  38.374  26.866  1.00  0.00     0.016 C 
BRANCH   3   5
ATOM      5  C   UNL     1      87.225  37.250  28.174  1.00  0.00     0.015 C 
BRANCH   5   6
ATOM      6  C   UNL     1      86.079  37.932  28.957  1.00  0.00     0.028 C 
BRANCH   6   7
ATOM      7  C   UNL     1      85.244  36.907  29.688  1.00  0.00    -0.028 C 
ATOM      8  C   UNL     1      84.063  36.402  29.256  1.00  0.00    -0.070 CG0
ATOM      9  C   UNL     1      83.329  35.453  30.171  1.00  0.00     0.039 C 
ATOM     10  G   UNL     1      83.465  36.714  27.892  1.00  0.00     0.000 G0
ENDBRANCH   6   7
ENDBRANCH   5   6
ENDBRANCH   3   5
ENDBRANCH   1   3
BRANCH   1  11
ATOM     11  C   UNL     1      86.271  35.994  25.749  1.00  0.00     0.087 C 
BRANCH  11  12
ATOM     12  C   UNL     1      84.779  36.397  25.566  1.00  0.00     0.066 C 
BRANCH  12  13
ATOM     13  C   UNL     1      83.933  35.871  26.722  1.00  0.00     0.140 C 
ATOM     14  O   UNL     1      83.610  34.692  26.714  1.00  0.00    -0.299 OA
BRANCH  13  15
ATOM     15  C   UNL     1      83.446  36.720  27.882  1.00  0.00     0.106 CG0
ATOM     16  G   UNL     1      84.066  36.411  29.237  1.00  0.00     0.000 G0
ENDBRANCH  13  15
ENDBRANCH  12  13
BRANCH  12  17
ATOM     17  C   UNL     1      84.207  35.887  24.205  1.00  0.00    -0.006 C 
ATOM     18  C   UNL     1      85.263  35.129  23.378  1.00  0.00     0.008 C 
ATOM     19  C   UNL     1      83.654  37.047  23.357  1.00  0.00     0.008 C 
ENDBRANCH  12  17
ENDBRANCH  11  12
ENDBRANCH   1  11
TORSDOF 1
ENDMDL
MODEL 4
REMARK VINA RESULT:    -2.970      2.977      4.604
REMARK INTER + INTRA:          -5.085
REMARK INTER:                  -4.749
REMARK INTRA:                  -0.335
REMARK UNBOUND:                -0.552
REMARK SMILES CC1=CCC[C@@H](C)C(=O)C[C@@H](C(C)C)C(=O)C1
REMARK SMILES IDX 8 1 9 2 6 3 7 4 5 5 4 6 3 7 2 8 1 9 10 11 11 12 15 13 16 14
REMARK SMILES IDX 17 15 12 17 13 18 14 19
REMARK H PARENT
REMARK Flexibility Score: 70.00
ROOT
ATOM      1  C   UNL     1      86.106  36.474  26.095  1.00  0.00     0.136 C 
ATOM      2  O   UNL     1      86.900  37.138  26.746  1.00  0.00    -0.299 OA
ENDROOT
BRANCH   1   3
ATOM      3  C   UNL     1      86.149  36.507  24.576  1.00  0.00     0.053 C 
ATOM      4  C   UNL     1      84.793  36.149  23.945  1.00  0.00     0.016 C 
BRANCH   3   5
ATOM      5  C   UNL     1      87.279  35.614  24.019  1.00  0.00     0.015 C 
BRANCH   5   6
ATOM      6  C   UNL     1      86.779  34.409  23.188  1.00  0.00     0.028 C 
BRANCH   6   7
ATOM      7  C   UNL     1      87.190  33.105  23.830  1.00  0.00    -0.028 C 
ATOM      8  C   UNL     1      86.419  32.355  24.654  1.00  0.00    -0.070 CG0
ATOM      9  C   UNL     1      87.039  31.127  25.272  1.00  0.00     0.039 C 
ATOM     10  G   UNL     1      84.960  32.668  24.952  1.00  0.00     0.000 G0
ENDBRANCH   6   7
ENDBRANCH   5   6
ENDBRANCH   3   5
ENDBRANCH   1   3
BRANCH   1  11
ATOM     11  C   UNL     1      85.078  35.640  26.827  1.00  0.00     0.087 C 
BRANCH  11  12
ATOM     12  C   UNL     1      85.534  34.177  27.093  1.00  0.00     0.066 C 
BRANCH  12  13
ATOM     13  C   UNL     1      84.646  33.190  26.340  1.00  0.00     0.140 C 
ATOM     14  O   UNL     1      83.623  32.800  26.885  1.00  0.00    -0.299 OA
BRANCH  13  15
ATOM     15  C   UNL     1      84.953  32.643  24.959  1.00  0.00     0.106 CG0
ATOM     16  G   UNL     1      86.420  32.363  24.667  1.00  0.00     0.000 G0
ENDBRANCH  13  15
ENDBRANCH  12  13
BRANCH  12  17
ATOM     17  C   UNL     1      85.538  33.843  28.619  1.00  0.00    -0.006 C 
ATOM     18  C   UNL     1      85.655  35.107  29.491  1.00  0.00     0.008 C 
ATOM     19  C   UNL     1      86.685  32.883  28.982  1.00  0.00     0.008 C 
ENDBRANCH  12  17
ENDBRANCH  11  12
ENDBRANCH   1  11
TORSDOF 1
ENDMDL
MODEL 5
REMARK VINA RESULT:    -2.926      8.049     10.252
REMARK INTER + INTRA:          -5.017
REMARK INTER:                  -4.807
REMARK INTRA:                  -0.210
REMARK UNBOUND:                -0.552
REMARK SMILES CC1=CCC[C@@H](C)C(=O)C[C@@H](C(C)C)C(=O)C1
REMARK SMILES IDX 8 1 9 2 6 3 7 4 5 5 4 6 3 7 2 8 1 9 10 11 11 12 15 13 16 14
REMARK SMILES IDX 17 15 12 17 13 18 14 19
REMARK H PARENT
REMARK Flexibility Score: 70.00
ROOT
ATOM      1  C   UNL     1      80.590  43.292  24.319  1.00  0.00     0.136 C 
ATOM      2  O   UNL     1      80.466  44.270  23.596  1.00  0.00    -0.299 OA
ENDROOT
BRANCH   1   3
ATOM      3  C   UNL     1      81.550  42.178  23.937  1.00  0.00     0.053 C 
ATOM      4  C   UNL     1      82.235  42.433  22.584  1.00  0.00     0.016 C 
BRANCH   3   5
ATOM      5  C   UNL     1      80.859  40.797  23.962  1.00  0.00     0.015 C 
BRANCH   5   6
ATOM      6  C   UNL     1      81.562  39.757  24.866  1.00  0.00     0.028 C 
BRANCH   6   7
ATOM      7  C   UNL     1      80.629  39.266  25.947  1.00  0.00    -0.028 C 
ATOM      8  C   UNL     1      80.548  39.767  27.204  1.00  0.00    -0.070 CG0
ATOM      9  C   UNL     1      79.617  39.083  28.173  1.00  0.00     0.039 C 
ATOM     10  G   UNL     1      81.316  40.996  27.668  1.00  0.00     0.000 G0
ENDBRANCH   6   7
ENDBRANCH   5   6
ENDBRANCH   3   5
ENDBRANCH   1   3
BRANCH   1  11
ATOM     11  C   UNL     1      79.762  43.207  25.582  1.00  0.00     0.087 C 
BRANCH  11  12
ATOM     12  C   UNL     1      80.575  43.473  26.881  1.00  0.00     0.066 C 
BRANCH  12  13
ATOM     13  C   UNL     1      80.486  42.279  27.828  1.00  0.00     0.140 C 
ATOM     14  O   UNL     1      79.719  42.349  28.777  1.00  0.00    -0.299 OA
BRANCH  13  15
ATOM     15  C   UNL     1      81.301  41.008  27.680  1.00  0.00     0.106 CG0
ATOM     16  G   UNL     1      80.535  39.778  27.214  1.00  0.00     0.000 G0
ENDBRANCH  13  15
ENDBRANCH  12  13
BRANCH  12  17
ATOM     17  C   UNL     1      80.094  44.771  27.606  1.00  0.00    -0.006 C 
ATOM     18  C   UNL     1      79.400  45.752  26.642  1.00  0.00     0.008 C 
ATOM     19  C   UNL     1      81.263  45.498  28.294  1.00  0.00     0.008 C 
ENDBRANCH  12  17
ENDBRANCH  11  12
ENDBRANCH   1  11
TORSDOF 1
ENDMDL
MODEL 6
REMARK VINA RESULT:    -2.894      9.482     11.808
REMARK INTER + INTRA:          -4.968
REMARK INTER:                  -4.833
REMARK INTRA:                  -0.135
REMARK UNBOUND:                -0.552
REMARK SMILES CC1=CCC[C@@H](C)C(=O)C[C@@H](C(C)C)C(=O)C1
REMARK SMILES IDX 8 1 9 2 6 3 7 4 5 5 4 6 3 7 2 8 1 9 10 11 11 12 15 13 16 14
REMARK SMILES IDX 17 15 12 17 13 18 14 19
REMARK H PARENT
REMARK Flexibility Score: 70.00
ROOT
ATOM      1  C   UNL     1      79.328  46.193  24.761  1.00  0.00     0.136 C 
ATOM      2  O   UNL     1      78.875  47.324  24.656  1.00  0.00    -0.299 OA
ENDROOT
BRANCH   1   3
ATOM      3  C   UNL     1      80.295  45.659  23.718  1.00  0.00     0.053 C 
ATOM      4  C   UNL     1      80.394  46.575  22.487  1.00  0.00     0.016 C 
BRANCH   3   5
ATOM      5  C   UNL     1      79.949  44.210  23.311  1.00  0.00     0.015 C 
BRANCH   5   6
ATOM      6  C   UNL     1      81.116  43.210  23.487  1.00  0.00     0.028 C 
BRANCH   6   7
ATOM      7  C   UNL     1      80.610  41.875  23.979  1.00  0.00    -0.028 C 
ATOM      8  C   UNL     1      80.625  41.453  25.267  1.00  0.00    -0.070 CG0
ATOM      9  C   UNL     1      80.158  40.047  25.551  1.00  0.00     0.039 C 
ATOM     10  G   UNL     1      81.050  42.333  26.433  1.00  0.00     0.000 G0
ENDBRANCH   6   7
ENDBRANCH   5   6
ENDBRANCH   3   5
ENDBRANCH   1   3
BRANCH   1  11
ATOM     11  C   UNL     1      78.895  45.339  25.932  1.00  0.00     0.087 C 
BRANCH  11  12
ATOM     12  C   UNL     1      80.079  44.819  26.797  1.00  0.00     0.066 C 
BRANCH  12  13
ATOM     13  C   UNL     1      80.002  43.304  26.962  1.00  0.00     0.140 C 
ATOM     14  O   UNL     1      79.046  42.835  27.563  1.00  0.00    -0.299 OA
BRANCH  13  15
ATOM     15  C   UNL     1      81.044  42.332  26.441  1.00  0.00     0.106 CG0
ATOM     16  G   UNL     1      80.607  41.445  25.285  1.00  0.00     0.000 G0
ENDBRANCH  13  15
ENDBRANCH  12  13
BRANCH  12  17
ATOM     17  C   UNL     1      80.117  45.512  28.197  1.00  0.00    -0.006 C 
ATOM     18  C   UNL     1      79.595  46.960  28.144  1.00  0.00     0.008 C 
ATOM     19  C   UNL     1      81.541  45.520  28.782  1.00  0.00     0.008 C 
ENDBRANCH  12  17
ENDBRANCH  11  12
ENDBRANCH   1  11
TORSDOF 1
ENDMDL
MODEL 7
REMARK VINA RESULT:    -2.773      3.957      5.924
REMARK INTER + INTRA:          -4.783
REMARK INTER:                  -4.196
REMARK INTRA:                  -0.588
REMARK UNBOUND:                -0.552
REMARK SMILES CC1=CCC[C@@H](C)C(=O)C[C@@H](C(C)C)C(=O)C1
REMARK SMILES IDX 8 1 9 2 6 3 7 4 5 5 4 6 3 7 2 8 1 9 10 11 11 12 15 13 16 14
REMARK SMILES IDX 17 15 12 17 13 18 14 19
REMARK H PARENT
REMARK Flexibility Score: 70.00
ROOT
ATOM      1  C   UNL     1      86.204  35.956  24.789  1.00  0.00     0.136 C 
ATOM      2  O   UNL     1      87.162  36.403  24.176  1.00  0.00    -0.299 OA
ENDROOT
BRANCH   1   3
ATOM      3  C   UNL     1      85.482  34.719  24.281  1.00  0.00     0.053 C 
ATOM      4  C   UNL     1      86.389  33.478  24.261  1.00  0.00     0.016 C 
BRANCH   3   5
ATOM      5  C   UNL     1      84.839  34.963  22.898  1.00  0.00     0.015 C 
BRANCH   5   6
ATOM      6  C   UNL     1      83.825  36.132  22.873  1.00  0.00     0.028 C 
BRANCH   6   7
ATOM      7  C   UNL     1      82.499  35.705  23.455  1.00  0.00    -0.028 C 
ATOM      8  C   UNL     1      82.014  36.078  24.664  1.00  0.00    -0.070 CG0
ATOM      9  C   UNL     1      80.707  35.474  25.113  1.00  0.00     0.039 C 
ATOM     10  G   UNL     1      82.699  37.094  25.566  1.00  0.00     0.000 G0
ENDBRANCH   6   7
ENDBRANCH   5   6
ENDBRANCH   3   5
ENDBRANCH   1   3
BRANCH   1  11
ATOM     11  C   UNL     1      85.745  36.664  26.044  1.00  0.00     0.087 C 
BRANCH  11  12
ATOM     12  C   UNL     1      84.695  35.862  26.866  1.00  0.00     0.066 C 
BRANCH  12  13
ATOM     13  C   UNL     1      83.339  36.562  26.837  1.00  0.00     0.140 C 
ATOM     14  O   UNL     1      82.726  36.680  27.888  1.00  0.00    -0.299 OA
BRANCH  13  15
ATOM     15  C   UNL     1      82.686  37.112  25.582  1.00  0.00     0.106 CG0
ATOM     16  G   UNL     1      82.008  36.089  24.683  1.00  0.00     0.000 G0
ENDBRANCH  13  15
ENDBRANCH  12  13
BRANCH  12  17
ATOM     17  C   UNL     1      85.159  35.648  28.342  1.00  0.00    -0.006 C 
ATOM     18  C   UNL     1      85.997  36.830  28.865  1.00  0.00     0.008 C 
ATOM     19  C   UNL     1      85.980  34.355  28.492  1.00  0.00     0.008 C 
ENDBRANCH  12  17
ENDBRANCH  11  12
ENDBRANCH   1  11
TORSDOF 1
ENDMDL
MODEL 8
REMARK VINA RESULT:    -2.739      2.333      4.566
REMARK INTER + INTRA:          -4.732
REMARK INTER:                  -4.218
REMARK INTRA:                  -0.514
REMARK UNBOUND:                -0.552
REMARK SMILES CC1=CCC[C@@H](C)C(=O)C[C@@H](C(C)C)C(=O)C1
REMARK SMILES IDX 8 1 9 2 6 3 7 4 5 5 4 6 3 7 2 8 1 9 10 11 11 12 15 13 16 14
REMARK SMILES IDX 17 15 12 17 13 18 14 19
REMARK H PARENT
REMARK Flexibility Score: 70.00
ROOT
ATOM      1  C   UNL     1      85.370  34.583  31.111  1.00  0.00     0.136 C 
ATOM      2  O   UNL     1      86.479  34.200  31.455  1.00  0.00    -0.299 OA
ENDROOT
BRANCH   1   3
ATOM      3  C   UNL     1      84.198  34.493  32.074  1.00  0.00     0.053 C 
ATOM      4  C   UNL     1      84.624  34.708  33.536  1.00  0.00     0.016 C 
BRANCH   3   5
ATOM      5  C   UNL     1      83.424  33.167  31.905  1.00  0.00     0.015 C 
BRANCH   5   6
ATOM      6  C   UNL     1      82.080  33.314  31.153  1.00  0.00     0.028 C 
BRANCH   6   7
ATOM      7  C   UNL     1      82.206  32.828  29.729  1.00  0.00    -0.028 C 
ATOM      8  C   UNL     1      82.060  33.593  28.620  1.00  0.00    -0.070 CG0
ATOM      9  C   UNL     1      82.132  32.907  27.279  1.00  0.00     0.039 C 
ATOM     10  G   UNL     1      81.866  35.102  28.661  1.00  0.00     0.000 G0
ENDBRANCH   6   7
ENDBRANCH   5   6
ENDBRANCH   3   5
ENDBRANCH   1   3
BRANCH   1  11
ATOM     11  C   UNL     1      85.187  35.128  29.711  1.00  0.00     0.087 C 
BRANCH  11  12
ATOM     12  C   UNL     1      84.113  36.248  29.612  1.00  0.00     0.066 C 
BRANCH  12  13
ATOM     13  C   UNL     1      83.122  35.947  28.491  1.00  0.00     0.140 C 
ATOM     14  O   UNL     1      83.344  36.412  27.382  1.00  0.00    -0.299 OA
BRANCH  13  15
ATOM     15  C   UNL     1      81.862  35.119  28.662  1.00  0.00     0.106 CG0
ATOM     16  G   UNL     1      82.051  33.609  28.631  1.00  0.00     0.000 G0
ENDBRANCH  13  15
ENDBRANCH  12  13
BRANCH  12  17
ATOM     17  C   UNL     1      84.762  37.652  29.395  1.00  0.00    -0.006 C 
ATOM     18  C   UNL     1      86.260  37.553  29.049  1.00  0.00     0.008 C 
ATOM     19  C   UNL     1      84.598  38.547  30.636  1.00  0.00     0.008 C 
ENDBRANCH  12  17
ENDBRANCH  11  12
ENDBRANCH   1  11
TORSDOF 1
ENDMDL
MODEL 9
REMARK VINA RESULT:    -2.729      3.625      4.840
REMARK INTER + INTRA:          -4.716
REMARK INTER:                  -4.339
REMARK INTRA:                  -0.377
REMARK UNBOUND:                -0.552
REMARK SMILES CC1=CCC[C@@H](C)C(=O)C[C@@H](C(C)C)C(=O)C1
REMARK SMILES IDX 8 1 9 2 6 3 7 4 5 5 4 6 3 7 2 8 1 9 10 11 11 12 15 13 16 14
REMARK SMILES IDX 17 15 12 17 13 18 14 19
REMARK H PARENT
REMARK Flexibility Score: 70.00
ROOT
ATOM      1  C   UNL     1      80.920  38.140  28.479  1.00  0.00     0.136 C 
ATOM      2  O   UNL     1      79.775  37.716  28.422  1.00  0.00    -0.299 OA
ENDROOT
BRANCH   1   3
ATOM      3  C   UNL     1      81.298  39.417  27.748  1.00  0.00     0.053 C 
ATOM      4  C   UNL     1      80.765  40.675  28.453  1.00  0.00     0.016 C 
BRANCH   3   5
ATOM      5  C   UNL     1      80.861  39.377  26.268  1.00  0.00     0.015 C 
BRANCH   5   6
ATOM      6  C   UNL     1      81.974  38.925  25.293  1.00  0.00     0.028 C 
BRANCH   6   7
ATOM      7  C   UNL     1      81.807  37.471  24.923  1.00  0.00    -0.028 C 
ATOM      8  C   UNL     1      82.657  36.470  25.259  1.00  0.00    -0.070 CG0
ATOM      9  C   UNL     1      82.369  35.092  24.718  1.00  0.00     0.039 C 
ATOM     10  G   UNL     1      83.857  36.661  26.175  1.00  0.00     0.000 G0
ENDBRANCH   6   7
ENDBRANCH   5   6
ENDBRANCH   3   5
ENDBRANCH   1   3
BRANCH   1  11
ATOM     11  C   UNL     1      81.948  37.363  29.271  1.00  0.00     0.087 C 
BRANCH  11  12
ATOM     12  C   UNL     1      83.390  37.469  28.698  1.00  0.00     0.066 C 
BRANCH  12  13
ATOM     13  C   UNL     1      83.639  36.380  27.658  1.00  0.00     0.140 C 
ATOM     14  O   UNL     1      83.671  35.217  28.034  1.00  0.00    -0.299 OA
BRANCH  13  15
ATOM     15  C   UNL     1      83.866  36.643  26.181  1.00  0.00     0.106 CG0
ATOM     16  G   UNL     1      82.652  36.466  25.280  1.00  0.00     0.000 G0
ENDBRANCH  13  15
ENDBRANCH  12  13
BRANCH  12  17
ATOM     17  C   UNL     1      84.466  37.391  29.827  1.00  0.00    -0.006 C 
ATOM     18  C   UNL     1      84.436  38.627  30.746  1.00  0.00     0.008 C 
ATOM     19  C   UNL     1      85.883  37.242  29.245  1.00  0.00     0.008 C 
ENDBRANCH  12  17
ENDBRANCH  11  12
ENDBRANCH   1  11
TORSDOF 1
ENDMDL
