MODEL 1
REMARK VINA RESULT:    -4.860      0.000      0.000
REMARK INTER + INTRA:          -5.136
REMARK INTER:                  -5.286
REMARK INTRA:                   0.150
REMARK UNBOUND:                 0.150
REMARK SMILES CC(=O)[C@H]1CC[C@@H]2[C@H]3CC=C4C[C@@H](O)CC[C@@]4(C)[C@H]3CC[C@]12C
REMARK SMILES IDX 4 1 5 2 6 3 7 4 22 5 21 6 20 7 19 8 8 9 9 10 10 11 11 12
REMARK SMILES IDX 17 13 16 14 15 15 13 16 12 17 18 18 23 19 2 20 1 21 3 22
REMARK SMILES IDX 14 23
REMARK H PARENT 14 24
REMARK Flexibility Score: inf
ROOT
ATOM      1  C   UNL     1     151.538 149.619 138.121  1.00  0.00     0.062 C 
ATOM      2  C   UNL     1     150.364 149.360 139.071  1.00  0.00     0.012 C 
ATOM      3  C   UNL     1     149.410 148.412 138.348  1.00  0.00     0.005 C 
ATOM      4  C   UNL     1     150.079 148.009 137.020  1.00  0.00    -0.001 C 
ATOM      5  C   UNL     1     151.580 148.382 137.170  1.00  0.00    -0.020 C 
ATOM      6  C   UNL     1     152.380 147.242 137.865  1.00  0.00     0.008 C 
ATOM      7  C   UNL     1     152.104 145.845 137.291  1.00  0.00     0.005 C 
ATOM      8  C   UNL     1     150.602 145.489 137.400  1.00  0.00     0.003 C 
ATOM      9  C   UNL     1     149.757 146.535 136.624  1.00  0.00     0.000 C 
ATOM     10  C   UNL     1     149.865 146.328 135.103  1.00  0.00     0.031 C 
ATOM     11  C   UNL     1     149.679 144.899 134.690  1.00  0.00    -0.027 C 
ATOM     12  C   UNL     1     149.952 143.848 135.489  1.00  0.00    -0.065 C 
ATOM     13  C   UNL     1     150.205 144.006 136.994  1.00  0.00    -0.008 C 
ATOM     14  C   UNL     1     151.304 142.979 137.416  1.00  0.00     0.014 C 
ATOM     15  C   UNL     1     151.040 141.544 136.924  1.00  0.00     0.033 C 
ATOM     16  C   UNL     1     150.884 141.500 135.398  1.00  0.00     0.118 C 
ATOM     17  C   UNL     1     149.771 142.448 134.927  1.00  0.00     0.063 C 
ATOM     18  C   UNL     1     148.886 143.650 137.739  1.00  0.00     0.016 C 
ATOM     19  C   UNL     1     152.268 148.735 135.823  1.00  0.00     0.012 C 
ENDROOT
BRANCH   1  20
ATOM     20  C   UNL     1     151.342 150.950 137.403  1.00  0.00     0.133 C 
ATOM     21  C   UNL     1     149.969 151.465 137.085  1.00  0.00     0.088 C 
ATOM     22  O   UNL     1     152.310 151.617 137.071  1.00  0.00    -0.300 OA
ENDBRANCH   1  20
BRANCH  16  23
ATOM     23  O   UNL     1     152.103 141.841 134.788  1.00  0.00    -0.393 OA
ATOM     24  H   UNL     1     152.664 142.268 135.489  1.00  0.00     0.210 HD
ENDBRANCH  16  23
TORSDOF 2
ENDMDL
MODEL 2
REMARK VINA RESULT:    -4.847      4.844      7.722
REMARK INTER + INTRA:          -5.123
REMARK INTER:                  -5.265
REMARK INTRA:                   0.142
REMARK UNBOUND:                 0.150
REMARK SMILES CC(=O)[C@H]1CC[C@@H]2[C@H]3CC=C4C[C@@H](O)CC[C@@]4(C)[C@H]3CC[C@]12C
REMARK SMILES IDX 4 1 5 2 6 3 7 4 22 5 21 6 20 7 19 8 8 9 9 10 10 11 11 12
REMARK SMILES IDX 17 13 16 14 15 15 13 16 12 17 18 18 23 19 2 20 1 21 3 22
REMARK SMILES IDX 14 23
REMARK H PARENT 14 24
REMARK Flexibility Score: inf
ROOT
ATOM      1  C   UNL     1     149.642 141.385 137.920  1.00  0.00     0.062 C 
ATOM      2  C   UNL     1     149.356 142.487 138.946  1.00  0.00     0.012 C 
ATOM      3  C   UNL     1     148.325 143.422 138.318  1.00  0.00     0.005 C 
ATOM      4  C   UNL     1     147.906 142.805 136.970  1.00  0.00    -0.001 C 
ATOM      5  C   UNL     1     148.372 141.324 137.017  1.00  0.00    -0.020 C 
ATOM      6  C   UNL     1     147.309 140.418 137.706  1.00  0.00     0.008 C 
ATOM      7  C   UNL     1     145.876 140.642 137.204  1.00  0.00     0.005 C 
ATOM      8  C   UNL     1     145.439 142.111 137.415  1.00  0.00     0.003 C 
ATOM      9  C   UNL     1     146.401 143.059 136.650  1.00  0.00     0.000 C 
ATOM     10  C   UNL     1     146.137 143.025 135.135  1.00  0.00     0.031 C 
ATOM     11  C   UNL     1     144.684 143.148 134.789  1.00  0.00    -0.027 C 
ATOM     12  C   UNL     1     143.685 142.768 135.610  1.00  0.00    -0.065 C 
ATOM     13  C   UNL     1     143.919 142.441 137.090  1.00  0.00    -0.008 C 
ATOM     14  C   UNL     1     142.976 141.260 137.486  1.00  0.00     0.014 C 
ATOM     15  C   UNL     1     141.510 141.464 137.066  1.00  0.00     0.033 C 
ATOM     16  C   UNL     1     141.392 141.703 135.554  1.00  0.00     0.118 C 
ATOM     17  C   UNL     1     142.254 142.896 135.114  1.00  0.00     0.063 C 
ATOM     18  C   UNL     1     143.520 143.692 137.925  1.00  0.00     0.016 C 
ATOM     19  C   UNL     1     148.706 140.735 135.619  1.00  0.00     0.012 C 
ENDROOT
BRANCH   1  20
ATOM     20  C   UNL     1     150.929 141.702 137.163  1.00  0.00     0.133 C 
ATOM     21  C   UNL     1     151.328 143.118 136.870  1.00  0.00     0.088 C 
ATOM     22  O   UNL     1     151.654 140.796 136.781  1.00  0.00    -0.300 OA
ENDBRANCH   1  20
BRANCH  16  23
ATOM     23  O   UNL     1     141.777 140.543 134.862  1.00  0.00    -0.393 OA
ATOM     24  H   UNL     1     142.057 140.831 133.953  1.00  0.00     0.210 HD
ENDBRANCH  16  23
TORSDOF 2
ENDMDL
MODEL 3
REMARK VINA RESULT:    -4.830      7.936     11.001
REMARK INTER + INTRA:          -5.104
REMARK INTER:                  -5.241
REMARK INTRA:                   0.138
REMARK UNBOUND:                 0.150
REMARK SMILES CC(=O)[C@H]1CC[C@@H]2[C@H]3CC=C4C[C@@H](O)CC[C@@]4(C)[C@H]3CC[C@]12C
REMARK SMILES IDX 4 1 5 2 6 3 7 4 22 5 21 6 20 7 19 8 8 9 9 10 10 11 11 12
REMARK SMILES IDX 17 13 16 14 15 15 13 16 12 17 18 18 23 19 2 20 1 21 3 22
REMARK SMILES IDX 14 23
REMARK H PARENT 14 24
REMARK Flexibility Score: inf
ROOT
ATOM      1  C   UNL     1     141.339 142.893 138.042  1.00  0.00     0.062 C 
ATOM      2  C   UNL     1     142.471 143.222 139.021  1.00  0.00     0.012 C 
ATOM      3  C   UNL     1     143.390 144.218 138.318  1.00  0.00     0.005 C 
ATOM      4  C   UNL     1     142.736 144.577 136.971  1.00  0.00    -0.001 C 
ATOM      5  C   UNL     1     141.255 144.121 137.083  1.00  0.00    -0.020 C 
ATOM      6  C   UNL     1     140.374 145.218 137.748  1.00  0.00     0.008 C 
ATOM      7  C   UNL     1     140.587 146.625 137.173  1.00  0.00     0.005 C 
ATOM      8  C   UNL     1     142.063 147.065 137.319  1.00  0.00     0.003 C 
ATOM      9  C   UNL     1     142.986 146.064 136.573  1.00  0.00     0.000 C 
ATOM     10  C   UNL     1     142.908 146.257 135.049  1.00  0.00     0.031 C 
ATOM     11  C   UNL     1     143.025 147.692 134.632  1.00  0.00    -0.027 C 
ATOM     12  C   UNL     1     142.673 148.730 135.416  1.00  0.00    -0.065 C 
ATOM     13  C   UNL     1     142.388 148.566 136.915  1.00  0.00    -0.008 C 
ATOM     14  C   UNL     1     141.223 149.532 137.300  1.00  0.00     0.014 C 
ATOM     15  C   UNL     1     141.420 150.977 136.806  1.00  0.00     0.033 C 
ATOM     16  C   UNL     1     141.615 151.022 135.284  1.00  0.00     0.118 C 
ATOM     17  C   UNL     1     142.791 150.135 134.850  1.00  0.00     0.063 C 
ATOM     18  C   UNL     1     143.665 148.998 137.693  1.00  0.00     0.016 C 
ATOM     19  C   UNL     1     140.624 143.724 135.719  1.00  0.00     0.012 C 
ENDROOT
BRANCH   1  20
ATOM     20  C   UNL     1     141.629 141.571 137.338  1.00  0.00     0.133 C 
ATOM     21  C   UNL     1     143.032 141.165 136.996  1.00  0.00     0.088 C 
ATOM     22  O   UNL     1     140.711 140.822 137.038  1.00  0.00    -0.300 OA
ENDBRANCH   1  20
BRANCH  16  23
ATOM     23  O   UNL     1     140.433 150.611 134.645  1.00  0.00    -0.393 OA
ATOM     24  H   UNL     1     140.678 149.856 134.048  1.00  0.00     0.210 HD
ENDBRANCH  16  23
TORSDOF 2
ENDMDL
MODEL 4
REMARK VINA RESULT:    -4.829      5.089      7.772
REMARK INTER + INTRA:          -5.103
REMARK INTER:                  -5.249
REMARK INTRA:                   0.146
REMARK UNBOUND:                 0.150
REMARK SMILES CC(=O)[C@H]1CC[C@@H]2[C@H]3CC=C4C[C@@H](O)CC[C@@]4(C)[C@H]3CC[C@]12C
REMARK SMILES IDX 4 1 5 2 6 3 7 4 22 5 21 6 20 7 19 8 8 9 9 10 10 11 11 12
REMARK SMILES IDX 17 13 16 14 15 15 13 16 12 17 18 18 23 19 2 20 1 21 3 22
REMARK SMILES IDX 14 23
REMARK H PARENT 14 24
REMARK Flexibility Score: inf
ROOT
ATOM      1  C   UNL     1     143.081 151.438 138.193  1.00  0.00     0.062 C 
ATOM      2  C   UNL     1     143.334 150.219 139.086  1.00  0.00     0.012 C 
ATOM      3  C   UNL     1     144.276 149.294 138.318  1.00  0.00     0.005 C 
ATOM      4  C   UNL     1     144.680 150.022 137.022  1.00  0.00    -0.001 C 
ATOM      5  C   UNL     1     144.316 151.516 137.242  1.00  0.00    -0.020 C 
ATOM      6  C   UNL     1     145.462 152.277 137.971  1.00  0.00     0.008 C 
ATOM      7  C   UNL     1     146.856 152.020 137.382  1.00  0.00     0.005 C 
ATOM      8  C   UNL     1     147.203 150.513 137.420  1.00  0.00     0.003 C 
ATOM      9  C   UNL     1     146.152 149.711 136.608  1.00  0.00     0.000 C 
ATOM     10  C   UNL     1     146.356 149.889 135.093  1.00  0.00     0.031 C 
ATOM     11  C   UNL     1     147.783 149.714 134.669  1.00  0.00    -0.027 C 
ATOM     12  C   UNL     1     148.837 149.943 135.477  1.00  0.00    -0.065 C 
ATOM     13  C   UNL     1     148.684 150.127 136.993  1.00  0.00    -0.008 C 
ATOM     14  C   UNL     1     149.718 151.200 137.463  1.00  0.00     0.014 C 
ATOM     15  C   UNL     1     151.150 150.951 136.956  1.00  0.00     0.033 C 
ATOM     16  C   UNL     1     151.191 150.866 135.424  1.00  0.00     0.118 C 
ATOM     17  C   UNL     1     150.235 149.781 134.904  1.00  0.00     0.063 C 
ATOM     18  C   UNL     1     149.033 148.773 137.675  1.00  0.00     0.016 C 
ATOM     19  C   UNL     1     143.965 152.268 135.929  1.00  0.00     0.012 C 
ENDROOT
BRANCH   1  20
ATOM     20  C   UNL     1     141.747 151.282 137.469  1.00  0.00     0.133 C 
ATOM     21  C   UNL     1     141.241 149.932 137.056  1.00  0.00     0.088 C 
ATOM     22  O   UNL     1     141.070 152.267 137.212  1.00  0.00    -0.300 OA
ENDBRANCH   1  20
BRANCH  16  23
ATOM     23  O   UNL     1     150.855 152.114 134.873  1.00  0.00    -0.393 OA
ATOM     24  H   UNL     1     151.711 152.578 134.672  1.00  0.00     0.210 HD
ENDBRANCH  16  23
TORSDOF 2
ENDMDL
MODEL 5
REMARK VINA RESULT:    -4.738      4.070      6.284
REMARK INTER + INTRA:          -5.004
REMARK INTER:                  -5.055
REMARK INTRA:                   0.051
REMARK UNBOUND:                 0.150
REMARK SMILES CC(=O)[C@H]1CC[C@@H]2[C@H]3CC=C4C[C@@H](O)CC[C@@]4(C)[C@H]3CC[C@]12C
REMARK SMILES IDX 4 1 5 2 6 3 7 4 22 5 21 6 20 7 19 8 8 9 9 10 10 11 11 12
REMARK SMILES IDX 17 13 16 14 15 15 13 16 12 17 18 18 23 19 2 20 1 21 3 22
REMARK SMILES IDX 14 23
REMARK H PARENT 14 24
REMARK Flexibility Score: inf
ROOT
ATOM      1  C   UNL     1     152.013 150.878 136.514  1.00  0.00     0.062 C 
ATOM      2  C   UNL     1     151.770 150.527 135.043  1.00  0.00     0.012 C 
ATOM      3  C   UNL     1     150.755 149.386 135.020  1.00  0.00     0.005 C 
ATOM      4  C   UNL     1     150.300 149.146 136.473  1.00  0.00    -0.001 C 
ATOM      5  C   UNL     1     150.728 150.412 137.267  1.00  0.00    -0.020 C 
ATOM      6  C   UNL     1     149.653 151.533 137.166  1.00  0.00     0.008 C 
ATOM      7  C   UNL     1     148.219 151.049 137.423  1.00  0.00     0.005 C 
ATOM      8  C   UNL     1     147.823 149.938 136.422  1.00  0.00     0.003 C 
ATOM      9  C   UNL     1     148.798 148.737 136.558  1.00  0.00     0.000 C 
ATOM     10  C   UNL     1     148.511 147.922 137.831  1.00  0.00     0.031 C 
ATOM     11  C   UNL     1     147.057 147.608 138.013  1.00  0.00    -0.027 C 
ATOM     12  C   UNL     1     146.060 148.366 137.514  1.00  0.00    -0.065 C 
ATOM     13  C   UNL     1     146.308 149.463 136.469  1.00  0.00    -0.008 C 
ATOM     14  C   UNL     1     145.340 150.652 136.769  1.00  0.00     0.014 C 
ATOM     15  C   UNL     1     143.874 150.230 136.967  1.00  0.00     0.033 C 
ATOM     16  C   UNL     1     143.740 149.191 138.089  1.00  0.00     0.118 C 
ATOM     17  C   UNL     1     144.626 147.966 137.818  1.00  0.00     0.063 C 
ATOM     18  C   UNL     1     145.953 148.879 135.072  1.00  0.00     0.016 C 
ATOM     19  C   UNL     1     151.027 150.131 138.765  1.00  0.00     0.012 C 
ENDROOT
BRANCH   1  20
ATOM     20  C   UNL     1     153.296 150.213 137.002  1.00  0.00     0.133 C 
ATOM     21  C   UNL     1     154.225 150.917 137.947  1.00  0.00     0.088 C 
ATOM     22  O   UNL     1     153.587 149.088 136.623  1.00  0.00    -0.300 OA
ENDBRANCH   1  20
BRANCH  16  23
ATOM     23  O   UNL     1     144.085 149.778 139.319  1.00  0.00    -0.393 OA
ATOM     24  H   UNL     1     144.034 149.060 140.004  1.00  0.00     0.210 HD
ENDBRANCH  16  23
TORSDOF 2
ENDMDL
MODEL 6
REMARK VINA RESULT:    -4.718      1.493      1.820
REMARK INTER + INTRA:          -4.982
REMARK INTER:                  -5.022
REMARK INTRA:                   0.040
REMARK UNBOUND:                 0.150
REMARK SMILES CC(=O)[C@H]1CC[C@@H]2[C@H]3CC=C4C[C@@H](O)CC[C@@]4(C)[C@H]3CC[C@]12C
REMARK SMILES IDX 4 1 5 2 6 3 7 4 22 5 21 6 20 7 19 8 8 9 9 10 10 11 11 12
REMARK SMILES IDX 17 13 16 14 15 15 13 16 12 17 18 18 23 19 2 20 1 21 3 22
REMARK SMILES IDX 14 23
REMARK H PARENT 14 24
REMARK Flexibility Score: inf
ROOT
ATOM      1  C   UNL     1     152.580 148.491 136.756  1.00  0.00     0.062 C 
ATOM      2  C   UNL     1     151.592 148.695 137.909  1.00  0.00     0.012 C 
ATOM      3  C   UNL     1     150.384 147.805 137.622  1.00  0.00     0.005 C 
ATOM      4  C   UNL     1     150.711 146.978 136.364  1.00  0.00    -0.001 C 
ATOM      5  C   UNL     1     152.250 147.081 136.176  1.00  0.00    -0.020 C 
ATOM      6  C   UNL     1     152.995 146.004 137.017  1.00  0.00     0.008 C 
ATOM      7  C   UNL     1     152.409 144.592 136.887  1.00  0.00     0.005 C 
ATOM      8  C   UNL     1     150.923 144.568 137.317  1.00  0.00     0.003 C 
ATOM      9  C   UNL     1     150.104 145.543 136.430  1.00  0.00     0.000 C 
ATOM     10  C   UNL     1     149.877 144.966 135.022  1.00  0.00     0.031 C 
ATOM     11  C   UNL     1     149.405 143.544 135.039  1.00  0.00    -0.027 C 
ATOM     12  C   UNL     1     149.673 142.679 136.038  1.00  0.00    -0.065 C 
ATOM     13  C   UNL     1     150.239 143.136 137.389  1.00  0.00    -0.008 C 
ATOM     14  C   UNL     1     151.237 142.046 137.895  1.00  0.00     0.014 C 
ATOM     15  C   UNL     1     150.673 140.614 137.851  1.00  0.00     0.033 C 
ATOM     16  C   UNL     1     150.213 140.241 136.435  1.00  0.00     0.118 C 
ATOM     17  C   UNL     1     149.181 141.248 135.905  1.00  0.00     0.063 C 
ATOM     18  C   UNL     1     149.057 143.227 138.395  1.00  0.00     0.016 C 
ATOM     19  C   UNL     1     152.701 146.965 134.694  1.00  0.00     0.012 C 
ENDROOT
BRANCH   1  20
ATOM     20  C   UNL     1     152.443 149.627 135.747  1.00  0.00     0.133 C 
ATOM     21  C   UNL     1     153.651 150.303 135.171  1.00  0.00     0.088 C 
ATOM     22  O   UNL     1     151.335 150.005 135.396  1.00  0.00    -0.300 OA
ENDBRANCH   1  20
BRANCH  16  23
ATOM     23  O   UNL     1     151.324 140.187 135.576  1.00  0.00    -0.393 OA
ATOM     24  H   UNL     1     150.977 139.967 134.672  1.00  0.00     0.210 HD
ENDBRANCH  16  23
TORSDOF 2
ENDMDL
MODEL 7
REMARK VINA RESULT:    -4.702      7.198      8.649
REMARK INTER + INTRA:          -4.965
REMARK INTER:                  -5.007
REMARK INTRA:                   0.042
REMARK UNBOUND:                 0.150
REMARK SMILES CC(=O)[C@H]1CC[C@@H]2[C@H]3CC=C4C[C@@H](O)CC[C@@]4(C)[C@H]3CC[C@]12C
REMARK SMILES IDX 4 1 5 2 6 3 7 4 22 5 21 6 20 7 19 8 8 9 9 10 10 11 11 12
REMARK SMILES IDX 17 13 16 14 15 15 13 16 12 17 18 18 23 19 2 20 1 21 3 22
REMARK SMILES IDX 14 23
REMARK H PARENT 14 24
REMARK Flexibility Score: inf
ROOT
ATOM      1  C   UNL     1     141.783 151.977 136.484  1.00  0.00     0.062 C 
ATOM      2  C   UNL     1     142.096 151.684 135.013  1.00  0.00     0.012 C 
ATOM      3  C   UNL     1     143.205 150.634 134.996  1.00  0.00     0.005 C 
ATOM      4  C   UNL     1     143.462 150.212 136.455  1.00  0.00    -0.001 C 
ATOM      5  C   UNL     1     142.227 150.699 137.262  1.00  0.00    -0.020 C 
ATOM      6  C   UNL     1     141.072 149.656 137.214  1.00  0.00     0.008 C 
ATOM      7  C   UNL     1     141.518 148.215 137.500  1.00  0.00     0.005 C 
ATOM      8  C   UNL     1     142.596 147.759 136.488  1.00  0.00     0.003 C 
ATOM      9  C   UNL     1     143.828 148.700 136.573  1.00  0.00     0.000 C 
ATOM     10  C   UNL     1     144.661 148.423 137.837  1.00  0.00     0.031 C 
ATOM     11  C   UNL     1     144.935 146.966 138.052  1.00  0.00    -0.027 C 
ATOM     12  C   UNL     1     144.137 145.980 137.596  1.00  0.00    -0.065 C 
ATOM     13  C   UNL     1     143.027 146.232 136.567  1.00  0.00    -0.008 C 
ATOM     14  C   UNL     1     141.816 145.310 136.918  1.00  0.00     0.014 C 
ATOM     15  C   UNL     1     142.199 143.837 137.147  1.00  0.00     0.033 C 
ATOM     16  C   UNL     1     143.256 143.702 138.251  1.00  0.00     0.118 C 
ATOM     17  C   UNL     1     144.501 144.543 137.931  1.00  0.00     0.063 C 
ATOM     18  C   UNL     1     143.570 145.822 135.168  1.00  0.00     0.016 C 
ATOM     19  C   UNL     1     142.548 151.030 138.745  1.00  0.00     0.012 C 
ENDROOT
BRANCH   1  20
ATOM     20  C   UNL     1     142.497 153.252 136.923  1.00  0.00     0.133 C 
ATOM     21  C   UNL     1     141.807 154.270 137.782  1.00  0.00     0.088 C 
ATOM     22  O   UNL     1     143.648 153.462 136.574  1.00  0.00    -0.300 OA
ENDBRANCH   1  20
BRANCH  16  23
ATOM     23  O   UNL     1     142.706 144.097 139.482  1.00  0.00    -0.393 OA
ATOM     24  H   UNL     1     143.402 143.936 140.173  1.00  0.00     0.210 HD
ENDBRANCH  16  23
TORSDOF 2
ENDMDL
MODEL 8
REMARK VINA RESULT:    -4.697      8.284     11.385
REMARK INTER + INTRA:          -4.959
REMARK INTER:                  -4.997
REMARK INTRA:                   0.038
REMARK UNBOUND:                 0.150
REMARK SMILES CC(=O)[C@H]1CC[C@@H]2[C@H]3CC=C4C[C@@H](O)CC[C@@]4(C)[C@H]3CC[C@]12C
REMARK SMILES IDX 4 1 5 2 6 3 7 4 22 5 21 6 20 7 19 8 8 9 9 10 10 11 11 12
REMARK SMILES IDX 17 13 16 14 15 15 13 16 12 17 18 18 23 19 2 20 1 21 3 22
REMARK SMILES IDX 14 23
REMARK H PARENT 14 24
REMARK Flexibility Score: inf
ROOT
ATOM      1  C   UNL     1     140.265 144.033 136.745  1.00  0.00     0.062 C 
ATOM      2  C   UNL     1     141.267 143.848 137.889  1.00  0.00     0.012 C 
ATOM      3  C   UNL     1     142.434 144.793 137.614  1.00  0.00     0.005 C 
ATOM      4  C   UNL     1     142.067 145.630 136.374  1.00  0.00    -0.001 C 
ATOM      5  C   UNL     1     140.532 145.467 136.191  1.00  0.00    -0.020 C 
ATOM      6  C   UNL     1     139.747 146.494 137.058  1.00  0.00     0.008 C 
ATOM      7  C   UNL     1     140.273 147.932 136.953  1.00  0.00     0.005 C 
ATOM      8  C   UNL     1     141.759 148.010 137.376  1.00  0.00     0.003 C 
ATOM      9  C   UNL     1     142.613 147.088 136.466  1.00  0.00     0.000 C 
ATOM     10  C   UNL     1     142.808 147.702 135.069  1.00  0.00     0.031 C 
ATOM     11  C   UNL     1     143.220 149.142 135.112  1.00  0.00    -0.027 C 
ATOM     12  C   UNL     1     142.922 149.975 136.129  1.00  0.00    -0.065 C 
ATOM     13  C   UNL     1     142.382 149.468 137.473  1.00  0.00    -0.008 C 
ATOM     14  C   UNL     1     141.342 150.505 138.006  1.00  0.00     0.014 C 
ATOM     15  C   UNL     1     141.845 151.960 137.988  1.00  0.00     0.033 C 
ATOM     16  C   UNL     1     142.282 152.380 136.577  1.00  0.00     0.118 C 
ATOM     17  C   UNL     1     143.353 151.428 136.023  1.00  0.00     0.063 C 
ATOM     18  C   UNL     1     143.573 149.407 138.472  1.00  0.00     0.016 C 
ATOM     19  C   UNL     1     140.068 145.592 134.714  1.00  0.00     0.012 C 
ENDROOT
BRANCH   1  20
ATOM     20  C   UNL     1     140.444 142.924 135.713  1.00  0.00     0.133 C 
ATOM     21  C   UNL     1     139.261 142.227 135.109  1.00  0.00     0.088 C 
ATOM     22  O   UNL     1     141.565 142.585 135.366  1.00  0.00    -0.300 OA
ENDBRANCH   1  20
BRANCH  16  23
ATOM     23  O   UNL     1     141.165 152.404 135.725  1.00  0.00    -0.393 OA
ATOM     24  H   UNL     1     141.097 151.501 135.315  1.00  0.00     0.210 HD
ENDBRANCH  16  23
TORSDOF 2
ENDMDL
MODEL 9
REMARK VINA RESULT:    -4.676      8.848      9.882
REMARK INTER + INTRA:          -4.937
REMARK INTER:                  -4.979
REMARK INTRA:                   0.042
REMARK UNBOUND:                 0.150
REMARK SMILES CC(=O)[C@H]1CC[C@@H]2[C@H]3CC=C4C[C@@H](O)CC[C@@]4(C)[C@H]3CC[C@]12C
REMARK SMILES IDX 4 1 5 2 6 3 7 4 22 5 21 6 20 7 19 8 8 9 9 10 10 11 11 12
REMARK SMILES IDX 17 13 16 14 15 15 13 16 12 17 18 18 23 19 2 20 1 21 3 22
REMARK SMILES IDX 14 23
REMARK H PARENT 14 24
REMARK Flexibility Score: inf
ROOT
ATOM      1  C   UNL     1     143.491 150.670 138.126  1.00  0.00     0.062 C 
ATOM      2  C   UNL     1     142.206 151.071 138.858  1.00  0.00     0.012 C 
ATOM      3  C   UNL     1     141.052 150.850 137.882  1.00  0.00     0.005 C 
ATOM      4  C   UNL     1     141.640 150.198 136.615  1.00  0.00    -0.001 C 
ATOM      5  C   UNL     1     143.040 149.663 137.023  1.00  0.00    -0.020 C 
ATOM      6  C   UNL     1     142.942 148.242 137.650  1.00  0.00     0.008 C 
ATOM      7  C   UNL     1     142.072 147.263 136.850  1.00  0.00     0.005 C 
ATOM      8  C   UNL     1     140.630 147.803 136.698  1.00  0.00     0.003 C 
ATOM      9  C   UNL     1     140.656 149.174 135.971  1.00  0.00     0.000 C 
ATOM     10  C   UNL     1     140.928 149.007 134.466  1.00  0.00     0.031 C 
ATOM     11  C   UNL     1     140.082 147.946 133.831  1.00  0.00    -0.027 C 
ATOM     12  C   UNL     1     139.581 146.889 134.500  1.00  0.00    -0.065 C 
ATOM     13  C   UNL     1     139.580 146.813 136.033  1.00  0.00    -0.008 C 
ATOM     14  C   UNL     1     139.841 145.330 136.450  1.00  0.00     0.014 C 
ATOM     15  C   UNL     1     138.944 144.311 135.726  1.00  0.00     0.033 C 
ATOM     16  C   UNL     1     139.089 144.426 134.202  1.00  0.00     0.118 C 
ATOM     17  C   UNL     1     138.784 145.854 133.723  1.00  0.00     0.063 C 
ATOM     18  C   UNL     1     138.164 147.224 136.530  1.00  0.00     0.016 C 
ATOM     19  C   UNL     1     144.056 149.628 135.848  1.00  0.00     0.012 C 
ENDROOT
BRANCH   1  20
ATOM     20  C   UNL     1     144.191 151.913 137.586  1.00  0.00     0.133 C 
ATOM     21  C   UNL     1     145.679 152.072 137.689  1.00  0.00     0.088 C 
ATOM     22  O   UNL     1     143.540 152.804 137.062  1.00  0.00    -0.300 OA
ENDBRANCH   1  20
BRANCH  16  23
ATOM     23  O   UNL     1     140.390 144.053 133.822  1.00  0.00    -0.393 OA
ATOM     24  H   UNL     1     140.447 143.067 133.924  1.00  0.00     0.210 HD
ENDBRANCH  16  23
TORSDOF 2
ENDMDL
