MODEL 1
REMARK VINA RESULT:    -2.907      0.000      0.000
REMARK INTER + INTRA:          -3.511
REMARK INTER:                  -3.417
REMARK INTRA:                  -0.095
REMARK UNBOUND:                -0.095
REMARK SMILES CCCCC(=O)[O-]
REMARK SMILES IDX 4 1 5 2 6 3 7 4 3 5 2 6 1 7
REMARK H PARENT
REMARK Flexibility Score: inf
ROOT
ATOM      1  C   UNL     1      32.139  10.994  23.251  1.00  0.00     0.053 C 
ENDROOT
BRANCH   1   2
ATOM      2  C   UNL     1      31.841   9.700  22.562  1.00  0.00     0.041 C 
ATOM      3  O   UNL     1      30.876   8.987  22.945  1.00  0.00    -0.550 OA
ATOM      4  O   UNL     1      32.657   9.257  21.530  1.00  0.00    -0.550 OA
ENDBRANCH   1   2
BRANCH   1   5
ATOM      5  C   UNL     1      33.392  11.643  22.651  1.00  0.00     0.006 C 
BRANCH   5   6
ATOM      6  C   UNL     1      34.655  11.364  23.479  1.00  0.00    -0.003 C 
ATOM      7  C   UNL     1      35.709  10.575  22.702  1.00  0.00     0.004 C 
ENDBRANCH   5   6
ENDBRANCH   1   5
TORSDOF 3
ENDMDL
MODEL 2
REMARK VINA RESULT:    -2.752      1.863      3.466
REMARK INTER + INTRA:          -3.329
REMARK INTER:                  -3.223
REMARK INTRA:                  -0.106
REMARK UNBOUND:                -0.095
REMARK SMILES CCCCC(=O)[O-]
REMARK SMILES IDX 4 1 5 2 6 3 7 4 3 5 2 6 1 7
REMARK H PARENT
REMARK Flexibility Score: inf
ROOT
ATOM      1  C   UNL     1      34.507  11.362  23.353  1.00  0.00     0.053 C 
ENDROOT
BRANCH   1   2
ATOM      2  C   UNL     1      35.360  10.351  22.654  1.00  0.00     0.041 C 
ATOM      3  O   UNL     1      36.540  10.141  23.043  1.00  0.00    -0.550 OA
ATOM      4  O   UNL     1      34.871   9.676  21.543  1.00  0.00    -0.550 OA
ENDBRANCH   1   2
BRANCH   1   5
ATOM      5  C   UNL     1      33.114  11.420  22.713  1.00  0.00     0.006 C 
BRANCH   5   6
ATOM      6  C   UNL     1      32.049  10.698  23.551  1.00  0.00    -0.003 C 
ATOM      7  C   UNL     1      31.406   9.527  22.807  1.00  0.00     0.004 C 
ENDBRANCH   5   6
ENDBRANCH   1   5
TORSDOF 3
ENDMDL
MODEL 3
REMARK VINA RESULT:    -2.727      1.361      1.727
REMARK INTER + INTRA:          -3.300
REMARK INTER:                  -3.280
REMARK INTRA:                  -0.019
REMARK UNBOUND:                -0.095
REMARK SMILES CCCCC(=O)[O-]
REMARK SMILES IDX 4 1 5 2 6 3 7 4 3 5 2 6 1 7
REMARK H PARENT
REMARK Flexibility Score: inf
ROOT
ATOM      1  C   UNL     1      33.364  10.245  22.390  1.00  0.00     0.053 C 
ENDROOT
BRANCH   1   2
ATOM      2  C   UNL     1      31.974  10.344  22.934  1.00  0.00     0.041 C 
ATOM      3  O   UNL     1      31.577  11.414  23.468  1.00  0.00    -0.550 OA
ATOM      4  O   UNL     1      31.133   9.240  22.898  1.00  0.00    -0.550 OA
ENDBRANCH   1   2
BRANCH   1   5
ATOM      5  C   UNL     1      34.324  11.112  23.214  1.00  0.00     0.006 C 
BRANCH   5   6
ATOM      6  C   UNL     1      35.799  10.843  22.878  1.00  0.00    -0.003 C 
ATOM      7  C   UNL     1      36.628  12.125  22.795  1.00  0.00     0.004 C 
ENDBRANCH   5   6
ENDBRANCH   1   5
TORSDOF 3
ENDMDL
MODEL 4
REMARK VINA RESULT:    -2.713      2.056      3.595
REMARK INTER + INTRA:          -3.283
REMARK INTER:                  -3.215
REMARK INTRA:                  -0.068
REMARK UNBOUND:                -0.095
REMARK SMILES CCCCC(=O)[O-]
REMARK SMILES IDX 4 1 5 2 6 3 7 4 3 5 2 6 1 7
REMARK H PARENT
REMARK Flexibility Score: inf
ROOT
ATOM      1  C   UNL     1      34.497  11.334  23.354  1.00  0.00     0.053 C 
ENDROOT
BRANCH   1   2
ATOM      2  C   UNL     1      35.533  10.480  22.693  1.00  0.00     0.041 C 
ATOM      3  O   UNL     1      35.186   9.557  21.909  1.00  0.00    -0.550 OA
ATOM      4  O   UNL     1      36.878  10.670  22.981  1.00  0.00    -0.550 OA
ENDBRANCH   1   2
BRANCH   1   5
ATOM      5  C   UNL     1      33.150  11.194  22.634  1.00  0.00     0.006 C 
BRANCH   5   6
ATOM      6  C   UNL     1      32.051  10.624  23.544  1.00  0.00    -0.003 C 
ATOM      7  C   UNL     1      31.251   9.507  22.875  1.00  0.00     0.004 C 
ENDBRANCH   5   6
ENDBRANCH   1   5
TORSDOF 3
ENDMDL
MODEL 5
REMARK VINA RESULT:    -2.621      2.632      3.685
REMARK INTER + INTRA:          -3.175
REMARK INTER:                  -3.116
REMARK INTRA:                  -0.059
REMARK UNBOUND:                -0.095
REMARK SMILES CCCCC(=O)[O-]
REMARK SMILES IDX 4 1 5 2 6 3 7 4 3 5 2 6 1 7
REMARK H PARENT
REMARK Flexibility Score: inf
ROOT
ATOM      1  C   UNL     1      34.120  10.353  22.189  1.00  0.00     0.053 C 
ENDROOT
BRANCH   1   2
ATOM      2  C   UNL     1      35.275  10.905  22.965  1.00  0.00     0.041 C 
ATOM      3  O   UNL     1      35.215  12.066  23.449  1.00  0.00    -0.550 OA
ATOM      4  O   UNL     1      36.436  10.157  23.110  1.00  0.00    -0.550 OA
ENDBRANCH   1   2
BRANCH   1   5
ATOM      5  C   UNL     1      32.911  11.291  22.291  1.00  0.00     0.006 C 
BRANCH   5   6
ATOM      6  C   UNL     1      31.830  10.758  23.243  1.00  0.00    -0.003 C 
ATOM      7  C   UNL     1      31.260   9.411  22.795  1.00  0.00     0.004 C 
ENDBRANCH   5   6
ENDBRANCH   1   5
TORSDOF 3
ENDMDL
MODEL 6
REMARK VINA RESULT:    -2.512      1.708      2.765
REMARK INTER + INTRA:          -3.047
REMARK INTER:                  -3.013
REMARK INTRA:                  -0.033
REMARK UNBOUND:                -0.095
REMARK SMILES CCCCC(=O)[O-]
REMARK SMILES IDX 4 1 5 2 6 3 7 4 3 5 2 6 1 7
REMARK H PARENT
REMARK Flexibility Score: inf
ROOT
ATOM      1  C   UNL     1      32.527   9.046  21.633  1.00  0.00     0.053 C 
ENDROOT
BRANCH   1   2
ATOM      2  C   UNL     1      32.013   7.768  21.049  1.00  0.00     0.041 C 
ATOM      3  O   UNL     1      32.362   7.415  19.891  1.00  0.00    -0.550 OA
ATOM      4  O   UNL     1      31.110   6.991  21.762  1.00  0.00    -0.550 OA
ENDBRANCH   1   2
BRANCH   1   5
ATOM      5  C   UNL     1      31.577   9.555  22.724  1.00  0.00     0.006 C 
BRANCH   5   6
ATOM      6  C   UNL     1      32.111  10.809  23.434  1.00  0.00    -0.003 C 
ATOM      7  C   UNL     1      33.616  10.998  23.244  1.00  0.00     0.004 C 
ENDBRANCH   5   6
ENDBRANCH   1   5
TORSDOF 3
ENDMDL
MODEL 7
REMARK VINA RESULT:    -2.459      2.279      3.390
REMARK INTER + INTRA:          -2.985
REMARK INTER:                  -2.904
REMARK INTRA:                  -0.080
REMARK UNBOUND:                -0.095
REMARK SMILES CCCCC(=O)[O-]
REMARK SMILES IDX 4 1 5 2 6 3 7 4 3 5 2 6 1 7
REMARK H PARENT
REMARK Flexibility Score: inf
ROOT
ATOM      1  C   UNL     1      33.764   9.918  21.721  1.00  0.00     0.053 C 
ENDROOT
BRANCH   1   2
ATOM      2  C   UNL     1      33.820  10.757  20.483  1.00  0.00     0.041 C 
ATOM      3  O   UNL     1      34.646  10.487  19.571  1.00  0.00    -0.550 OA
ATOM      4  O   UNL     1      32.994  11.866  20.356  1.00  0.00    -0.550 OA
ENDBRANCH   1   2
BRANCH   1   5
ATOM      5  C   UNL     1      33.475  10.793  22.946  1.00  0.00     0.006 C 
BRANCH   5   6
ATOM      6  C   UNL     1      32.059  10.578  23.504  1.00  0.00    -0.003 C 
ATOM      7  C   UNL     1      31.308   9.454  22.789  1.00  0.00     0.004 C 
ENDBRANCH   5   6
ENDBRANCH   1   5
TORSDOF 3
ENDMDL
MODEL 8
REMARK VINA RESULT:    -2.437      2.111      3.260
REMARK INTER + INTRA:          -2.960
REMARK INTER:                  -2.891
REMARK INTRA:                  -0.069
REMARK UNBOUND:                -0.095
REMARK SMILES CCCCC(=O)[O-]
REMARK SMILES IDX 4 1 5 2 6 3 7 4 3 5 2 6 1 7
REMARK H PARENT
REMARK Flexibility Score: inf
ROOT
ATOM      1  C   UNL     1      33.647  10.232  21.457  1.00  0.00     0.053 C 
ENDROOT
BRANCH   1   2
ATOM      2  C   UNL     1      34.685   9.160  21.347  1.00  0.00     0.041 C 
ATOM      3  O   UNL     1      34.384   8.032  20.876  1.00  0.00    -0.550 OA
ATOM      4  O   UNL     1      35.974   9.391  21.810  1.00  0.00    -0.550 OA
ENDBRANCH   1   2
BRANCH   1   5
ATOM      5  C   UNL     1      33.475  10.662  22.919  1.00  0.00     0.006 C 
BRANCH   5   6
ATOM      6  C   UNL     1      32.009  10.624  23.377  1.00  0.00    -0.003 C 
ATOM      7  C   UNL     1      31.245   9.425  22.812  1.00  0.00     0.004 C 
ENDBRANCH   5   6
ENDBRANCH   1   5
TORSDOF 3
ENDMDL
MODEL 9
REMARK VINA RESULT:    -2.335      2.482      4.104
REMARK INTER + INTRA:          -2.839
REMARK INTER:                  -2.819
REMARK INTRA:                  -0.019
REMARK UNBOUND:                -0.095
REMARK SMILES CCCCC(=O)[O-]
REMARK SMILES IDX 4 1 5 2 6 3 7 4 3 5 2 6 1 7
REMARK H PARENT
REMARK Flexibility Score: inf
ROOT
ATOM      1  C   UNL     1      31.202   8.950  22.491  1.00  0.00     0.053 C 
ENDROOT
BRANCH   1   2
ATOM      2  C   UNL     1      31.974  10.217  22.687  1.00  0.00     0.041 C 
ATOM      3  O   UNL     1      32.540  10.772  21.709  1.00  0.00    -0.550 OA
ATOM      4  O   UNL     1      32.109  10.759  23.959  1.00  0.00    -0.550 OA
ENDBRANCH   1   2
BRANCH   1   5
ATOM      5  C   UNL     1      31.897   8.057  21.455  1.00  0.00     0.006 C 
BRANCH   5   6
ATOM      6  C   UNL     1      31.153   6.732  21.226  1.00  0.00    -0.003 C 
ATOM      7  C   UNL     1      32.039   5.509  21.463  1.00  0.00     0.004 C 
ENDBRANCH   5   6
ENDBRANCH   1   5
TORSDOF 3
ENDMDL
