MODEL 1
REMARK VINA RESULT:    -3.669      0.000      0.000
REMARK INTER + INTRA:          -4.331
REMARK INTER:                  -4.313
REMARK INTRA:                  -0.019
REMARK UNBOUND:                -0.019
REMARK SMILES O=C([O-])CCC(=O)[O-]
REMARK SMILES IDX 4 1 2 2 1 3 3 4 5 5 6 6 7 7 8 8
REMARK H PARENT
REMARK Flexibility Score: inf
ROOT
ATOM      1  C   UNL     1      24.154 -15.585 -41.397  1.00  0.00     0.059 C 
ENDROOT
BRANCH   1   2
ATOM      2  C   UNL     1      22.978 -15.585 -40.469  1.00  0.00     0.042 C 
ATOM      3  O   UNL     1      23.144 -15.403 -39.234  1.00  0.00    -0.550 OA
ATOM      4  O   UNL     1      21.694 -15.747 -40.974  1.00  0.00    -0.550 OA
ENDBRANCH   1   2
BRANCH   1   5
ATOM      5  C   UNL     1      24.147 -16.810 -42.318  1.00  0.00     0.059 C 
BRANCH   5   6
ATOM      6  C   UNL     1      24.877 -17.966 -41.705  1.00  0.00     0.042 C 
ATOM      7  O   UNL     1      25.139 -18.986 -42.396  1.00  0.00    -0.550 OA
ATOM      8  O   UNL     1      25.230 -17.934 -40.363  1.00  0.00    -0.550 OA
ENDBRANCH   5   6
ENDBRANCH   1   5
TORSDOF 3
ENDMDL
MODEL 2
REMARK VINA RESULT:    -3.646      0.117      3.649
REMARK INTER + INTRA:          -4.304
REMARK INTER:                  -4.286
REMARK INTRA:                  -0.018
REMARK UNBOUND:                -0.019
REMARK SMILES O=C([O-])CCC(=O)[O-]
REMARK SMILES IDX 4 1 2 2 1 3 3 4 5 5 6 6 7 7 8 8
REMARK H PARENT
REMARK Flexibility Score: inf
ROOT
ATOM      1  C   UNL     1      24.204 -16.849 -42.292  1.00  0.00     0.059 C 
ENDROOT
BRANCH   1   2
ATOM      2  C   UNL     1      24.930 -17.967 -41.609  1.00  0.00     0.042 C 
ATOM      3  O   UNL     1      25.285 -18.984 -42.261  1.00  0.00    -0.550 OA
ATOM      4  O   UNL     1      25.250 -17.868 -40.261  1.00  0.00    -0.550 OA
ENDBRANCH   1   2
BRANCH   1   5
ATOM      5  C   UNL     1      24.130 -15.600 -41.407  1.00  0.00     0.059 C 
BRANCH   5   6
ATOM      6  C   UNL     1      22.918 -15.618 -40.527  1.00  0.00     0.042 C 
ATOM      7  O   UNL     1      21.770 -15.741 -41.033  1.00  0.00    -0.550 OA
ATOM      8  O   UNL     1      23.050 -15.455 -39.155  1.00  0.00    -0.550 OA
ENDBRANCH   5   6
ENDBRANCH   1   5
TORSDOF 3
ENDMDL
MODEL 3
REMARK VINA RESULT:    -3.623      9.439     11.413
REMARK INTER + INTRA:          -4.276
REMARK INTER:                  -4.163
REMARK INTRA:                  -0.113
REMARK UNBOUND:                -0.019
REMARK SMILES O=C([O-])CCC(=O)[O-]
REMARK SMILES IDX 4 1 2 2 1 3 3 4 5 5 6 6 7 7 8 8
REMARK H PARENT
REMARK Flexibility Score: inf
ROOT
ATOM      1  C   UNL     1      22.329  -7.581 -37.402  1.00  0.00     0.059 C 
ENDROOT
BRANCH   1   2
ATOM      2  C   UNL     1      22.613  -8.018 -38.807  1.00  0.00     0.042 C 
ATOM      3  O   UNL     1      23.594  -8.770 -39.051  1.00  0.00    -0.550 OA
ATOM      4  O   UNL     1      21.771  -7.629 -39.840  1.00  0.00    -0.550 OA
ENDBRANCH   1   2
BRANCH   1   5
ATOM      5  C   UNL     1      22.887  -6.180 -37.124  1.00  0.00     0.059 C 
BRANCH   5   6
ATOM      6  C   UNL     1      21.792  -5.169 -36.975  1.00  0.00     0.042 C 
ATOM      7  O   UNL     1      20.845  -5.134 -37.805  1.00  0.00    -0.550 OA
ATOM      8  O   UNL     1      21.838  -4.239 -35.945  1.00  0.00    -0.550 OA
ENDBRANCH   5   6
ENDBRANCH   1   5
TORSDOF 3
ENDMDL
MODEL 4
REMARK VINA RESULT:    -3.610      9.545     11.082
REMARK INTER + INTRA:          -4.262
REMARK INTER:                  -4.147
REMARK INTRA:                  -0.115
REMARK UNBOUND:                -0.019
REMARK SMILES O=C([O-])CCC(=O)[O-]
REMARK SMILES IDX 4 1 2 2 1 3 3 4 5 5 6 6 7 7 8 8
REMARK H PARENT
REMARK Flexibility Score: inf
ROOT
ATOM      1  C   UNL     1      22.949  -6.107 -37.032  1.00  0.00     0.059 C 
ENDROOT
BRANCH   1   2
ATOM      2  C   UNL     1      21.879  -5.072 -36.857  1.00  0.00     0.042 C 
ATOM      3  O   UNL     1      20.874  -5.066 -37.616  1.00  0.00    -0.550 OA
ATOM      4  O   UNL     1      21.973  -4.141 -35.831  1.00  0.00    -0.550 OA
ENDBRANCH   1   2
BRANCH   1   5
ATOM      5  C   UNL     1      22.355  -7.490 -37.317  1.00  0.00     0.059 C 
BRANCH   5   6
ATOM      6  C   UNL     1      22.623  -7.928 -38.724  1.00  0.00     0.042 C 
ATOM      7  O   UNL     1      23.620  -8.652 -38.983  1.00  0.00    -0.550 OA
ATOM      8  O   UNL     1      21.796  -7.502 -39.755  1.00  0.00    -0.550 OA
ENDBRANCH   5   6
ENDBRANCH   1   5
TORSDOF 3
ENDMDL
MODEL 5
REMARK VINA RESULT:    -3.599      9.041     10.953
REMARK INTER + INTRA:          -4.249
REMARK INTER:                  -4.168
REMARK INTRA:                  -0.081
REMARK UNBOUND:                -0.019
REMARK SMILES O=C([O-])CCC(=O)[O-]
REMARK SMILES IDX 4 1 2 2 1 3 3 4 5 5 6 6 7 7 8 8
REMARK H PARENT
REMARK Flexibility Score: inf
ROOT
ATOM      1  C   UNL     1      22.443  -7.877 -37.603  1.00  0.00     0.059 C 
ENDROOT
BRANCH   1   2
ATOM      2  C   UNL     1      22.577  -8.050 -39.086  1.00  0.00     0.042 C 
ATOM      3  O   UNL     1      21.793  -7.449 -39.867  1.00  0.00    -0.550 OA
ATOM      4  O   UNL     1      23.592  -8.842 -39.605  1.00  0.00    -0.550 OA
ENDBRANCH   1   2
BRANCH   1   5
ATOM      5  C   UNL     1      22.251  -6.406 -37.222  1.00  0.00     0.059 C 
BRANCH   5   6
ATOM      6  C   UNL     1      23.454  -5.855 -36.520  1.00  0.00     0.042 C 
ATOM      7  O   UNL     1      23.405  -4.720 -35.976  1.00  0.00    -0.550 OA
ATOM      8  O   UNL     1      24.641  -6.575 -36.501  1.00  0.00    -0.550 OA
ENDBRANCH   5   6
ENDBRANCH   1   5
TORSDOF 3
ENDMDL
MODEL 6
REMARK VINA RESULT:    -3.591      9.366     11.379
REMARK INTER + INTRA:          -4.239
REMARK INTER:                  -4.126
REMARK INTRA:                  -0.113
REMARK UNBOUND:                -0.019
REMARK SMILES O=C([O-])CCC(=O)[O-]
REMARK SMILES IDX 4 1 2 2 1 3 3 4 5 5 6 6 7 7 8 8
REMARK H PARENT
REMARK Flexibility Score: inf
ROOT
ATOM      1  C   UNL     1      22.388  -7.659 -37.461  1.00  0.00     0.059 C 
ENDROOT
BRANCH   1   2
ATOM      2  C   UNL     1      22.661  -8.024 -38.888  1.00  0.00     0.042 C 
ATOM      3  O   UNL     1      23.646  -8.752 -39.179  1.00  0.00    -0.550 OA
ATOM      4  O   UNL     1      21.804  -7.593 -39.892  1.00  0.00    -0.550 OA
ENDBRANCH   1   2
BRANCH   1   5
ATOM      5  C   UNL     1      23.041  -6.324 -37.086  1.00  0.00     0.059 C 
BRANCH   5   6
ATOM      6  C   UNL     1      22.022  -5.241 -36.906  1.00  0.00     0.042 C 
ATOM      7  O   UNL     1      22.201  -4.338 -36.046  1.00  0.00    -0.550 OA
ATOM      8  O   UNL     1      20.854  -5.252 -37.658  1.00  0.00    -0.550 OA
ENDBRANCH   5   6
ENDBRANCH   1   5
TORSDOF 3
ENDMDL
MODEL 7
REMARK VINA RESULT:    -3.587      8.823     10.367
REMARK INTER + INTRA:          -4.234
REMARK INTER:                  -4.052
REMARK INTRA:                  -0.182
REMARK UNBOUND:                -0.019
REMARK SMILES O=C([O-])CCC(=O)[O-]
REMARK SMILES IDX 4 1 2 2 1 3 3 4 5 5 6 6 7 7 8 8
REMARK H PARENT
REMARK Flexibility Score: inf
ROOT
ATOM      1  C   UNL     1      22.957  -6.582 -37.031  1.00  0.00     0.059 C 
ENDROOT
BRANCH   1   2
ATOM      2  C   UNL     1      24.392  -6.337 -37.386  1.00  0.00     0.042 C 
ATOM      3  O   UNL     1      25.299  -7.061 -36.897  1.00  0.00    -0.550 OA
ATOM      4  O   UNL     1      24.723  -5.335 -38.289  1.00  0.00    -0.550 OA
ENDBRANCH   1   2
BRANCH   1   5
ATOM      5  C   UNL     1      22.464  -7.929 -37.572  1.00  0.00     0.059 C 
BRANCH   5   6
ATOM      6  C   UNL     1      22.560  -7.993 -39.066  1.00  0.00     0.042 C 
ATOM      7  O   UNL     1      21.788  -7.299 -39.780  1.00  0.00    -0.550 OA
ATOM      8  O   UNL     1      23.471  -8.849 -39.670  1.00  0.00    -0.550 OA
ENDBRANCH   5   6
ENDBRANCH   1   5
TORSDOF 3
ENDMDL
MODEL 8
REMARK VINA RESULT:    -3.537      8.785      9.826
REMARK INTER + INTRA:          -4.176
REMARK INTER:                  -3.995
REMARK INTRA:                  -0.181
REMARK UNBOUND:                -0.019
REMARK SMILES O=C([O-])CCC(=O)[O-]
REMARK SMILES IDX 4 1 2 2 1 3 3 4 5 5 6 6 7 7 8 8
REMARK H PARENT
REMARK Flexibility Score: inf
ROOT
ATOM      1  C   UNL     1      22.606  -7.329 -37.742  1.00  0.00     0.059 C 
ENDROOT
BRANCH   1   2
ATOM      2  C   UNL     1      22.217  -6.911 -39.127  1.00  0.00     0.042 C 
ATOM      3  O   UNL     1      21.681  -7.738 -39.911  1.00  0.00    -0.550 OA
ATOM      4  O   UNL     1      22.409  -5.598 -39.537  1.00  0.00    -0.550 OA
ENDBRANCH   1   2
BRANCH   1   5
ATOM      5  C   UNL     1      24.117  -7.203 -37.518  1.00  0.00     0.059 C 
BRANCH   5   6
ATOM      6  C   UNL     1      24.890  -8.065 -38.468  1.00  0.00     0.042 C 
ATOM      7  O   UNL     1      24.855  -9.319 -38.357  1.00  0.00    -0.550 OA
ATOM      8  O   UNL     1      25.683  -7.484 -39.449  1.00  0.00    -0.550 OA
ENDBRANCH   5   6
ENDBRANCH   1   5
TORSDOF 3
ENDMDL
MODEL 9
REMARK VINA RESULT:    -3.533      8.791     10.200
REMARK INTER + INTRA:          -4.172
REMARK INTER:                  -3.982
REMARK INTRA:                  -0.190
REMARK UNBOUND:                -0.019
REMARK SMILES O=C([O-])CCC(=O)[O-]
REMARK SMILES IDX 4 1 2 2 1 3 3 4 5 5 6 6 7 7 8 8
REMARK H PARENT
REMARK Flexibility Score: inf
ROOT
ATOM      1  C   UNL     1      24.184  -7.169 -37.563  1.00  0.00     0.059 C 
ENDROOT
BRANCH   1   2
ATOM      2  C   UNL     1      24.961  -8.056 -38.487  1.00  0.00     0.042 C 
ATOM      3  O   UNL     1      24.875  -9.308 -38.385  1.00  0.00    -0.550 OA
ATOM      4  O   UNL     1      25.748  -7.500 -39.487  1.00  0.00    -0.550 OA
ENDBRANCH   1   2
BRANCH   1   5
ATOM      5  C   UNL     1      22.674  -7.308 -37.785  1.00  0.00     0.059 C 
BRANCH   5   6
ATOM      6  C   UNL     1      22.276  -6.876 -39.163  1.00  0.00     0.042 C 
ATOM      7  O   UNL     1      21.661  -7.671 -39.923  1.00  0.00    -0.550 OA
ATOM      8  O   UNL     1      22.619  -5.612 -39.623  1.00  0.00    -0.550 OA
ENDBRANCH   5   6
ENDBRANCH   1   5
TORSDOF 3
ENDMDL
