MODEL 1
REMARK VINA RESULT:    -5.982      0.000      0.000
REMARK INTER + INTRA:          -6.507
REMARK INTER:                  -6.507
REMARK INTRA:                   0.000
REMARK UNBOUND:                 0.000
REMARK SMILES Cc1cc(O)c2c(c1)C(=O)c1cc(O)cc(O)c1C2=O
REMARK SMILES IDX 1 1 2 2 8 3 7 4 6 5 4 6 3 7 19 8 20 9 18 10 11 11 9 12 10 13
REMARK SMILES IDX 12 14 13 15 15 16 16 17 5 18 17 20 14 22
REMARK H PARENT 5 19 17 21 14 23
REMARK Flexibility Score: inf
ROOT
ATOM      1  C   UNL     1      10.247  20.125  18.129  1.00  0.00     0.044 C 
ATOM      2  C   UNL     1      11.601  19.525  17.881  1.00  0.00    -0.047 A 
ATOM      3  C   UNL     1      12.084  18.508  18.712  1.00  0.00     0.016 A 
ATOM      4  C   UNL     1      13.366  17.971  18.515  1.00  0.00     0.038 A 
ATOM      5  C   UNL     1      14.192  18.478  17.487  1.00  0.00     0.076 A 
ATOM      6  C   UNL     1      13.680  19.477  16.619  1.00  0.00     0.127 A 
ATOM      7  C   UNL     1      12.408  20.010  16.846  1.00  0.00     0.050 A 
ATOM      8  C   UNL     1      15.592  17.988  17.405  1.00  0.00     0.201 C 
ATOM      9  O   UNL     1      16.495  18.742  16.954  1.00  0.00    -0.288 OA
ATOM     10  C   UNL     1      15.958  16.688  18.026  1.00  0.00     0.076 A 
ATOM     11  C   UNL     1      15.129  16.185  19.056  1.00  0.00     0.041 A 
ATOM     12  C   UNL     1      13.857  16.872  19.382  1.00  0.00     0.194 C 
ATOM     13  O   UNL     1      13.178  16.504  20.380  1.00  0.00    -0.289 OA
ATOM     14  C   UNL     1      15.514  15.033  19.761  1.00  0.00     0.059 A 
ATOM     15  C   UNL     1      16.702  14.370  19.444  1.00  0.00     0.120 A 
ATOM     16  C   UNL     1      17.502  14.841  18.403  1.00  0.00     0.093 A 
ATOM     17  C   UNL     1      17.131  15.974  17.672  1.00  0.00     0.131 A 
ENDROOT
BRANCH   6  18
ATOM     18  O   UNL     1      14.384  19.942  15.505  1.00  0.00    -0.507 OA
ATOM     19  H   UNL     1      15.114  20.640  15.557  1.00  0.00     0.293 HD
ENDBRANCH   6  18
BRANCH  17  20
ATOM     20  O   UNL     1      17.934  16.332  16.586  1.00  0.00    -0.507 OA
ATOM     21  H   UNL     1      17.580  16.462  15.649  1.00  0.00     0.293 HD
ENDBRANCH  17  20
BRANCH  15  22
ATOM     22  O   UNL     1      17.094  13.234  20.150  1.00  0.00    -0.508 OA
ATOM     23  H   UNL     1      17.817  13.274  20.858  1.00  0.00     0.293 HD
ENDBRANCH  15  22
TORSDOF 3
ENDMDL
MODEL 2
REMARK VINA RESULT:    -5.454      2.162      2.602
REMARK INTER + INTRA:          -5.933
REMARK INTER:                  -5.933
REMARK INTRA:                   0.000
REMARK UNBOUND:                 0.000
REMARK SMILES Cc1cc(O)c2c(c1)C(=O)c1cc(O)cc(O)c1C2=O
REMARK SMILES IDX 1 1 2 2 8 3 7 4 6 5 4 6 3 7 19 8 20 9 18 10 11 11 9 12 10 13
REMARK SMILES IDX 12 14 13 15 15 16 16 17 5 18 17 20 14 22
REMARK H PARENT 5 19 17 21 14 23
REMARK Flexibility Score: inf
ROOT
ATOM      1  C   UNL     1       8.608  20.124  18.445  1.00  0.00     0.044 C 
ATOM      2  C   UNL     1      10.008  19.873  17.965  1.00  0.00    -0.047 A 
ATOM      3  C   UNL     1      11.036  19.637  18.884  1.00  0.00     0.016 A 
ATOM      4  C   UNL     1      12.357  19.445  18.448  1.00  0.00     0.038 A 
ATOM      5  C   UNL     1      12.660  19.518  17.069  1.00  0.00     0.076 A 
ATOM      6  C   UNL     1      11.607  19.712  16.139  1.00  0.00     0.127 A 
ATOM      7  C   UNL     1      10.303  19.920  16.598  1.00  0.00     0.050 A 
ATOM      8  C   UNL     1      14.088  19.457  16.661  1.00  0.00     0.201 C 
ATOM      9  O   UNL     1      14.469  20.060  15.622  1.00  0.00    -0.288 OA
ATOM     10  C   UNL     1      15.092  18.850  17.573  1.00  0.00     0.076 A 
ATOM     11  C   UNL     1      14.784  18.780  18.951  1.00  0.00     0.041 A 
ATOM     12  C   UNL     1      13.434  19.164  19.427  1.00  0.00     0.194 C 
ATOM     13  O   UNL     1      13.194  19.224  20.664  1.00  0.00    -0.289 OA
ATOM     14  C   UNL     1      15.759  18.341  19.863  1.00  0.00     0.059 A 
ATOM     15  C   UNL     1      17.027  17.959  19.416  1.00  0.00     0.120 A 
ATOM     16  C   UNL     1      17.320  17.990  18.054  1.00  0.00     0.093 A 
ATOM     17  C   UNL     1      16.361  18.403  17.124  1.00  0.00     0.131 A 
ENDROOT
BRANCH   6  18
ATOM     18  O   UNL     1      11.804  19.674  14.756  1.00  0.00    -0.507 OA
ATOM     19  H   UNL     1      12.695  19.470  14.324  1.00  0.00     0.293 HD
ENDBRANCH   6  18
BRANCH  17  20
ATOM     20  O   UNL     1      16.698  18.320  15.770  1.00  0.00    -0.507 OA
ATOM     21  H   UNL     1      17.507  17.822  15.426  1.00  0.00     0.293 HD
ENDBRANCH  17  20
BRANCH  15  22
ATOM     22  O   UNL     1      18.001  17.536  20.319  1.00  0.00    -0.508 OA
ATOM     23  H   UNL     1      18.987  17.686  20.143  1.00  0.00     0.293 HD
ENDBRANCH  15  22
TORSDOF 3
ENDMDL
MODEL 3
REMARK VINA RESULT:    -5.214      2.616      6.536
REMARK INTER + INTRA:          -5.671
REMARK INTER:                  -5.671
REMARK INTRA:                   0.000
REMARK UNBOUND:                 0.000
REMARK SMILES Cc1cc(O)c2c(c1)C(=O)c1cc(O)cc(O)c1C2=O
REMARK SMILES IDX 1 1 2 2 8 3 7 4 6 5 4 6 3 7 19 8 20 9 18 10 11 11 9 12 10 13
REMARK SMILES IDX 12 14 13 15 15 16 16 17 5 18 17 20 14 22
REMARK H PARENT 5 19 17 21 14 23
REMARK Flexibility Score: inf
ROOT
ATOM      1  C   UNL     1      18.304  18.201  18.668  1.00  0.00     0.044 C 
ATOM      2  C   UNL     1      16.821  18.433  18.692  1.00  0.00    -0.047 A 
ATOM      3  C   UNL     1      16.154  18.848  17.534  1.00  0.00     0.016 A 
ATOM      4  C   UNL     1      14.775  19.110  17.557  1.00  0.00     0.038 A 
ATOM      5  C   UNL     1      14.054  18.981  18.765  1.00  0.00     0.076 A 
ATOM      6  C   UNL     1      14.726  18.517  19.925  1.00  0.00     0.127 A 
ATOM      7  C   UNL     1      16.103  18.281  19.883  1.00  0.00     0.050 A 
ATOM      8  C   UNL     1      12.631  19.409  18.782  1.00  0.00     0.201 C 
ATOM      9  O   UNL     1      12.124  19.859  19.845  1.00  0.00    -0.288 OA
ATOM     10  C   UNL     1      11.866  19.484  17.510  1.00  0.00     0.076 A 
ATOM     11  C   UNL     1      12.592  19.613  16.303  1.00  0.00     0.041 A 
ATOM     12  C   UNL     1      14.071  19.518  16.317  1.00  0.00     0.194 C 
ATOM     13  O   UNL     1      14.729  19.758  15.268  1.00  0.00    -0.289 OA
ATOM     14  C   UNL     1      11.907  19.825  15.096  1.00  0.00     0.059 A 
ATOM     15  C   UNL     1      10.511  19.895  15.075  1.00  0.00     0.120 A 
ATOM     16  C   UNL     1       9.791  19.729  16.257  1.00  0.00     0.093 A 
ATOM     17  C   UNL     1      10.449  19.496  17.469  1.00  0.00     0.131 A 
ENDROOT
BRANCH   6  18
ATOM     18  O   UNL     1      14.063  18.247  21.125  1.00  0.00    -0.507 OA
ATOM     19  H   UNL     1      14.121  17.361  21.609  1.00  0.00     0.293 HD
ENDBRANCH   6  18
BRANCH  17  20
ATOM     20  O   UNL     1       9.658  19.248  18.594  1.00  0.00    -0.507 OA
ATOM     21  H   UNL     1       8.719  19.605  18.706  1.00  0.00     0.293 HD
ENDBRANCH  17  20
BRANCH  15  22
ATOM     22  O   UNL     1       9.828  20.118  13.881  1.00  0.00    -0.508 OA
ATOM     23  H   UNL     1      10.064  19.616  13.033  1.00  0.00     0.293 HD
ENDBRANCH  15  22
TORSDOF 3
ENDMDL
MODEL 4
REMARK VINA RESULT:    -5.026     16.089     18.241
REMARK INTER + INTRA:          -5.467
REMARK INTER:                  -5.467
REMARK INTRA:                   0.000
REMARK UNBOUND:                 0.000
REMARK SMILES Cc1cc(O)c2c(c1)C(=O)c1cc(O)cc(O)c1C2=O
REMARK SMILES IDX 1 1 2 2 8 3 7 4 6 5 4 6 3 7 19 8 20 9 18 10 11 11 9 12 10 13
REMARK SMILES IDX 12 14 13 15 15 16 16 17 5 18 17 20 14 22
REMARK H PARENT 5 19 17 21 14 23
REMARK Flexibility Score: inf
ROOT
ATOM      1  C   UNL     1       2.511  19.068   9.199  1.00  0.00     0.044 C 
ATOM      2  C   UNL     1       2.535  18.667   7.752  1.00  0.00    -0.047 A 
ATOM      3  C   UNL     1       3.028  17.413   7.376  1.00  0.00     0.016 A 
ATOM      4  C   UNL     1       3.095  17.046   6.022  1.00  0.00     0.038 A 
ATOM      5  C   UNL     1       2.689  17.961   5.024  1.00  0.00     0.076 A 
ATOM      6  C   UNL     1       2.148  19.213   5.413  1.00  0.00     0.127 A 
ATOM      7  C   UNL     1       2.109  19.564   6.766  1.00  0.00     0.050 A 
ATOM      8  C   UNL     1       2.914  17.593   3.602  1.00  0.00     0.201 C 
ATOM      9  O   UNL     1       3.125  18.494   2.747  1.00  0.00    -0.288 OA
ATOM     10  C   UNL     1       3.078  16.164   3.225  1.00  0.00     0.076 A 
ATOM     11  C   UNL     1       3.486  15.254   4.227  1.00  0.00     0.041 A 
ATOM     12  C   UNL     1       3.590  15.703   5.635  1.00  0.00     0.194 C 
ATOM     13  O   UNL     1       4.073  14.932   6.510  1.00  0.00    -0.289 OA
ATOM     14  C   UNL     1       3.785  13.925   3.883  1.00  0.00     0.059 A 
ATOM     15  C   UNL     1       3.669  13.492   2.559  1.00  0.00     0.120 A 
ATOM     16  C   UNL     1       3.230  14.378   1.576  1.00  0.00     0.093 A 
ATOM     17  C   UNL     1       2.906  15.700   1.896  1.00  0.00     0.131 A 
ENDROOT
BRANCH   6  18
ATOM     18  O   UNL     1       1.612  20.121   4.497  1.00  0.00    -0.507 OA
ATOM     19  H   UNL     1       0.756  20.635   4.654  1.00  0.00     0.293 HD
ENDBRANCH   6  18
BRANCH  17  20
ATOM     20  O   UNL     1       2.385  16.501   0.877  1.00  0.00    -0.507 OA
ATOM     21  H   UNL     1       2.223  16.171  -0.064  1.00  0.00     0.293 HD
ENDBRANCH  17  20
BRANCH  15  22
ATOM     22  O   UNL     1       3.977  12.178   2.211  1.00  0.00    -0.508 OA
ATOM     23  H   UNL     1       3.722  11.795   1.309  1.00  0.00     0.293 HD
ENDBRANCH  15  22
TORSDOF 3
ENDMDL
MODEL 5
REMARK VINA RESULT:    -4.298      3.593      5.425
REMARK INTER + INTRA:          -4.674
REMARK INTER:                  -4.674
REMARK INTRA:                   0.000
REMARK UNBOUND:                 0.000
REMARK SMILES Cc1cc(O)c2c(c1)C(=O)c1cc(O)cc(O)c1C2=O
REMARK SMILES IDX 1 1 2 2 8 3 7 4 6 5 4 6 3 7 19 8 20 9 18 10 11 11 9 12 10 13
REMARK SMILES IDX 12 14 13 15 15 16 16 17 5 18 17 20 14 22
REMARK H PARENT 5 19 17 21 14 23
REMARK Flexibility Score: inf
ROOT
ATOM      1  C   UNL     1      10.580  19.989  12.440  1.00  0.00     0.044 C 
ATOM      2  C   UNL     1      10.697  19.955  13.936  1.00  0.00    -0.047 A 
ATOM      3  C   UNL     1      11.953  19.835  14.542  1.00  0.00     0.016 A 
ATOM      4  C   UNL     1      12.070  19.758  15.939  1.00  0.00     0.038 A 
ATOM      5  C   UNL     1      10.909  19.773  16.744  1.00  0.00     0.076 A 
ATOM      6  C   UNL     1       9.642  19.941  16.128  1.00  0.00     0.127 A 
ATOM      7  C   UNL     1       9.549  19.996  14.734  1.00  0.00     0.050 A 
ATOM      8  C   UNL     1      11.064  19.541  18.204  1.00  0.00     0.201 C 
ATOM      9  O   UNL     1      10.136  18.989  18.853  1.00  0.00    -0.288 OA
ATOM     10  C   UNL     1      12.377  19.786  18.855  1.00  0.00     0.076 A 
ATOM     11  C   UNL     1      13.536  19.768  18.046  1.00  0.00     0.041 A 
ATOM     12  C   UNL     1      13.407  19.663  16.573  1.00  0.00     0.194 C 
ATOM     13  O   UNL     1      14.436  19.519  15.857  1.00  0.00    -0.289 OA
ATOM     14  C   UNL     1      14.805  19.857  18.641  1.00  0.00     0.059 A 
ATOM     15  C   UNL     1      14.932  19.978  20.028  1.00  0.00     0.120 A 
ATOM     16  C   UNL     1      13.789  20.034  20.825  1.00  0.00     0.093 A 
ATOM     17  C   UNL     1      12.514  19.968  20.255  1.00  0.00     0.131 A 
ENDROOT
BRANCH   6  18
ATOM     18  O   UNL     1       8.460  20.089  16.859  1.00  0.00    -0.507 OA
ATOM     19  H   UNL     1       8.310  19.676  17.769  1.00  0.00     0.293 HD
ENDBRANCH   6  18
BRANCH  17  20
ATOM     20  O   UNL     1      11.418  20.124  21.108  1.00  0.00    -0.507 OA
ATOM     21  H   UNL     1      10.724  20.850  20.997  1.00  0.00     0.293 HD
ENDBRANCH  17  20
BRANCH  15  22
ATOM     22  O   UNL     1      16.189  20.053  20.623  1.00  0.00    -0.508 OA
ATOM     23  H   UNL     1      16.844  20.789  20.387  1.00  0.00     0.293 HD
ENDBRANCH  15  22
TORSDOF 3
ENDMDL
MODEL 6
REMARK VINA RESULT:    -3.296      1.310      5.480
REMARK INTER + INTRA:          -3.585
REMARK INTER:                  -3.585
REMARK INTRA:                   0.000
REMARK UNBOUND:                 0.000
REMARK SMILES Cc1cc(O)c2c(c1)C(=O)c1cc(O)cc(O)c1C2=O
REMARK SMILES IDX 1 1 2 2 8 3 7 4 6 5 4 6 3 7 19 8 20 9 18 10 11 11 9 12 10 13
REMARK SMILES IDX 12 14 13 15 15 16 16 17 5 18 17 20 14 22
REMARK H PARENT 5 19 17 21 14 23
REMARK Flexibility Score: inf
ROOT
ATOM      1  C   UNL     1      17.552  13.945  21.117  1.00  0.00     0.044 C 
ATOM      2  C   UNL     1      17.083  14.968  20.124  1.00  0.00    -0.047 A 
ATOM      3  C   UNL     1      15.751  15.395  20.127  1.00  0.00     0.016 A 
ATOM      4  C   UNL     1      15.292  16.319  19.174  1.00  0.00     0.038 A 
ATOM      5  C   UNL     1      16.175  16.805  18.183  1.00  0.00     0.076 A 
ATOM      6  C   UNL     1      17.536  16.405  18.213  1.00  0.00     0.127 A 
ATOM      7  C   UNL     1      17.965  15.468  19.159  1.00  0.00     0.050 A 
ATOM      8  C   UNL     1      15.617  17.664  17.107  1.00  0.00     0.201 C 
ATOM      9  O   UNL     1      16.141  17.652  15.961  1.00  0.00    -0.288 OA
ATOM     10  C   UNL     1      14.338  18.387  17.327  1.00  0.00     0.076 A 
ATOM     11  C   UNL     1      13.457  17.897  18.319  1.00  0.00     0.041 A 
ATOM     12  C   UNL     1      13.886  16.789  19.204  1.00  0.00     0.194 C 
ATOM     13  O   UNL     1      13.063  16.264  20.003  1.00  0.00    -0.289 OA
ATOM     14  C   UNL     1      12.181  18.466  18.463  1.00  0.00     0.059 A 
ATOM     15  C   UNL     1      11.780  19.525  17.644  1.00  0.00     0.120 A 
ATOM     16  C   UNL     1      12.661  20.036  16.692  1.00  0.00     0.093 A 
ATOM     17  C   UNL     1      13.943  19.500  16.542  1.00  0.00     0.131 A 
ENDROOT
BRANCH   6  18
ATOM     18  O   UNL     1      18.497  16.932  17.348  1.00  0.00    -0.507 OA
ATOM     19  H   UNL     1      18.294  17.626  16.642  1.00  0.00     0.293 HD
ENDBRANCH   6  18
BRANCH  17  20
ATOM     20  O   UNL     1      14.800  20.125  15.632  1.00  0.00    -0.507 OA
ATOM     21  H   UNL     1      15.251  19.641  14.867  1.00  0.00     0.293 HD
ENDBRANCH  17  20
BRANCH  15  22
ATOM     22  O   UNL     1      10.511  20.084  17.775  1.00  0.00    -0.508 OA
ATOM     23  H   UNL     1      10.105  20.272  18.685  1.00  0.00     0.293 HD
ENDBRANCH  15  22
TORSDOF 3
ENDMDL
MODEL 7
REMARK VINA RESULT:    -3.257     17.788     19.678
REMARK INTER + INTRA:          -3.543
REMARK INTER:                  -3.543
REMARK INTRA:                   0.000
REMARK UNBOUND:                 0.000
REMARK SMILES Cc1cc(O)c2c(c1)C(=O)c1cc(O)cc(O)c1C2=O
REMARK SMILES IDX 1 1 2 2 8 3 7 4 6 5 4 6 3 7 19 8 20 9 18 10 11 11 9 12 10 13
REMARK SMILES IDX 12 14 13 15 15 16 16 17 5 18 17 20 14 22
REMARK H PARENT 5 19 17 21 14 23
REMARK Flexibility Score: inf
ROOT
ATOM      1  C   UNL     1      -0.125  20.125   0.966  1.00  0.00     0.044 C 
ATOM      2  C   UNL     1       0.785  19.195   1.716  1.00  0.00    -0.047 A 
ATOM      3  C   UNL     1       0.815  17.832   1.400  1.00  0.00     0.016 A 
ATOM      4  C   UNL     1       1.631  16.947   2.124  1.00  0.00     0.038 A 
ATOM      5  C   UNL     1       2.409  17.429   3.201  1.00  0.00     0.076 A 
ATOM      6  C   UNL     1       2.409  18.818   3.487  1.00  0.00     0.127 A 
ATOM      7  C   UNL     1       1.575  19.677   2.766  1.00  0.00     0.050 A 
ATOM      8  C   UNL     1       3.141  16.439   4.034  1.00  0.00     0.201 C 
ATOM      9  O   UNL     1       3.351  16.680   5.253  1.00  0.00    -0.288 OA
ATOM     10  C   UNL     1       3.457  15.097   3.481  1.00  0.00     0.076 A 
ATOM     11  C   UNL     1       2.675  14.619   2.404  1.00  0.00     0.041 A 
ATOM     12  C   UNL     1       1.680  15.510   1.762  1.00  0.00     0.194 C 
ATOM     13  O   UNL     1       0.893  15.052   0.888  1.00  0.00    -0.289 OA
ATOM     14  C   UNL     1       2.849  13.303   1.944  1.00  0.00     0.059 A 
ATOM     15  C   UNL     1       3.801  12.466   2.533  1.00  0.00     0.120 A 
ATOM     16  C   UNL     1       4.600  12.947   3.569  1.00  0.00     0.093 A 
ATOM     17  C   UNL     1       4.460  14.259   4.032  1.00  0.00     0.131 A 
ENDROOT
BRANCH   6  18
ATOM     18  O   UNL     1       3.241  19.390   4.453  1.00  0.00    -0.507 OA
ATOM     19  H   UNL     1       3.772  18.852   5.124  1.00  0.00     0.293 HD
ENDBRANCH   6  18
BRANCH  17  20
ATOM     20  O   UNL     1       5.358  14.697   5.008  1.00  0.00    -0.507 OA
ATOM     21  H   UNL     1       5.371  15.640   5.372  1.00  0.00     0.293 HD
ENDBRANCH  17  20
BRANCH  15  22
ATOM     22  O   UNL     1       3.968  11.156   2.088  1.00  0.00    -0.508 OA
ATOM     23  H   UNL     1       4.344  10.435   2.692  1.00  0.00     0.293 HD
ENDBRANCH  15  22
TORSDOF 3
ENDMDL
