MODEL 1
REMARK VINA RESULT:     0.000      0.000      0.000
REMARK INTER + INTRA:           0.000
REMARK INTER:                   0.000
REMARK INTRA:                   0.000
REMARK UNBOUND:                 0.000
REMARK SMILES C=C1CCCC(C)(C)[C@@]12CC=C(C)CC2
REMARK SMILES IDX 13 1 12 2 11 3 10 4 9 5 15 6 14 7 2 8 1 9 3 10 4 11 5 12
REMARK SMILES IDX 6 13 7 14 8 15
REMARK H PARENT
REMARK Flexibility Score: inf
ROOT
ATOM      1  C   UNL     1      27.351  13.638  25.719  1.00  0.00     0.039 C 
ATOM      2  C   UNL     1      26.372  13.785  26.851  1.00  0.00    -0.077 C 
ATOM      3  C   UNL     1      26.239  14.959  27.482  1.00  0.00    -0.027 C 
ATOM      4  C   UNL     1      25.256  15.089  28.617  1.00  0.00     0.039 C 
ATOM      5  C   UNL     1      25.305  13.877  29.638  1.00  0.00    -0.000 C 
ATOM      6  C   UNL     1      25.739  12.546  28.895  1.00  0.00     0.017 C 
ATOM      7  C   UNL     1      25.588  12.607  27.368  1.00  0.00     0.031 C 
ATOM      8  C   UNL     1      26.371  14.125  30.741  1.00  0.00    -0.070 C 
ATOM      9  C   UNL     1      27.438  14.935  30.569  1.00  0.00     0.008 C 
ATOM     10  C   UNL     1      26.380  13.213  31.951  1.00  0.00     0.031 C 
ATOM     11  C   UNL     1      25.003  13.129  32.591  1.00  0.00     0.005 C 
ATOM     12  C   UNL     1      23.943  12.737  31.560  1.00  0.00     0.008 C 
ATOM     13  C   UNL     1      23.874  13.721  30.350  1.00  0.00    -0.026 C 
ATOM     14  C   UNL     1      22.783  13.164  29.390  1.00  0.00     0.012 C 
ATOM     15  C   UNL     1      23.362  15.095  30.871  1.00  0.00     0.012 C 
ENDROOT
TORSDOF 0
ENDMDL
MODEL 2
REMARK VINA RESULT:     0.000      8.184     10.844
REMARK INTER + INTRA:           0.000
REMARK INTER:                   0.000
REMARK INTRA:                   0.000
REMARK UNBOUND:                 0.000
REMARK SMILES C=C1CCCC(C)(C)[C@@]12CC=C(C)CC2
REMARK SMILES IDX 13 1 12 2 11 3 10 4 9 5 15 6 14 7 2 8 1 9 3 10 4 11 5 12
REMARK SMILES IDX 6 13 7 14 8 15
REMARK H PARENT
REMARK Flexibility Score: inf
ROOT
ATOM      1  C   UNL     1      17.008  14.511  40.086  1.00  0.00     0.039 C 
ATOM      2  C   UNL     1      17.135  14.163  38.629  1.00  0.00    -0.077 C 
ATOM      3  C   UNL     1      18.194  13.470  38.190  1.00  0.00    -0.027 C 
ATOM      4  C   UNL     1      18.308  13.131  36.726  1.00  0.00     0.039 C 
ATOM      5  C   UNL     1      17.964  14.347  35.767  1.00  0.00    -0.000 C 
ATOM      6  C   UNL     1      16.899  15.303  36.447  1.00  0.00     0.017 C 
ATOM      7  C   UNL     1      16.137  14.657  37.615  1.00  0.00     0.031 C 
ATOM      8  C   UNL     1      19.223  15.217  35.503  1.00  0.00    -0.070 C 
ATOM      9  C   UNL     1      20.273  15.274  36.349  1.00  0.00     0.008 C 
ATOM     10  C   UNL     1      19.159  16.260  34.405  1.00  0.00     0.031 C 
ATOM     11  C   UNL     1      18.680  15.655  33.094  1.00  0.00     0.005 C 
ATOM     12  C   UNL     1      17.357  14.912  33.285  1.00  0.00     0.008 C 
ATOM     13  C   UNL     1      17.440  13.781  34.358  1.00  0.00    -0.026 C 
ATOM     14  C   UNL     1      16.018  13.157  34.451  1.00  0.00     0.012 C 
ATOM     15  C   UNL     1      18.389  12.671  33.818  1.00  0.00     0.012 C 
ENDROOT
TORSDOF 0
ENDMDL
MODEL 3
REMARK VINA RESULT:     0.000      9.390     11.821
REMARK INTER + INTRA:           0.000
REMARK INTER:                   0.000
REMARK INTRA:                   0.000
REMARK UNBOUND:                 0.000
REMARK SMILES C=C1CCCC(C)(C)[C@@]12CC=C(C)CC2
REMARK SMILES IDX 13 1 12 2 11 3 10 4 9 5 15 6 14 7 2 8 1 9 3 10 4 11 5 12
REMARK SMILES IDX 6 13 7 14 8 15
REMARK H PARENT
REMARK Flexibility Score: inf
ROOT
ATOM      1  C   UNL     1      15.792  16.526  39.270  1.00  0.00     0.039 C 
ATOM      2  C   UNL     1      15.916  16.396  37.778  1.00  0.00    -0.077 C 
ATOM      3  C   UNL     1      17.019  15.863  37.235  1.00  0.00    -0.027 C 
ATOM      4  C   UNL     1      17.130  15.743  35.737  1.00  0.00     0.039 C 
ATOM      5  C   UNL     1      16.667  17.047  34.962  1.00  0.00    -0.000 C 
ATOM      6  C   UNL     1      15.542  17.806  35.781  1.00  0.00     0.017 C 
ATOM      7  C   UNL     1      14.861  16.942  36.852  1.00  0.00     0.031 C 
ATOM      8  C   UNL     1      17.845  18.049  34.812  1.00  0.00    -0.070 C 
ATOM      9  C   UNL     1      18.905  18.075  35.648  1.00  0.00     0.008 C 
ATOM     10  C   UNL     1      17.673  19.226  33.873  1.00  0.00     0.031 C 
ATOM     11  C   UNL     1      17.218  18.772  32.495  1.00  0.00     0.005 C 
ATOM     12  C   UNL     1      15.964  17.901  32.591  1.00  0.00     0.008 C 
ATOM     13  C   UNL     1      16.162  16.642  33.493  1.00  0.00    -0.026 C 
ATOM     14  C   UNL     1      14.799  15.894  33.511  1.00  0.00     0.012 C 
ATOM     15  C   UNL     1      17.187  15.702  32.793  1.00  0.00     0.012 C 
ENDROOT
TORSDOF 0
ENDMDL
MODEL 4
REMARK VINA RESULT:     0.000      6.270      8.643
REMARK INTER + INTRA:           0.000
REMARK INTER:                   0.000
REMARK INTRA:                   0.000
REMARK UNBOUND:                 0.000
REMARK SMILES C=C1CCCC(C)(C)[C@@]12CC=C(C)CC2
REMARK SMILES IDX 13 1 12 2 11 3 10 4 9 5 15 6 14 7 2 8 1 9 3 10 4 11 5 12
REMARK SMILES IDX 6 13 7 14 8 15
REMARK H PARENT
REMARK Flexibility Score: inf
ROOT
ATOM      1  C   UNL     1      20.593  16.188  33.448  1.00  0.00     0.039 C 
ATOM      2  C   UNL     1      21.483  17.367  33.726  1.00  0.00    -0.077 C 
ATOM      3  C   UNL     1      20.977  18.483  34.268  1.00  0.00    -0.027 C 
ATOM      4  C   UNL     1      21.881  19.658  34.538  1.00  0.00     0.039 C 
ATOM      5  C   UNL     1      22.868  19.984  33.340  1.00  0.00    -0.000 C 
ATOM      6  C   UNL     1      23.229  18.661  32.546  1.00  0.00     0.017 C 
ATOM      7  C   UNL     1      22.934  17.368  33.321  1.00  0.00     0.031 C 
ATOM      8  C   UNL     1      22.196  20.937  32.313  1.00  0.00    -0.070 C 
ATOM      9  C   UNL     1      20.858  21.033  32.159  1.00  0.00     0.008 C 
ATOM     10  C   UNL     1      23.065  21.573  31.247  1.00  0.00     0.031 C 
ATOM     11  C   UNL     1      24.275  22.263  31.858  1.00  0.00     0.005 C 
ATOM     12  C   UNL     1      25.052  21.305  32.763  1.00  0.00     0.008 C 
ATOM     13  C   UNL     1      24.180  20.709  33.913  1.00  0.00    -0.026 C 
ATOM     14  C   UNL     1      25.103  19.742  34.710  1.00  0.00     0.012 C 
ATOM     15  C   UNL     1      23.797  21.868  34.879  1.00  0.00     0.012 C 
ENDROOT
TORSDOF 0
ENDMDL
MODEL 5
REMARK VINA RESULT:     0.000      7.097      9.783
REMARK INTER + INTRA:           0.000
REMARK INTER:                   0.000
REMARK INTRA:                   0.000
REMARK UNBOUND:                 0.000
REMARK SMILES C=C1CCCC(C)(C)[C@@]12CC=C(C)CC2
REMARK SMILES IDX 13 1 12 2 11 3 10 4 9 5 15 6 14 7 2 8 1 9 3 10 4 11 5 12
REMARK SMILES IDX 6 13 7 14 8 15
REMARK H PARENT
REMARK Flexibility Score: inf
ROOT
ATOM      1  C   UNL     1      20.593  16.188  33.448  1.00  0.00     0.039 C 
ATOM      2  C   UNL     1      20.570  17.688  33.548  1.00  0.00    -0.077 C 
ATOM      3  C   UNL     1      19.407  18.338  33.688  1.00  0.00    -0.027 C 
ATOM      4  C   UNL     1      19.401  19.842  33.784  1.00  0.00     0.039 C 
ATOM      5  C   UNL     1      20.344  20.547  32.721  1.00  0.00    -0.000 C 
ATOM      6  C   UNL     1      21.578  19.616  32.373  1.00  0.00     0.017 C 
ATOM      7  C   UNL     1      21.828  18.503  33.402  1.00  0.00     0.031 C 
ATOM      8  C   UNL     1      19.590  20.786  31.385  1.00  0.00    -0.070 C 
ATOM      9  C   UNL     1      18.528  20.050  30.993  1.00  0.00     0.008 C 
ATOM     10  C   UNL     1      20.233  21.684  30.346  1.00  0.00     0.031 C 
ATOM     11  C   UNL     1      20.633  23.023  30.945  1.00  0.00     0.005 C 
ATOM     12  C   UNL     1      21.508  22.829  32.185  1.00  0.00     0.008 C 
ATOM     13  C   UNL     1      20.817  21.972  33.292  1.00  0.00    -0.026 C 
ATOM     14  C   UNL     1      21.842  21.843  34.455  1.00  0.00     0.012 C 
ATOM     15  C   UNL     1      19.605  22.779  33.843  1.00  0.00     0.012 C 
ENDROOT
TORSDOF 0
ENDMDL
MODEL 6
REMARK VINA RESULT:     0.000      9.656     11.708
REMARK INTER + INTRA:           0.000
REMARK INTER:                   0.000
REMARK INTRA:                   0.000
REMARK UNBOUND:                 0.000
REMARK SMILES C=C1CCCC(C)(C)[C@@]12CC=C(C)CC2
REMARK SMILES IDX 13 1 12 2 11 3 10 4 9 5 15 6 14 7 2 8 1 9 3 10 4 11 5 12
REMARK SMILES IDX 6 13 7 14 8 15
REMARK H PARENT
REMARK Flexibility Score: inf
ROOT
ATOM      1  C   UNL     1      19.608  14.236  25.425  1.00  0.00     0.039 C 
ATOM      2  C   UNL     1      18.648  14.663  24.349  1.00  0.00    -0.077 C 
ATOM      3  C   UNL     1      18.887  15.768  23.629  1.00  0.00    -0.027 C 
ATOM      4  C   UNL     1      17.914  16.183  22.557  1.00  0.00     0.039 C 
ATOM      5  C   UNL     1      16.397  16.096  23.011  1.00  0.00    -0.000 C 
ATOM      6  C   UNL     1      16.206  14.943  24.081  1.00  0.00     0.017 C 
ATOM      7  C   UNL     1      17.356  13.925  24.113  1.00  0.00     0.031 C 
ATOM      8  C   UNL     1      15.951  17.411  23.706  1.00  0.00    -0.070 C 
ATOM      9  C   UNL     1      16.812  18.256  24.313  1.00  0.00     0.008 C 
ATOM     10  C   UNL     1      14.473  17.622  23.967  1.00  0.00     0.031 C 
ATOM     11  C   UNL     1      13.653  17.417  22.702  1.00  0.00     0.005 C 
ATOM     12  C   UNL     1      13.957  16.059  22.067  1.00  0.00     0.008 C 
ATOM     13  C   UNL     1      15.467  15.870  21.721  1.00  0.00    -0.026 C 
ATOM     14  C   UNL     1      15.607  14.441  21.122  1.00  0.00     0.012 C 
ATOM     15  C   UNL     1      15.834  16.874  20.590  1.00  0.00     0.012 C 
ENDROOT
TORSDOF 0
ENDMDL
MODEL 7
REMARK VINA RESULT:     0.000      6.834      8.318
REMARK INTER + INTRA:           0.000
REMARK INTER:                   0.000
REMARK INTRA:                   0.000
REMARK UNBOUND:                 0.000
REMARK SMILES C=C1CCCC(C)(C)[C@@]12CC=C(C)CC2
REMARK SMILES IDX 13 1 12 2 11 3 10 4 9 5 15 6 14 7 2 8 1 9 3 10 4 11 5 12
REMARK SMILES IDX 6 13 7 14 8 15
REMARK H PARENT
REMARK Flexibility Score: inf
ROOT
ATOM      1  C   UNL     1      21.528  13.538  35.295  1.00  0.00     0.039 C 
ATOM      2  C   UNL     1      21.611  12.040  35.400  1.00  0.00    -0.077 C 
ATOM      3  C   UNL     1      22.304  11.470  36.395  1.00  0.00    -0.027 C 
ATOM      4  C   UNL     1      22.381   9.968  36.485  1.00  0.00     0.039 C 
ATOM      5  C   UNL     1      22.669   9.265  35.093  1.00  0.00    -0.000 C 
ATOM      6  C   UNL     1      22.064  10.123  33.906  1.00  0.00     0.017 C 
ATOM      7  C   UNL     1      21.007  11.145  34.351  1.00  0.00     0.031 C 
ATOM      8  C   UNL     1      24.196   9.171  34.826  1.00  0.00    -0.070 C 
ATOM      9  C   UNL     1      25.098  10.008  35.382  1.00  0.00     0.008 C 
ATOM     10  C   UNL     1      24.673   8.297  33.683  1.00  0.00     0.031 C 
ATOM     11  C   UNL     1      24.091   6.896  33.777  1.00  0.00     0.005 C 
ATOM     12  C   UNL     1      22.566   6.943  33.891  1.00  0.00     0.008 C 
ATOM     13  C   UNL     1      22.070   7.775  35.115  1.00  0.00    -0.026 C 
ATOM     14  C   UNL     1      20.516   7.751  35.065  1.00  0.00     0.012 C 
ATOM     15  C   UNL     1      22.494   7.027  36.413  1.00  0.00     0.012 C 
ENDROOT
TORSDOF 0
ENDMDL
MODEL 8
REMARK VINA RESULT:     0.000      7.229      9.467
REMARK INTER + INTRA:           0.000
REMARK INTER:                   0.000
REMARK INTRA:                   0.000
REMARK UNBOUND:                 0.000
REMARK SMILES C=C1CCCC(C)(C)[C@@]12CC=C(C)CC2
REMARK SMILES IDX 13 1 12 2 11 3 10 4 9 5 15 6 14 7 2 8 1 9 3 10 4 11 5 12
REMARK SMILES IDX 6 13 7 14 8 15
REMARK H PARENT
REMARK Flexibility Score: inf
ROOT
ATOM      1  C   UNL     1      19.808  13.845  37.489  1.00  0.00     0.039 C 
ATOM      2  C   UNL     1      20.038  12.383  37.222  1.00  0.00    -0.077 C 
ATOM      3  C   UNL     1      20.934  11.697  37.945  1.00  0.00    -0.027 C 
ATOM      4  C   UNL     1      21.155  10.233  37.663  1.00  0.00     0.039 C 
ATOM      5  C   UNL     1      21.268   9.897  36.117  1.00  0.00    -0.000 C 
ATOM      6  C   UNL     1      20.402  10.915  35.266  1.00  0.00     0.017 C 
ATOM      7  C   UNL     1      19.348  11.675  36.086  1.00  0.00     0.031 C 
ATOM      8  C   UNL     1      22.732  10.053  35.622  1.00  0.00    -0.070 C 
ATOM      9  C   UNL     1      23.637  10.851  36.228  1.00  0.00     0.008 C 
ATOM     10  C   UNL     1      23.087   9.521  34.248  1.00  0.00     0.031 C 
ATOM     11  C   UNL     1      22.653   8.072  34.087  1.00  0.00     0.005 C 
ATOM     12  C   UNL     1      21.170   7.905  34.423  1.00  0.00     0.008 C 
ATOM     13  C   UNL     1      20.814   8.377  35.868  1.00  0.00    -0.026 C 
ATOM     14  C   UNL     1      19.280   8.174  36.033  1.00  0.00     0.012 C 
ATOM     15  C   UNL     1      21.510   7.418  36.876  1.00  0.00     0.012 C 
ENDROOT
TORSDOF 0
ENDMDL
MODEL 9
REMARK VINA RESULT:     0.000      5.090      8.001
REMARK INTER + INTRA:           0.000
REMARK INTER:                   0.000
REMARK INTRA:                   0.000
REMARK UNBOUND:                 0.000
REMARK SMILES C=C1CCCC(C)(C)[C@@]12CC=C(C)CC2
REMARK SMILES IDX 13 1 12 2 11 3 10 4 9 5 15 6 14 7 2 8 1 9 3 10 4 11 5 12
REMARK SMILES IDX 6 13 7 14 8 15
REMARK H PARENT
REMARK Flexibility Score: inf
ROOT
ATOM      1  C   UNL     1      20.198  14.780  37.033  1.00  0.00     0.039 C 
ATOM      2  C   UNL     1      20.355  13.443  36.365  1.00  0.00    -0.077 C 
ATOM      3  C   UNL     1      21.302  12.589  36.777  1.00  0.00    -0.027 C 
ATOM      4  C   UNL     1      21.449  11.253  36.094  1.00  0.00     0.039 C 
ATOM      5  C   UNL     1      21.387  11.342  34.512  1.00  0.00    -0.000 C 
ATOM      6  C   UNL     1      20.465  12.549  34.062  1.00  0.00     0.017 C 
ATOM      7  C   UNL     1      19.528  13.063  35.166  1.00  0.00     0.031 C 
ATOM      8  C   UNL     1      22.793  11.624  33.917  1.00  0.00    -0.070 C 
ATOM      9  C   UNL     1      23.781  12.232  34.609  1.00  0.00     0.008 C 
ATOM     10  C   UNL     1      22.985  11.477  32.421  1.00  0.00     0.031 C 
ATOM     11  C   UNL     1      22.493  10.123  31.931  1.00  0.00     0.005 C 
ATOM     12  C   UNL     1      21.050   9.872  32.373  1.00  0.00     0.008 C 
ATOM     13  C   UNL     1      20.864   9.943  33.921  1.00  0.00    -0.026 C 
ATOM     14  C   UNL     1      19.352   9.702  34.195  1.00  0.00     0.012 C 
ATOM     15  C   UNL     1      21.636   8.749  34.556  1.00  0.00     0.012 C 
ENDROOT
TORSDOF 0
ENDMDL
