MODEL 1
REMARK VINA RESULT:    -6.060      0.000      0.000
REMARK INTER + INTRA:          -7.488
REMARK INTER:                  -7.477
REMARK INTRA:                  -0.011
REMARK UNBOUND:                -0.011
REMARK SMILES COc1cc(-c2oc3cc(O)cc(O)c3c(=O)c2O)ccc1O
REMARK SMILES IDX 6 1 18 2 16 3 17 4 15 5 13 6 12 7 10 8 9 9 8 10 7 11 5 12
REMARK SMILES IDX 3 13 22 14 4 15 21 16 20 17 2 18 1 19 23 20 19 22 14 24
REMARK SMILES IDX 11 26
REMARK H PARENT 23 21 19 23 14 25 11 27
REMARK Flexibility Score: inf
ROOT
ATOM      1  C   UNL     1     -32.976 -54.921  67.112  1.00  0.00     0.180 A 
ATOM      2  C   UNL     1     -33.328 -54.276  65.914  1.00  0.00     0.208 A 
ATOM      3  C   UNL     1     -33.195 -52.881  65.828  1.00  0.00     0.238 A 
ATOM      4  O   UNL     1     -33.563 -52.303  64.772  1.00  0.00    -0.285 OA
ATOM      5  C   UNL     1     -32.698 -52.151  66.934  1.00  0.00     0.111 A 
ATOM      6  C   UNL     1     -32.485 -50.739  66.944  1.00  0.00     0.134 A 
ATOM      7  C   UNL     1     -32.113 -50.105  68.136  1.00  0.00     0.093 A 
ATOM      8  C   UNL     1     -31.883 -50.841  69.302  1.00  0.00     0.123 A 
ATOM      9  C   UNL     1     -32.031 -52.225  69.286  1.00  0.00     0.094 A 
ATOM     10  C   UNL     1     -32.436 -52.882  68.122  1.00  0.00     0.146 A 
ATOM     11  O   UNL     1     -32.575 -54.202  68.153  1.00  0.00    -0.452 OA
ENDROOT
BRANCH   1  12
ATOM     12  C   UNL     1     -33.065 -56.391  67.270  1.00  0.00     0.025 A 
ATOM     13  C   UNL     1     -33.628 -58.323  68.660  1.00  0.00     0.161 A 
ATOM     14  C   UNL     1     -33.194 -59.177  67.637  1.00  0.00     0.157 A 
ATOM     15  C   UNL     1     -33.555 -56.928  68.473  1.00  0.00     0.062 A 
ATOM     16  C   UNL     1     -32.686 -58.645  66.445  1.00  0.00     0.051 A 
ATOM     17  C   UNL     1     -32.615 -57.262  66.264  1.00  0.00     0.016 A 
BRANCH  13  18
ATOM     18  O   UNL     1     -34.125 -58.895  69.842  1.00  0.00    -0.493 OA
ATOM     19  C   UNL     1     -33.368 -59.061  71.037  1.00  0.00     0.278 C 
ENDBRANCH  13  18
BRANCH  14  20
ATOM     20  O   UNL     1     -33.265 -60.558  67.815  1.00  0.00    -0.504 OA
ATOM     21  H   UNL     1     -33.658 -61.164  67.105  1.00  0.00     0.293 HD
ENDBRANCH  14  20
ENDBRANCH   1  12
BRANCH   2  22
ATOM     22  O   UNL     1     -33.837 -55.013  64.841  1.00  0.00    -0.502 OA
ATOM     23  H   UNL     1     -34.623 -54.696  64.287  1.00  0.00     0.293 HD
ENDBRANCH   2  22
BRANCH   6  24
ATOM     24  O   UNL     1     -32.597 -49.925  65.813  1.00  0.00    -0.507 OA
ATOM     25  H   UNL     1     -33.454 -49.756  65.309  1.00  0.00     0.293 HD
ENDBRANCH   6  24
BRANCH   8  26
ATOM     26  O   UNL     1     -31.499 -50.203  70.478  1.00  0.00    -0.508 OA
ATOM     27  H   UNL     1     -30.616 -50.412  70.930  1.00  0.00     0.293 HD
ENDBRANCH   8  26
TORSDOF 6
ENDMDL
MODEL 2
REMARK VINA RESULT:    -6.055      0.798      1.989
REMARK INTER + INTRA:          -7.482
REMARK INTER:                  -7.422
REMARK INTRA:                  -0.060
REMARK UNBOUND:                -0.011
REMARK SMILES COc1cc(-c2oc3cc(O)cc(O)c3c(=O)c2O)ccc1O
REMARK SMILES IDX 6 1 18 2 16 3 17 4 15 5 13 6 12 7 10 8 9 9 8 10 7 11 5 12
REMARK SMILES IDX 3 13 22 14 4 15 21 16 20 17 2 18 1 19 23 20 19 22 14 24
REMARK SMILES IDX 11 26
REMARK H PARENT 23 21 19 23 14 25 11 27
REMARK Flexibility Score: inf
ROOT
ATOM      1  C   UNL     1     -32.967 -54.793  67.226  1.00  0.00     0.180 A 
ATOM      2  C   UNL     1     -33.314 -54.164  66.018  1.00  0.00     0.208 A 
ATOM      3  C   UNL     1     -33.180 -52.771  65.912  1.00  0.00     0.238 A 
ATOM      4  O   UNL     1     -33.544 -52.208  64.847  1.00  0.00    -0.285 OA
ATOM      5  C   UNL     1     -32.686 -52.025  67.010  1.00  0.00     0.111 A 
ATOM      6  C   UNL     1     -32.472 -50.614  67.000  1.00  0.00     0.134 A 
ATOM      7  C   UNL     1     -32.103 -49.963  68.184  1.00  0.00     0.093 A 
ATOM      8  C   UNL     1     -31.878 -50.682  69.361  1.00  0.00     0.123 A 
ATOM      9  C   UNL     1     -32.027 -52.067  69.365  1.00  0.00     0.094 A 
ATOM     10  C   UNL     1     -32.428 -52.740  68.209  1.00  0.00     0.146 A 
ATOM     11  O   UNL     1     -32.569 -54.059  68.258  1.00  0.00    -0.452 OA
ENDROOT
BRANCH   1  12
ATOM     12  C   UNL     1     -33.058 -56.260  67.405  1.00  0.00     0.025 A 
ATOM     13  C   UNL     1     -32.562 -58.510  66.585  1.00  0.00     0.161 A 
ATOM     14  C   UNL     1     -33.260 -59.053  67.672  1.00  0.00     0.157 A 
ATOM     15  C   UNL     1     -32.470 -57.110  66.453  1.00  0.00     0.062 A 
ATOM     16  C   UNL     1     -33.865 -58.209  68.612  1.00  0.00     0.051 A 
ATOM     17  C   UNL     1     -33.770 -56.822  68.477  1.00  0.00     0.016 A 
BRANCH  13  18
ATOM     18  O   UNL     1     -31.976 -59.390  65.661  1.00  0.00    -0.493 OA
ATOM     19  C   UNL     1     -32.576 -59.783  64.430  1.00  0.00     0.278 C 
ENDBRANCH  13  18
BRANCH  14  20
ATOM     20  O   UNL     1     -33.354 -60.437  67.810  1.00  0.00    -0.504 OA
ATOM     21  H   UNL     1     -32.549 -61.001  68.054  1.00  0.00     0.293 HD
ENDBRANCH  14  20
ENDBRANCH   1  12
BRANCH   2  22
ATOM     22  O   UNL     1     -33.820 -54.916  64.954  1.00  0.00    -0.502 OA
ATOM     23  H   UNL     1     -34.810 -55.097  64.837  1.00  0.00     0.293 HD
ENDBRANCH   2  22
BRANCH   6  24
ATOM     24  O   UNL     1     -32.579 -49.816  65.858  1.00  0.00    -0.507 OA
ATOM     25  H   UNL     1     -31.813 -49.322  65.427  1.00  0.00     0.293 HD
ENDBRANCH   6  24
BRANCH   8  26
ATOM     26  O   UNL     1     -31.497 -50.029  70.530  1.00  0.00    -0.508 OA
ATOM     27  H   UNL     1     -31.165 -50.540  71.340  1.00  0.00     0.293 HD
ENDBRANCH   8  26
TORSDOF 6
ENDMDL
MODEL 3
REMARK VINA RESULT:    -5.620     12.047     15.048
REMARK INTER + INTRA:          -6.946
REMARK INTER:                  -6.552
REMARK INTRA:                  -0.393
REMARK UNBOUND:                -0.011
REMARK SMILES COc1cc(-c2oc3cc(O)cc(O)c3c(=O)c2O)ccc1O
REMARK SMILES IDX 6 1 18 2 16 3 17 4 15 5 13 6 12 7 10 8 9 9 8 10 7 11 5 12
REMARK SMILES IDX 3 13 22 14 4 15 21 16 20 17 2 18 1 19 23 20 19 22 14 24
REMARK SMILES IDX 11 26
REMARK H PARENT 23 21 19 23 14 25 11 27
REMARK Flexibility Score: inf
ROOT
ATOM      1  C   UNL     1     -27.688 -55.625  55.506  1.00  0.00     0.180 A 
ATOM      2  C   UNL     1     -26.898 -56.767  55.290  1.00  0.00     0.208 A 
ATOM      3  C   UNL     1     -27.493 -58.035  55.383  1.00  0.00     0.238 A 
ATOM      4  O   UNL     1     -26.769 -59.055  55.242  1.00  0.00    -0.285 OA
ATOM      5  C   UNL     1     -28.874 -58.145  55.674  1.00  0.00     0.111 A 
ATOM      6  C   UNL     1     -29.591 -59.377  55.753  1.00  0.00     0.134 A 
ATOM      7  C   UNL     1     -30.926 -59.374  56.175  1.00  0.00     0.093 A 
ATOM      8  C   UNL     1     -31.588 -58.178  56.460  1.00  0.00     0.123 A 
ATOM      9  C   UNL     1     -30.915 -56.966  56.330  1.00  0.00     0.094 A 
ATOM     10  C   UNL     1     -29.572 -56.939  55.944  1.00  0.00     0.146 A 
ATOM     11  O   UNL     1     -28.965 -55.764  55.842  1.00  0.00    -0.452 OA
ENDROOT
BRANCH   1  12
ATOM     12  C   UNL     1     -27.136 -54.255  55.402  1.00  0.00     0.025 A 
ATOM     13  C   UNL     1     -26.592 -52.309  54.023  1.00  0.00     0.161 A 
ATOM     14  C   UNL     1     -26.043 -51.676  55.146  1.00  0.00     0.157 A 
ATOM     15  C   UNL     1     -27.133 -53.604  54.156  1.00  0.00     0.062 A 
ATOM     16  C   UNL     1     -26.025 -52.329  56.384  1.00  0.00     0.051 A 
ATOM     17  C   UNL     1     -26.563 -53.612  56.511  1.00  0.00     0.016 A 
BRANCH  13  18
ATOM     18  O   UNL     1     -26.584 -51.624  52.798  1.00  0.00    -0.493 OA
ATOM     19  C   UNL     1     -27.701 -51.532  51.918  1.00  0.00     0.278 C 
ENDBRANCH  13  18
BRANCH  14  20
ATOM     20  O   UNL     1     -25.508 -50.394  55.021  1.00  0.00    -0.504 OA
ATOM     21  H   UNL     1     -24.562 -50.244  54.691  1.00  0.00     0.293 HD
ENDBRANCH  14  20
ENDBRANCH   1  12
BRANCH   2  22
ATOM     22  O   UNL     1     -25.531 -56.638  55.026  1.00  0.00    -0.502 OA
ATOM     23  H   UNL     1     -25.170 -56.007  54.320  1.00  0.00     0.293 HD
ENDBRANCH   2  22
BRANCH   6  24
ATOM     24  O   UNL     1     -29.050 -60.618  55.401  1.00  0.00    -0.507 OA
ATOM     25  H   UNL     1     -29.567 -61.370  54.973  1.00  0.00     0.293 HD
ENDBRANCH   6  24
BRANCH   8  26
ATOM     26  O   UNL     1     -32.921 -58.183  56.866  1.00  0.00    -0.508 OA
ATOM     27  H   UNL     1     -33.679 -58.182  56.194  1.00  0.00     0.293 HD
ENDBRANCH   8  26
TORSDOF 6
ENDMDL
MODEL 4
REMARK VINA RESULT:    -5.546     16.885     19.304
REMARK INTER + INTRA:          -6.854
REMARK INTER:                  -6.462
REMARK INTRA:                  -0.393
REMARK UNBOUND:                -0.011
REMARK SMILES COc1cc(-c2oc3cc(O)cc(O)c3c(=O)c2O)ccc1O
REMARK SMILES IDX 6 1 18 2 16 3 17 4 15 5 13 6 12 7 10 8 9 9 8 10 7 11 5 12
REMARK SMILES IDX 3 13 22 14 4 15 21 16 20 17 2 18 1 19 23 20 19 22 14 24
REMARK SMILES IDX 11 26
REMARK H PARENT 23 21 19 23 14 25 11 27
REMARK Flexibility Score: inf
ROOT
ATOM      1  C   UNL     1     -23.959 -66.443  56.653  1.00  0.00     0.180 A 
ATOM      2  C   UNL     1     -24.829 -65.460  57.156  1.00  0.00     0.208 A 
ATOM      3  C   UNL     1     -25.750 -64.856  56.286  1.00  0.00     0.238 A 
ATOM      4  O   UNL     1     -26.488 -63.938  56.730  1.00  0.00    -0.285 OA
ATOM      5  C   UNL     1     -25.800 -65.252  54.928  1.00  0.00     0.111 A 
ATOM      6  C   UNL     1     -26.720 -64.735  53.966  1.00  0.00     0.134 A 
ATOM      7  C   UNL     1     -26.594 -65.104  52.622  1.00  0.00     0.093 A 
ATOM      8  C   UNL     1     -25.621 -66.022  52.215  1.00  0.00     0.123 A 
ATOM      9  C   UNL     1     -24.757 -66.577  53.156  1.00  0.00     0.094 A 
ATOM     10  C   UNL     1     -24.836 -66.201  54.499  1.00  0.00     0.146 A 
ATOM     11  O   UNL     1     -23.986 -66.745  55.361  1.00  0.00    -0.452 OA
ENDROOT
BRANCH   1  12
ATOM     12  C   UNL     1     -22.978 -67.142  57.515  1.00  0.00     0.025 A 
ATOM     13  C   UNL     1     -20.732 -67.254  58.476  1.00  0.00     0.161 A 
ATOM     14  C   UNL     1     -21.064 -68.468  59.092  1.00  0.00     0.157 A 
ATOM     15  C   UNL     1     -21.694 -66.598  57.682  1.00  0.00     0.062 A 
ATOM     16  C   UNL     1     -22.336 -69.024  58.912  1.00  0.00     0.051 A 
ATOM     17  C   UNL     1     -23.286 -68.370  58.123  1.00  0.00     0.016 A 
BRANCH  13  18
ATOM     18  O   UNL     1     -19.444 -66.733  58.676  1.00  0.00    -0.493 OA
ATOM     19  C   UNL     1     -18.657 -66.117  57.661  1.00  0.00     0.278 C 
ENDBRANCH  13  18
BRANCH  14  20
ATOM     20  O   UNL     1     -20.118 -69.122  59.881  1.00  0.00    -0.504 OA
ATOM     21  H   UNL     1     -20.195 -69.145  60.891  1.00  0.00     0.293 HD
ENDBRANCH  14  20
ENDBRANCH   1  12
BRANCH   2  22
ATOM     22  O   UNL     1     -24.748 -65.067  58.496  1.00  0.00    -0.502 OA
ATOM     23  H   UNL     1     -24.153 -65.539  59.167  1.00  0.00     0.293 HD
ENDBRANCH   2  22
BRANCH   6  24
ATOM     24  O   UNL     1     -27.784 -63.885  54.283  1.00  0.00    -0.507 OA
ATOM     25  H   UNL     1     -28.539 -64.118  54.910  1.00  0.00     0.293 HD
ENDBRANCH   6  24
BRANCH   8  26
ATOM     26  O   UNL     1     -25.513 -66.395  50.878  1.00  0.00    -0.508 OA
ATOM     27  H   UNL     1     -26.171 -66.067  50.181  1.00  0.00     0.293 HD
ENDBRANCH   8  26
TORSDOF 6
ENDMDL
MODEL 5
REMARK VINA RESULT:    -5.403     16.890     18.376
REMARK INTER + INTRA:          -6.677
REMARK INTER:                  -6.491
REMARK INTRA:                  -0.187
REMARK UNBOUND:                -0.011
REMARK SMILES COc1cc(-c2oc3cc(O)cc(O)c3c(=O)c2O)ccc1O
REMARK SMILES IDX 6 1 18 2 16 3 17 4 15 5 13 6 12 7 10 8 9 9 8 10 7 11 5 12
REMARK SMILES IDX 3 13 22 14 4 15 21 16 20 17 2 18 1 19 23 20 19 22 14 24
REMARK SMILES IDX 11 26
REMARK H PARENT 23 21 19 23 14 25 11 27
REMARK Flexibility Score: inf
ROOT
ATOM      1  C   UNL     1     -25.217 -66.190  56.603  1.00  0.00     0.180 A 
ATOM      2  C   UNL     1     -24.783 -64.862  56.757  1.00  0.00     0.208 A 
ATOM      3  C   UNL     1     -23.496 -64.620  57.263  1.00  0.00     0.238 A 
ATOM      4  O   UNL     1     -23.134 -63.429  57.450  1.00  0.00    -0.285 OA
ATOM      5  C   UNL     1     -22.654 -65.708  57.594  1.00  0.00     0.111 A 
ATOM      6  C   UNL     1     -21.316 -65.580  58.078  1.00  0.00     0.134 A 
ATOM      7  C   UNL     1     -20.621 -66.722  58.496  1.00  0.00     0.093 A 
ATOM      8  C   UNL     1     -21.192 -67.993  58.388  1.00  0.00     0.123 A 
ATOM      9  C   UNL     1     -22.474 -68.133  57.863  1.00  0.00     0.094 A 
ATOM     10  C   UNL     1     -23.206 -67.010  57.470  1.00  0.00     0.146 A 
ATOM     11  O   UNL     1     -24.428 -67.187  56.984  1.00  0.00    -0.452 OA
ENDROOT
BRANCH   1  12
ATOM     12  C   UNL     1     -26.551 -66.524  56.053  1.00  0.00     0.025 A 
ATOM     13  C   UNL     1     -28.687 -67.691  56.288  1.00  0.00     0.161 A 
ATOM     14  C   UNL     1     -29.069 -67.233  55.020  1.00  0.00     0.157 A 
ATOM     15  C   UNL     1     -27.421 -67.338  56.797  1.00  0.00     0.062 A 
ATOM     16  C   UNL     1     -28.196 -66.439  54.266  1.00  0.00     0.051 A 
ATOM     17  C   UNL     1     -26.943 -66.091  54.775  1.00  0.00     0.016 A 
BRANCH  13  18
ATOM     18  O   UNL     1     -29.587 -68.491  57.009  1.00  0.00    -0.493 OA
ATOM     19  C   UNL     1     -29.543 -68.685  58.419  1.00  0.00     0.278 C 
ENDBRANCH  13  18
BRANCH  14  20
ATOM     20  O   UNL     1     -30.320 -67.578  54.510  1.00  0.00    -0.504 OA
ATOM     21  H   UNL     1     -30.496 -68.491  54.109  1.00  0.00     0.293 HD
ENDBRANCH  14  20
ENDBRANCH   1  12
BRANCH   2  22
ATOM     22  O   UNL     1     -25.639 -63.801  56.445  1.00  0.00    -0.502 OA
ATOM     23  H   UNL     1     -25.791 -63.021  57.073  1.00  0.00     0.293 HD
ENDBRANCH   2  22
BRANCH   6  24
ATOM     24  O   UNL     1     -20.621 -64.369  58.139  1.00  0.00    -0.507 OA
ATOM     25  H   UNL     1     -20.264 -63.953  58.985  1.00  0.00     0.293 HD
ENDBRANCH   6  24
BRANCH   8  26
ATOM     26  O   UNL     1     -20.487 -69.123  58.793  1.00  0.00    -0.508 OA
ATOM     27  H   UNL     1     -19.872 -69.620  58.159  1.00  0.00     0.293 HD
ENDBRANCH   8  26
TORSDOF 6
ENDMDL
MODEL 6
REMARK VINA RESULT:    -5.372     16.699     18.543
REMARK INTER + INTRA:          -6.639
REMARK INTER:                  -6.321
REMARK INTRA:                  -0.318
REMARK UNBOUND:                -0.011
REMARK SMILES COc1cc(-c2oc3cc(O)cc(O)c3c(=O)c2O)ccc1O
REMARK SMILES IDX 6 1 18 2 16 3 17 4 15 5 13 6 12 7 10 8 9 9 8 10 7 11 5 12
REMARK SMILES IDX 3 13 22 14 4 15 21 16 20 17 2 18 1 19 23 20 19 22 14 24
REMARK SMILES IDX 11 26
REMARK H PARENT 23 21 19 23 14 25 11 27
REMARK Flexibility Score: inf
ROOT
ATOM      1  C   UNL     1     -25.724 -67.196  56.697  1.00  0.00     0.180 A 
ATOM      2  C   UNL     1     -26.119 -66.257  55.729  1.00  0.00     0.208 A 
ATOM      3  C   UNL     1     -27.484 -65.970  55.574  1.00  0.00     0.238 A 
ATOM      4  O   UNL     1     -27.836 -65.169  54.669  1.00  0.00    -0.285 OA
ATOM      5  C   UNL     1     -28.437 -66.615  56.400  1.00  0.00     0.111 A 
ATOM      6  C   UNL     1     -29.844 -66.372  56.357  1.00  0.00     0.134 A 
ATOM      7  C   UNL     1     -30.704 -67.161  57.130  1.00  0.00     0.093 A 
ATOM      8  C   UNL     1     -30.204 -68.141  57.991  1.00  0.00     0.123 A 
ATOM      9  C   UNL     1     -28.830 -68.345  58.084  1.00  0.00     0.094 A 
ATOM     10  C   UNL     1     -27.948 -67.598  57.300  1.00  0.00     0.146 A 
ATOM     11  O   UNL     1     -26.646 -67.832  57.410  1.00  0.00    -0.452 OA
ENDROOT
BRANCH   1  12
ATOM     12  C   UNL     1     -24.302 -67.531  56.935  1.00  0.00     0.025 A 
ATOM     13  C   UNL     1     -22.104 -66.878  57.787  1.00  0.00     0.161 A 
ATOM     14  C   UNL     1     -21.579 -68.103  57.352  1.00  0.00     0.157 A 
ATOM     15  C   UNL     1     -23.468 -66.595  57.569  1.00  0.00     0.062 A 
ATOM     16  C   UNL     1     -22.402 -69.030  56.701  1.00  0.00     0.051 A 
ATOM     17  C   UNL     1     -23.753 -68.745  56.488  1.00  0.00     0.016 A 
BRANCH  13  18
ATOM     18  O   UNL     1     -21.245 -65.973  58.429  1.00  0.00    -0.493 OA
ATOM     19  C   UNL     1     -20.627 -64.858  57.792  1.00  0.00     0.278 C 
ENDBRANCH  13  18
BRANCH  14  20
ATOM     20  O   UNL     1     -20.231 -68.390  57.565  1.00  0.00    -0.504 OA
ATOM     21  H   UNL     1     -19.933 -69.011  58.306  1.00  0.00     0.293 HD
ENDBRANCH  14  20
ENDBRANCH   1  12
BRANCH   2  22
ATOM     22  O   UNL     1     -25.164 -65.648  54.909  1.00  0.00    -0.502 OA
ATOM     23  H   UNL     1     -24.270 -66.077  54.703  1.00  0.00     0.293 HD
ENDBRANCH   2  22
BRANCH   6  24
ATOM     24  O   UNL     1     -30.437 -65.358  55.601  1.00  0.00    -0.507 OA
ATOM     25  H   UNL     1     -29.969 -64.827  54.883  1.00  0.00     0.293 HD
ENDBRANCH   6  24
BRANCH   8  26
ATOM     26  O   UNL     1     -31.067 -68.911  58.767  1.00  0.00    -0.508 OA
ATOM     27  H   UNL     1     -30.942 -69.002  59.768  1.00  0.00     0.293 HD
ENDBRANCH   8  26
TORSDOF 6
ENDMDL
MODEL 7
REMARK VINA RESULT:    -5.359     17.531     18.737
REMARK INTER + INTRA:          -6.623
REMARK INTER:                  -6.380
REMARK INTRA:                  -0.243
REMARK UNBOUND:                -0.011
REMARK SMILES COc1cc(-c2oc3cc(O)cc(O)c3c(=O)c2O)ccc1O
REMARK SMILES IDX 6 1 18 2 16 3 17 4 15 5 13 6 12 7 10 8 9 9 8 10 7 11 5 12
REMARK SMILES IDX 3 13 22 14 4 15 21 16 20 17 2 18 1 19 23 20 19 22 14 24
REMARK SMILES IDX 11 26
REMARK H PARENT 23 21 19 23 14 25 11 27
REMARK Flexibility Score: inf
ROOT
ATOM      1  C   UNL     1     -25.575 -66.422  56.211  1.00  0.00     0.180 A 
ATOM      2  C   UNL     1     -25.948 -65.956  54.938  1.00  0.00     0.208 A 
ATOM      3  C   UNL     1     -27.269 -66.147  54.503  1.00  0.00     0.238 A 
ATOM      4  O   UNL     1     -27.582 -65.776  53.342  1.00  0.00    -0.285 OA
ATOM      5  C   UNL     1     -28.204 -66.786  55.352  1.00  0.00     0.111 A 
ATOM      6  C   UNL     1     -29.580 -66.997  55.030  1.00  0.00     0.134 A 
ATOM      7  C   UNL     1     -30.382 -67.755  55.890  1.00  0.00     0.093 A 
ATOM      8  C   UNL     1     -29.876 -68.257  57.092  1.00  0.00     0.123 A 
ATOM      9  C   UNL     1     -28.551 -68.007  57.443  1.00  0.00     0.094 A 
ATOM     10  C   UNL     1     -27.716 -67.283  56.589  1.00  0.00     0.146 A 
ATOM     11  O   UNL     1     -26.458 -67.076  56.956  1.00  0.00    -0.452 OA
ENDROOT
BRANCH   1  12
ATOM     12  C   UNL     1     -24.207 -66.237  56.748  1.00  0.00     0.025 A 
ATOM     13  C   UNL     1     -22.149 -67.215  57.637  1.00  0.00     0.161 A 
ATOM     14  C   UNL     1     -21.629 -65.928  57.829  1.00  0.00     0.157 A 
ATOM     15  C   UNL     1     -23.444 -67.363  57.100  1.00  0.00     0.062 A 
ATOM     16  C   UNL     1     -22.394 -64.803  57.499  1.00  0.00     0.051 A 
ATOM     17  C   UNL     1     -23.677 -64.954  56.967  1.00  0.00     0.016 A 
BRANCH  13  18
ATOM     18  O   UNL     1     -21.354 -68.317  57.987  1.00  0.00    -0.493 OA
ATOM     19  C   UNL     1     -21.541 -69.106  59.158  1.00  0.00     0.278 C 
ENDBRANCH  13  18
BRANCH  14  20
ATOM     20  O   UNL     1     -20.348 -65.774  58.358  1.00  0.00    -0.504 OA
ATOM     21  H   UNL     1     -19.544 -65.619  57.762  1.00  0.00     0.293 HD
ENDBRANCH  14  20
ENDBRANCH   1  12
BRANCH   2  22
ATOM     22  O   UNL     1     -25.003 -65.347  54.107  1.00  0.00    -0.502 OA
ATOM     23  H   UNL     1     -24.546 -64.476  54.349  1.00  0.00     0.293 HD
ENDBRANCH   2  22
BRANCH   6  24
ATOM     24  O   UNL     1     -30.207 -66.461  53.901  1.00  0.00    -0.507 OA
ATOM     25  H   UNL     1     -31.090 -65.975  53.911  1.00  0.00     0.293 HD
ENDBRANCH   6  24
BRANCH   8  26
ATOM     26  O   UNL     1     -30.685 -68.998  57.949  1.00  0.00    -0.508 OA
ATOM     27  H   UNL     1     -30.350 -69.321  58.849  1.00  0.00     0.293 HD
ENDBRANCH   8  26
TORSDOF 6
ENDMDL
MODEL 8
REMARK VINA RESULT:    -5.285     17.839     20.146
REMARK INTER + INTRA:          -6.533
REMARK INTER:                  -6.128
REMARK INTRA:                  -0.405
REMARK UNBOUND:                -0.011
REMARK SMILES COc1cc(-c2oc3cc(O)cc(O)c3c(=O)c2O)ccc1O
REMARK SMILES IDX 6 1 18 2 16 3 17 4 15 5 13 6 12 7 10 8 9 9 8 10 7 11 5 12
REMARK SMILES IDX 3 13 22 14 4 15 21 16 20 17 2 18 1 19 23 20 19 22 14 24
REMARK SMILES IDX 11 26
REMARK H PARENT 23 21 19 23 14 25 11 27
REMARK Flexibility Score: inf
ROOT
ATOM      1  C   UNL     1     -20.403 -64.076  57.619  1.00  0.00     0.180 A 
ATOM      2  C   UNL     1     -21.610 -64.445  57.001  1.00  0.00     0.208 A 
ATOM      3  C   UNL     1     -22.150 -65.714  57.263  1.00  0.00     0.238 A 
ATOM      4  O   UNL     1     -23.201 -66.060  56.664  1.00  0.00    -0.285 OA
ATOM      5  C   UNL     1     -21.484 -66.592  58.152  1.00  0.00     0.111 A 
ATOM      6  C   UNL     1     -21.961 -67.887  58.522  1.00  0.00     0.134 A 
ATOM      7  C   UNL     1     -21.156 -68.720  59.308  1.00  0.00     0.093 A 
ATOM      8  C   UNL     1     -19.920 -68.282  59.790  1.00  0.00     0.123 A 
ATOM      9  C   UNL     1     -19.473 -66.999  59.484  1.00  0.00     0.094 A 
ATOM     10  C   UNL     1     -20.238 -66.157  58.673  1.00  0.00     0.146 A 
ATOM     11  O   UNL     1     -19.770 -64.946  58.397  1.00  0.00    -0.452 OA
ENDROOT
BRANCH   1  12
ATOM     12  C   UNL     1     -19.786 -62.746  57.411  1.00  0.00     0.025 A 
ATOM     13  C   UNL     1     -18.202 -61.333  56.196  1.00  0.00     0.161 A 
ATOM     14  C   UNL     1     -18.544 -60.253  57.020  1.00  0.00     0.157 A 
ATOM     15  C   UNL     1     -18.823 -62.582  56.401  1.00  0.00     0.062 A 
ATOM     16  C   UNL     1     -19.489 -60.418  58.041  1.00  0.00     0.051 A 
ATOM     17  C   UNL     1     -20.102 -61.657  58.240  1.00  0.00     0.016 A 
BRANCH  13  18
ATOM     18  O   UNL     1     -17.246 -61.129  55.189  1.00  0.00    -0.493 OA
ATOM     19  C   UNL     1     -15.863 -61.446  55.314  1.00  0.00     0.278 C 
ENDBRANCH  13  18
BRANCH  14  20
ATOM     20  O   UNL     1     -17.935 -59.014  56.822  1.00  0.00    -0.504 OA
ATOM     21  H   UNL     1     -17.774 -58.374  57.590  1.00  0.00     0.293 HD
ENDBRANCH  14  20
ENDBRANCH   1  12
BRANCH   2  22
ATOM     22  O   UNL     1     -22.240 -63.572  56.109  1.00  0.00    -0.502 OA
ATOM     23  H   UNL     1     -22.327 -63.773  55.120  1.00  0.00     0.293 HD
ENDBRANCH   2  22
BRANCH   6  24
ATOM     24  O   UNL     1     -23.218 -68.385  58.170  1.00  0.00    -0.507 OA
ATOM     25  H   UNL     1     -24.048 -67.823  58.058  1.00  0.00     0.293 HD
ENDBRANCH   6  24
BRANCH   8  26
ATOM     26  O   UNL     1     -19.133 -69.113  60.584  1.00  0.00    -0.508 OA
ATOM     27  H   UNL     1     -18.755 -69.983  60.229  1.00  0.00     0.293 HD
ENDBRANCH   8  26
TORSDOF 6
ENDMDL
MODEL 9
REMARK VINA RESULT:    -5.284     16.594     19.244
REMARK INTER + INTRA:          -6.531
REMARK INTER:                  -6.158
REMARK INTRA:                  -0.373
REMARK UNBOUND:                -0.011
REMARK SMILES COc1cc(-c2oc3cc(O)cc(O)c3c(=O)c2O)ccc1O
REMARK SMILES IDX 6 1 18 2 16 3 17 4 15 5 13 6 12 7 10 8 9 9 8 10 7 11 5 12
REMARK SMILES IDX 3 13 22 14 4 15 21 16 20 17 2 18 1 19 23 20 19 22 14 24
REMARK SMILES IDX 11 26
REMARK H PARENT 23 21 19 23 14 25 11 27
REMARK Flexibility Score: inf
ROOT
ATOM      1  C   UNL     1     -24.211 -66.320  57.037  1.00  0.00     0.180 A 
ATOM      2  C   UNL     1     -24.401 -67.493  57.787  1.00  0.00     0.208 A 
ATOM      3  C   UNL     1     -23.309 -68.045  58.476  1.00  0.00     0.238 A 
ATOM      4  O   UNL     1     -23.472 -69.125  59.101  1.00  0.00    -0.285 OA
ATOM      5  C   UNL     1     -22.046 -67.409  58.417  1.00  0.00     0.111 A 
ATOM      6  C   UNL     1     -20.879 -67.859  59.108  1.00  0.00     0.134 A 
ATOM      7  C   UNL     1     -19.652 -67.226  58.874  1.00  0.00     0.093 A 
ATOM      8  C   UNL     1     -19.561 -66.121  58.025  1.00  0.00     0.123 A 
ATOM      9  C   UNL     1     -20.704 -65.638  57.393  1.00  0.00     0.094 A 
ATOM     10  C   UNL     1     -21.937 -66.269  57.578  1.00  0.00     0.146 A 
ATOM     11  O   UNL     1     -23.000 -65.784  56.949  1.00  0.00    -0.452 OA
ENDROOT
BRANCH   1  12
ATOM     12  C   UNL     1     -25.320 -65.666  56.305  1.00  0.00     0.025 A 
ATOM     13  C   UNL     1     -26.695 -65.498  54.289  1.00  0.00     0.161 A 
ATOM     14  C   UNL     1     -27.378 -64.412  54.854  1.00  0.00     0.157 A 
ATOM     15  C   UNL     1     -25.661 -66.118  55.019  1.00  0.00     0.062 A 
ATOM     16  C   UNL     1     -27.027 -63.945  56.127  1.00  0.00     0.051 A 
ATOM     17  C   UNL     1     -26.001 -64.563  56.846  1.00  0.00     0.016 A 
BRANCH  13  18
ATOM     18  O   UNL     1     -27.072 -65.932  53.008  1.00  0.00    -0.493 OA
ATOM     19  C   UNL     1     -26.180 -66.505  52.057  1.00  0.00     0.278 C 
ENDBRANCH  13  18
BRANCH  14  20
ATOM     20  O   UNL     1     -28.404 -63.795  54.138  1.00  0.00    -0.504 OA
ATOM     21  H   UNL     1     -28.253 -63.424  53.208  1.00  0.00     0.293 HD
ENDBRANCH  14  20
ENDBRANCH   1  12
BRANCH   2  22
ATOM     22  O   UNL     1     -25.651 -68.117  57.814  1.00  0.00    -0.502 OA
ATOM     23  H   UNL     1     -26.397 -67.870  57.174  1.00  0.00     0.293 HD
ENDBRANCH   2  22
BRANCH   6  24
ATOM     24  O   UNL     1     -20.879 -68.894  60.047  1.00  0.00    -0.507 OA
ATOM     25  H   UNL     1     -21.477 -69.705  60.008  1.00  0.00     0.293 HD
ENDBRANCH   6  24
BRANCH   8  26
ATOM     26  O   UNL     1     -18.339 -65.489  57.810  1.00  0.00    -0.508 OA
ATOM     27  H   UNL     1     -17.815 -65.624  56.954  1.00  0.00     0.293 HD
ENDBRANCH   8  26
TORSDOF 6
ENDMDL
