MODEL 1
REMARK VINA RESULT:    -1.126      0.000      0.000
REMARK INTER + INTRA:          -0.876
REMARK INTER:                  -1.652
REMARK INTRA:                   0.776
REMARK UNBOUND:                 0.776
REMARK SMILES C=C1CC=CC(C)(C)CC=C(C)CCC1
REMARK SMILES IDX 2 1 1 2 15 3 14 4 13 5 11 6 12 7 10 8 3 10 4 11 5 12 6 13
REMARK SMILES IDX 7 14 8 15 9 16
REMARK H PARENT
REMARK Flexibility Score: 60.00
ROOT
ATOM      1  C   UNL     1     138.294 135.380 124.713  1.00  0.00    -0.074 C 
ATOM      2  C   UNL     1     139.561 134.994 124.954  1.00  0.00     0.008 C 
ENDROOT
BRANCH   1   3
ATOM      3  C   UNL     1     137.501 136.053 125.815  1.00  0.00     0.031 C 
BRANCH   3   4
ATOM      4  C   UNL     1     137.070 137.500 125.506  1.00  0.00     0.009 C 
BRANCH   4   5
ATOM      5  C   UNL     1     135.637 137.665 124.967  1.00  0.00     0.030 C 
BRANCH   5   6
ATOM      6  C   UNL     1     135.512 138.769 123.929  1.00  0.00    -0.077 C 
ATOM      7  C   UNL     1     135.042 140.126 124.391  1.00  0.00     0.039 C 
ATOM      8  C   UNL     1     135.793 138.608 122.613  1.00  0.00    -0.027 CG0
ATOM      9  G   UNL     1     136.375 137.353 121.982  1.00  0.00     0.000 G0
ENDBRANCH   5   6
ENDBRANCH   4   5
ENDBRANCH   3   4
ENDBRANCH   1   3
BRANCH   1  10
ATOM     10  C   UNL     1     137.543 134.940 123.464  1.00  0.00     0.057 C 
BRANCH  10  11
ATOM     11  C   UNL     1     138.348 134.992 122.186  1.00  0.00    -0.026 C 
ATOM     12  C   UNL     1     138.515 136.052 121.365  1.00  0.00    -0.024 C 
BRANCH  12  13
ATOM     13  C   UNL     1     137.882 137.445 121.481  1.00  0.00    -0.014 C 
ATOM     14  C   UNL     1     138.096 138.206 120.148  1.00  0.00     0.016 C 
ATOM     15  C   UNL     1     138.683 138.217 122.559  1.00  0.00     0.016 C 
BRANCH  13  16
ATOM     16  C   UNL     1     136.387 137.357 121.970  1.00  0.00     0.038 CG0
ATOM     17  G   UNL     1     135.811 138.602 122.625  1.00  0.00     0.000 G0
ENDBRANCH  13  16
ENDBRANCH  12  13
ENDBRANCH  10  11
ENDBRANCH   1  10
TORSDOF 0
ENDMDL
MODEL 2
REMARK VINA RESULT:    -0.448      1.741      3.912
REMARK INTER + INTRA:           0.118
REMARK INTER:                  -3.260
REMARK INTRA:                   3.378
REMARK UNBOUND:                 0.776
REMARK SMILES C=C1CC=CC(C)(C)CC=C(C)CCC1
REMARK SMILES IDX 2 1 1 2 15 3 14 4 13 5 11 6 12 7 10 8 3 10 4 11 5 12 6 13
REMARK SMILES IDX 7 14 8 15 9 16
REMARK H PARENT
REMARK Flexibility Score: 60.00
ROOT
ATOM      1  C   UNL     1     136.048 138.318 124.586  1.00  0.00    -0.074 C 
ATOM      2  C   UNL     1     135.670 139.439 125.228  1.00  0.00     0.008 C 
ENDROOT
BRANCH   1   3
ATOM      3  C   UNL     1     137.122 137.440 125.197  1.00  0.00     0.031 C 
BRANCH   3   4
ATOM      4  C   UNL     1     136.651 136.024 125.586  1.00  0.00     0.009 C 
BRANCH   4   5
ATOM      5  C   UNL     1     137.612 134.880 125.214  1.00  0.00     0.030 C 
BRANCH   5   6
ATOM      6  C   UNL     1     139.067 135.317 125.153  1.00  0.00    -0.077 C 
ATOM      7  C   UNL     1     139.813 135.478 126.454  1.00  0.00     0.039 C 
ATOM      8  C   UNL     1     139.734 135.574 124.002  1.00  0.00    -0.027 CG0
ATOM      9  G   UNL     1     139.186 135.367 122.599  1.00  0.00     0.000 G0
ENDBRANCH   5   6
ENDBRANCH   4   5
ENDBRANCH   3   4
ENDBRANCH   1   3
BRANCH   1  10
ATOM     10  C   UNL     1     135.625 138.029 123.152  1.00  0.00     0.057 C 
BRANCH  10  11
ATOM     11  C   UNL     1     135.651 136.569 122.764  1.00  0.00    -0.026 C 
ATOM     12  C   UNL     1     136.712 135.858 122.321  1.00  0.00    -0.024 C 
BRANCH  12  13
ATOM     13  C   UNL     1     138.134 136.360 122.039  1.00  0.00    -0.014 C 
ATOM     14  C   UNL     1     138.266 137.814 122.556  1.00  0.00     0.016 C 
ATOM     15  C   UNL     1     138.294 136.426 120.500  1.00  0.00     0.016 C 
BRANCH  13  16
ATOM     16  C   UNL     1     139.216 135.353 122.587  1.00  0.00     0.038 CG0
ATOM     17  G   UNL     1     139.718 135.596 124.001  1.00  0.00     0.000 G0
ENDBRANCH  13  16
ENDBRANCH  12  13
ENDBRANCH  10  11
ENDBRANCH   1  10
TORSDOF 0
ENDMDL
MODEL 3
REMARK VINA RESULT:    -0.148      1.646      3.651
REMARK INTER + INTRA:           0.559
REMARK INTER:                  -0.664
REMARK INTRA:                   1.223
REMARK UNBOUND:                 0.776
REMARK SMILES C=C1CC=CC(C)(C)CC=C(C)CCC1
REMARK SMILES IDX 2 1 1 2 15 3 14 4 13 5 11 6 12 7 10 8 3 10 4 11 5 12 6 13
REMARK SMILES IDX 7 14 8 15 9 16
REMARK H PARENT
REMARK Flexibility Score: 60.00
ROOT
ATOM      1  C   UNL     1     136.511 136.106 124.859  1.00  0.00    -0.074 C 
ATOM      2  C   UNL     1     136.014 134.875 124.635  1.00  0.00     0.008 C 
ENDROOT
BRANCH   1   3
ATOM      3  C   UNL     1     137.595 136.290 125.902  1.00  0.00     0.031 C 
BRANCH   3   4
ATOM      4  C   UNL     1     138.594 135.121 126.005  1.00  0.00     0.009 C 
BRANCH   4   5
ATOM      5  C   UNL     1     139.470 134.885 124.760  1.00  0.00     0.030 C 
BRANCH   5   6
ATOM      6  C   UNL     1     140.190 136.138 124.289  1.00  0.00    -0.077 C 
ATOM      7  C   UNL     1     141.303 136.682 125.150  1.00  0.00     0.039 C 
ATOM      8  C   UNL     1     139.891 136.800 123.145  1.00  0.00    -0.027 CG0
ATOM      9  G   UNL     1     138.880 136.348 122.103  1.00  0.00     0.000 G0
ENDBRANCH   5   6
ENDBRANCH   4   5
ENDBRANCH   3   4
ENDBRANCH   1   3
BRANCH   1  10
ATOM     10  C   UNL     1     135.854 137.355 124.289  1.00  0.00     0.057 C 
BRANCH  10  11
ATOM     11  C   UNL     1     136.814 138.444 123.869  1.00  0.00    -0.026 C 
ATOM     12  C   UNL     1     137.597 138.464 122.767  1.00  0.00    -0.024 C 
BRANCH  12  13
ATOM     13  C   UNL     1     137.760 137.372 121.703  1.00  0.00    -0.014 C 
ATOM     14  C   UNL     1     137.945 138.042 120.318  1.00  0.00     0.016 C 
ATOM     15  C   UNL     1     136.420 136.598 121.640  1.00  0.00     0.016 C 
BRANCH  13  16
ATOM     16  C   UNL     1     138.885 136.343 122.105  1.00  0.00     0.038 CG0
ATOM     17  G   UNL     1     139.891 136.807 123.146  1.00  0.00     0.000 G0
ENDBRANCH  13  16
ENDBRANCH  12  13
ENDBRANCH  10  11
ENDBRANCH   1  10
TORSDOF 0
ENDMDL
MODEL 4
REMARK VINA RESULT:    -0.095      2.029      3.999
REMARK INTER + INTRA:           0.637
REMARK INTER:                  -0.290
REMARK INTRA:                   0.927
REMARK UNBOUND:                 0.776
REMARK SMILES C=C1CC=CC(C)(C)CC=C(C)CCC1
REMARK SMILES IDX 2 1 1 2 15 3 14 4 13 5 11 6 12 7 10 8 3 10 4 11 5 12 6 13
REMARK SMILES IDX 7 14 8 15 9 16
REMARK H PARENT
REMARK Flexibility Score: 60.00
ROOT
ATOM      1  C   UNL     1     136.102 138.482 123.563  1.00  0.00    -0.074 C 
ATOM      2  C   UNL     1     135.462 139.651 123.372  1.00  0.00     0.008 C 
ENDROOT
BRANCH   1   3
ATOM      3  C   UNL     1     135.430 137.393 124.376  1.00  0.00     0.031 C 
BRANCH   3   4
ATOM      4  C   UNL     1     135.681 135.961 123.864  1.00  0.00     0.009 C 
BRANCH   4   5
ATOM      5  C   UNL     1     136.108 134.939 124.934  1.00  0.00     0.030 C 
BRANCH   5   6
ATOM      6  C   UNL     1     137.269 135.419 125.789  1.00  0.00    -0.077 C 
ATOM      7  C   UNL     1     136.965 135.928 127.176  1.00  0.00     0.039 C 
ATOM      8  C   UNL     1     138.562 135.421 125.381  1.00  0.00    -0.027 CG0
ATOM      9  G   UNL     1     139.072 134.853 124.066  1.00  0.00     0.000 G0
ENDBRANCH   5   6
ENDBRANCH   4   5
ENDBRANCH   3   4
ENDBRANCH   1   3
BRANCH   1  10
ATOM     10  C   UNL     1     137.573 138.303 123.214  1.00  0.00     0.057 C 
BRANCH  10  11
ATOM     11  C   UNL     1     137.841 137.384 122.045  1.00  0.00    -0.026 C 
ATOM     12  C   UNL     1     138.718 136.357 121.995  1.00  0.00    -0.024 C 
BRANCH  12  13
ATOM     13  C   UNL     1     139.703 135.902 123.079  1.00  0.00    -0.014 C 
ATOM     14  C   UNL     1     140.328 137.152 123.748  1.00  0.00     0.016 C 
ATOM     15  C   UNL     1     140.861 135.166 122.359  1.00  0.00     0.016 C 
BRANCH  13  16
ATOM     16  C   UNL     1     139.033 134.876 124.070  1.00  0.00     0.038 CG0
ATOM     17  G   UNL     1     138.550 135.431 125.401  1.00  0.00     0.000 G0
ENDBRANCH  13  16
ENDBRANCH  12  13
ENDBRANCH  10  11
ENDBRANCH   1  10
TORSDOF 0
ENDMDL
MODEL 5
REMARK VINA RESULT:     0.550      1.495      2.863
REMARK INTER + INTRA:           1.584
REMARK INTER:                   0.278
REMARK INTRA:                   1.306
REMARK UNBOUND:                 0.776
REMARK SMILES C=C1CC=CC(C)(C)CC=C(C)CCC1
REMARK SMILES IDX 2 1 1 2 15 3 14 4 13 5 11 6 12 7 10 8 3 10 4 11 5 12 6 13
REMARK SMILES IDX 7 14 8 15 9 16
REMARK H PARENT
REMARK Flexibility Score: 60.00
ROOT
ATOM      1  C   UNL     1     139.831 135.400 123.108  1.00  0.00    -0.074 C 
ATOM      2  C   UNL     1     140.902 134.894 122.468  1.00  0.00     0.008 C 
ENDROOT
BRANCH   1   3
ATOM      3  C   UNL     1     139.991 135.927 124.520  1.00  0.00     0.031 C 
BRANCH   3   4
ATOM      4  C   UNL     1     139.315 135.069 125.608  1.00  0.00     0.009 C 
BRANCH   4   5
ATOM      5  C   UNL     1     137.795 134.875 125.450  1.00  0.00     0.030 C 
BRANCH   5   6
ATOM      6  C   UNL     1     136.984 136.038 125.997  1.00  0.00    -0.077 C 
ATOM      7  C   UNL     1     137.095 136.349 127.469  1.00  0.00     0.039 C 
ATOM      8  C   UNL     1     136.163 136.811 125.244  1.00  0.00    -0.027 CG0
ATOM      9  G   UNL     1     136.003 136.718 123.735  1.00  0.00     0.000 G0
ENDBRANCH   5   6
ENDBRANCH   4   5
ENDBRANCH   3   4
ENDBRANCH   1   3
BRANCH   1  10
ATOM     10  C   UNL     1     138.417 135.231 122.569  1.00  0.00     0.057 C 
BRANCH  10  11
ATOM     11  C   UNL     1     138.029 136.210 121.485  1.00  0.00    -0.026 C 
ATOM     12  C   UNL     1     137.302 137.341 121.624  1.00  0.00    -0.024 C 
BRANCH  12  13
ATOM     13  C   UNL     1     136.634 137.884 122.894  1.00  0.00    -0.014 C 
ATOM     14  C   UNL     1     135.662 139.025 122.502  1.00  0.00     0.016 C 
ATOM     15  C   UNL     1     137.749 138.533 123.750  1.00  0.00     0.016 C 
BRANCH  13  16
ATOM     16  C   UNL     1     135.994 136.723 123.747  1.00  0.00     0.038 CG0
ATOM     17  G   UNL     1     136.169 136.810 125.255  1.00  0.00     0.000 G0
ENDBRANCH  13  16
ENDBRANCH  12  13
ENDBRANCH  10  11
ENDBRANCH   1  10
TORSDOF 0
ENDMDL
MODEL 6
REMARK VINA RESULT:     0.819     13.169     15.724
REMARK INTER + INTRA:           1.978
REMARK INTER:                  -0.419
REMARK INTRA:                   2.397
REMARK UNBOUND:                 0.776
REMARK SMILES C=C1CC=CC(C)(C)CC=C(C)CCC1
REMARK SMILES IDX 2 1 1 2 15 3 14 4 13 5 11 6 12 7 10 8 3 10 4 11 5 12 6 13
REMARK SMILES IDX 7 14 8 15 9 16
REMARK H PARENT
REMARK Flexibility Score: 60.00
ROOT
ATOM      1  C   UNL     1     136.350 154.406 124.857  1.00  0.00    -0.074 C 
ATOM      2  C   UNL     1     137.432 155.054 124.386  1.00  0.00     0.008 C 
ENDROOT
BRANCH   1   3
ATOM      3  C   UNL     1     136.440 153.679 126.184  1.00  0.00     0.031 C 
BRANCH   3   4
ATOM      4  C   UNL     1     135.407 152.549 126.370  1.00  0.00     0.009 C 
BRANCH   4   5
ATOM      5  C   UNL     1     134.939 151.859 125.075  1.00  0.00     0.030 C 
BRANCH   5   6
ATOM      6  C   UNL     1     135.897 150.783 124.591  1.00  0.00    -0.077 C 
ATOM      7  C   UNL     1     136.458 149.823 125.610  1.00  0.00     0.039 C 
ATOM      8  C   UNL     1     136.282 150.635 123.300  1.00  0.00    -0.027 CG0
ATOM      9  G   UNL     1     135.746 151.434 122.123  1.00  0.00     0.000 G0
ENDBRANCH   5   6
ENDBRANCH   4   5
ENDBRANCH   3   4
ENDBRANCH   1   3
BRANCH   1  10
ATOM     10  C   UNL     1     135.120 154.161 123.994  1.00  0.00     0.057 C 
BRANCH  10  11
ATOM     11  C   UNL     1     135.256 154.601 122.555  1.00  0.00    -0.026 C 
ATOM     12  C   UNL     1     135.885 153.946 121.554  1.00  0.00    -0.024 C 
BRANCH  12  13
ATOM     13  C   UNL     1     136.672 152.632 121.633  1.00  0.00    -0.014 C 
ATOM     14  C   UNL     1     137.959 152.865 122.463  1.00  0.00     0.016 C 
ATOM     15  C   UNL     1     137.134 152.294 120.193  1.00  0.00     0.016 C 
BRANCH  13  16
ATOM     16  C   UNL     1     135.759 151.446 122.129  1.00  0.00     0.038 CG0
ATOM     17  G   UNL     1     136.285 150.624 123.295  1.00  0.00     0.000 G0
ENDBRANCH  13  16
ENDBRANCH  12  13
ENDBRANCH  10  11
ENDBRANCH   1  10
TORSDOF 0
ENDMDL
MODEL 7
REMARK VINA RESULT:     0.898      1.648      3.669
REMARK INTER + INTRA:           2.094
REMARK INTER:                  -0.426
REMARK INTRA:                   2.520
REMARK UNBOUND:                 0.776
REMARK SMILES C=C1CC=CC(C)(C)CC=C(C)CCC1
REMARK SMILES IDX 2 1 1 2 15 3 14 4 13 5 11 6 12 7 10 8 3 10 4 11 5 12 6 13
REMARK SMILES IDX 7 14 8 15 9 16
REMARK H PARENT
REMARK Flexibility Score: 60.00
ROOT
ATOM      1  C   UNL     1     135.902 136.166 123.847  1.00  0.00    -0.074 C 
ATOM      2  C   UNL     1     135.244 136.188 122.673  1.00  0.00     0.008 C 
ENDROOT
BRANCH   1   3
ATOM      3  C   UNL     1     135.992 137.435 124.672  1.00  0.00     0.031 C 
BRANCH   3   4
ATOM      4  C   UNL     1     136.889 138.533 124.067  1.00  0.00     0.009 C 
BRANCH   4   5
ATOM      5  C   UNL     1     136.816 138.680 122.536  1.00  0.00     0.030 C 
BRANCH   5   6
ATOM      6  C   UNL     1     137.873 137.868 121.806  1.00  0.00    -0.077 C 
ATOM      7  C   UNL     1     137.738 137.708 120.312  1.00  0.00     0.039 C 
ATOM      8  C   UNL     1     138.928 137.274 122.415  1.00  0.00    -0.027 CG0
ATOM      9  G   UNL     1     139.287 137.409 123.886  1.00  0.00     0.000 G0
ENDBRANCH   5   6
ENDBRANCH   4   5
ENDBRANCH   3   4
ENDBRANCH   1   3
BRANCH   1  10
ATOM     10  C   UNL     1     136.775 134.988 124.258  1.00  0.00     0.057 C 
BRANCH  10  11
ATOM     11  C   UNL     1     137.536 135.182 125.549  1.00  0.00    -0.026 C 
ATOM     12  C   UNL     1     138.788 135.669 125.697  1.00  0.00    -0.024 C 
BRANCH  12  13
ATOM     13  C   UNL     1     139.775 136.087 124.599  1.00  0.00    -0.014 C 
ATOM     14  C   UNL     1     140.034 134.876 123.668  1.00  0.00     0.016 C 
ATOM     15  C   UNL     1     141.122 136.400 125.297  1.00  0.00     0.016 C 
BRANCH  13  16
ATOM     16  C   UNL     1     139.300 137.402 123.872  1.00  0.00     0.038 CG0
ATOM     17  G   UNL     1     138.951 137.276 122.397  1.00  0.00     0.000 G0
ENDBRANCH  13  16
ENDBRANCH  12  13
ENDBRANCH  10  11
ENDBRANCH   1  10
TORSDOF 0
ENDMDL
MODEL 8
REMARK VINA RESULT:     0.916     14.780     16.748
REMARK INTER + INTRA:           2.120
REMARK INTER:                  -0.852
REMARK INTRA:                   2.972
REMARK UNBOUND:                 0.776
REMARK SMILES C=C1CC=CC(C)(C)CC=C(C)CCC1
REMARK SMILES IDX 2 1 1 2 15 3 14 4 13 5 11 6 12 7 10 8 3 10 4 11 5 12 6 13
REMARK SMILES IDX 7 14 8 15 9 16
REMARK H PARENT
REMARK Flexibility Score: 60.00
ROOT
ATOM      1  C   UNL     1     155.036 138.703 124.401  1.00  0.00    -0.074 C 
ATOM      2  C   UNL     1     154.936 140.039 124.536  1.00  0.00     0.008 C 
ENDROOT
BRANCH   1   3
ATOM      3  C   UNL     1     155.125 138.102 123.013  1.00  0.00     0.031 C 
BRANCH   3   4
ATOM      4  C   UNL     1     155.113 139.131 121.865  1.00  0.00     0.009 C 
BRANCH   4   5
ATOM      5  C   UNL     1     153.766 139.298 121.137  1.00  0.00     0.030 C 
BRANCH   5   6
ATOM      6  C   UNL     1     153.081 137.975 120.837  1.00  0.00    -0.077 C 
ATOM      7  C   UNL     1     153.046 137.503 119.404  1.00  0.00     0.039 C 
ATOM      8  C   UNL     1     152.495 137.193 121.777  1.00  0.00    -0.027 CG0
ATOM      9  G   UNL     1     152.520 137.448 123.275  1.00  0.00     0.000 G0
ENDBRANCH   5   6
ENDBRANCH   4   5
ENDBRANCH   3   4
ENDBRANCH   1   3
BRANCH   1  10
ATOM     10  C   UNL     1     154.807 137.757 125.572  1.00  0.00     0.057 C 
BRANCH  10  11
ATOM     11  C   UNL     1     154.763 136.292 125.205  1.00  0.00    -0.026 C 
ATOM     12  C   UNL     1     153.747 135.627 124.610  1.00  0.00    -0.024 C 
BRANCH  12  13
ATOM     13  C   UNL     1     152.367 136.166 124.216  1.00  0.00    -0.014 C 
ATOM     14  C   UNL     1     151.520 136.365 125.498  1.00  0.00     0.016 C 
ATOM     15  C   UNL     1     151.664 135.056 123.395  1.00  0.00     0.016 C 
BRANCH  13  16
ATOM     16  C   UNL     1     152.490 137.436 123.291  1.00  0.00     0.038 CG0
ATOM     17  G   UNL     1     152.508 137.187 121.792  1.00  0.00     0.000 G0
ENDBRANCH  13  16
ENDBRANCH  12  13
ENDBRANCH  10  11
ENDBRANCH   1  10
TORSDOF 0
ENDMDL
