MODEL 1
REMARK VINA RESULT:    -3.726      0.000      0.000
REMARK INTER + INTRA:          -9.877
REMARK INTER:                  -6.994
REMARK INTRA:                  -2.883
REMARK UNBOUND:                -2.883
REMARK SMILES CCCCCC=CCC=CCCCCCCCC(=O)OC
REMARK SMILES IDX 11 1 10 2 9 3 8 4 7 5 6 6 5 7 4 8 3 9 2 10 1 11 12 12 13 13
REMARK SMILES IDX 14 14 15 15 16 16 17 17 18 18 19 19 20 20 21 21
REMARK H PARENT
REMARK Flexibility Score: inf
ROOT
ATOM      1  C   UNL     1       8.701   2.135 -11.832  1.00  0.00     0.027 C 
ENDROOT
BRANCH   1   2
ATOM      2  C   UNL     1       9.267   1.958 -10.451  1.00  0.00    -0.031 C 
ATOM      3  C   UNL     1      10.541   1.580 -10.252  1.00  0.00    -0.027 C 
BRANCH   3   4
ATOM      4  C   UNL     1      11.104   1.441  -8.866  1.00  0.00     0.054 C 
BRANCH   4   5
ATOM      5  C   UNL     1      10.507   2.476  -7.944  1.00  0.00    -0.027 C 
ATOM      6  C   UNL     1       9.712   2.181  -6.899  1.00  0.00    -0.031 C 
BRANCH   6   7
ATOM      7  C   UNL     1       9.225   0.792  -6.569  1.00  0.00     0.027 C 
BRANCH   7   8
ATOM      8  C   UNL     1       7.860   0.527  -7.223  1.00  0.00     0.004 C 
BRANCH   8   9
ATOM      9  C   UNL     1       7.678  -0.939  -7.656  1.00  0.00     0.000 C 
BRANCH   9  10
ATOM     10  C   UNL     1       8.697  -1.401  -8.719  1.00  0.00    -0.003 C 
ATOM     11  C   UNL     1       8.073  -1.547 -10.107  1.00  0.00     0.004 C 
ENDBRANCH   9  10
ENDBRANCH   8   9
ENDBRANCH   7   8
ENDBRANCH   6   7
ENDBRANCH   4   5
ENDBRANCH   3   4
ENDBRANCH   1   2
BRANCH   1  12
ATOM     12  C   UNL     1       7.201   1.810 -11.868  1.00  0.00     0.004 C 
BRANCH  12  13
ATOM     13  C   UNL     1       6.571   1.740 -10.466  1.00  0.00     0.000 C 
BRANCH  13  14
ATOM     14  C   UNL     1       5.031   1.631 -10.487  1.00  0.00     0.000 C 
BRANCH  14  15
ATOM     15  C   UNL     1       4.483   0.928  -9.233  1.00  0.00     0.001 C 
BRANCH  15  16
ATOM     16  C   UNL     1       4.537  -0.604  -9.342  1.00  0.00     0.012 C 
BRANCH  16  17
ATOM     17  C   UNL     1       3.883  -1.305  -8.144  1.00  0.00     0.123 C 
BRANCH  17  18
ATOM     18  C   UNL     1       2.403  -1.402  -8.344  1.00  0.00     0.305 C 
ATOM     19  O   UNL     1       1.944  -1.946  -9.386  1.00  0.00    -0.252 OA
BRANCH  18  20
ATOM     20  O   UNL     1       1.544  -0.849  -7.390  1.00  0.00    -0.469 OA
ATOM     21  C   UNL     1       0.807   0.345  -7.622  1.00  0.00     0.282 C 
ENDBRANCH  18  20
ENDBRANCH  17  18
ENDBRANCH  16  17
ENDBRANCH  15  16
ENDBRANCH  14  15
ENDBRANCH  13  14
ENDBRANCH  12  13
ENDBRANCH   1  12
TORSDOF 15
ENDMDL
MODEL 2
REMARK VINA RESULT:    -3.675      1.399      3.205
REMARK INTER + INTRA:          -9.780
REMARK INTER:                  -7.465
REMARK INTRA:                  -2.315
REMARK UNBOUND:                -2.883
REMARK SMILES CCCCCC=CCC=CCCCCCCCC(=O)OC
REMARK SMILES IDX 11 1 10 2 9 3 8 4 7 5 6 6 5 7 4 8 3 9 2 10 1 11 12 12 13 13
REMARK SMILES IDX 14 14 15 15 16 16 17 17 18 18 19 19 20 20 21 21
REMARK H PARENT
REMARK Flexibility Score: inf
ROOT
ATOM      1  C   UNL     1       7.260  -0.887  -7.684  1.00  0.00     0.027 C 
ENDROOT
BRANCH   1   2
ATOM      2  C   UNL     1       8.519  -0.304  -7.105  1.00  0.00    -0.031 C 
ATOM      3  C   UNL     1       8.637   1.010  -6.851  1.00  0.00    -0.027 C 
BRANCH   3   4
ATOM      4  C   UNL     1       9.888   1.574  -6.240  1.00  0.00     0.054 C 
BRANCH   4   5
ATOM      5  C   UNL     1      10.267   2.873  -6.908  1.00  0.00    -0.027 C 
ATOM      6  C   UNL     1      11.000   2.952  -8.034  1.00  0.00    -0.031 C 
BRANCH   6   7
ATOM      7  C   UNL     1      11.630   1.767  -8.721  1.00  0.00     0.027 C 
BRANCH   7   8
ATOM      8  C   UNL     1      11.056   1.592 -10.136  1.00  0.00     0.004 C 
BRANCH   8   9
ATOM      9  C   UNL     1      10.138   0.363 -10.262  1.00  0.00     0.000 C 
BRANCH   9  10
ATOM     10  C   UNL     1       8.770   0.676 -10.907  1.00  0.00    -0.003 C 
ATOM     11  C   UNL     1       8.211   2.031 -10.472  1.00  0.00     0.004 C 
ENDBRANCH   9  10
ENDBRANCH   8   9
ENDBRANCH   7   8
ENDBRANCH   6   7
ENDBRANCH   4   5
ENDBRANCH   3   4
ENDBRANCH   1   2
BRANCH   1  12
ATOM     12  C   UNL     1       6.248   0.211  -8.041  1.00  0.00     0.004 C 
BRANCH  12  13
ATOM     13  C   UNL     1       5.034  -0.324  -8.818  1.00  0.00     0.000 C 
BRANCH  13  14
ATOM     14  C   UNL     1       4.766   0.429 -10.139  1.00  0.00     0.000 C 
BRANCH  14  15
ATOM     15  C   UNL     1       3.620   1.447 -10.003  1.00  0.00     0.001 C 
BRANCH  15  16
ATOM     16  C   UNL     1       2.769   1.214  -8.745  1.00  0.00     0.012 C 
BRANCH  16  17
ATOM     17  C   UNL     1       1.411   0.572  -9.062  1.00  0.00     0.123 C 
BRANCH  17  18
ATOM     18  C   UNL     1       0.707   0.195  -7.796  1.00  0.00     0.305 C 
ATOM     19  O   UNL     1       1.127  -0.776  -7.109  1.00  0.00    -0.252 OA
BRANCH  18  20
ATOM     20  O   UNL     1      -0.435   0.901  -7.410  1.00  0.00    -0.469 OA
ATOM     21  C   UNL     1      -0.768   2.175  -7.948  1.00  0.00     0.282 C 
ENDBRANCH  18  20
ENDBRANCH  17  18
ENDBRANCH  16  17
ENDBRANCH  15  16
ENDBRANCH  14  15
ENDBRANCH  13  14
ENDBRANCH  12  13
ENDBRANCH   1  12
TORSDOF 15
ENDMDL
MODEL 3
REMARK VINA RESULT:    -3.658      1.621      3.748
REMARK INTER + INTRA:          -9.750
REMARK INTER:                  -7.549
REMARK INTRA:                  -2.201
REMARK UNBOUND:                -2.883
REMARK SMILES CCCCCC=CCC=CCCCCCCCC(=O)OC
REMARK SMILES IDX 11 1 10 2 9 3 8 4 7 5 6 6 5 7 4 8 3 9 2 10 1 11 12 12 13 13
REMARK SMILES IDX 14 14 15 15 16 16 17 17 18 18 19 19 20 20 21 21
REMARK H PARENT
REMARK Flexibility Score: inf
ROOT
ATOM      1  C   UNL     1       6.628  -0.967  -7.973  1.00  0.00     0.027 C 
ENDROOT
BRANCH   1   2
ATOM      2  C   UNL     1       7.954  -0.450  -7.489  1.00  0.00    -0.031 C 
ATOM      3  C   UNL     1       8.098   0.803  -7.027  1.00  0.00    -0.027 C 
BRANCH   3   4
ATOM      4  C   UNL     1       9.421   1.296  -6.513  1.00  0.00     0.054 C 
BRANCH   4   5
ATOM      5  C   UNL     1       9.883   2.496  -7.302  1.00  0.00    -0.027 C 
ATOM      6  C   UNL     1      10.692   2.424  -8.375  1.00  0.00    -0.031 C 
BRANCH   6   7
ATOM      7  C   UNL     1      11.330   1.151  -8.872  1.00  0.00     0.027 C 
BRANCH   7   8
ATOM      8  C   UNL     1      10.554   0.590 -10.074  1.00  0.00     0.004 C 
BRANCH   8   9
ATOM      9  C   UNL     1       9.647   1.637 -10.743  1.00  0.00     0.000 C 
BRANCH   9  10
ATOM     10  C   UNL     1       8.194   1.156 -10.950  1.00  0.00    -0.003 C 
ATOM     11  C   UNL     1       7.180   2.298 -10.873  1.00  0.00     0.004 C 
ENDBRANCH   9  10
ENDBRANCH   8   9
ENDBRANCH   7   8
ENDBRANCH   6   7
ENDBRANCH   4   5
ENDBRANCH   3   4
ENDBRANCH   1   2
BRANCH   1  12
ATOM     12  C   UNL     1       5.674   0.184  -8.323  1.00  0.00     0.004 C 
BRANCH  12  13
ATOM     13  C   UNL     1       4.343  -0.304  -8.920  1.00  0.00     0.000 C 
BRANCH  13  14
ATOM     14  C   UNL     1       3.648  -1.392  -8.072  1.00  0.00     0.000 C 
BRANCH  14  15
ATOM     15  C   UNL     1       2.136  -1.142  -7.937  1.00  0.00     0.001 C 
BRANCH  15  16
ATOM     16  C   UNL     1       1.496  -0.662  -9.249  1.00  0.00     0.012 C 
BRANCH  16  17
ATOM     17  C   UNL     1       0.564   0.540  -9.047  1.00  0.00     0.123 C 
BRANCH  17  18
ATOM     18  C   UNL     1       1.356   1.755  -8.680  1.00  0.00     0.305 C 
ATOM     19  O   UNL     1       1.289   2.219  -7.508  1.00  0.00    -0.252 OA
BRANCH  18  20
ATOM     20  O   UNL     1       2.132   2.389  -9.654  1.00  0.00    -0.469 OA
ATOM     21  C   UNL     1       1.758   2.430 -11.026  1.00  0.00     0.282 C 
ENDBRANCH  18  20
ENDBRANCH  17  18
ENDBRANCH  16  17
ENDBRANCH  15  16
ENDBRANCH  14  15
ENDBRANCH  13  14
ENDBRANCH  12  13
ENDBRANCH   1  12
TORSDOF 15
ENDMDL
MODEL 4
REMARK VINA RESULT:    -3.629      3.479      5.461
REMARK INTER + INTRA:          -9.694
REMARK INTER:                  -6.957
REMARK INTRA:                  -2.737
REMARK UNBOUND:                -2.883
REMARK SMILES CCCCCC=CCC=CCCCCCCCC(=O)OC
REMARK SMILES IDX 11 1 10 2 9 3 8 4 7 5 6 6 5 7 4 8 3 9 2 10 1 11 12 12 13 13
REMARK SMILES IDX 14 14 15 15 16 16 17 17 18 18 19 19 20 20 21 21
REMARK H PARENT
REMARK Flexibility Score: inf
ROOT
ATOM      1  C   UNL     1       5.691  -0.178  -8.392  1.00  0.00     0.027 C 
ENDROOT
BRANCH   1   2
ATOM      2  C   UNL     1       6.913   0.247  -7.625  1.00  0.00    -0.031 C 
ATOM      3  C   UNL     1       7.968  -0.569  -7.468  1.00  0.00    -0.027 C 
BRANCH   3   4
ATOM      4  C   UNL     1       9.196  -0.119  -6.729  1.00  0.00     0.054 C 
BRANCH   4   5
ATOM      5  C   UNL     1       9.171   1.375  -6.517  1.00  0.00    -0.027 C 
ATOM      6  C   UNL     1       9.905   2.247  -7.233  1.00  0.00    -0.031 C 
BRANCH   6   7
ATOM      7  C   UNL     1      10.926   1.847  -8.268  1.00  0.00     0.027 C 
BRANCH   7   8
ATOM      8  C   UNL     1      10.370   2.051  -9.686  1.00  0.00     0.004 C 
BRANCH   8   9
ATOM      9  C   UNL     1       9.941   0.733 -10.356  1.00  0.00     0.000 C 
BRANCH   9  10
ATOM     10  C   UNL     1       8.613   0.838 -11.136  1.00  0.00    -0.003 C 
ATOM     11  C   UNL     1       7.776   2.045 -10.712  1.00  0.00     0.004 C 
ENDBRANCH   9  10
ENDBRANCH   8   9
ENDBRANCH   7   8
ENDBRANCH   6   7
ENDBRANCH   4   5
ENDBRANCH   3   4
ENDBRANCH   1   2
BRANCH   1  12
ATOM     12  C   UNL     1       6.050  -1.163  -9.513  1.00  0.00     0.004 C 
BRANCH  12  13
ATOM     13  C   UNL     1       5.183  -2.433  -9.494  1.00  0.00     0.000 C 
BRANCH  13  14
ATOM     14  C   UNL     1       4.691  -2.823  -8.083  1.00  0.00     0.000 C 
BRANCH  14  15
ATOM     15  C   UNL     1       5.351  -4.118  -7.577  1.00  0.00     0.001 C 
BRANCH  15  16
ATOM     16  C   UNL     1       6.624  -3.852  -6.758  1.00  0.00     0.012 C 
BRANCH  16  17
ATOM     17  C   UNL     1       7.853  -4.576  -7.324  1.00  0.00     0.123 C 
BRANCH  17  18
ATOM     18  C   UNL     1       8.221  -5.734  -6.452  1.00  0.00     0.305 C 
ATOM     19  O   UNL     1       7.324  -6.352  -5.814  1.00  0.00    -0.252 OA
BRANCH  18  20
ATOM     20  O   UNL     1       9.565  -6.095  -6.321  1.00  0.00    -0.469 OA
ATOM     21  C   UNL     1      10.371  -6.468  -7.432  1.00  0.00     0.282 C 
ENDBRANCH  18  20
ENDBRANCH  17  18
ENDBRANCH  16  17
ENDBRANCH  15  16
ENDBRANCH  14  15
ENDBRANCH  13  14
ENDBRANCH  12  13
ENDBRANCH   1  12
TORSDOF 15
ENDMDL
MODEL 5
REMARK VINA RESULT:    -3.589      2.408      4.745
REMARK INTER + INTRA:          -9.619
REMARK INTER:                  -6.852
REMARK INTRA:                  -2.768
REMARK UNBOUND:                -2.883
REMARK SMILES CCCCCC=CCC=CCCCCCCCC(=O)OC
REMARK SMILES IDX 11 1 10 2 9 3 8 4 7 5 6 6 5 7 4 8 3 9 2 10 1 11 12 12 13 13
REMARK SMILES IDX 14 14 15 15 16 16 17 17 18 18 19 19 20 20 21 21
REMARK H PARENT
REMARK Flexibility Score: inf
ROOT
ATOM      1  C   UNL     1       9.894   2.283  -7.499  1.00  0.00     0.027 C 
ENDROOT
BRANCH   1   2
ATOM      2  C   UNL     1       9.419   2.090  -8.913  1.00  0.00    -0.031 C 
ATOM      3  C   UNL     1      10.252   1.691  -9.889  1.00  0.00    -0.027 C 
BRANCH   3   4
ATOM      4  C   UNL     1       9.756   1.469 -11.290  1.00  0.00     0.054 C 
BRANCH   4   5
ATOM      5  C   UNL     1       8.585   2.371 -11.589  1.00  0.00    -0.027 C 
ATOM      6  C   UNL     1       7.348   1.926 -11.876  1.00  0.00    -0.031 C 
BRANCH   6   7
ATOM      7  C   UNL     1       6.988   0.470 -12.043  1.00  0.00     0.027 C 
BRANCH   7   8
ATOM      8  C   UNL     1       5.828   0.089 -11.109  1.00  0.00     0.004 C 
BRANCH   8   9
ATOM      9  C   UNL     1       5.739   0.990  -9.865  1.00  0.00     0.000 C 
BRANCH   9  10
ATOM     10  C   UNL     1       4.627   0.576  -8.878  1.00  0.00    -0.003 C 
ATOM     11  C   UNL     1       3.792  -0.598  -9.392  1.00  0.00     0.004 C 
ENDBRANCH   9  10
ENDBRANCH   8   9
ENDBRANCH   7   8
ENDBRANCH   6   7
ENDBRANCH   4   5
ENDBRANCH   3   4
ENDBRANCH   1   2
BRANCH   1  12
ATOM     12  C   UNL     1       9.266   1.250  -6.553  1.00  0.00     0.004 C 
BRANCH  12  13
ATOM     13  C   UNL     1       8.053   0.533  -7.170  1.00  0.00     0.000 C 
BRANCH  13  14
ATOM     14  C   UNL     1       8.203  -1.003  -7.217  1.00  0.00     0.000 C 
BRANCH  14  15
ATOM     15  C   UNL     1       8.150  -1.546  -8.655  1.00  0.00     0.001 C 
BRANCH  15  16
ATOM     16  C   UNL     1       7.062  -2.614  -8.845  1.00  0.00     0.012 C 
BRANCH  16  17
ATOM     17  C   UNL     1       6.182  -2.788  -7.599  1.00  0.00     0.123 C 
BRANCH  17  18
ATOM     18  C   UNL     1       5.943  -4.241  -7.332  1.00  0.00     0.305 C 
ATOM     19  O   UNL     1       4.897  -4.797  -7.769  1.00  0.00    -0.252 OA
BRANCH  18  20
ATOM     20  O   UNL     1       6.863  -4.959  -6.563  1.00  0.00    -0.469 OA
ATOM     21  C   UNL     1       7.618  -6.045  -7.086  1.00  0.00     0.282 C 
ENDBRANCH  18  20
ENDBRANCH  17  18
ENDBRANCH  16  17
ENDBRANCH  15  16
ENDBRANCH  14  15
ENDBRANCH  13  14
ENDBRANCH  12  13
ENDBRANCH   1  12
TORSDOF 15
ENDMDL
MODEL 6
REMARK VINA RESULT:    -3.585      6.399      8.522
REMARK INTER + INTRA:          -9.613
REMARK INTER:                  -8.005
REMARK INTRA:                  -1.608
REMARK UNBOUND:                -2.883
REMARK SMILES CCCCCC=CCC=CCCCCCCCC(=O)OC
REMARK SMILES IDX 11 1 10 2 9 3 8 4 7 5 6 6 5 7 4 8 3 9 2 10 1 11 12 12 13 13
REMARK SMILES IDX 14 14 15 15 16 16 17 17 18 18 19 19 20 20 21 21
REMARK H PARENT
REMARK Flexibility Score: inf
ROOT
ATOM      1  C   UNL     1       7.998  -4.617  -5.113  1.00  0.00     0.027 C 
ENDROOT
BRANCH   1   2
ATOM      2  C   UNL     1       8.701  -3.451  -5.751  1.00  0.00    -0.031 C 
ATOM      3  C   UNL     1       8.319  -2.963  -6.942  1.00  0.00    -0.027 C 
BRANCH   3   4
ATOM      4  C   UNL     1       9.008  -1.775  -7.552  1.00  0.00     0.054 C 
BRANCH   4   5
ATOM      5  C   UNL     1       8.683  -0.519  -6.782  1.00  0.00    -0.027 C 
ATOM      6  C   UNL     1       7.814   0.418  -7.205  1.00  0.00    -0.031 C 
BRANCH   6   7
ATOM      7  C   UNL     1       7.128   0.393  -8.548  1.00  0.00     0.027 C 
BRANCH   7   8
ATOM      8  C   UNL     1       5.617   0.163  -8.382  1.00  0.00     0.004 C 
BRANCH   8   9
ATOM      9  C   UNL     1       5.238  -1.328  -8.359  1.00  0.00     0.000 C 
BRANCH   9  10
ATOM     10  C   UNL     1       5.743  -2.114  -9.588  1.00  0.00    -0.003 C 
ATOM     11  C   UNL     1       5.667  -3.628  -9.389  1.00  0.00     0.004 C 
ENDBRANCH   9  10
ENDBRANCH   8   9
ENDBRANCH   7   8
ENDBRANCH   6   7
ENDBRANCH   4   5
ENDBRANCH   3   4
ENDBRANCH   1   2
BRANCH   1  12
ATOM     12  C   UNL     1       8.934  -5.386  -4.169  1.00  0.00     0.004 C 
BRANCH  12  13
ATOM     13  C   UNL     1       9.238  -4.618  -2.872  1.00  0.00     0.000 C 
BRANCH  13  14
ATOM     14  C   UNL     1       9.299  -5.520  -1.620  1.00  0.00     0.000 C 
BRANCH  14  15
ATOM     15  C   UNL     1       8.207  -6.604  -1.634  1.00  0.00     0.001 C 
BRANCH  15  16
ATOM     16  C   UNL     1       7.946  -7.198  -0.241  1.00  0.00     0.012 C 
BRANCH  16  17
ATOM     17  C   UNL     1       8.091  -6.161   0.880  1.00  0.00     0.123 C 
BRANCH  17  18
ATOM     18  C   UNL     1       6.778  -5.493   1.143  1.00  0.00     0.305 C 
ATOM     19  O   UNL     1       5.706  -6.153   1.048  1.00  0.00    -0.252 OA
BRANCH  18  20
ATOM     20  O   UNL     1       6.750  -4.130   1.450  1.00  0.00    -0.469 OA
ATOM     21  C   UNL     1       7.539  -3.171   0.757  1.00  0.00     0.282 C 
ENDBRANCH  18  20
ENDBRANCH  17  18
ENDBRANCH  16  17
ENDBRANCH  15  16
ENDBRANCH  14  15
ENDBRANCH  13  14
ENDBRANCH  12  13
ENDBRANCH   1  12
TORSDOF 15
ENDMDL
MODEL 7
REMARK VINA RESULT:    -3.581      1.728      4.008
REMARK INTER + INTRA:          -9.604
REMARK INTER:                  -7.184
REMARK INTRA:                  -2.420
REMARK UNBOUND:                -2.883
REMARK SMILES CCCCCC=CCC=CCCCCCCCC(=O)OC
REMARK SMILES IDX 11 1 10 2 9 3 8 4 7 5 6 6 5 7 4 8 3 9 2 10 1 11 12 12 13 13
REMARK SMILES IDX 14 14 15 15 16 16 17 17 18 18 19 19 20 20 21 21
REMARK H PARENT
REMARK Flexibility Score: inf
ROOT
ATOM      1  C   UNL     1       7.287  -3.254  -8.046  1.00  0.00     0.027 C 
ENDROOT
BRANCH   1   2
ATOM      2  C   UNL     1       7.716  -1.884  -7.598  1.00  0.00    -0.031 C 
ATOM      3  C   UNL     1       7.043  -0.779  -7.962  1.00  0.00    -0.027 C 
BRANCH   3   4
ATOM      4  C   UNL     1       7.461   0.580  -7.478  1.00  0.00     0.054 C 
BRANCH   4   5
ATOM      5  C   UNL     1       8.732   0.489  -6.670  1.00  0.00    -0.027 C 
ATOM      6  C   UNL     1       9.749   1.364  -6.768  1.00  0.00    -0.031 C 
BRANCH   6   7
ATOM      7  C   UNL     1       9.804   2.491  -7.768  1.00  0.00     0.027 C 
BRANCH   7   8
ATOM      8  C   UNL     1      10.502   2.036  -9.060  1.00  0.00     0.004 C 
BRANCH   8   9
ATOM      9  C   UNL     1       9.515   1.768 -10.210  1.00  0.00     0.000 C 
BRANCH   9  10
ATOM     10  C   UNL     1       9.693   0.382 -10.868  1.00  0.00    -0.003 C 
ATOM     11  C   UNL     1      10.300  -0.647  -9.915  1.00  0.00     0.004 C 
ENDBRANCH   9  10
ENDBRANCH   8   9
ENDBRANCH   7   8
ENDBRANCH   6   7
ENDBRANCH   4   5
ENDBRANCH   3   4
ENDBRANCH   1   2
BRANCH   1  12
ATOM     12  C   UNL     1       6.258  -3.861  -7.083  1.00  0.00     0.004 C 
BRANCH  12  13
ATOM     13  C   UNL     1       4.916  -4.178  -7.764  1.00  0.00     0.000 C 
BRANCH  13  14
ATOM     14  C   UNL     1       4.901  -3.862  -9.275  1.00  0.00     0.000 C 
BRANCH  14  15
ATOM     15  C   UNL     1       4.022  -2.643  -9.604  1.00  0.00     0.001 C 
BRANCH  15  16
ATOM     16  C   UNL     1       3.462  -1.961  -8.346  1.00  0.00     0.012 C 
BRANCH  16  17
ATOM     17  C   UNL     1       3.139  -0.478  -8.572  1.00  0.00     0.123 C 
BRANCH  17  18
ATOM     18  C   UNL     1       1.804  -0.142  -7.984  1.00  0.00     0.305 C 
ATOM     19  O   UNL     1       1.325   1.016  -8.133  1.00  0.00    -0.252 OA
BRANCH  18  20
ATOM     20  O   UNL     1       1.119  -1.107  -7.240  1.00  0.00    -0.469 OA
ATOM     21  C   UNL     1      -0.105  -1.686  -7.676  1.00  0.00     0.282 C 
ENDBRANCH  18  20
ENDBRANCH  17  18
ENDBRANCH  16  17
ENDBRANCH  15  16
ENDBRANCH  14  15
ENDBRANCH  13  14
ENDBRANCH  12  13
ENDBRANCH   1  12
TORSDOF 15
ENDMDL
MODEL 8
REMARK VINA RESULT:    -3.548      1.618      3.650
REMARK INTER + INTRA:          -9.543
REMARK INTER:                  -7.017
REMARK INTRA:                  -2.526
REMARK UNBOUND:                -2.883
REMARK SMILES CCCCCC=CCC=CCCCCCCCC(=O)OC
REMARK SMILES IDX 11 1 10 2 9 3 8 4 7 5 6 6 5 7 4 8 3 9 2 10 1 11 12 12 13 13
REMARK SMILES IDX 14 14 15 15 16 16 17 17 18 18 19 19 20 20 21 21
REMARK H PARENT
REMARK Flexibility Score: inf
ROOT
ATOM      1  C   UNL     1       9.457   1.378  -6.681  1.00  0.00     0.027 C 
ENDROOT
BRANCH   1   2
ATOM      2  C   UNL     1       9.836   2.061  -7.966  1.00  0.00    -0.031 C 
ATOM      3  C   UNL     1      11.070   1.952  -8.485  1.00  0.00    -0.027 C 
BRANCH   3   4
ATOM      4  C   UNL     1      11.426   2.611  -9.788  1.00  0.00     0.054 C 
BRANCH   4   5
ATOM      5  C   UNL     1      11.350   1.620 -10.923  1.00  0.00    -0.027 C 
ATOM      6  C   UNL     1      10.528   1.751 -11.980  1.00  0.00    -0.031 C 
BRANCH   6   7
ATOM      7  C   UNL     1       9.499   2.844 -12.125  1.00  0.00     0.027 C 
BRANCH   7   8
ATOM      8  C   UNL     1       8.078   2.265 -12.052  1.00  0.00     0.004 C 
BRANCH   8   9
ATOM      9  C   UNL     1       7.911   1.227 -10.928  1.00  0.00     0.000 C 
BRANCH   9  10
ATOM     10  C   UNL     1       7.531  -0.180 -11.436  1.00  0.00    -0.003 C 
ATOM     11  C   UNL     1       8.494  -1.262 -10.944  1.00  0.00     0.004 C 
ENDBRANCH   9  10
ENDBRANCH   8   9
ENDBRANCH   7   8
ENDBRANCH   6   7
ENDBRANCH   4   5
ENDBRANCH   3   4
ENDBRANCH   1   2
BRANCH   1  12
ATOM     12  C   UNL     1       8.747   0.043  -6.947  1.00  0.00     0.004 C 
BRANCH  12  13
ATOM     13  C   UNL     1       7.320   0.221  -7.490  1.00  0.00     0.000 C 
BRANCH  13  14
ATOM     14  C   UNL     1       6.638  -1.108  -7.881  1.00  0.00     0.000 C 
BRANCH  14  15
ATOM     15  C   UNL     1       5.199  -0.894  -8.385  1.00  0.00     0.001 C 
BRANCH  15  16
ATOM     16  C   UNL     1       4.907   0.574  -8.734  1.00  0.00     0.012 C 
BRANCH  16  17
ATOM     17  C   UNL     1       4.101   0.723 -10.031  1.00  0.00     0.123 C 
BRANCH  17  18
ATOM     18  C   UNL     1       2.863   1.526  -9.784  1.00  0.00     0.305 C 
ATOM     19  O   UNL     1       2.780   2.706 -10.223  1.00  0.00    -0.252 OA
BRANCH  18  20
ATOM     20  O   UNL     1       1.824   0.972  -9.030  1.00  0.00    -0.469 OA
ATOM     21  C   UNL     1       1.143   1.697  -8.014  1.00  0.00     0.282 C 
ENDBRANCH  18  20
ENDBRANCH  17  18
ENDBRANCH  16  17
ENDBRANCH  15  16
ENDBRANCH  14  15
ENDBRANCH  13  14
ENDBRANCH  12  13
ENDBRANCH   1  12
TORSDOF 15
ENDMDL
MODEL 9
REMARK VINA RESULT:    -3.545      2.068      2.900
REMARK INTER + INTRA:          -9.536
REMARK INTER:                  -6.892
REMARK INTRA:                  -2.644
REMARK UNBOUND:                -2.883
REMARK SMILES CCCCCC=CCC=CCCCCCCCC(=O)OC
REMARK SMILES IDX 11 1 10 2 9 3 8 4 7 5 6 6 5 7 4 8 3 9 2 10 1 11 12 12 13 13
REMARK SMILES IDX 14 14 15 15 16 16 17 17 18 18 19 19 20 20 21 21
REMARK H PARENT
REMARK Flexibility Score: inf
ROOT
ATOM      1  C   UNL     1       6.943   1.999 -10.876  1.00  0.00     0.027 C 
ENDROOT
BRANCH   1   2
ATOM      2  C   UNL     1       8.054   2.016  -9.863  1.00  0.00    -0.031 C 
ATOM      3  C   UNL     1       9.303   1.634 -10.177  1.00  0.00    -0.027 C 
BRANCH   3   4
ATOM      4  C   UNL     1      10.411   1.689  -9.163  1.00  0.00     0.054 C 
BRANCH   4   5
ATOM      5  C   UNL     1       9.995   2.508  -7.966  1.00  0.00    -0.027 C 
ATOM      6  C   UNL     1       9.675   1.980  -6.770  1.00  0.00    -0.031 C 
BRANCH   6   7
ATOM      7  C   UNL     1       9.585   0.500  -6.493  1.00  0.00     0.027 C 
BRANCH   7   8
ATOM      8  C   UNL     1       8.215  -0.050  -6.920  1.00  0.00     0.004 C 
BRANCH   8   9
ATOM      9  C   UNL     1       8.256  -1.545  -7.281  1.00  0.00     0.000 C 
BRANCH   9  10
ATOM     10  C   UNL     1       9.182  -1.869  -8.474  1.00  0.00    -0.003 C 
ATOM     11  C   UNL     1       8.443  -1.852  -9.812  1.00  0.00     0.004 C 
ENDBRANCH   9  10
ENDBRANCH   8   9
ENDBRANCH   7   8
ENDBRANCH   6   7
ENDBRANCH   4   5
ENDBRANCH   3   4
ENDBRANCH   1   2
BRANCH   1  12
ATOM     12  C   UNL     1       5.946   0.867 -10.593  1.00  0.00     0.004 C 
BRANCH  12  13
ATOM     13  C   UNL     1       4.596   1.378 -10.062  1.00  0.00     0.000 C 
BRANCH  13  14
ATOM     14  C   UNL     1       3.946   0.438  -9.024  1.00  0.00     0.000 C 
BRANCH  14  15
ATOM     15  C   UNL     1       4.950  -0.581  -8.456  1.00  0.00     0.001 C 
BRANCH  15  16
ATOM     16  C   UNL     1       4.324  -1.967  -8.234  1.00  0.00     0.012 C 
BRANCH  16  17
ATOM     17  C   UNL     1       5.217  -3.107  -8.744  1.00  0.00     0.123 C 
BRANCH  17  18
ATOM     18  C   UNL     1       5.043  -4.324  -7.891  1.00  0.00     0.305 C 
ATOM     19  O   UNL     1       3.938  -4.934  -7.884  1.00  0.00    -0.252 OA
BRANCH  18  20
ATOM     20  O   UNL     1       6.097  -4.749  -7.078  1.00  0.00    -0.469 OA
ATOM     21  C   UNL     1       7.279  -5.343  -7.602  1.00  0.00     0.282 C 
ENDBRANCH  18  20
ENDBRANCH  17  18
ENDBRANCH  16  17
ENDBRANCH  15  16
ENDBRANCH  14  15
ENDBRANCH  13  14
ENDBRANCH  12  13
ENDBRANCH   1  12
TORSDOF 15
ENDMDL
