MODEL 1
REMARK VINA RESULT:    -3.326      0.000      0.000
REMARK INTER + INTRA:          -4.088
REMARK INTER:                  -4.007
REMARK INTRA:                  -0.081
REMARK UNBOUND:                -0.081
REMARK SMILES CC[C@H](C)[C@@H]([NH3+])C(=O)[O-]
REMARK SMILES IDX 3 1 4 2 5 3 6 4 7 8 8 9 9 10 2 11 1 12
REMARK H PARENT 6 5 6 6 6 7
REMARK Flexibility Score: inf
ROOT
ATOM      1  C   UNL     1       6.104  -0.626   0.153  1.00  0.00     0.050 C 
ATOM      2  C   UNL     1       5.142  -1.436  -0.733  1.00  0.00     0.014 C 
ENDROOT
BRANCH   1   3
ATOM      3  C   UNL     1       6.350   0.788  -0.478  1.00  0.00     0.230 C 
BRANCH   3   4
ATOM      4  N   UNL     1       6.926   0.704  -1.828  1.00  0.00    -0.350 N 
ATOM      5  H   UNL     1       7.801   0.130  -1.808  1.00  0.00     0.345 HD
ATOM      6  H   UNL     1       7.181   1.664  -2.159  1.00  0.00     0.345 HD
ATOM      7  H   UNL     1       6.261   0.288  -2.513  1.00  0.00     0.345 HD
ENDBRANCH   3   4
BRANCH   3   8
ATOM      8  C   UNL     1       5.122   1.668  -0.456  1.00  0.00     0.099 C 
ATOM      9  O   UNL     1       4.715   2.181   0.619  1.00  0.00    -0.544 OA
ATOM     10  O   UNL     1       4.453   1.946  -1.641  1.00  0.00    -0.544 OA
ENDBRANCH   3   8
ENDBRANCH   1   3
BRANCH   1  11
ATOM     11  C   UNL     1       7.376  -1.478   0.418  1.00  0.00     0.006 C 
ATOM     12  C   UNL     1       7.235  -2.480   1.564  1.00  0.00     0.004 C 
ENDBRANCH   1  11
TORSDOF 4
ENDMDL
MODEL 2
REMARK VINA RESULT:    -3.297      2.661      3.061
REMARK INTER + INTRA:          -4.052
REMARK INTER:                  -3.966
REMARK INTRA:                  -0.086
REMARK UNBOUND:                -0.081
REMARK SMILES CC[C@H](C)[C@@H]([NH3+])C(=O)[O-]
REMARK SMILES IDX 3 1 4 2 5 3 6 4 7 8 8 9 9 10 2 11 1 12
REMARK H PARENT 6 5 6 6 6 7
REMARK Flexibility Score: inf
ROOT
ATOM      1  C   UNL     1       5.312  -1.770   1.505  1.00  0.00     0.050 C 
ATOM      2  C   UNL     1       4.424  -3.026   1.541  1.00  0.00     0.014 C 
ENDROOT
BRANCH   1   3
ATOM      3  C   UNL     1       5.893  -1.567   0.063  1.00  0.00     0.230 C 
BRANCH   3   4
ATOM      4  N   UNL     1       4.853  -1.205  -0.912  1.00  0.00    -0.350 N 
ATOM      5  H   UNL     1       5.293  -0.792  -1.766  1.00  0.00     0.345 HD
ATOM      6  H   UNL     1       4.222  -0.482  -0.495  1.00  0.00     0.345 HD
ATOM      7  H   UNL     1       4.275  -2.025  -1.189  1.00  0.00     0.345 HD
ENDBRANCH   3   4
BRANCH   3   8
ATOM      8  C   UNL     1       7.050  -0.597   0.021  1.00  0.00     0.099 C 
ATOM      9  O   UNL     1       8.229  -1.006  -0.149  1.00  0.00    -0.544 OA
ATOM     10  O   UNL     1       6.811   0.766   0.135  1.00  0.00    -0.544 OA
ENDBRANCH   3   8
ENDBRANCH   1   3
BRANCH   1  11
ATOM     11  C   UNL     1       6.359  -1.864   2.650  1.00  0.00     0.006 C 
ATOM     12  C   UNL     1       5.847  -1.391   4.011  1.00  0.00     0.004 C 
ENDBRANCH   1  11
TORSDOF 4
ENDMDL
MODEL 3
REMARK VINA RESULT:    -3.249      6.852      8.227
REMARK INTER + INTRA:          -3.995
REMARK INTER:                  -3.931
REMARK INTRA:                  -0.065
REMARK UNBOUND:                -0.081
REMARK SMILES CC[C@H](C)[C@@H]([NH3+])C(=O)[O-]
REMARK SMILES IDX 3 1 4 2 5 3 6 4 7 8 8 9 9 10 2 11 1 12
REMARK H PARENT 6 5 6 6 6 7
REMARK Flexibility Score: inf
ROOT
ATOM      1  C   UNL     1       6.562   6.309  -5.606  1.00  0.00     0.050 C 
ATOM      2  C   UNL     1       8.026   5.959  -5.284  1.00  0.00     0.014 C 
ENDROOT
BRANCH   1   3
ATOM      3  C   UNL     1       5.626   5.120  -5.198  1.00  0.00     0.230 C 
BRANCH   3   4
ATOM      4  N   UNL     1       6.382   3.956  -4.712  1.00  0.00    -0.350 N 
ATOM      5  H   UNL     1       5.860   3.490  -3.934  1.00  0.00     0.345 HD
ATOM      6  H   UNL     1       7.304   4.273  -4.333  1.00  0.00     0.345 HD
ATOM      7  H   UNL     1       6.559   3.261  -5.467  1.00  0.00     0.345 HD
ENDBRANCH   3   4
BRANCH   3   8
ATOM      8  C   UNL     1       4.547   5.523  -4.222  1.00  0.00     0.099 C 
ATOM      9  O   UNL     1       3.992   6.651  -4.302  1.00  0.00    -0.544 OA
ATOM     10  O   UNL     1       4.132   4.628  -3.244  1.00  0.00    -0.544 OA
ENDBRANCH   3   8
ENDBRANCH   1   3
BRANCH   1  11
ATOM     11  C   UNL     1       6.472   6.764  -7.089  1.00  0.00     0.006 C 
ATOM     12  C   UNL     1       7.811   6.779  -7.826  1.00  0.00     0.004 C 
ENDBRANCH   1  11
TORSDOF 4
ENDMDL
MODEL 4
REMARK VINA RESULT:    -3.214      3.021      3.784
REMARK INTER + INTRA:          -3.952
REMARK INTER:                  -3.848
REMARK INTRA:                  -0.104
REMARK UNBOUND:                -0.081
REMARK SMILES CC[C@H](C)[C@@H]([NH3+])C(=O)[O-]
REMARK SMILES IDX 3 1 4 2 5 3 6 4 7 8 8 9 9 10 2 11 1 12
REMARK H PARENT 6 5 6 6 6 7
REMARK Flexibility Score: inf
ROOT
ATOM      1  C   UNL     1       6.799  -1.210   1.246  1.00  0.00     0.050 C 
ATOM      2  C   UNL     1       7.243  -2.634   1.624  1.00  0.00     0.014 C 
ENDROOT
BRANCH   1   3
ATOM      3  C   UNL     1       5.235  -1.112   1.275  1.00  0.00     0.230 C 
BRANCH   3   4
ATOM      4  N   UNL     1       4.595  -2.149   0.451  1.00  0.00    -0.350 N 
ATOM      5  H   UNL     1       5.324  -2.698  -0.062  1.00  0.00     0.345 HD
ATOM      6  H   UNL     1       3.977  -1.696  -0.261  1.00  0.00     0.345 HD
ATOM      7  H   UNL     1       4.017  -2.801   1.021  1.00  0.00     0.345 HD
ENDBRANCH   3   4
BRANCH   3   8
ATOM      8  C   UNL     1       4.668  -1.093   2.675  1.00  0.00     0.099 C 
ATOM      9  O   UNL     1       3.604  -1.708   2.948  1.00  0.00    -0.544 OA
ATOM     10  O   UNL     1       5.345  -0.420   3.683  1.00  0.00    -0.544 OA
ENDBRANCH   3   8
ENDBRANCH   1   3
BRANCH   1  11
ATOM     11  C   UNL     1       7.477  -0.815  -0.096  1.00  0.00     0.006 C 
ATOM     12  C   UNL     1       6.815   0.361  -0.813  1.00  0.00     0.004 C 
ENDBRANCH   1  11
TORSDOF 4
ENDMDL
MODEL 5
REMARK VINA RESULT:    -3.188      2.634      3.084
REMARK INTER + INTRA:          -3.921
REMARK INTER:                  -3.782
REMARK INTRA:                  -0.139
REMARK UNBOUND:                -0.081
REMARK SMILES CC[C@H](C)[C@@H]([NH3+])C(=O)[O-]
REMARK SMILES IDX 3 1 4 2 5 3 6 4 7 8 8 9 9 10 2 11 1 12
REMARK H PARENT 6 5 6 6 6 7
REMARK Flexibility Score: inf
ROOT
ATOM      1  C   UNL     1       6.775  -1.806   0.430  1.00  0.00     0.050 C 
ATOM      2  C   UNL     1       7.882  -0.791   0.092  1.00  0.00     0.014 C 
ENDROOT
BRANCH   1   3
ATOM      3  C   UNL     1       5.368  -1.173   0.153  1.00  0.00     0.230 C 
BRANCH   3   4
ATOM      4  N   UNL     1       5.460   0.076  -0.619  1.00  0.00    -0.350 N 
ATOM      5  H   UNL     1       5.673  -0.138  -1.621  1.00  0.00     0.345 HD
ATOM      6  H   UNL     1       6.241   0.661  -0.243  1.00  0.00     0.345 HD
ATOM      7  H   UNL     1       4.581   0.631  -0.569  1.00  0.00     0.345 HD
ENDBRANCH   3   4
BRANCH   3   8
ATOM      8  C   UNL     1       4.397  -2.142  -0.479  1.00  0.00     0.099 C 
ATOM      9  O   UNL     1       3.686  -2.900   0.233  1.00  0.00    -0.544 OA
ATOM     10  O   UNL     1       4.256  -2.174  -1.860  1.00  0.00    -0.544 OA
ENDBRANCH   3   8
ENDBRANCH   1   3
BRANCH   1  11
ATOM     11  C   UNL     1       7.007  -2.337   1.872  1.00  0.00     0.006 C 
ATOM     12  C   UNL     1       6.081  -1.727   2.923  1.00  0.00     0.004 C 
ENDBRANCH   1  11
TORSDOF 4
ENDMDL
MODEL 6
REMARK VINA RESULT:    -3.129      2.927      4.019
REMARK INTER + INTRA:          -3.850
REMARK INTER:                  -3.713
REMARK INTRA:                  -0.137
REMARK UNBOUND:                -0.081
REMARK SMILES CC[C@H](C)[C@@H]([NH3+])C(=O)[O-]
REMARK SMILES IDX 3 1 4 2 5 3 6 4 7 8 8 9 9 10 2 11 1 12
REMARK H PARENT 6 5 6 6 6 7
REMARK Flexibility Score: inf
ROOT
ATOM      1  C   UNL     1       6.305  -0.760   0.528  1.00  0.00     0.050 C 
ATOM      2  C   UNL     1       7.750  -0.765   0.000  1.00  0.00     0.014 C 
ENDROOT
BRANCH   1   3
ATOM      3  C   UNL     1       6.149  -1.824   1.668  1.00  0.00     0.230 C 
BRANCH   3   4
ATOM      4  N   UNL     1       7.369  -2.625   1.855  1.00  0.00    -0.350 N 
ATOM      5  H   UNL     1       7.356  -3.081   2.797  1.00  0.00     0.345 HD
ATOM      6  H   UNL     1       8.206  -1.999   1.814  1.00  0.00     0.345 HD
ATOM      7  H   UNL     1       7.471  -3.358   1.123  1.00  0.00     0.345 HD
ENDBRANCH   3   4
BRANCH   3   8
ATOM      8  C   UNL     1       5.675  -1.229   2.973  1.00  0.00     0.099 C 
ATOM      9  O   UNL     1       4.750  -0.375   2.995  1.00  0.00    -0.544 OA
ATOM     10  O   UNL     1       6.238  -1.654   4.169  1.00  0.00    -0.544 OA
ENDBRANCH   3   8
ENDBRANCH   1   3
BRANCH   1  11
ATOM     11  C   UNL     1       5.333  -0.911  -0.675  1.00  0.00     0.006 C 
ATOM     12  C   UNL     1       4.383  -2.104  -0.572  1.00  0.00     0.004 C 
ENDBRANCH   1  11
TORSDOF 4
ENDMDL
MODEL 7
REMARK VINA RESULT:    -3.116      1.775      2.181
REMARK INTER + INTRA:          -3.835
REMARK INTER:                  -3.956
REMARK INTRA:                   0.122
REMARK UNBOUND:                -0.081
REMARK SMILES CC[C@H](C)[C@@H]([NH3+])C(=O)[O-]
REMARK SMILES IDX 3 1 4 2 5 3 6 4 7 8 8 9 9 10 2 11 1 12
REMARK H PARENT 6 5 6 6 6 7
REMARK Flexibility Score: inf
ROOT
ATOM      1  C   UNL     1       6.437  -1.726   0.045  1.00  0.00     0.050 C 
ATOM      2  C   UNL     1       7.789  -1.057   0.349  1.00  0.00     0.014 C 
ENDROOT
BRANCH   1   3
ATOM      3  C   UNL     1       5.514  -0.733  -0.742  1.00  0.00     0.230 C 
BRANCH   3   4
ATOM      4  N   UNL     1       4.142  -0.707  -0.213  1.00  0.00    -0.350 N 
ATOM      5  H   UNL     1       3.558  -1.425  -0.700  1.00  0.00     0.345 HD
ATOM      6  H   UNL     1       3.716   0.231  -0.396  1.00  0.00     0.345 HD
ATOM      7  H   UNL     1       4.116  -0.885   0.813  1.00  0.00     0.345 HD
ENDBRANCH   3   4
BRANCH   3   8
ATOM      8  C   UNL     1       6.092   0.659  -0.844  1.00  0.00     0.099 C 
ATOM      9  O   UNL     1       5.929   1.495   0.084  1.00  0.00    -0.544 OA
ATOM     10  O   UNL     1       6.843   1.014  -1.957  1.00  0.00    -0.544 OA
ENDBRANCH   3   8
ENDBRANCH   1   3
BRANCH   1  11
ATOM     11  C   UNL     1       5.849  -2.291   1.368  1.00  0.00     0.006 C 
ATOM     12  C   UNL     1       6.317  -1.560   2.627  1.00  0.00     0.004 C 
ENDBRANCH   1  11
TORSDOF 4
ENDMDL
MODEL 8
REMARK VINA RESULT:    -3.062      6.780      8.161
REMARK INTER + INTRA:          -3.769
REMARK INTER:                  -3.680
REMARK INTRA:                  -0.089
REMARK UNBOUND:                -0.081
REMARK SMILES CC[C@H](C)[C@@H]([NH3+])C(=O)[O-]
REMARK SMILES IDX 3 1 4 2 5 3 6 4 7 8 8 9 9 10 2 11 1 12
REMARK H PARENT 6 5 6 6 6 7
REMARK Flexibility Score: inf
ROOT
ATOM      1  C   UNL     1       5.297   5.627  -5.042  1.00  0.00     0.050 C 
ATOM      2  C   UNL     1       5.724   4.180  -4.740  1.00  0.00     0.014 C 
ENDROOT
BRANCH   1   3
ATOM      3  C   UNL     1       4.225   5.640  -6.186  1.00  0.00     0.230 C 
BRANCH   3   4
ATOM      4  N   UNL     1       4.201   4.379  -6.942  1.00  0.00    -0.350 N 
ATOM      5  H   UNL     1       5.111   4.243  -7.440  1.00  0.00     0.345 HD
ATOM      6  H   UNL     1       3.444   4.420  -7.663  1.00  0.00     0.345 HD
ATOM      7  H   UNL     1       4.024   3.558  -6.327  1.00  0.00     0.345 HD
ENDBRANCH   3   4
BRANCH   3   8
ATOM      8  C   UNL     1       2.846   6.019  -5.702  1.00  0.00     0.099 C 
ATOM      9  O   UNL     1       2.188   6.927  -6.274  1.00  0.00    -0.544 OA
ATOM     10  O   UNL     1       2.278   5.336  -4.635  1.00  0.00    -0.544 OA
ENDBRANCH   3   8
ENDBRANCH   1   3
BRANCH   1  11
ATOM     11  C   UNL     1       6.570   6.481  -5.297  1.00  0.00     0.006 C 
ATOM     12  C   UNL     1       7.653   5.769  -6.107  1.00  0.00     0.004 C 
ENDBRANCH   1  11
TORSDOF 4
ENDMDL
MODEL 9
REMARK VINA RESULT:    -3.048      2.414      3.623
REMARK INTER + INTRA:          -3.753
REMARK INTER:                  -3.635
REMARK INTRA:                  -0.118
REMARK UNBOUND:                -0.081
REMARK SMILES CC[C@H](C)[C@@H]([NH3+])C(=O)[O-]
REMARK SMILES IDX 3 1 4 2 5 3 6 4 7 8 8 9 9 10 2 11 1 12
REMARK H PARENT 6 5 6 6 6 7
REMARK Flexibility Score: inf
ROOT
ATOM      1  C   UNL     1       6.151   0.735  -0.558  1.00  0.00     0.050 C 
ATOM      2  C   UNL     1       6.663   1.020  -1.980  1.00  0.00     0.014 C 
ENDROOT
BRANCH   1   3
ATOM      3  C   UNL     1       6.504  -0.735  -0.147  1.00  0.00     0.230 C 
BRANCH   3   4
ATOM      4  N   UNL     1       7.948  -0.925   0.062  1.00  0.00    -0.350 N 
ATOM      5  H   UNL     1       8.299  -0.243   0.773  1.00  0.00     0.345 HD
ATOM      6  H   UNL     1       8.456  -0.742  -0.834  1.00  0.00     0.345 HD
ATOM      7  H   UNL     1       8.174  -1.891   0.377  1.00  0.00     0.345 HD
ENDBRANCH   3   4
BRANCH   3   8
ATOM      8  C   UNL     1       5.707  -1.228   1.038  1.00  0.00     0.099 C 
ATOM      9  O   UNL     1       5.916  -0.770   2.192  1.00  0.00    -0.544 OA
ATOM     10  O   UNL     1       4.706  -2.171   0.851  1.00  0.00    -0.544 OA
ENDBRANCH   3   8
ENDBRANCH   1   3
BRANCH   1  11
ATOM     11  C   UNL     1       4.646   1.116  -0.482  1.00  0.00     0.006 C 
ATOM     12  C   UNL     1       4.368   2.447   0.216  1.00  0.00     0.004 C 
ENDBRANCH   1  11
TORSDOF 4
ENDMDL
