MODEL 1
REMARK VINA RESULT:    -6.355      0.000      0.000
REMARK INTER + INTRA:         -16.301
REMARK INTER:                 -13.784
REMARK INTRA:                  -2.516
REMARK UNBOUND:                -2.516
REMARK SMILES CCCCCCCCCCCCCCCCCCCCCC(=O)[O-]
REMARK SMILES IDX 12 1 11 2 10 3 9 4 8 5 7 6 6 7 5 8 4 9 3 10 2 11 1 12 13 13
REMARK SMILES IDX 14 14 15 15 16 16 17 17 18 18 19 19 20 20 21 21 22 22 23 23
REMARK SMILES IDX 24 24
REMARK H PARENT
REMARK Flexibility Score: inf
ROOT
ATOM      1  C   UNL     1      94.027  -3.921  10.322  1.00  0.00     0.000 C 
ENDROOT
BRANCH   1   2
ATOM      2  C   UNL     1      95.240  -4.840  10.580  1.00  0.00     0.000 C 
BRANCH   2   3
ATOM      3  C   UNL     1      96.526  -4.055  10.880  1.00  0.00     0.000 C 
BRANCH   3   4
ATOM      4  C   UNL     1      96.907  -3.149   9.703  1.00  0.00    -0.000 C 
BRANCH   4   5
ATOM      5  C   UNL     1      96.979  -3.952   8.395  1.00  0.00    -0.000 C 
BRANCH   5   6
ATOM      6  C   UNL     1      96.922  -3.055   7.149  1.00  0.00    -0.000 C 
BRANCH   6   7
ATOM      7  C   UNL     1      98.306  -2.514   6.749  1.00  0.00    -0.000 C 
BRANCH   7   8
ATOM      8  C   UNL     1      99.393  -3.599   6.778  1.00  0.00    -0.000 C 
BRANCH   8   9
ATOM      9  C   UNL     1      99.307  -4.552   5.575  1.00  0.00    -0.000 C 
BRANCH   9  10
ATOM     10  C   UNL     1      99.061  -6.014   5.988  1.00  0.00    -0.000 C 
BRANCH  10  11
ATOM     11  C   UNL     1      97.835  -6.653   5.303  1.00  0.00    -0.003 C 
ATOM     12  C   UNL     1      97.663  -8.127   5.670  1.00  0.00     0.004 C 
ENDBRANCH  10  11
ENDBRANCH   9  10
ENDBRANCH   8   9
ENDBRANCH   7   8
ENDBRANCH   6   7
ENDBRANCH   5   6
ENDBRANCH   4   5
ENDBRANCH   3   4
ENDBRANCH   2   3
ENDBRANCH   1   2
BRANCH   1  13
ATOM     13  C   UNL     1      93.083  -4.425   9.215  1.00  0.00     0.000 C 
BRANCH  13  14
ATOM     14  C   UNL     1      93.307  -3.800   7.825  1.00  0.00     0.000 C 
BRANCH  14  15
ATOM     15  C   UNL     1      92.730  -2.384   7.644  1.00  0.00     0.000 C 
BRANCH  15  16
ATOM     16  C   UNL     1      93.500  -1.549   6.610  1.00  0.00     0.000 C 
BRANCH  16  17
ATOM     17  C   UNL     1      92.534  -0.869   5.628  1.00  0.00     0.000 C 
BRANCH  17  18
ATOM     18  C   UNL     1      91.073  -1.297   5.837  1.00  0.00     0.000 C 
BRANCH  18  19
ATOM     19  C   UNL     1      90.380  -1.698   4.527  1.00  0.00     0.000 C 
BRANCH  19  20
ATOM     20  C   UNL     1      89.719  -3.079   4.658  1.00  0.00     0.006 C 
BRANCH  20  21
ATOM     21  C   UNL     1      89.706  -3.582   6.107  1.00  0.00     0.053 C 
BRANCH  21  22
ATOM     22  C   UNL     1      90.290  -4.957   6.223  1.00  0.00     0.041 C 
ATOM     23  O   UNL     1      91.094  -5.381   5.352  1.00  0.00    -0.550 OA
ATOM     24  O   UNL     1      89.912  -5.785   7.273  1.00  0.00    -0.550 OA
ENDBRANCH  21  22
ENDBRANCH  20  21
ENDBRANCH  19  20
ENDBRANCH  18  19
ENDBRANCH  17  18
ENDBRANCH  16  17
ENDBRANCH  15  16
ENDBRANCH  14  15
ENDBRANCH  13  14
ENDBRANCH   1  13
TORSDOF 20
ENDMDL
MODEL 2
REMARK VINA RESULT:    -6.278      2.304      7.116
REMARK INTER + INTRA:         -16.135
REMARK INTER:                 -13.812
REMARK INTRA:                  -2.323
REMARK UNBOUND:                -2.516
REMARK SMILES CCCCCCCCCCCCCCCCCCCCCC(=O)[O-]
REMARK SMILES IDX 12 1 11 2 10 3 9 4 8 5 7 6 6 7 5 8 4 9 3 10 2 11 1 12 13 13
REMARK SMILES IDX 14 14 15 15 16 16 17 17 18 18 19 19 20 20 21 21 22 22 23 23
REMARK SMILES IDX 24 24
REMARK H PARENT
REMARK Flexibility Score: inf
ROOT
ATOM      1  C   UNL     1      94.586  -4.881  10.483  1.00  0.00     0.000 C 
ENDROOT
BRANCH   1   2
ATOM      2  C   UNL     1      93.845  -3.697   9.824  1.00  0.00     0.000 C 
BRANCH   2   3
ATOM      3  C   UNL     1      93.909  -3.739   8.289  1.00  0.00     0.000 C 
BRANCH   3   4
ATOM      4  C   UNL     1      92.714  -3.008   7.667  1.00  0.00    -0.000 C 
BRANCH   4   5
ATOM      5  C   UNL     1      93.185  -1.843   6.783  1.00  0.00    -0.000 C 
BRANCH   5   6
ATOM      6  C   UNL     1      92.039  -0.893   6.400  1.00  0.00    -0.000 C 
BRANCH   6   7
ATOM      7  C   UNL     1      91.097  -1.500   5.346  1.00  0.00    -0.000 C 
BRANCH   7   8
ATOM      8  C   UNL     1      89.673  -1.712   5.882  1.00  0.00    -0.000 C 
BRANCH   8   9
ATOM      9  C   UNL     1      89.112  -3.101   5.533  1.00  0.00    -0.000 C 
BRANCH   9  10
ATOM     10  C   UNL     1      90.132  -3.989   4.799  1.00  0.00    -0.000 C 
BRANCH  10  11
ATOM     11  C   UNL     1      90.596  -5.209   5.622  1.00  0.00    -0.003 C 
ATOM     12  C   UNL     1      89.882  -5.310   6.969  1.00  0.00     0.004 C 
ENDBRANCH  10  11
ENDBRANCH   9  10
ENDBRANCH   8   9
ENDBRANCH   7   8
ENDBRANCH   6   7
ENDBRANCH   5   6
ENDBRANCH   4   5
ENDBRANCH   3   4
ENDBRANCH   2   3
ENDBRANCH   1   2
BRANCH   1  13
ATOM     13  C   UNL     1      96.050  -4.574  10.854  1.00  0.00     0.000 C 
BRANCH  13  14
ATOM     14  C   UNL     1      96.376  -3.083  11.061  1.00  0.00     0.000 C 
BRANCH  14  15
ATOM     15  C   UNL     1      97.166  -2.422   9.915  1.00  0.00     0.000 C 
BRANCH  15  16
ATOM     16  C   UNL     1      97.536  -3.407   8.796  1.00  0.00     0.000 C 
BRANCH  16  17
ATOM     17  C   UNL     1      97.438  -2.733   7.419  1.00  0.00     0.000 C 
BRANCH  17  18
ATOM     18  C   UNL     1      98.310  -3.421   6.357  1.00  0.00     0.000 C 
BRANCH  18  19
ATOM     19  C   UNL     1      99.518  -4.149   6.963  1.00  0.00     0.000 C 
BRANCH  19  20
ATOM     20  C   UNL     1      99.500  -5.640   6.594  1.00  0.00     0.006 C 
BRANCH  20  21
ATOM     21  C   UNL     1      98.550  -5.939   5.427  1.00  0.00     0.053 C 
BRANCH  21  22
ATOM     22  C   UNL     1      98.148  -7.382   5.394  1.00  0.00     0.041 C 
ATOM     23  O   UNL     1      97.070  -7.729   4.843  1.00  0.00    -0.550 OA
ATOM     24  O   UNL     1      98.946  -8.339   6.008  1.00  0.00    -0.550 OA
ENDBRANCH  21  22
ENDBRANCH  20  21
ENDBRANCH  19  20
ENDBRANCH  18  19
ENDBRANCH  17  18
ENDBRANCH  16  17
ENDBRANCH  15  16
ENDBRANCH  14  15
ENDBRANCH  13  14
ENDBRANCH   1  13
TORSDOF 20
ENDMDL
MODEL 3
REMARK VINA RESULT:    -6.217      1.928      2.151
REMARK INTER + INTRA:         -16.002
REMARK INTER:                 -13.932
REMARK INTRA:                  -2.069
REMARK UNBOUND:                -2.516
REMARK SMILES CCCCCCCCCCCCCCCCCCCCCC(=O)[O-]
REMARK SMILES IDX 12 1 11 2 10 3 9 4 8 5 7 6 6 7 5 8 4 9 3 10 2 11 1 12 13 13
REMARK SMILES IDX 14 14 15 15 16 16 17 17 18 18 19 19 20 20 21 21 22 22 23 23
REMARK SMILES IDX 24 24
REMARK H PARENT
REMARK Flexibility Score: inf
ROOT
ATOM      1  C   UNL     1      94.319  -5.010  10.273  1.00  0.00     0.000 C 
ENDROOT
BRANCH   1   2
ATOM      2  C   UNL     1      95.700  -4.669  10.875  1.00  0.00     0.000 C 
BRANCH   2   3
ATOM      3  C   UNL     1      95.883  -3.164  11.122  1.00  0.00     0.000 C 
BRANCH   3   4
ATOM      4  C   UNL     1      97.071  -2.614  10.324  1.00  0.00    -0.000 C 
BRANCH   4   5
ATOM      5  C   UNL     1      97.311  -3.446   9.056  1.00  0.00    -0.000 C 
BRANCH   5   6
ATOM      6  C   UNL     1      96.719  -2.790   7.799  1.00  0.00    -0.000 C 
BRANCH   6   7
ATOM      7  C   UNL     1      97.750  -2.652   6.664  1.00  0.00    -0.000 C 
BRANCH   7   8
ATOM      8  C   UNL     1      99.138  -3.174   7.063  1.00  0.00    -0.000 C 
BRANCH   8   9
ATOM      9  C   UNL     1      99.672  -4.235   6.087  1.00  0.00    -0.000 C 
BRANCH   9  10
ATOM     10  C   UNL     1      99.748  -5.639   6.714  1.00  0.00    -0.000 C 
BRANCH  10  11
ATOM     11  C   UNL     1      98.934  -6.703   5.950  1.00  0.00    -0.003 C 
ATOM     12  C   UNL     1      97.442  -6.375   5.903  1.00  0.00     0.004 C 
ENDBRANCH  10  11
ENDBRANCH   9  10
ENDBRANCH   8   9
ENDBRANCH   7   8
ENDBRANCH   6   7
ENDBRANCH   5   6
ENDBRANCH   4   5
ENDBRANCH   3   4
ENDBRANCH   2   3
ENDBRANCH   1   2
BRANCH   1  13
ATOM     13  C   UNL     1      93.579  -3.798   9.677  1.00  0.00     0.000 C 
BRANCH  13  14
ATOM     14  C   UNL     1      93.394  -3.827   8.149  1.00  0.00     0.000 C 
BRANCH  14  15
ATOM     15  C   UNL     1      92.419  -2.775   7.588  1.00  0.00     0.000 C 
BRANCH  15  16
ATOM     16  C   UNL     1      93.122  -1.683   6.767  1.00  0.00     0.000 C 
BRANCH  16  17
ATOM     17  C   UNL     1      92.123  -0.607   6.318  1.00  0.00     0.000 C 
BRANCH  17  18
ATOM     18  C   UNL     1      91.395  -0.978   5.015  1.00  0.00     0.000 C 
BRANCH  18  19
ATOM     19  C   UNL     1      89.871  -0.829   5.126  1.00  0.00     0.000 C 
BRANCH  19  20
ATOM     20  C   UNL     1      89.245  -2.076   5.770  1.00  0.00     0.006 C 
BRANCH  20  21
ATOM     21  C   UNL     1      87.845  -2.374   5.218  1.00  0.00     0.053 C 
BRANCH  21  22
ATOM     22  C   UNL     1      86.773  -2.019   6.203  1.00  0.00     0.041 C 
ATOM     23  O   UNL     1      86.515  -0.813   6.455  1.00  0.00    -0.550 OA
ATOM     24  O   UNL     1      86.086  -3.025   6.873  1.00  0.00    -0.550 OA
ENDBRANCH  21  22
ENDBRANCH  20  21
ENDBRANCH  19  20
ENDBRANCH  18  19
ENDBRANCH  17  18
ENDBRANCH  16  17
ENDBRANCH  15  16
ENDBRANCH  14  15
ENDBRANCH  13  14
ENDBRANCH   1  13
TORSDOF 20
ENDMDL
MODEL 4
REMARK VINA RESULT:    -6.200      7.951     12.396
REMARK INTER + INTRA:         -15.965
REMARK INTER:                 -13.548
REMARK INTRA:                  -2.417
REMARK UNBOUND:                -2.516
REMARK SMILES CCCCCCCCCCCCCCCCCCCCCC(=O)[O-]
REMARK SMILES IDX 12 1 11 2 10 3 9 4 8 5 7 6 6 7 5 8 4 9 3 10 2 11 1 12 13 13
REMARK SMILES IDX 14 14 15 15 16 16 17 17 18 18 19 19 20 20 21 21 22 22 23 23
REMARK SMILES IDX 24 24
REMARK H PARENT
REMARK Flexibility Score: inf
ROOT
ATOM      1  C   UNL     1      81.331  -3.734   2.752  1.00  0.00     0.000 C 
ENDROOT
BRANCH   1   2
ATOM      2  C   UNL     1      82.832  -4.025   2.538  1.00  0.00     0.000 C 
BRANCH   2   3
ATOM      3  C   UNL     1      83.740  -2.993   3.223  1.00  0.00     0.000 C 
BRANCH   3   4
ATOM      4  C   UNL     1      84.747  -2.399   2.231  1.00  0.00    -0.000 C 
BRANCH   4   5
ATOM      5  C   UNL     1      86.187  -2.604   2.724  1.00  0.00    -0.000 C 
BRANCH   5   6
ATOM      6  C   UNL     1      87.233  -2.219   1.666  1.00  0.00    -0.000 C 
BRANCH   6   7
ATOM      7  C   UNL     1      88.671  -2.532   2.116  1.00  0.00    -0.000 C 
BRANCH   7   8
ATOM      8  C   UNL     1      88.918  -2.167   3.588  1.00  0.00    -0.000 C 
BRANCH   8   9
ATOM      9  C   UNL     1      89.330  -3.382   4.436  1.00  0.00    -0.000 C 
BRANCH   9  10
ATOM     10  C   UNL     1      88.698  -3.371   5.839  1.00  0.00    -0.000 C 
BRANCH  10  11
ATOM     11  C   UNL     1      87.612  -2.291   6.021  1.00  0.00    -0.003 C 
ATOM     12  C   UNL     1      86.253  -2.885   6.390  1.00  0.00     0.004 C 
ENDBRANCH  10  11
ENDBRANCH   9  10
ENDBRANCH   8   9
ENDBRANCH   7   8
ENDBRANCH   6   7
ENDBRANCH   5   6
ENDBRANCH   4   5
ENDBRANCH   3   4
ENDBRANCH   2   3
ENDBRANCH   1   2
BRANCH   1  13
ATOM     13  C   UNL     1      80.674  -2.950   1.600  1.00  0.00     0.000 C 
BRANCH  13  14
ATOM     14  C   UNL     1      81.278  -3.204   0.206  1.00  0.00     0.000 C 
BRANCH  14  15
ATOM     15  C   UNL     1      82.094  -2.034  -0.375  1.00  0.00     0.000 C 
BRANCH  15  16
ATOM     16  C   UNL     1      81.929  -0.732   0.422  1.00  0.00     0.000 C 
BRANCH  16  17
ATOM     17  C   UNL     1      83.045   0.266   0.080  1.00  0.00     0.000 C 
BRANCH  17  18
ATOM     18  C   UNL     1      82.514   1.684  -0.185  1.00  0.00     0.000 C 
BRANCH  18  19
ATOM     19  C   UNL     1      80.985   1.772  -0.080  1.00  0.00     0.000 C 
BRANCH  19  20
ATOM     20  C   UNL     1      80.568   2.711   1.063  1.00  0.00     0.006 C 
BRANCH  20  21
ATOM     21  C   UNL     1      81.750   3.088   1.965  1.00  0.00     0.053 C 
BRANCH  21  22
ATOM     22  C   UNL     1      81.684   2.388   3.288  1.00  0.00     0.041 C 
ATOM     23  O   UNL     1      82.272   1.287   3.454  1.00  0.00    -0.550 OA
ATOM     24  O   UNL     1      80.938   2.933   4.326  1.00  0.00    -0.550 OA
ENDBRANCH  21  22
ENDBRANCH  20  21
ENDBRANCH  19  20
ENDBRANCH  18  19
ENDBRANCH  17  18
ENDBRANCH  16  17
ENDBRANCH  15  16
ENDBRANCH  14  15
ENDBRANCH  13  14
ENDBRANCH   1  13
TORSDOF 20
ENDMDL
MODEL 5
REMARK VINA RESULT:    -6.194      6.237     12.302
REMARK INTER + INTRA:         -15.953
REMARK INTER:                 -13.396
REMARK INTRA:                  -2.557
REMARK UNBOUND:                -2.516
REMARK SMILES CCCCCCCCCCCCCCCCCCCCCC(=O)[O-]
REMARK SMILES IDX 12 1 11 2 10 3 9 4 8 5 7 6 6 7 5 8 4 9 3 10 2 11 1 12 13 13
REMARK SMILES IDX 14 14 15 15 16 16 17 17 18 18 19 19 20 20 21 21 22 22 23 23
REMARK SMILES IDX 24 24
REMARK H PARENT
REMARK Flexibility Score: inf
ROOT
ATOM      1  C   UNL     1      86.381  -2.630   2.302  1.00  0.00     0.000 C 
ENDROOT
BRANCH   1   2
ATOM      2  C   UNL     1      84.959  -2.190   1.890  1.00  0.00     0.000 C 
BRANCH   2   3
ATOM      3  C   UNL     1      84.019  -2.021   3.093  1.00  0.00     0.000 C 
BRANCH   3   4
ATOM      4  C   UNL     1      83.448  -3.371   3.542  1.00  0.00    -0.000 C 
BRANCH   4   5
ATOM      5  C   UNL     1      81.916  -3.382   3.432  1.00  0.00    -0.000 C 
BRANCH   5   6
ATOM      6  C   UNL     1      81.420  -4.120   2.179  1.00  0.00    -0.000 C 
BRANCH   6   7
ATOM      7  C   UNL     1      80.750  -3.176   1.165  1.00  0.00    -0.000 C 
BRANCH   7   8
ATOM      8  C   UNL     1      81.545  -3.059  -0.144  1.00  0.00    -0.000 C 
BRANCH   8   9
ATOM      9  C   UNL     1      81.972  -1.614  -0.448  1.00  0.00    -0.000 C 
BRANCH   9  10
ATOM     10  C   UNL     1      81.776  -0.669   0.751  1.00  0.00    -0.000 C 
BRANCH  10  11
ATOM     11  C   UNL     1      82.369   0.738   0.533  1.00  0.00    -0.003 C 
ATOM     12  C   UNL     1      83.600   0.720  -0.374  1.00  0.00     0.004 C 
ENDBRANCH  10  11
ENDBRANCH   9  10
ENDBRANCH   8   9
ENDBRANCH   7   8
ENDBRANCH   6   7
ENDBRANCH   5   6
ENDBRANCH   4   5
ENDBRANCH   3   4
ENDBRANCH   2   3
ENDBRANCH   1   2
BRANCH   1  13
ATOM     13  C   UNL     1      87.506  -1.850   1.596  1.00  0.00     0.000 C 
BRANCH  13  14
ATOM     14  C   UNL     1      88.772  -2.668   1.278  1.00  0.00     0.000 C 
BRANCH  14  15
ATOM     15  C   UNL     1      89.958  -2.436   2.233  1.00  0.00     0.000 C 
BRANCH  15  16
ATOM     16  C   UNL     1      90.075  -0.977   2.700  1.00  0.00     0.000 C 
BRANCH  16  17
ATOM     17  C   UNL     1      90.848  -0.887   4.025  1.00  0.00     0.000 C 
BRANCH  17  18
ATOM     18  C   UNL     1      89.962  -1.165   5.250  1.00  0.00     0.000 C 
BRANCH  18  19
ATOM     19  C   UNL     1      90.254  -2.527   5.895  1.00  0.00     0.000 C 
BRANCH  19  20
ATOM     20  C   UNL     1      88.970  -3.362   6.014  1.00  0.00     0.006 C 
BRANCH  20  21
ATOM     21  C   UNL     1      87.776  -2.695   5.320  1.00  0.00     0.053 C 
BRANCH  21  22
ATOM     22  C   UNL     1      86.704  -2.319   6.297  1.00  0.00     0.041 C 
ATOM     23  O   UNL     1      86.667  -1.159   6.784  1.00  0.00    -0.550 OA
ATOM     24  O   UNL     1      85.769  -3.265   6.699  1.00  0.00    -0.550 OA
ENDBRANCH  21  22
ENDBRANCH  20  21
ENDBRANCH  19  20
ENDBRANCH  18  19
ENDBRANCH  17  18
ENDBRANCH  16  17
ENDBRANCH  15  16
ENDBRANCH  14  15
ENDBRANCH  13  14
ENDBRANCH   1  13
TORSDOF 20
ENDMDL
MODEL 6
REMARK VINA RESULT:    -6.194      7.112     13.355
REMARK INTER + INTRA:         -15.953
REMARK INTER:                 -13.797
REMARK INTRA:                  -2.156
REMARK UNBOUND:                -2.516
REMARK SMILES CCCCCCCCCCCCCCCCCCCCCC(=O)[O-]
REMARK SMILES IDX 12 1 11 2 10 3 9 4 8 5 7 6 6 7 5 8 4 9 3 10 2 11 1 12 13 13
REMARK SMILES IDX 14 14 15 15 16 16 17 17 18 18 19 19 20 20 21 21 22 22 23 23
REMARK SMILES IDX 24 24
REMARK H PARENT
REMARK Flexibility Score: inf
ROOT
ATOM      1  C   UNL     1      83.828  -3.191   3.552  1.00  0.00     0.000 C 
ENDROOT
BRANCH   1   2
ATOM      2  C   UNL     1      82.347  -3.432   3.185  1.00  0.00     0.000 C 
BRANCH   2   3
ATOM      3  C   UNL     1      82.177  -4.082   1.804  1.00  0.00     0.000 C 
BRANCH   3   4
ATOM      4  C   UNL     1      81.053  -3.405   1.010  1.00  0.00    -0.000 C 
BRANCH   4   5
ATOM      5  C   UNL     1      81.606  -2.273   0.133  1.00  0.00    -0.000 C 
BRANCH   5   6
ATOM      6  C   UNL     1      81.749  -0.949   0.898  1.00  0.00    -0.000 C 
BRANCH   6   7
ATOM      7  C   UNL     1      82.951  -0.117   0.419  1.00  0.00    -0.000 C 
BRANCH   7   8
ATOM      8  C   UNL     1      82.561   0.926  -0.639  1.00  0.00    -0.000 C 
BRANCH   8   9
ATOM      9  C   UNL     1      82.113   2.259  -0.017  1.00  0.00    -0.000 C 
BRANCH   9  10
ATOM     10  C   UNL     1      80.588   2.348   0.169  1.00  0.00    -0.000 C 
BRANCH  10  11
ATOM     11  C   UNL     1      80.160   2.700   1.609  1.00  0.00    -0.003 C 
ATOM     12  C   UNL     1      81.323   2.630   2.597  1.00  0.00     0.004 C 
ENDBRANCH  10  11
ENDBRANCH   9  10
ENDBRANCH   8   9
ENDBRANCH   7   8
ENDBRANCH   6   7
ENDBRANCH   5   6
ENDBRANCH   4   5
ENDBRANCH   3   4
ENDBRANCH   2   3
ENDBRANCH   1   2
BRANCH   1  13
ATOM     13  C   UNL     1      84.689  -2.689   2.378  1.00  0.00     0.000 C 
BRANCH  13  14
ATOM     14  C   UNL     1      86.192  -2.543   2.681  1.00  0.00     0.000 C 
BRANCH  14  15
ATOM     15  C   UNL     1      87.028  -1.905   1.555  1.00  0.00     0.000 C 
BRANCH  15  16
ATOM     16  C   UNL     1      88.486  -1.649   1.962  1.00  0.00     0.000 C 
BRANCH  16  17
ATOM     17  C   UNL     1      89.226  -2.972   2.212  1.00  0.00     0.000 C 
BRANCH  17  18
ATOM     18  C   UNL     1      89.894  -3.027   3.595  1.00  0.00     0.000 C 
BRANCH  18  19
ATOM     19  C   UNL     1      89.695  -1.734   4.400  1.00  0.00     0.000 C 
BRANCH  19  20
ATOM     20  C   UNL     1      89.066  -2.034   5.770  1.00  0.00     0.006 C 
BRANCH  20  21
ATOM     21  C   UNL     1      87.886  -3.008   5.667  1.00  0.00     0.053 C 
BRANCH  21  22
ATOM     22  C   UNL     1      86.676  -2.493   6.386  1.00  0.00     0.041 C 
ATOM     23  O   UNL     1      85.771  -3.287   6.756  1.00  0.00    -0.550 OA
ATOM     24  O   UNL     1      86.530  -1.130   6.610  1.00  0.00    -0.550 OA
ENDBRANCH  21  22
ENDBRANCH  20  21
ENDBRANCH  19  20
ENDBRANCH  18  19
ENDBRANCH  17  18
ENDBRANCH  16  17
ENDBRANCH  15  16
ENDBRANCH  14  15
ENDBRANCH  13  14
ENDBRANCH   1  13
TORSDOF 20
ENDMDL
MODEL 7
REMARK VINA RESULT:    -6.190      2.348      7.541
REMARK INTER + INTRA:         -15.943
REMARK INTER:                 -13.485
REMARK INTRA:                  -2.458
REMARK UNBOUND:                -2.516
REMARK SMILES CCCCCCCCCCCCCCCCCCCCCC(=O)[O-]
REMARK SMILES IDX 12 1 11 2 10 3 9 4 8 5 7 6 6 7 5 8 4 9 3 10 2 11 1 12 13 13
REMARK SMILES IDX 14 14 15 15 16 16 17 17 18 18 19 19 20 20 21 21 22 22 23 23
REMARK SMILES IDX 24 24
REMARK H PARENT
REMARK Flexibility Score: inf
ROOT
ATOM      1  C   UNL     1      93.805  -2.463   7.693  1.00  0.00     0.000 C 
ENDROOT
BRANCH   1   2
ATOM      2  C   UNL     1      92.474  -2.082   7.009  1.00  0.00     0.000 C 
BRANCH   2   3
ATOM      3  C   UNL     1      92.657  -1.034   5.901  1.00  0.00     0.000 C 
BRANCH   3   4
ATOM      4  C   UNL     1      91.655   0.116   6.057  1.00  0.00    -0.000 C 
BRANCH   4   5
ATOM      5  C   UNL     1      90.469  -0.056   5.096  1.00  0.00    -0.000 C 
BRANCH   5   6
ATOM      6  C   UNL     1      90.872  -0.735   3.778  1.00  0.00    -0.000 C 
BRANCH   6   7
ATOM      7  C   UNL     1      89.698  -1.475   3.113  1.00  0.00    -0.000 C 
BRANCH   7   8
ATOM      8  C   UNL     1      89.637  -2.958   3.509  1.00  0.00    -0.000 C 
BRANCH   8   9
ATOM      9  C   UNL     1      88.611  -3.230   4.621  1.00  0.00    -0.000 C 
BRANCH   9  10
ATOM     10  C   UNL     1      89.253  -3.321   6.016  1.00  0.00    -0.000 C 
BRANCH  10  11
ATOM     11  C   UNL     1      89.673  -4.752   6.412  1.00  0.00    -0.003 C 
ATOM     12  C   UNL     1      91.063  -5.117   5.892  1.00  0.00     0.004 C 
ENDBRANCH  10  11
ENDBRANCH   9  10
ENDBRANCH   8   9
ENDBRANCH   7   8
ENDBRANCH   6   7
ENDBRANCH   5   6
ENDBRANCH   4   5
ENDBRANCH   3   4
ENDBRANCH   2   3
ENDBRANCH   1   2
BRANCH   1  13
ATOM     13  C   UNL     1      93.940  -3.966   8.005  1.00  0.00     0.000 C 
BRANCH  13  14
ATOM     14  C   UNL     1      93.455  -4.392   9.403  1.00  0.00     0.000 C 
BRANCH  14  15
ATOM     15  C   UNL     1      94.567  -4.836  10.373  1.00  0.00     0.000 C 
BRANCH  15  16
ATOM     16  C   UNL     1      95.238  -3.659  11.095  1.00  0.00     0.000 C 
BRANCH  16  17
ATOM     17  C   UNL     1      96.762  -3.700  10.910  1.00  0.00     0.000 C 
BRANCH  17  18
ATOM     18  C   UNL     1      97.177  -3.923   9.447  1.00  0.00     0.000 C 
BRANCH  18  19
ATOM     19  C   UNL     1      97.444  -2.608   8.700  1.00  0.00     0.000 C 
BRANCH  19  20
ATOM     20  C   UNL     1      97.426  -2.828   7.180  1.00  0.00     0.006 C 
BRANCH  20  21
ATOM     21  C   UNL     1      98.725  -3.463   6.669  1.00  0.00     0.053 C 
BRANCH  21  22
ATOM     22  C   UNL     1      98.471  -4.763   5.969  1.00  0.00     0.041 C 
ATOM     23  O   UNL     1      99.173  -5.099   4.979  1.00  0.00    -0.550 OA
ATOM     24  O   UNL     1      97.431  -5.585   6.387  1.00  0.00    -0.550 OA
ENDBRANCH  21  22
ENDBRANCH  20  21
ENDBRANCH  19  20
ENDBRANCH  18  19
ENDBRANCH  17  18
ENDBRANCH  16  17
ENDBRANCH  15  16
ENDBRANCH  14  15
ENDBRANCH  13  14
ENDBRANCH   1  13
TORSDOF 20
ENDMDL
MODEL 8
REMARK VINA RESULT:    -6.171      2.412      7.566
REMARK INTER + INTRA:         -15.903
REMARK INTER:                 -13.912
REMARK INTRA:                  -1.991
REMARK UNBOUND:                -2.516
REMARK SMILES CCCCCCCCCCCCCCCCCCCCCC(=O)[O-]
REMARK SMILES IDX 12 1 11 2 10 3 9 4 8 5 7 6 6 7 5 8 4 9 3 10 2 11 1 12 13 13
REMARK SMILES IDX 14 14 15 15 16 16 17 17 18 18 19 19 20 20 21 21 22 22 23 23
REMARK SMILES IDX 24 24
REMARK H PARENT
REMARK Flexibility Score: inf
ROOT
ATOM      1  C   UNL     1      95.472  -4.590  10.911  1.00  0.00     0.000 C 
ENDROOT
BRANCH   1   2
ATOM      2  C   UNL     1      94.224  -4.963  10.083  1.00  0.00     0.000 C 
BRANCH   2   3
ATOM      3  C   UNL     1      93.479  -3.731   9.546  1.00  0.00     0.000 C 
BRANCH   3   4
ATOM      4  C   UNL     1      93.305  -3.811   8.025  1.00  0.00    -0.000 C 
BRANCH   4   5
ATOM      5  C   UNL     1      92.783  -2.480   7.462  1.00  0.00    -0.000 C 
BRANCH   5   6
ATOM      6  C   UNL     1      91.433  -2.632   6.744  1.00  0.00    -0.000 C 
BRANCH   6   7
ATOM      7  C   UNL     1      91.133  -4.090   6.354  1.00  0.00    -0.000 C 
BRANCH   7   8
ATOM      8  C   UNL     1      89.901  -4.214   5.445  1.00  0.00    -0.000 C 
BRANCH   8   9
ATOM      9  C   UNL     1      89.360  -2.846   4.996  1.00  0.00    -0.000 C 
BRANCH   9  10
ATOM     10  C   UNL     1      87.985  -2.945   4.311  1.00  0.00    -0.000 C 
BRANCH  10  11
ATOM     11  C   UNL     1      86.845  -2.285   5.114  1.00  0.00    -0.003 C 
ATOM     12  C   UNL     1      86.633  -2.944   6.477  1.00  0.00     0.004 C 
ENDBRANCH  10  11
ENDBRANCH   9  10
ENDBRANCH   8   9
ENDBRANCH   7   8
ENDBRANCH   6   7
ENDBRANCH   5   6
ENDBRANCH   4   5
ENDBRANCH   3   4
ENDBRANCH   2   3
ENDBRANCH   1   2
BRANCH   1  13
ATOM     13  C   UNL     1      95.817  -3.089  10.883  1.00  0.00     0.000 C 
BRANCH  13  14
ATOM     14  C   UNL     1      97.033  -2.710  10.017  1.00  0.00     0.000 C 
BRANCH  14  15
ATOM     15  C   UNL     1      97.294  -3.638   8.815  1.00  0.00     0.000 C 
BRANCH  15  16
ATOM     16  C   UNL     1      96.933  -2.992   7.469  1.00  0.00     0.000 C 
BRANCH  16  17
ATOM     17  C   UNL     1      98.200  -2.616   6.685  1.00  0.00     0.000 C 
BRANCH  17  18
ATOM     18  C   UNL     1      99.243  -3.745   6.666  1.00  0.00     0.000 C 
BRANCH  18  19
ATOM     19  C   UNL     1      99.056  -4.703   5.481  1.00  0.00     0.000 C 
BRANCH  19  20
ATOM     20  C   UNL     1      98.927  -6.155   5.966  1.00  0.00     0.006 C 
BRANCH  20  21
ATOM     21  C   UNL     1      97.503  -6.699   5.800  1.00  0.00     0.053 C 
BRANCH  21  22
ATOM     22  C   UNL     1      97.409  -7.672   4.664  1.00  0.00     0.041 C 
ATOM     23  O   UNL     1      97.197  -8.893   4.889  1.00  0.00    -0.550 OA
ATOM     24  O   UNL     1      97.595  -7.234   3.358  1.00  0.00    -0.550 OA
ENDBRANCH  21  22
ENDBRANCH  20  21
ENDBRANCH  19  20
ENDBRANCH  18  19
ENDBRANCH  17  18
ENDBRANCH  16  17
ENDBRANCH  15  16
ENDBRANCH  14  15
ENDBRANCH  13  14
ENDBRANCH   1  13
TORSDOF 20
ENDMDL
MODEL 9
REMARK VINA RESULT:    -6.131      5.536      8.349
REMARK INTER + INTRA:         -15.816
REMARK INTER:                 -14.253
REMARK INTRA:                  -1.563
REMARK UNBOUND:                -2.516
REMARK SMILES CCCCCCCCCCCCCCCCCCCCCC(=O)[O-]
REMARK SMILES IDX 12 1 11 2 10 3 9 4 8 5 7 6 6 7 5 8 4 9 3 10 2 11 1 12 13 13
REMARK SMILES IDX 14 14 15 15 16 16 17 17 18 18 19 19 20 20 21 21 22 22 23 23
REMARK SMILES IDX 24 24
REMARK H PARENT
REMARK Flexibility Score: inf
ROOT
ATOM      1  C   UNL     1      87.653  -2.862   6.025  1.00  0.00     0.000 C 
ENDROOT
BRANCH   1   2
ATOM      2  C   UNL     1      88.780  -1.882   5.634  1.00  0.00     0.000 C 
BRANCH   2   3
ATOM      3  C   UNL     1      90.150  -2.568   5.527  1.00  0.00     0.000 C 
BRANCH   3   4
ATOM      4  C   UNL     1      90.172  -3.883   6.314  1.00  0.00    -0.000 C 
BRANCH   4   5
ATOM      5  C   UNL     1      91.574  -4.162   6.877  1.00  0.00    -0.000 C 
BRANCH   5   6
ATOM      6  C   UNL     1      92.330  -2.876   7.242  1.00  0.00    -0.000 C 
BRANCH   6   7
ATOM      7  C   UNL     1      93.572  -3.148   8.108  1.00  0.00    -0.000 C 
BRANCH   7   8
ATOM      8  C   UNL     1      93.288  -4.133   9.252  1.00  0.00    -0.000 C 
BRANCH   8   9
ATOM      9  C   UNL     1      94.566  -4.804   9.783  1.00  0.00    -0.000 C 
BRANCH   9  10
ATOM     10  C   UNL     1      95.117  -4.122  11.047  1.00  0.00    -0.000 C 
BRANCH  10  11
ATOM     11  C   UNL     1      96.633  -3.842  10.988  1.00  0.00    -0.003 C 
ATOM     12  C   UNL     1      96.945  -2.377  10.683  1.00  0.00     0.004 C 
ENDBRANCH  10  11
ENDBRANCH   9  10
ENDBRANCH   8   9
ENDBRANCH   7   8
ENDBRANCH   6   7
ENDBRANCH   5   6
ENDBRANCH   4   5
ENDBRANCH   3   4
ENDBRANCH   2   3
ENDBRANCH   1   2
BRANCH   1  13
ATOM     13  C   UNL     1      86.429  -2.813   5.091  1.00  0.00     0.000 C 
BRANCH  13  14
ATOM     14  C   UNL     1      86.741  -2.498   3.616  1.00  0.00     0.000 C 
BRANCH  14  15
ATOM     15  C   UNL     1      85.556  -2.671   2.646  1.00  0.00     0.000 C 
BRANCH  15  16
ATOM     16  C   UNL     1      84.195  -2.686   3.359  1.00  0.00     0.000 C 
BRANCH  16  17
ATOM     17  C   UNL     1      83.274  -3.757   2.755  1.00  0.00     0.000 C 
BRANCH  17  18
ATOM     18  C   UNL     1      81.783  -3.433   2.944  1.00  0.00     0.000 C 
BRANCH  18  19
ATOM     19  C   UNL     1      81.069  -3.135   1.618  1.00  0.00     0.000 C 
BRANCH  19  20
ATOM     20  C   UNL     1      82.084  -2.802   0.513  1.00  0.00     0.006 C 
BRANCH  20  21
ATOM     21  C   UNL     1      81.967  -1.348   0.036  1.00  0.00     0.053 C 
BRANCH  21  22
ATOM     22  C   UNL     1      82.836  -0.429   0.839  1.00  0.00     0.041 C 
ATOM     23  O   UNL     1      83.975  -0.098   0.414  1.00  0.00    -0.550 OA
ATOM     24  O   UNL     1      82.403   0.030   2.077  1.00  0.00    -0.550 OA
ENDBRANCH  21  22
ENDBRANCH  20  21
ENDBRANCH  19  20
ENDBRANCH  18  19
ENDBRANCH  17  18
ENDBRANCH  16  17
ENDBRANCH  15  16
ENDBRANCH  14  15
ENDBRANCH  13  14
ENDBRANCH   1  13
TORSDOF 20
ENDMDL
