MODEL 1
REMARK VINA RESULT:    -4.360      0.000      0.000
REMARK INTER + INTRA:          -4.487
REMARK INTER:                  -4.487
REMARK INTRA:                   0.000
REMARK UNBOUND:                 0.000
REMARK SMILES O=c1ccc2ccc(O)cc2o1
REMARK SMILES IDX 6 1 7 2 8 3 10 4 11 5 5 6 4 7 3 8 2 9 1 10 12 11 9 12
REMARK H PARENT 9 13
REMARK Flexibility Score: inf
ROOT
ATOM      1  C   UNL     1      74.723  39.804  21.719  1.00  0.00     0.016 A 
ATOM      2  C   UNL     1      75.863  40.506  21.314  1.00  0.00     0.047 A 
ATOM      3  C   UNL     1      76.416  40.286  20.047  1.00  0.00     0.119 A 
ATOM      4  C   UNL     1      75.825  39.358  19.177  1.00  0.00     0.094 A 
ATOM      5  C   UNL     1      74.683  38.652  19.573  1.00  0.00     0.142 A 
ATOM      6  C   UNL     1      74.129  38.876  20.853  1.00  0.00     0.018 A 
ATOM      7  C   UNL     1      72.990  38.155  21.221  1.00  0.00     0.019 A 
ATOM      8  C   UNL     1      72.437  37.243  20.322  1.00  0.00     0.094 A 
ATOM      9  C   UNL     1      73.040  37.073  19.071  1.00  0.00     0.336 A 
ATOM     10  O   UNL     1      72.556  36.255  18.246  1.00  0.00    -0.246 OA
ATOM     11  O   UNL     1      74.125  37.771  18.746  1.00  0.00    -0.423 OA
ENDROOT
BRANCH   3  12
ATOM     12  O   UNL     1      77.553  40.995  19.662  1.00  0.00    -0.508 OA
ATOM     13  H   UNL     1      77.958  41.709  20.256  1.00  0.00     0.293 HD
ENDBRANCH   3  12
TORSDOF 1
ENDMDL
MODEL 2
REMARK VINA RESULT:    -4.260      1.615      4.733
REMARK INTER + INTRA:          -4.385
REMARK INTER:                  -4.385
REMARK INTRA:                   0.000
REMARK UNBOUND:                 0.000
REMARK SMILES O=c1ccc2ccc(O)cc2o1
REMARK SMILES IDX 6 1 7 2 8 3 10 4 11 5 5 6 4 7 3 8 2 9 1 10 12 11 9 12
REMARK H PARENT 9 13
REMARK Flexibility Score: inf
ROOT
ATOM      1  C   UNL     1      74.500  38.123  18.442  1.00  0.00     0.016 A 
ATOM      2  C   UNL     1      73.488  37.184  18.672  1.00  0.00     0.047 A 
ATOM      3  C   UNL     1      72.940  37.033  19.951  1.00  0.00     0.119 A 
ATOM      4  C   UNL     1      73.407  37.826  21.010  1.00  0.00     0.094 A 
ATOM      5  C   UNL     1      74.419  38.767  20.790  1.00  0.00     0.142 A 
ATOM      6  C   UNL     1      74.969  38.917  19.498  1.00  0.00     0.018 A 
ATOM      7  C   UNL     1      75.979  39.864  19.310  1.00  0.00     0.019 A 
ATOM      8  C   UNL     1      76.410  40.630  20.393  1.00  0.00     0.094 A 
ATOM      9  C   UNL     1      75.819  40.427  21.645  1.00  0.00     0.336 A 
ATOM     10  O   UNL     1      76.195  41.108  22.634  1.00  0.00    -0.246 OA
ATOM     11  O   UNL     1      74.860  39.517  21.797  1.00  0.00    -0.423 OA
ENDROOT
BRANCH   3  12
ATOM     12  O   UNL     1      71.933  36.093  20.160  1.00  0.00    -0.508 OA
ATOM     13  H   UNL     1      71.129  36.298  20.740  1.00  0.00     0.293 HD
ENDBRANCH   3  12
TORSDOF 1
ENDMDL
MODEL 3
REMARK VINA RESULT:    -4.112      3.321      4.884
REMARK INTER + INTRA:          -4.232
REMARK INTER:                  -4.232
REMARK INTRA:                   0.000
REMARK UNBOUND:                 0.000
REMARK SMILES O=c1ccc2ccc(O)cc2o1
REMARK SMILES IDX 6 1 7 2 8 3 10 4 11 5 5 6 4 7 3 8 2 9 1 10 12 11 9 12
REMARK H PARENT 9 13
REMARK Flexibility Score: inf
ROOT
ATOM      1  C   UNL     1      70.924  40.352  22.790  1.00  0.00     0.016 A 
ATOM      2  C   UNL     1      69.633  40.648  22.340  1.00  0.00     0.047 A 
ATOM      3  C   UNL     1      69.327  40.582  20.976  1.00  0.00     0.119 A 
ATOM      4  C   UNL     1      70.319  40.217  20.053  1.00  0.00     0.094 A 
ATOM      5  C   UNL     1      71.613  39.919  20.494  1.00  0.00     0.142 A 
ATOM      6  C   UNL     1      71.918  39.987  21.871  1.00  0.00     0.018 A 
ATOM      7  C   UNL     1      73.220  39.685  22.281  1.00  0.00     0.019 A 
ATOM      8  C   UNL     1      74.172  39.327  21.327  1.00  0.00     0.094 A 
ATOM      9  C   UNL     1      73.799  39.281  19.980  1.00  0.00     0.336 A 
ATOM     10  O   UNL     1      74.644  38.960  19.104  1.00  0.00    -0.246 OA
ATOM     11  O   UNL     1      72.553  39.574  19.616  1.00  0.00    -0.423 OA
ENDROOT
BRANCH   3  12
ATOM     12  O   UNL     1      68.035  40.881  20.547  1.00  0.00    -0.508 OA
ATOM     13  H   UNL     1      67.761  41.828  20.314  1.00  0.00     0.293 HD
ENDBRANCH   3  12
TORSDOF 1
ENDMDL
MODEL 4
REMARK VINA RESULT:    -3.981      2.977      5.172
REMARK INTER + INTRA:          -4.097
REMARK INTER:                  -4.097
REMARK INTRA:                   0.000
REMARK UNBOUND:                 0.000
REMARK SMILES O=c1ccc2ccc(O)cc2o1
REMARK SMILES IDX 6 1 7 2 8 3 10 4 11 5 5 6 4 7 3 8 2 9 1 10 12 11 9 12
REMARK H PARENT 9 13
REMARK Flexibility Score: inf
ROOT
ATOM      1  C   UNL     1      72.341  38.890  20.484  1.00  0.00     0.016 A 
ATOM      2  C   UNL     1      71.055  39.244  20.906  1.00  0.00     0.047 A 
ATOM      3  C   UNL     1      70.880  40.094  22.004  1.00  0.00     0.119 A 
ATOM      4  C   UNL     1      71.999  40.596  22.686  1.00  0.00     0.094 A 
ATOM      5  C   UNL     1      73.289  40.248  22.271  1.00  0.00     0.142 A 
ATOM      6  C   UNL     1      73.462  39.389  21.162  1.00  0.00     0.018 A 
ATOM      7  C   UNL     1      74.762  39.059  20.772  1.00  0.00     0.019 A 
ATOM      8  C   UNL     1      75.844  39.583  21.481  1.00  0.00     0.094 A 
ATOM      9  C   UNL     1      75.597  40.427  22.569  1.00  0.00     0.336 A 
ATOM     10  O   UNL     1      76.559  40.910  23.220  1.00  0.00    -0.246 OA
ATOM     11  O   UNL     1      74.348  40.725  22.920  1.00  0.00    -0.423 OA
ENDROOT
BRANCH   3  12
ATOM     12  O   UNL     1      69.591  40.435  22.409  1.00  0.00    -0.508 OA
ATOM     13  H   UNL     1      68.773  40.046  21.954  1.00  0.00     0.293 HD
ENDBRANCH   3  12
TORSDOF 1
ENDMDL
MODEL 5
REMARK VINA RESULT:    -3.972      3.299      4.143
REMARK INTER + INTRA:          -4.088
REMARK INTER:                  -4.088
REMARK INTRA:                   0.000
REMARK UNBOUND:                 0.000
REMARK SMILES O=c1ccc2ccc(O)cc2o1
REMARK SMILES IDX 6 1 7 2 8 3 10 4 11 5 5 6 4 7 3 8 2 9 1 10 12 11 9 12
REMARK H PARENT 9 13
REMARK Flexibility Score: inf
ROOT
ATOM      1  C   UNL     1      73.358  39.234  22.013  1.00  0.00     0.016 A 
ATOM      2  C   UNL     1      74.075  38.604  20.990  1.00  0.00     0.047 A 
ATOM      3  C   UNL     1      73.512  38.457  19.717  1.00  0.00     0.119 A 
ATOM      4  C   UNL     1      72.221  38.944  19.463  1.00  0.00     0.094 A 
ATOM      5  C   UNL     1      71.495  39.575  20.479  1.00  0.00     0.142 A 
ATOM      6  C   UNL     1      72.067  39.721  21.763  1.00  0.00     0.018 A 
ATOM      7  C   UNL     1      71.318  40.356  22.757  1.00  0.00     0.019 A 
ATOM      8  C   UNL     1      70.038  40.823  22.457  1.00  0.00     0.094 A 
ATOM      9  C   UNL     1      69.536  40.643  21.164  1.00  0.00     0.336 A 
ATOM     10  O   UNL     1      68.384  41.058  20.874  1.00  0.00    -0.246 OA
ATOM     11  O   UNL     1      70.270  40.035  20.235  1.00  0.00    -0.423 OA
ENDROOT
BRANCH   3  12
ATOM     12  O   UNL     1      74.243  37.827  18.712  1.00  0.00    -0.508 OA
ATOM     13  H   UNL     1      75.122  37.364  18.908  1.00  0.00     0.293 HD
ENDBRANCH   3  12
TORSDOF 1
ENDMDL
MODEL 6
REMARK VINA RESULT:    -3.965      2.962      3.613
REMARK INTER + INTRA:          -4.081
REMARK INTER:                  -4.081
REMARK INTRA:                   0.000
REMARK UNBOUND:                 0.000
REMARK SMILES O=c1ccc2ccc(O)cc2o1
REMARK SMILES IDX 6 1 7 2 8 3 10 4 11 5 5 6 4 7 3 8 2 9 1 10 12 11 9 12
REMARK H PARENT 9 13
REMARK Flexibility Score: inf
ROOT
ATOM      1  C   UNL     1      74.834  39.111  20.870  1.00  0.00     0.016 A 
ATOM      2  C   UNL     1      75.929  39.681  21.528  1.00  0.00     0.047 A 
ATOM      3  C   UNL     1      75.731  40.567  22.594  1.00  0.00     0.119 A 
ATOM      4  C   UNL     1      74.429  40.887  23.005  1.00  0.00     0.094 A 
ATOM      5  C   UNL     1      73.327  40.322  22.352  1.00  0.00     0.142 A 
ATOM      6  C   UNL     1      73.531  39.429  21.278  1.00  0.00     0.018 A 
ATOM      7  C   UNL     1      72.412  38.881  20.645  1.00  0.00     0.019 A 
ATOM      8  C   UNL     1      71.136  39.229  21.089  1.00  0.00     0.094 A 
ATOM      9  C   UNL     1      71.010  40.121  22.160  1.00  0.00     0.336 A 
ATOM     10  O   UNL     1      69.868  40.447  22.575  1.00  0.00    -0.246 OA
ATOM     11  O   UNL     1      72.093  40.629  22.744  1.00  0.00    -0.423 OA
ENDROOT
BRANCH   3  12
ATOM     12  O   UNL     1      76.835  41.125  23.237  1.00  0.00    -0.508 OA
ATOM     13  H   UNL     1      76.832  41.304  24.234  1.00  0.00     0.293 HD
ENDBRANCH   3  12
TORSDOF 1
ENDMDL
MODEL 7
REMARK VINA RESULT:    -3.954      0.816      4.229
REMARK INTER + INTRA:          -4.069
REMARK INTER:                  -4.069
REMARK INTRA:                   0.000
REMARK UNBOUND:                 0.000
REMARK SMILES O=c1ccc2ccc(O)cc2o1
REMARK SMILES IDX 6 1 7 2 8 3 10 4 11 5 5 6 4 7 3 8 2 9 1 10 12 11 9 12
REMARK H PARENT 9 13
REMARK Flexibility Score: inf
ROOT
ATOM      1  C   UNL     1      73.256  38.097  21.187  1.00  0.00     0.016 A 
ATOM      2  C   UNL     1      72.663  37.195  20.297  1.00  0.00     0.047 A 
ATOM      3  C   UNL     1      73.128  37.090  18.981  1.00  0.00     0.119 A 
ATOM      4  C   UNL     1      74.195  37.892  18.550  1.00  0.00     0.094 A 
ATOM      5  C   UNL     1      74.795  38.797  19.432  1.00  0.00     0.142 A 
ATOM      6  C   UNL     1      74.322  38.901  20.759  1.00  0.00     0.018 A 
ATOM      7  C   UNL     1      74.941  39.814  21.617  1.00  0.00     0.019 A 
ATOM      8  C   UNL     1      75.999  40.590  21.143  1.00  0.00     0.094 A 
ATOM      9  C   UNL     1      76.413  40.434  19.816  1.00  0.00     0.336 A 
ATOM     10  O   UNL     1      77.366  41.125  19.370  1.00  0.00    -0.246 OA
ATOM     11  O   UNL     1      75.806  39.557  19.020  1.00  0.00    -0.423 OA
ENDROOT
BRANCH   3  12
ATOM     12  O   UNL     1      72.523  36.185  18.110  1.00  0.00    -0.508 OA
ATOM     13  H   UNL     1      72.860  36.057  17.163  1.00  0.00     0.293 HD
ENDBRANCH   3  12
TORSDOF 1
ENDMDL
MODEL 8
REMARK VINA RESULT:    -3.916      2.660      3.346
REMARK INTER + INTRA:          -4.030
REMARK INTER:                  -4.030
REMARK INTRA:                   0.000
REMARK UNBOUND:                 0.000
REMARK SMILES O=c1ccc2ccc(O)cc2o1
REMARK SMILES IDX 6 1 7 2 8 3 10 4 11 5 5 6 4 7 3 8 2 9 1 10 12 11 9 12
REMARK H PARENT 9 13
REMARK Flexibility Score: inf
ROOT
ATOM      1  C   UNL     1      74.193  38.507  19.799  1.00  0.00     0.016 A 
ATOM      2  C   UNL     1      75.485  39.019  19.640  1.00  0.00     0.047 A 
ATOM      3  C   UNL     1      75.879  40.173  20.327  1.00  0.00     0.119 A 
ATOM      4  C   UNL     1      74.974  40.821  21.181  1.00  0.00     0.094 A 
ATOM      5  C   UNL     1      73.680  40.316  21.348  1.00  0.00     0.142 A 
ATOM      6  C   UNL     1      73.287  39.152  20.652  1.00  0.00     0.018 A 
ATOM      7  C   UNL     1      71.987  38.672  20.838  1.00  0.00     0.019 A 
ATOM      8  C   UNL     1      71.124  39.350  21.698  1.00  0.00     0.094 A 
ATOM      9  C   UNL     1      71.582  40.498  22.354  1.00  0.00     0.336 A 
ATOM     10  O   UNL     1      70.818  41.123  23.134  1.00  0.00    -0.246 OA
ATOM     11  O   UNL     1      72.824  40.934  22.159  1.00  0.00    -0.423 OA
ENDROOT
BRANCH   3  12
ATOM     12  O   UNL     1      77.170  40.667  20.154  1.00  0.00    -0.508 OA
ATOM     13  H   UNL     1      77.658  41.147  20.902  1.00  0.00     0.293 HD
ENDBRANCH   3  12
TORSDOF 1
ENDMDL
