MODEL 1
REMARK VINA RESULT:    -4.469      0.000      0.000
REMARK INTER + INTRA:          -4.658
REMARK INTER:                  -5.514
REMARK INTRA:                   0.856
REMARK UNBOUND:                 0.856
REMARK SMILES CC1=CC=CC(C)(C)CC1=O
REMARK SMILES IDX 1 1 2 2 3 3 10 4 11 5 9 6 4 8 5 9 6 10 7 11 8 12
REMARK H PARENT
REMARK Flexibility Score: 80.00
ROOT
ATOM      1  C   UNL     1      -7.277 -15.075  28.431  1.00  0.00     0.048 C 
ATOM      2  C   UNL     1      -5.894 -14.467  28.438  1.00  0.00    -0.008 C 
ATOM      3  C   UNL     1      -5.271 -14.304  27.250  1.00  0.00     0.007 C 
ENDROOT
BRANCH   2   4
ATOM      4  C   UNL     1      -5.312 -14.147  29.768  1.00  0.00     0.159 C 
ATOM      5  O   UNL     1      -6.023 -14.323  30.796  1.00  0.00    -0.295 OA
BRANCH   4   6
ATOM      6  C   UNL     1      -3.908 -13.660  29.977  1.00  0.00     0.091 CG0
ATOM      7  G   UNL     1      -3.530 -12.443  29.103  1.00  0.00     0.000 G0
ENDBRANCH   4   6
ENDBRANCH   2   4
BRANCH   3   8
ATOM      8  C   UNL     1      -3.937 -13.733  26.952  1.00  0.00    -0.003 C 
ATOM      9  C   UNL     1      -3.190 -12.919  27.708  1.00  0.00    -0.020 C 
BRANCH   9  10
ATOM     10  C   UNL     1      -3.521 -12.445  29.102  1.00  0.00    -0.010 CG0
ATOM     11  C   UNL     1      -4.625 -11.365  29.053  1.00  0.00     0.016 C 
ATOM     12  C   UNL     1      -2.252 -11.800  29.707  1.00  0.00     0.016 C 
ATOM     13  G   UNL     1      -3.908 -13.657  29.980  1.00  0.00     0.000 G0
ENDBRANCH   9  10
ENDBRANCH   3   8
TORSDOF 0
ENDMDL
MODEL 2
REMARK VINA RESULT:    -4.421      1.419      2.324
REMARK INTER + INTRA:          -4.599
REMARK INTER:                  -5.447
REMARK INTRA:                   0.848
REMARK UNBOUND:                 0.856
REMARK SMILES CC1=CC=CC(C)(C)CC1=O
REMARK SMILES IDX 1 1 2 2 3 3 10 4 11 5 9 6 4 8 5 9 6 10 7 11 8 12
REMARK H PARENT
REMARK Flexibility Score: 80.00
ROOT
ATOM      1  C   UNL     1      -5.764 -14.772  32.533  1.00  0.00     0.048 C 
ATOM      2  C   UNL     1      -5.350 -14.420  31.124  1.00  0.00    -0.008 C 
ATOM      3  C   UNL     1      -6.209 -14.711  30.122  1.00  0.00     0.007 C 
ENDROOT
BRANCH   2   4
ATOM      4  C   UNL     1      -3.997 -13.827  30.953  1.00  0.00     0.159 C 
ATOM      5  O   UNL     1      -3.316 -13.571  31.984  1.00  0.00    -0.295 OA
BRANCH   4   6
ATOM      6  C   UNL     1      -3.363 -13.545  29.622  1.00  0.00     0.091 CG0
ATOM      7  G   UNL     1      -4.250 -12.710  28.671  1.00  0.00     0.000 G0
ENDBRANCH   4   6
ENDBRANCH   2   4
BRANCH   3   8
ATOM      8  C   UNL     1      -6.081 -14.475  28.666  1.00  0.00    -0.003 C 
ATOM      9  C   UNL     1      -5.280 -13.613  28.028  1.00  0.00    -0.020 C 
BRANCH   9  10
ATOM     10  C   UNL     1      -4.251 -12.712  28.667  1.00  0.00    -0.010 CG0
ATOM     11  C   UNL     1      -4.941 -11.522  29.370  1.00  0.00     0.016 C 
ATOM     12  C   UNL     1      -3.345 -12.145  27.550  1.00  0.00     0.016 C 
ATOM     13  G   UNL     1      -3.367 -13.542  29.627  1.00  0.00     0.000 G0
ENDBRANCH   9  10
ENDBRANCH   3   8
TORSDOF 0
ENDMDL
MODEL 3
REMARK VINA RESULT:    -4.314      2.342      4.132
REMARK INTER + INTRA:          -4.467
REMARK INTER:                  -5.317
REMARK INTRA:                   0.850
REMARK UNBOUND:                 0.856
REMARK SMILES CC1=CC=CC(C)(C)CC1=O
REMARK SMILES IDX 1 1 2 2 3 3 10 4 11 5 9 6 4 8 5 9 6 10 7 11 8 12
REMARK H PARENT
REMARK Flexibility Score: 80.00
ROOT
ATOM      1  C   UNL     1      -0.293 -12.789  31.464  1.00  0.00     0.048 C 
ATOM      2  C   UNL     1      -1.500 -13.209  30.659  1.00  0.00    -0.008 C 
ATOM      3  C   UNL     1      -2.689 -13.282  31.297  1.00  0.00     0.007 C 
ENDROOT
BRANCH   2   4
ATOM      4  C   UNL     1      -1.264 -13.559  29.234  1.00  0.00     0.159 C 
ATOM      5  O   UNL     1      -0.103 -13.411  28.760  1.00  0.00    -0.295 OA
BRANCH   4   6
ATOM      6  C   UNL     1      -2.314 -14.119  28.319  1.00  0.00     0.091 CG0
ATOM      7  G   UNL     1      -3.623 -13.298  28.291  1.00  0.00     0.000 G0
ENDBRANCH   4   6
ENDBRANCH   2   4
BRANCH   3   8
ATOM      8  C   UNL     1      -4.025 -13.648  30.771  1.00  0.00    -0.003 C 
ATOM      9  C   UNL     1      -4.453 -13.638  29.503  1.00  0.00    -0.020 C 
BRANCH   9  10
ATOM     10  C   UNL     1      -3.625 -13.308  28.285  1.00  0.00    -0.010 CG0
ATOM     11  C   UNL     1      -3.383 -11.784  28.197  1.00  0.00     0.016 C 
ATOM     12  C   UNL     1      -4.420 -13.736  27.029  1.00  0.00     0.016 C 
ATOM     13  G   UNL     1      -2.310 -14.121  28.321  1.00  0.00     0.000 G0
ENDBRANCH   9  10
ENDBRANCH   3   8
TORSDOF 0
ENDMDL
MODEL 4
REMARK VINA RESULT:    -4.167      1.510      2.602
REMARK INTER + INTRA:          -4.286
REMARK INTER:                  -5.389
REMARK INTRA:                   1.103
REMARK UNBOUND:                 0.856
REMARK SMILES CC1=CC=CC(C)(C)CC1=O
REMARK SMILES IDX 1 1 2 2 3 3 10 4 11 5 9 6 4 8 5 9 6 10 7 11 8 12
REMARK H PARENT
REMARK Flexibility Score: 80.00
ROOT
ATOM      1  C   UNL     1      -6.993 -14.946  29.036  1.00  0.00     0.048 C 
ATOM      2  C   UNL     1      -5.707 -14.437  29.645  1.00  0.00    -0.008 C 
ATOM      3  C   UNL     1      -5.625 -14.384  30.993  1.00  0.00     0.007 C 
ENDROOT
BRANCH   2   4
ATOM      4  C   UNL     1      -4.653 -13.984  28.699  1.00  0.00     0.159 C 
ATOM      5  O   UNL     1      -4.949 -13.866  27.478  1.00  0.00    -0.295 OA
BRANCH   4   6
ATOM      6  C   UNL     1      -3.257 -13.616  29.107  1.00  0.00     0.091 CG0
ATOM      7  G   UNL     1      -3.192 -12.531  30.207  1.00  0.00     0.000 G0
ENDBRANCH   4   6
ENDBRANCH   2   4
BRANCH   3   8
ATOM      8  C   UNL     1      -4.503 -13.948  31.856  1.00  0.00    -0.003 C 
ATOM      9  C   UNL     1      -3.449 -13.189  31.535  1.00  0.00    -0.020 C 
BRANCH   9  10
ATOM     10  C   UNL     1      -3.197 -12.534  30.198  1.00  0.00    -0.010 CG0
ATOM     11  C   UNL     1      -1.854 -11.770  30.219  1.00  0.00     0.016 C 
ATOM     12  C   UNL     1      -4.324 -11.505  29.945  1.00  0.00     0.016 C 
ATOM     13  G   UNL     1      -3.261 -13.601  29.082  1.00  0.00     0.000 G0
ENDBRANCH   9  10
ENDBRANCH   3   8
TORSDOF 0
ENDMDL
MODEL 5
REMARK VINA RESULT:    -4.106      2.550      3.981
REMARK INTER + INTRA:          -4.211
REMARK INTER:                  -5.055
REMARK INTRA:                   0.844
REMARK UNBOUND:                 0.856
REMARK SMILES CC1=CC=CC(C)(C)CC1=O
REMARK SMILES IDX 1 1 2 2 3 3 10 4 11 5 9 6 4 8 5 9 6 10 7 11 8 12
REMARK H PARENT
REMARK Flexibility Score: 80.00
ROOT
ATOM      1  C   UNL     1      -0.357 -14.381  28.407  1.00  0.00     0.048 C 
ATOM      2  C   UNL     1      -1.161 -13.638  29.448  1.00  0.00    -0.008 C 
ATOM      3  C   UNL     1      -0.522 -13.233  30.568  1.00  0.00     0.007 C 
ENDROOT
BRANCH   2   4
ATOM      4  C   UNL     1      -2.612 -13.462  29.172  1.00  0.00     0.159 C 
ATOM      5  O   UNL     1      -3.060 -13.823  28.049  1.00  0.00    -0.295 OA
BRANCH   4   6
ATOM      6  C   UNL     1      -3.597 -12.915  30.163  1.00  0.00     0.091 CG0
ATOM      7  G   UNL     1      -3.205 -11.534  30.738  1.00  0.00     0.000 G0
ENDBRANCH   4   6
ENDBRANCH   2   4
BRANCH   3   8
ATOM      8  C   UNL     1      -1.042 -12.486  31.736  1.00  0.00    -0.003 C 
ATOM      9  C   UNL     1      -2.147 -11.737  31.824  1.00  0.00    -0.020 C 
BRANCH   9  10
ATOM     10  C   UNL     1      -3.176 -11.537  30.737  1.00  0.00    -0.010 CG0
ATOM     11  C   UNL     1      -2.641 -10.564  29.663  1.00  0.00     0.016 C 
ATOM     12  C   UNL     1      -4.433 -10.899  31.373  1.00  0.00     0.016 C 
ATOM     13  G   UNL     1      -3.579 -12.910  30.152  1.00  0.00     0.000 G0
ENDBRANCH   9  10
ENDBRANCH   3   8
TORSDOF 0
ENDMDL
MODEL 6
REMARK VINA RESULT:    -4.034      1.552      2.820
REMARK INTER + INTRA:          -4.122
REMARK INTER:                  -4.978
REMARK INTRA:                   0.856
REMARK UNBOUND:                 0.856
REMARK SMILES CC1=CC=CC(C)(C)CC1=O
REMARK SMILES IDX 1 1 2 2 3 3 10 4 11 5 9 6 4 8 5 9 6 10 7 11 8 12
REMARK H PARENT
REMARK Flexibility Score: 80.00
ROOT
ATOM      1  C   UNL     1      -5.306 -14.794  32.022  1.00  0.00     0.048 C 
ATOM      2  C   UNL     1      -4.651 -13.767  31.128  1.00  0.00    -0.008 C 
ATOM      3  C   UNL     1      -3.638 -13.036  31.643  1.00  0.00     0.007 C 
ENDROOT
BRANCH   2   4
ATOM      4  C   UNL     1      -5.218 -13.612  29.762  1.00  0.00     0.159 C 
ATOM      5  O   UNL     1      -6.137 -14.396  29.398  1.00  0.00    -0.295 OA
BRANCH   4   6
ATOM      6  C   UNL     1      -4.794 -12.550  28.790  1.00  0.00     0.091 CG0
ATOM      7  G   UNL     1      -3.268 -12.495  28.548  1.00  0.00     0.000 G0
ENDBRANCH   4   6
ENDBRANCH   2   4
BRANCH   3   8
ATOM      8  C   UNL     1      -2.813 -11.982  31.009  1.00  0.00    -0.003 C 
ATOM      9  C   UNL     1      -2.617 -11.748  29.706  1.00  0.00    -0.020 C 
BRANCH   9  10
ATOM     10  C   UNL     1      -3.265 -12.486  28.560  1.00  0.00    -0.010 CG0
ATOM     11  C   UNL     1      -2.624 -13.881  28.388  1.00  0.00     0.016 C 
ATOM     12  C   UNL     1      -3.012 -11.683  27.263  1.00  0.00     0.016 C 
ATOM     13  G   UNL     1      -4.792 -12.555  28.792  1.00  0.00     0.000 G0
ENDBRANCH   9  10
ENDBRANCH   3   8
TORSDOF 0
ENDMDL
MODEL 7
REMARK VINA RESULT:    -3.963      2.205      3.163
REMARK INTER + INTRA:          -4.034
REMARK INTER:                  -4.884
REMARK INTRA:                   0.851
REMARK UNBOUND:                 0.856
REMARK SMILES CC1=CC=CC(C)(C)CC1=O
REMARK SMILES IDX 1 1 2 2 3 3 10 4 11 5 9 6 4 8 5 9 6 10 7 11 8 12
REMARK H PARENT
REMARK Flexibility Score: 80.00
ROOT
ATOM      1  C   UNL     1      -4.201 -14.000  26.498  1.00  0.00     0.048 C 
ATOM      2  C   UNL     1      -4.041 -13.277  27.814  1.00  0.00    -0.008 C 
ATOM      3  C   UNL     1      -4.475 -13.899  28.933  1.00  0.00     0.007 C 
ENDROOT
BRANCH   2   4
ATOM      4  C   UNL     1      -3.464 -11.908  27.759  1.00  0.00     0.159 C 
ATOM      5  O   UNL     1      -3.074 -11.463  26.644  1.00  0.00    -0.295 OA
BRANCH   4   6
ATOM      6  C   UNL     1      -3.347 -10.995  28.943  1.00  0.00     0.091 CG0
ATOM      7  G   UNL     1      -2.668 -11.644  30.171  1.00  0.00     0.000 G0
ENDBRANCH   4   6
ENDBRANCH   2   4
BRANCH   3   8
ATOM      8  C   UNL     1      -4.438 -13.446  30.342  1.00  0.00    -0.003 C 
ATOM      9  C   UNL     1      -3.662 -12.508  30.898  1.00  0.00    -0.020 C 
BRANCH   9  10
ATOM     10  C   UNL     1      -2.670 -11.630  30.174  1.00  0.00    -0.010 CG0
ATOM     11  C   UNL     1      -1.403 -12.437  29.811  1.00  0.00     0.016 C 
ATOM     12  C   UNL     1      -2.249 -10.488  31.128  1.00  0.00     0.016 C 
ATOM     13  G   UNL     1      -3.350 -10.996  28.938  1.00  0.00     0.000 G0
ENDBRANCH   9  10
ENDBRANCH   3   8
TORSDOF 0
ENDMDL
MODEL 8
REMARK VINA RESULT:    -3.932      1.527      2.330
REMARK INTER + INTRA:          -3.995
REMARK INTER:                  -4.820
REMARK INTRA:                   0.824
REMARK UNBOUND:                 0.856
REMARK SMILES CC1=CC=CC(C)(C)CC1=O
REMARK SMILES IDX 1 1 2 2 3 3 10 4 11 5 9 6 4 8 5 9 6 10 7 11 8 12
REMARK H PARENT
REMARK Flexibility Score: 80.00
ROOT
ATOM      1  C   UNL     1      -4.636 -14.436  26.843  1.00  0.00     0.048 C 
ATOM      2  C   UNL     1      -4.235 -13.986  28.229  1.00  0.00    -0.008 C 
ATOM      3  C   UNL     1      -2.945 -13.639  28.431  1.00  0.00     0.007 C 
ENDROOT
BRANCH   2   4
ATOM      4  C   UNL     1      -5.293 -14.015  29.273  1.00  0.00     0.159 C 
ATOM      5  O   UNL     1      -6.471 -14.312  28.930  1.00  0.00    -0.295 OA
BRANCH   4   6
ATOM      6  C   UNL     1      -5.047 -13.750  30.729  1.00  0.00     0.091 CG0
ATOM      7  G   UNL     1      -4.306 -12.422  31.007  1.00  0.00     0.000 G0
ENDBRANCH   4   6
ENDBRANCH   2   4
BRANCH   3   8
ATOM      8  C   UNL     1      -2.277 -13.155  29.661  1.00  0.00    -0.003 C 
ATOM      9  C   UNL     1      -2.829 -12.610  30.752  1.00  0.00    -0.020 C 
BRANCH   9  10
ATOM     10  C   UNL     1      -4.305 -12.425  31.005  1.00  0.00    -0.010 CG0
ATOM     11  C   UNL     1      -4.844 -11.228  30.189  1.00  0.00     0.016 C 
ATOM     12  C   UNL     1      -4.502 -12.104  32.505  1.00  0.00     0.016 C 
ATOM     13  G   UNL     1      -5.050 -13.743  30.694  1.00  0.00     0.000 G0
ENDBRANCH   9  10
ENDBRANCH   3   8
TORSDOF 0
ENDMDL
MODEL 9
REMARK VINA RESULT:    -3.905      2.922      4.083
REMARK INTER + INTRA:          -3.963
REMARK INTER:                  -4.822
REMARK INTRA:                   0.860
REMARK UNBOUND:                 0.856
REMARK SMILES CC1=CC=CC(C)(C)CC1=O
REMARK SMILES IDX 1 1 2 2 3 3 10 4 11 5 9 6 4 8 5 9 6 10 7 11 8 12
REMARK H PARENT
REMARK Flexibility Score: 80.00
ROOT
ATOM      1  C   UNL     1      -0.096 -14.001  28.666  1.00  0.00     0.048 C 
ATOM      2  C   UNL     1      -1.223 -13.176  29.243  1.00  0.00    -0.008 C 
ATOM      3  C   UNL     1      -2.330 -13.005  28.487  1.00  0.00     0.007 C 
ENDROOT
BRANCH   2   4
ATOM      4  C   UNL     1      -0.993 -12.575  30.583  1.00  0.00     0.159 C 
ATOM      5  O   UNL     1       0.086 -12.836  31.184  1.00  0.00    -0.295 OA
BRANCH   4   6
ATOM      6  C   UNL     1      -1.949 -11.638  31.260  1.00  0.00     0.091 CG0
ATOM      7  G   UNL     1      -3.400 -12.166  31.330  1.00  0.00     0.000 G0
ENDBRANCH   4   6
ENDBRANCH   2   4
BRANCH   3   8
ATOM      8  C   UNL     1      -3.578 -12.268  28.791  1.00  0.00    -0.003 C 
ATOM      9  C   UNL     1      -4.073 -11.921  29.984  1.00  0.00    -0.020 C 
BRANCH   9  10
ATOM     10  C   UNL     1      -3.414 -12.152  31.323  1.00  0.00    -0.010 CG0
ATOM     11  C   UNL     1      -3.519 -13.640  31.724  1.00  0.00     0.016 C 
ATOM     12  C   UNL     1      -4.172 -11.320  32.384  1.00  0.00     0.016 C 
ATOM     13  G   UNL     1      -1.954 -11.648  31.271  1.00  0.00     0.000 G0
ENDBRANCH   9  10
ENDBRANCH   3   8
TORSDOF 0
ENDMDL
