MODEL 1
REMARK VINA RESULT:    -4.012      0.000      0.000
REMARK INTER + INTRA:          -6.810
REMARK INTER:                  -5.537
REMARK INTRA:                  -1.274
REMARK UNBOUND:                -1.274
REMARK SMILES CCCCc1cccc(O)c1CCCC
REMARK SMILES IDX 5 1 11 2 9 3 8 4 7 5 6 6 4 7 3 8 2 9 1 10 12 11 13 12 14 13
REMARK SMILES IDX 15 14 10 15
REMARK H PARENT 10 16
REMARK Flexibility Score: inf
ROOT
ATOM      1  C   UNL     1      -5.894   7.213  -3.681  1.00  0.00    -0.041 A 
ATOM      2  C   UNL     1      -6.101   5.861  -4.092  1.00  0.00    -0.003 A 
ATOM      3  C   UNL     1      -5.046   4.922  -3.910  1.00  0.00     0.119 A 
ATOM      4  C   UNL     1      -3.810   5.343  -3.414  1.00  0.00     0.046 A 
ATOM      5  C   UNL     1      -3.606   6.669  -3.050  1.00  0.00     0.004 A 
ATOM      6  C   UNL     1      -4.640   7.591  -3.169  1.00  0.00     0.004 A 
ENDROOT
BRANCH   1   7
ATOM      7  C   UNL     1      -6.967   8.288  -3.743  1.00  0.00     0.036 C 
BRANCH   7   8
ATOM      8  C   UNL     1      -7.597   8.573  -2.365  1.00  0.00     0.004 C 
BRANCH   8   9
ATOM      9  C   UNL     1      -9.132   8.495  -2.356  1.00  0.00    -0.003 C 
ATOM     10  C   UNL     1      -9.738   8.795  -3.728  1.00  0.00     0.004 C 
ENDBRANCH   8   9
ENDBRANCH   7   8
ENDBRANCH   1   7
BRANCH   2  11
ATOM     11  C   UNL     1      -7.426   5.405  -4.672  1.00  0.00     0.040 C 
BRANCH  11  12
ATOM     12  C   UNL     1      -8.399   4.994  -3.557  1.00  0.00     0.005 C 
BRANCH  12  13
ATOM     13  C   UNL     1      -9.869   5.087  -3.992  1.00  0.00    -0.003 C 
ATOM     14  C   UNL     1     -10.027   5.384  -5.483  1.00  0.00     0.004 C 
ENDBRANCH  12  13
ENDBRANCH  11  12
ENDBRANCH   2  11
BRANCH   3  15
ATOM     15  O   UNL     1      -5.188   3.560  -4.195  1.00  0.00    -0.508 OA
ATOM     16  H   UNL     1      -4.972   2.817  -3.545  1.00  0.00     0.293 HD
ENDBRANCH   3  15
TORSDOF 7
ENDMDL
MODEL 2
REMARK VINA RESULT:    -3.945      1.437      3.537
REMARK INTER + INTRA:          -6.717
REMARK INTER:                  -5.760
REMARK INTRA:                  -0.957
REMARK UNBOUND:                -1.274
REMARK SMILES CCCCc1cccc(O)c1CCCC
REMARK SMILES IDX 5 1 11 2 9 3 8 4 7 5 6 6 4 7 3 8 2 9 1 10 12 11 13 12 14 13
REMARK SMILES IDX 15 14 10 15
REMARK H PARENT 10 16
REMARK Flexibility Score: inf
ROOT
ATOM      1  C   UNL     1      -6.766   5.552  -4.096  1.00  0.00    -0.041 A 
ATOM      2  C   UNL     1      -6.039   6.758  -3.862  1.00  0.00    -0.003 A 
ATOM      3  C   UNL     1      -4.648   6.672  -3.570  1.00  0.00     0.119 A 
ATOM      4  C   UNL     1      -4.035   5.424  -3.437  1.00  0.00     0.046 A 
ATOM      5  C   UNL     1      -4.759   4.254  -3.631  1.00  0.00     0.004 A 
ATOM      6  C   UNL     1      -6.106   4.316  -3.970  1.00  0.00     0.004 A 
ENDROOT
BRANCH   1   7
ATOM      7  C   UNL     1      -8.232   5.514  -4.499  1.00  0.00     0.036 C 
BRANCH   7   8
ATOM      8  C   UNL     1      -8.424   5.546  -6.028  1.00  0.00     0.004 C 
BRANCH   8   9
ATOM      9  C   UNL     1      -9.844   5.174  -6.483  1.00  0.00    -0.003 C 
ATOM     10  C   UNL     1     -10.851   5.207  -5.333  1.00  0.00     0.004 C 
ENDBRANCH   8   9
ENDBRANCH   7   8
ENDBRANCH   1   7
BRANCH   2  11
ATOM     11  C   UNL     1      -6.706   8.116  -3.961  1.00  0.00     0.040 C 
BRANCH  11  12
ATOM     12  C   UNL     1      -7.121   8.624  -2.572  1.00  0.00     0.005 C 
BRANCH  12  13
ATOM     13  C   UNL     1      -8.613   8.981  -2.495  1.00  0.00    -0.003 C 
ATOM     14  C   UNL     1      -9.270   9.076  -3.872  1.00  0.00     0.004 C 
ENDBRANCH  12  13
ENDBRANCH  11  12
ENDBRANCH   2  11
BRANCH   3  15
ATOM     15  O   UNL     1      -3.835   7.800  -3.419  1.00  0.00    -0.508 OA
ATOM     16  H   UNL     1      -3.041   7.850  -2.795  1.00  0.00     0.293 HD
ENDBRANCH   3  15
TORSDOF 7
ENDMDL
MODEL 3
REMARK VINA RESULT:    -3.801      2.365      5.139
REMARK INTER + INTRA:          -6.519
REMARK INTER:                  -5.408
REMARK INTRA:                  -1.111
REMARK UNBOUND:                -1.274
REMARK SMILES CCCCc1cccc(O)c1CCCC
REMARK SMILES IDX 5 1 11 2 9 3 8 4 7 5 6 6 4 7 3 8 2 9 1 10 12 11 13 12 14 13
REMARK SMILES IDX 15 14 10 15
REMARK H PARENT 10 16
REMARK Flexibility Score: inf
ROOT
ATOM      1  C   UNL     1      -8.119   6.786  -4.372  1.00  0.00    -0.041 A 
ATOM      2  C   UNL     1      -9.022   7.754  -3.836  1.00  0.00    -0.003 A 
ATOM      3  C   UNL     1     -10.391   7.398  -3.676  1.00  0.00     0.119 A 
ATOM      4  C   UNL     1     -10.848   6.153  -4.114  1.00  0.00     0.046 A 
ATOM      5  C   UNL     1      -9.969   5.230  -4.668  1.00  0.00     0.004 A 
ATOM      6  C   UNL     1      -8.617   5.536  -4.783  1.00  0.00     0.004 A 
ENDROOT
BRANCH   1   7
ATOM      7  C   UNL     1      -6.623   7.014  -4.512  1.00  0.00     0.036 C 
BRANCH   7   8
ATOM      8  C   UNL     1      -5.795   5.809  -4.022  1.00  0.00     0.004 C 
BRANCH   8   9
ATOM      9  C   UNL     1      -4.645   6.189  -3.076  1.00  0.00    -0.003 C 
ATOM     10  C   UNL     1      -4.212   7.646  -3.244  1.00  0.00     0.004 C 
ENDBRANCH   8   9
ENDBRANCH   7   8
ENDBRANCH   1   7
BRANCH   2  11
ATOM     11  C   UNL     1      -8.543   9.125  -3.398  1.00  0.00     0.040 C 
BRANCH  11  12
ATOM     12  C   UNL     1      -7.578   9.012  -2.208  1.00  0.00     0.005 C 
BRANCH  12  13
ATOM     13  C   UNL     1      -8.189   8.253  -1.021  1.00  0.00    -0.003 C 
ATOM     14  C   UNL     1      -7.381   7.015  -0.630  1.00  0.00     0.004 C 
ENDBRANCH  12  13
ENDBRANCH  11  12
ENDBRANCH   2  11
BRANCH   3  15
ATOM     15  O   UNL     1     -11.328   8.244  -3.075  1.00  0.00    -0.508 OA
ATOM     16  H   UNL     1     -11.969   8.838  -3.585  1.00  0.00     0.293 HD
ENDBRANCH   3  15
TORSDOF 7
ENDMDL
MODEL 4
REMARK VINA RESULT:    -3.792      2.282      4.090
REMARK INTER + INTRA:          -6.507
REMARK INTER:                  -5.371
REMARK INTRA:                  -1.135
REMARK UNBOUND:                -1.274
REMARK SMILES CCCCc1cccc(O)c1CCCC
REMARK SMILES IDX 5 1 11 2 9 3 8 4 7 5 6 6 4 7 3 8 2 9 1 10 12 11 13 12 14 13
REMARK SMILES IDX 15 14 10 15
REMARK H PARENT 10 16
REMARK Flexibility Score: inf
ROOT
ATOM      1  C   UNL     1     -10.159   7.457  -4.079  1.00  0.00    -0.041 A 
ATOM      2  C   UNL     1      -9.350   6.356  -4.496  1.00  0.00    -0.003 A 
ATOM      3  C   UNL     1      -7.933   6.484  -4.429  1.00  0.00     0.119 A 
ATOM      4  C   UNL     1      -7.356   7.695  -4.038  1.00  0.00     0.046 A 
ATOM      5  C   UNL     1      -8.152   8.773  -3.668  1.00  0.00     0.004 A 
ATOM      6  C   UNL     1      -9.537   8.652  -3.675  1.00  0.00     0.004 A 
ENDROOT
BRANCH   1   7
ATOM      7  C   UNL     1     -11.678   7.415  -4.023  1.00  0.00     0.036 C 
BRANCH   7   8
ATOM      8  C   UNL     1     -12.320   8.741  -4.476  1.00  0.00     0.004 C 
BRANCH   8   9
ATOM      9  C   UNL     1     -12.715   8.764  -5.962  1.00  0.00    -0.003 C 
ATOM     10  C   UNL     1     -12.993   7.364  -6.511  1.00  0.00     0.004 C 
ENDBRANCH   8   9
ENDBRANCH   7   8
ENDBRANCH   1   7
BRANCH   2  11
ATOM     11  C   UNL     1      -9.968   5.053  -4.963  1.00  0.00     0.040 C 
BRANCH  11  12
ATOM     12  C   UNL     1     -10.094   5.025  -6.494  1.00  0.00     0.005 C 
BRANCH  12  13
ATOM     13  C   UNL     1     -11.186   4.061  -6.979  1.00  0.00    -0.003 C 
ATOM     14  C   UNL     1     -11.864   3.309  -5.833  1.00  0.00     0.004 C 
ENDBRANCH  12  13
ENDBRANCH  11  12
ENDBRANCH   2  11
BRANCH   3  15
ATOM     15  O   UNL     1      -7.063   5.431  -4.726  1.00  0.00    -0.508 OA
ATOM     16  H   UNL     1      -6.109   5.371  -4.398  1.00  0.00     0.293 HD
ENDBRANCH   3  15
TORSDOF 7
ENDMDL
MODEL 5
REMARK VINA RESULT:    -3.779      2.123      4.442
REMARK INTER + INTRA:          -6.488
REMARK INTER:                  -5.839
REMARK INTRA:                  -0.649
REMARK UNBOUND:                -1.274
REMARK SMILES CCCCc1cccc(O)c1CCCC
REMARK SMILES IDX 5 1 11 2 9 3 8 4 7 5 6 6 4 7 3 8 2 9 1 10 12 11 13 12 14 13
REMARK SMILES IDX 15 14 10 15
REMARK H PARENT 10 16
REMARK Flexibility Score: inf
ROOT
ATOM      1  C   UNL     1      -5.612   5.377  -4.052  1.00  0.00    -0.041 A 
ATOM      2  C   UNL     1      -6.872   6.045  -3.983  1.00  0.00    -0.003 A 
ATOM      3  C   UNL     1      -6.911   7.382  -3.494  1.00  0.00     0.119 A 
ATOM      4  C   UNL     1      -5.747   7.989  -3.018  1.00  0.00     0.046 A 
ATOM      5  C   UNL     1      -4.530   7.317  -3.056  1.00  0.00     0.004 A 
ATOM      6  C   UNL     1      -4.459   6.031  -3.579  1.00  0.00     0.004 A 
ENDROOT
BRANCH   1   7
ATOM      7  C   UNL     1      -5.426   3.983  -4.633  1.00  0.00     0.036 C 
BRANCH   7   8
ATOM      8  C   UNL     1      -3.949   3.665  -4.938  1.00  0.00     0.004 C 
BRANCH   8   9
ATOM      9  C   UNL     1      -3.443   2.372  -4.279  1.00  0.00    -0.003 C 
ATOM     10  C   UNL     1      -4.501   1.268  -4.277  1.00  0.00     0.004 C 
ENDBRANCH   8   9
ENDBRANCH   7   8
ENDBRANCH   1   7
BRANCH   2  11
ATOM     11  C   UNL     1      -8.148   5.378  -4.457  1.00  0.00     0.040 C 
BRANCH  11  12
ATOM     12  C   UNL     1      -8.402   5.677  -5.943  1.00  0.00     0.005 C 
BRANCH  12  13
ATOM     13  C   UNL     1      -9.710   5.056  -6.455  1.00  0.00    -0.003 C 
ATOM     14  C   UNL     1     -10.715   4.786  -5.335  1.00  0.00     0.004 C 
ENDBRANCH  12  13
ENDBRANCH  11  12
ENDBRANCH   2  11
BRANCH   3  15
ATOM     15  O   UNL     1      -8.081   8.148  -3.478  1.00  0.00    -0.508 OA
ATOM     16  H   UNL     1      -9.012   7.763  -3.389  1.00  0.00     0.293 HD
ENDBRANCH   3  15
TORSDOF 7
ENDMDL
MODEL 6
REMARK VINA RESULT:    -3.752      2.144      4.434
REMARK INTER + INTRA:          -6.451
REMARK INTER:                  -5.822
REMARK INTRA:                  -0.629
REMARK UNBOUND:                -1.274
REMARK SMILES CCCCc1cccc(O)c1CCCC
REMARK SMILES IDX 5 1 11 2 9 3 8 4 7 5 6 6 4 7 3 8 2 9 1 10 12 11 13 12 14 13
REMARK SMILES IDX 15 14 10 15
REMARK H PARENT 10 16
REMARK Flexibility Score: inf
ROOT
ATOM      1  C   UNL     1      -7.143   6.665  -3.804  1.00  0.00    -0.041 A 
ATOM      2  C   UNL     1      -8.547   6.577  -4.047  1.00  0.00    -0.003 A 
ATOM      3  C   UNL     1      -9.361   7.713  -3.772  1.00  0.00     0.119 A 
ATOM      4  C   UNL     1      -8.800   8.856  -3.199  1.00  0.00     0.046 A 
ATOM      5  C   UNL     1      -7.437   8.919  -2.932  1.00  0.00     0.004 A 
ATOM      6  C   UNL     1      -6.614   7.842  -3.243  1.00  0.00     0.004 A 
ENDROOT
BRANCH   1   7
ATOM      7  C   UNL     1      -6.157   5.556  -4.135  1.00  0.00     0.036 C 
BRANCH   7   8
ATOM      8  C   UNL     1      -4.924   5.568  -3.211  1.00  0.00     0.004 C 
BRANCH   8   9
ATOM      9  C   UNL     1      -3.692   4.872  -3.811  1.00  0.00    -0.003 C 
ATOM     10  C   UNL     1      -4.067   3.841  -4.876  1.00  0.00     0.004 C 
ENDBRANCH   8   9
ENDBRANCH   7   8
ENDBRANCH   1   7
BRANCH   2  11
ATOM     11  C   UNL     1      -9.173   5.324  -4.628  1.00  0.00     0.040 C 
BRANCH  11  12
ATOM     12  C   UNL     1      -9.142   5.360  -6.164  1.00  0.00     0.005 C 
BRANCH  12  13
ATOM     13  C   UNL     1     -10.513   5.059  -6.788  1.00  0.00    -0.003 C 
ATOM     14  C   UNL     1     -11.232   3.895  -6.105  1.00  0.00     0.004 C 
ENDBRANCH  12  13
ENDBRANCH  11  12
ENDBRANCH   2  11
BRANCH   3  15
ATOM     15  O   UNL     1     -10.728   7.753  -4.065  1.00  0.00    -0.508 OA
ATOM     16  H   UNL     1     -11.447   7.988  -3.394  1.00  0.00     0.293 HD
ENDBRANCH   3  15
TORSDOF 7
ENDMDL
MODEL 7
REMARK VINA RESULT:    -3.724      2.448      4.558
REMARK INTER + INTRA:          -6.412
REMARK INTER:                  -5.254
REMARK INTRA:                  -1.159
REMARK UNBOUND:                -1.274
REMARK SMILES CCCCc1cccc(O)c1CCCC
REMARK SMILES IDX 5 1 11 2 9 3 8 4 7 5 6 6 4 7 3 8 2 9 1 10 12 11 13 12 14 13
REMARK SMILES IDX 15 14 10 15
REMARK H PARENT 10 16
REMARK Flexibility Score: inf
ROOT
ATOM      1  C   UNL     1      -8.227   8.230  -3.160  1.00  0.00    -0.041 A 
ATOM      2  C   UNL     1      -9.597   7.865  -2.988  1.00  0.00    -0.003 A 
ATOM      3  C   UNL     1     -10.247   8.202  -1.767  1.00  0.00     0.119 A 
ATOM      4  C   UNL     1      -9.528   8.805  -0.733  1.00  0.00     0.046 A 
ATOM      5  C   UNL     1      -8.184   9.125  -0.896  1.00  0.00     0.004 A 
ATOM      6  C   UNL     1      -7.544   8.854  -2.100  1.00  0.00     0.004 A 
ENDROOT
BRANCH   1   7
ATOM      7  C   UNL     1      -7.448   8.003  -4.446  1.00  0.00     0.036 C 
BRANCH   7   8
ATOM      8  C   UNL     1      -6.170   7.172  -4.220  1.00  0.00     0.004 C 
BRANCH   8   9
ATOM      9  C   UNL     1      -6.428   5.665  -4.063  1.00  0.00    -0.003 C 
ATOM     10  C   UNL     1      -5.133   4.863  -3.934  1.00  0.00     0.004 C 
ENDBRANCH   8   9
ENDBRANCH   7   8
ENDBRANCH   1   7
BRANCH   2  11
ATOM     11  C   UNL     1     -10.375   7.170  -4.089  1.00  0.00     0.040 C 
BRANCH  11  12
ATOM     12  C   UNL     1     -10.194   5.647  -4.009  1.00  0.00     0.005 C 
BRANCH  12  13
ATOM     13  C   UNL     1     -10.400   4.955  -5.364  1.00  0.00    -0.003 C 
ATOM     14  C   UNL     1      -9.311   5.304  -6.379  1.00  0.00     0.004 C 
ENDBRANCH  12  13
ENDBRANCH  11  12
ENDBRANCH   2  11
BRANCH   3  15
ATOM     15  O   UNL     1     -11.608   7.970  -1.545  1.00  0.00    -0.508 OA
ATOM     16  H   UNL     1     -12.349   8.583  -1.858  1.00  0.00     0.293 HD
ENDBRANCH   3  15
TORSDOF 7
ENDMDL
MODEL 8
REMARK VINA RESULT:    -3.684      1.923      4.539
REMARK INTER + INTRA:          -6.357
REMARK INTER:                  -4.925
REMARK INTRA:                  -1.432
REMARK UNBOUND:                -1.274
REMARK SMILES CCCCc1cccc(O)c1CCCC
REMARK SMILES IDX 5 1 11 2 9 3 8 4 7 5 6 6 4 7 3 8 2 9 1 10 12 11 13 12 14 13
REMARK SMILES IDX 15 14 10 15
REMARK H PARENT 10 16
REMARK Flexibility Score: inf
ROOT
ATOM      1  C   UNL     1      -9.074   8.111  -3.542  1.00  0.00    -0.041 A 
ATOM      2  C   UNL     1      -8.788   6.952  -4.325  1.00  0.00    -0.003 A 
ATOM      3  C   UNL     1      -9.872   6.157  -4.793  1.00  0.00     0.119 A 
ATOM      4  C   UNL     1     -11.182   6.468  -4.420  1.00  0.00     0.046 A 
ATOM      5  C   UNL     1     -11.448   7.579  -3.627  1.00  0.00     0.004 A 
ATOM      6  C   UNL     1     -10.409   8.400  -3.204  1.00  0.00     0.004 A 
ENDROOT
BRANCH   1   7
ATOM      7  C   UNL     1      -8.013   9.085  -3.056  1.00  0.00     0.036 C 
BRANCH   7   8
ATOM      8  C   UNL     1      -7.908   9.123  -1.518  1.00  0.00     0.004 C 
BRANCH   8   9
ATOM      9  C   UNL     1      -7.497   7.782  -0.891  1.00  0.00    -0.003 C 
ATOM     10  C   UNL     1      -8.621   7.160  -0.060  1.00  0.00     0.004 C 
ENDBRANCH   8   9
ENDBRANCH   7   8
ENDBRANCH   1   7
BRANCH   2  11
ATOM     11  C   UNL     1      -7.365   6.581  -4.698  1.00  0.00     0.040 C 
BRANCH  11  12
ATOM     12  C   UNL     1      -6.787   5.562  -3.705  1.00  0.00     0.005 C 
BRANCH  12  13
ATOM     13  C   UNL     1      -5.274   5.727  -3.502  1.00  0.00    -0.003 C 
ATOM     14  C   UNL     1      -4.825   7.188  -3.562  1.00  0.00     0.004 C 
ENDBRANCH  12  13
ENDBRANCH  11  12
ENDBRANCH   2  11
BRANCH   3  15
ATOM     15  O   UNL     1      -9.696   5.060  -5.641  1.00  0.00    -0.508 OA
ATOM     16  H   UNL     1      -9.858   4.099  -5.371  1.00  0.00     0.293 HD
ENDBRANCH   3  15
TORSDOF 7
ENDMDL
MODEL 9
REMARK VINA RESULT:    -3.569      2.600      5.188
REMARK INTER + INTRA:          -6.198
REMARK INTER:                  -4.950
REMARK INTRA:                  -1.248
REMARK UNBOUND:                -1.274
REMARK SMILES CCCCc1cccc(O)c1CCCC
REMARK SMILES IDX 5 1 11 2 9 3 8 4 7 5 6 6 4 7 3 8 2 9 1 10 12 11 13 12 14 13
REMARK SMILES IDX 15 14 10 15
REMARK H PARENT 10 16
REMARK Flexibility Score: inf
ROOT
ATOM      1  C   UNL     1      -6.109   6.741  -3.468  1.00  0.00    -0.041 A 
ATOM      2  C   UNL     1      -6.393   6.960  -2.087  1.00  0.00    -0.003 A 
ATOM      3  C   UNL     1      -7.452   7.847  -1.739  1.00  0.00     0.119 A 
ATOM      4  C   UNL     1      -8.137   8.546  -2.735  1.00  0.00     0.046 A 
ATOM      5  C   UNL     1      -7.829   8.353  -4.076  1.00  0.00     0.004 A 
ATOM      6  C   UNL     1      -6.836   7.451  -4.441  1.00  0.00     0.004 A 
ENDROOT
BRANCH   1   7
ATOM      7  C   UNL     1      -5.064   5.756  -3.969  1.00  0.00     0.036 C 
BRANCH   7   8
ATOM      8  C   UNL     1      -5.680   4.408  -4.393  1.00  0.00     0.004 C 
BRANCH   8   9
ATOM      9  C   UNL     1      -4.651   3.276  -4.542  1.00  0.00    -0.003 C 
ATOM     10  C   UNL     1      -3.261   3.797  -4.907  1.00  0.00     0.004 C 
ENDBRANCH   8   9
ENDBRANCH   7   8
ENDBRANCH   1   7
BRANCH   2  11
ATOM     11  C   UNL     1      -5.625   6.239  -0.996  1.00  0.00     0.040 C 
BRANCH  11  12
ATOM     12  C   UNL     1      -6.305   4.909  -0.636  1.00  0.00     0.005 C 
BRANCH  12  13
ATOM     13  C   UNL     1      -5.333   3.721  -0.673  1.00  0.00    -0.003 C 
ATOM     14  C   UNL     1      -3.881   4.149  -0.888  1.00  0.00     0.004 C 
ENDBRANCH  12  13
ENDBRANCH  11  12
ENDBRANCH   2  11
BRANCH   3  15
ATOM     15  O   UNL     1      -7.864   8.052  -0.418  1.00  0.00    -0.508 OA
ATOM     16  H   UNL     1      -7.233   8.166   0.364  1.00  0.00     0.293 HD
ENDBRANCH   3  15
TORSDOF 7
ENDMDL
