MODEL 1
REMARK VINA RESULT:    -7.558      0.000      0.000
REMARK INTER + INTRA:         -12.537
REMARK INTER:                 -11.756
REMARK INTRA:                  -0.782
REMARK UNBOUND:                -0.782
REMARK SMILES C[C@]12C[C@]3(O)O[C@H](O1)[C@@]1(COC(=O)c4ccccc4)[C@@H]3C[C@]12O[C@@H]1O[C@H](CO)[C@@H](O)[C@@H](O)[C@H]1O
REMARK SMILES IDX 1 1 2 2 3 3 4 4 20 5 21 6 22 7 9 8 7 9 8 10 6 11 23 12 24 13
REMARK SMILES IDX 33 14 25 15 31 16 26 17 29 18 34 19 32 21 27 23 28 24 30 26
REMARK SMILES IDX 5 28 10 30 11 31 12 32 13 33 14 34 15 35 19 36 16 37 18 38
REMARK SMILES IDX 17 39
REMARK H PARENT 34 20 32 22 28 25 30 27 5 29
REMARK Flexibility Score: inf
ROOT
ATOM      1  C   UNL     1     170.567 143.186 157.295  1.00  0.00     0.046 C 
ATOM      2  C   UNL     1     170.167 144.286 156.311  1.00  0.00     0.104 C 
ATOM      3  C   UNL     1     169.852 145.618 157.092  1.00  0.00     0.104 C 
ATOM      4  C   UNL     1     169.555 146.654 155.956  1.00  0.00     0.175 C 
ATOM      5  C   UNL     1     170.679 146.606 154.878  1.00  0.00     0.070 C 
ATOM      6  C   UNL     1     171.953 145.900 155.367  1.00  0.00     0.050 C 
ATOM      7  C   UNL     1     171.204 144.577 155.152  1.00  0.00     0.115 C 
ATOM      8  C   UNL     1     170.266 145.311 154.185  1.00  0.00     0.096 C 
ATOM      9  C   UNL     1     168.852 145.005 154.655  1.00  0.00     0.267 C 
ATOM     10  O   UNL     1     168.969 143.969 155.627  1.00  0.00    -0.342 OA
ATOM     11  O   UNL     1     168.398 146.189 155.290  1.00  0.00    -0.320 OA
ENDROOT
BRANCH   7  12
ATOM     12  O   UNL     1     172.059 143.538 154.669  1.00  0.00    -0.339 OA
BRANCH  12  13
ATOM     13  C   UNL     1     173.452 143.755 154.869  1.00  0.00     0.282 C 
ATOM     14  C   UNL     1     173.927 143.061 156.167  1.00  0.00     0.202 C 
ATOM     15  O   UNL     1     174.206 143.333 153.736  1.00  0.00    -0.341 OA
ATOM     16  C   UNL     1     173.946 141.534 155.992  1.00  0.00     0.179 C 
ATOM     17  C   UNL     1     174.250 141.924 153.519  1.00  0.00     0.178 C 
ATOM     18  C   UNL     1     174.752 141.137 154.748  1.00  0.00     0.177 C 
BRANCH  14  19
ATOM     19  O   UNL     1     175.205 143.544 156.501  1.00  0.00    -0.385 OA
ATOM     20  H   UNL     1     175.634 143.851 155.659  1.00  0.00     0.211 HD
ENDBRANCH  14  19
BRANCH  16  21
ATOM     21  O   UNL     1     174.410 140.879 157.148  1.00  0.00    -0.387 OA
ATOM     22  H   UNL     1     175.077 140.196 156.878  1.00  0.00     0.211 HD
ENDBRANCH  16  21
BRANCH  17  23
ATOM     23  C   UNL     1     172.941 141.366 152.916  1.00  0.00     0.191 C 
BRANCH  23  24
ATOM     24  O   UNL     1     172.421 142.248 151.956  1.00  0.00    -0.394 OA
ATOM     25  H   UNL     1     171.436 142.249 152.072  1.00  0.00     0.210 HD
ENDBRANCH  23  24
ENDBRANCH  17  23
BRANCH  18  26
ATOM     26  O   UNL     1     176.119 141.412 154.933  1.00  0.00    -0.387 OA
ATOM     27  H   UNL     1     176.544 141.420 154.035  1.00  0.00     0.211 HD
ENDBRANCH  18  26
ENDBRANCH  12  13
ENDBRANCH   7  12
BRANCH   4  28
ATOM     28  O   UNL     1     169.375 147.953 156.452  1.00  0.00    -0.365 OA
ATOM     29  H   UNL     1     169.708 148.573 155.751  1.00  0.00     0.214 HD
ENDBRANCH   4  28
BRANCH   8  30
ATOM     30  C   UNL     1     170.518 145.298 152.669  1.00  0.00     0.249 C 
BRANCH  30  31
ATOM     31  O   UNL     1     169.300 145.019 151.985  1.00  0.00    -0.461 OA
BRANCH  31  32
ATOM     32  C   UNL     1     168.919 145.680 150.814  1.00  0.00     0.338 C 
ATOM     33  O   UNL     1     169.673 145.659 149.803  1.00  0.00    -0.246 OA
BRANCH  32  34
ATOM     34  C   UNL     1     167.632 146.408 150.769  1.00  0.00     0.060 A 
ATOM     35  C   UNL     1     166.837 146.539 151.923  1.00  0.00     0.015 A 
ATOM     36  C   UNL     1     167.181 146.976 149.563  1.00  0.00     0.015 A 
ATOM     37  C   UNL     1     165.618 147.226 151.870  1.00  0.00     0.001 A 
ATOM     38  C   UNL     1     165.960 147.658 149.515  1.00  0.00     0.001 A 
ATOM     39  C   UNL     1     165.180 147.785 150.668  1.00  0.00     0.000 A 
ENDBRANCH  32  34
ENDBRANCH  31  32
ENDBRANCH  30  31
ENDBRANCH   8  30
TORSDOF 12
ENDMDL
MODEL 2
REMARK VINA RESULT:    -7.489      2.266      4.666
REMARK INTER + INTRA:         -12.430
REMARK INTER:                 -12.709
REMARK INTRA:                   0.278
REMARK UNBOUND:                -0.782
REMARK SMILES C[C@]12C[C@]3(O)O[C@H](O1)[C@@]1(COC(=O)c4ccccc4)[C@@H]3C[C@]12O[C@@H]1O[C@H](CO)[C@@H](O)[C@@H](O)[C@H]1O
REMARK SMILES IDX 1 1 2 2 3 3 4 4 20 5 21 6 22 7 9 8 7 9 8 10 6 11 23 12 24 13
REMARK SMILES IDX 33 14 25 15 31 16 26 17 29 18 34 19 32 21 27 23 28 24 30 26
REMARK SMILES IDX 5 28 10 30 11 31 12 32 13 33 14 34 15 35 19 36 16 37 18 38
REMARK SMILES IDX 17 39
REMARK H PARENT 34 20 32 22 28 25 30 27 5 29
REMARK Flexibility Score: inf
ROOT
ATOM      1  C   UNL     1     172.905 143.505 152.999  1.00  0.00     0.046 C 
ATOM      2  C   UNL     1     171.902 144.072 151.995  1.00  0.00     0.104 C 
ATOM      3  C   UNL     1     171.450 142.946 150.990  1.00  0.00     0.104 C 
ATOM      4  C   UNL     1     170.370 143.651 150.102  1.00  0.00     0.175 C 
ATOM      5  C   UNL     1     169.330 144.385 151.001  1.00  0.00     0.070 C 
ATOM      6  C   UNL     1     169.363 143.918 152.465  1.00  0.00     0.050 C 
ATOM      7  C   UNL     1     170.629 144.773 152.622  1.00  0.00     0.115 C 
ATOM      8  C   UNL     1     170.186 145.583 151.397  1.00  0.00     0.096 C 
ATOM      9  C   UNL     1     171.375 145.595 150.448  1.00  0.00     0.267 C 
ATOM     10  O   UNL     1     172.481 145.078 151.184  1.00  0.00    -0.342 OA
ATOM     11  O   UNL     1     171.041 144.686 149.411  1.00  0.00    -0.320 OA
ENDROOT
BRANCH   7  12
ATOM     12  O   UNL     1     170.707 145.399 153.905  1.00  0.00    -0.339 OA
BRANCH  12  13
ATOM     13  C   UNL     1     171.720 144.892 154.768  1.00  0.00     0.282 C 
ATOM     14  C   UNL     1     172.407 146.049 155.532  1.00  0.00     0.202 C 
ATOM     15  O   UNL     1     171.195 143.909 155.656  1.00  0.00    -0.341 OA
ATOM     16  C   UNL     1     171.463 146.638 156.593  1.00  0.00     0.179 C 
ATOM     17  C   UNL     1     170.304 144.398 156.656  1.00  0.00     0.178 C 
ATOM     18  C   UNL     1     170.912 145.534 157.506  1.00  0.00     0.177 C 
BRANCH  14  19
ATOM     19  O   UNL     1     173.589 145.565 156.125  1.00  0.00    -0.385 OA
ATOM     20  H   UNL     1     174.203 146.338 156.230  1.00  0.00     0.211 HD
ENDBRANCH  14  19
BRANCH  16  21
ATOM     21  O   UNL     1     172.077 147.668 157.329  1.00  0.00    -0.387 OA
ATOM     22  H   UNL     1     173.031 147.433 157.466  1.00  0.00     0.211 HD
ENDBRANCH  16  21
BRANCH  17  23
ATOM     23  C   UNL     1     168.897 144.720 156.103  1.00  0.00     0.191 C 
BRANCH  23  24
ATOM     24  O   UNL     1     168.061 145.198 157.125  1.00  0.00    -0.394 OA
ATOM     25  H   UNL     1     167.795 146.120 156.869  1.00  0.00     0.210 HD
ENDBRANCH  23  24
ENDBRANCH  17  23
BRANCH  18  26
ATOM     26  O   UNL     1     171.933 144.999 158.312  1.00  0.00    -0.387 OA
ATOM     27  H   UNL     1     171.799 145.349 159.231  1.00  0.00     0.211 HD
ENDBRANCH  18  26
ENDBRANCH  12  13
ENDBRANCH   7  12
BRANCH   4  28
ATOM     28  O   UNL     1     169.745 142.763 149.214  1.00  0.00    -0.365 OA
ATOM     29  H   UNL     1     170.342 142.684 148.424  1.00  0.00     0.214 HD
ENDBRANCH   4  28
BRANCH   8  30
ATOM     30  C   UNL     1     169.402 146.896 151.553  1.00  0.00     0.249 C 
BRANCH  30  31
ATOM     31  O   UNL     1     169.093 147.422 150.266  1.00  0.00    -0.461 OA
BRANCH  31  32
ATOM     32  C   UNL     1     167.976 147.018 149.530  1.00  0.00     0.338 C 
ATOM     33  O   UNL     1     168.126 146.483 148.397  1.00  0.00    -0.246 OA
BRANCH  32  34
ATOM     34  C   UNL     1     166.619 147.226 150.082  1.00  0.00     0.060 A 
ATOM     35  C   UNL     1     166.327 146.898 151.419  1.00  0.00     0.015 A 
ATOM     36  C   UNL     1     165.597 147.752 149.270  1.00  0.00     0.015 A 
ATOM     37  C   UNL     1     165.039 147.093 151.932  1.00  0.00     0.001 A 
ATOM     38  C   UNL     1     164.311 147.943 149.786  1.00  0.00     0.001 A 
ATOM     39  C   UNL     1     164.032 147.616 151.117  1.00  0.00     0.000 A 
ENDBRANCH  32  34
ENDBRANCH  31  32
ENDBRANCH  30  31
ENDBRANCH   8  30
TORSDOF 12
ENDMDL
MODEL 3
REMARK VINA RESULT:    -7.414      2.165      4.907
REMARK INTER + INTRA:         -12.313
REMARK INTER:                 -11.487
REMARK INTRA:                  -0.826
REMARK UNBOUND:                -0.782
REMARK SMILES C[C@]12C[C@]3(O)O[C@H](O1)[C@@]1(COC(=O)c4ccccc4)[C@@H]3C[C@]12O[C@@H]1O[C@H](CO)[C@@H](O)[C@@H](O)[C@H]1O
REMARK SMILES IDX 1 1 2 2 3 3 4 4 20 5 21 6 22 7 9 8 7 9 8 10 6 11 23 12 24 13
REMARK SMILES IDX 33 14 25 15 31 16 26 17 29 18 34 19 32 21 27 23 28 24 30 26
REMARK SMILES IDX 5 28 10 30 11 31 12 32 13 33 14 34 15 35 19 36 16 37 18 38
REMARK SMILES IDX 17 39
REMARK H PARENT 34 20 32 22 28 25 30 27 5 29
REMARK Flexibility Score: inf
ROOT
ATOM      1  C   UNL     1     172.412 145.501 158.799  1.00  0.00     0.046 C 
ATOM      2  C   UNL     1     172.861 145.447 157.339  1.00  0.00     0.104 C 
ATOM      3  C   UNL     1     174.400 145.767 157.236  1.00  0.00     0.104 C 
ATOM      4  C   UNL     1     174.719 145.582 155.714  1.00  0.00     0.175 C 
ATOM      5  C   UNL     1     174.148 144.223 155.207  1.00  0.00     0.070 C 
ATOM      6  C   UNL     1     173.801 143.252 156.347  1.00  0.00     0.050 C 
ATOM      7  C   UNL     1     172.541 144.099 156.574  1.00  0.00     0.115 C 
ATOM      8  C   UNL     1     172.675 144.614 155.136  1.00  0.00     0.096 C 
ATOM      9  C   UNL     1     172.629 146.133 155.225  1.00  0.00     0.267 C 
ATOM     10  O   UNL     1     172.227 146.443 156.557  1.00  0.00    -0.342 OA
ATOM     11  O   UNL     1     173.966 146.565 155.031  1.00  0.00    -0.320 OA
ENDROOT
BRANCH   7  12
ATOM     12  O   UNL     1     171.411 143.307 156.949  1.00  0.00    -0.339 OA
BRANCH  12  13
ATOM     13  C   UNL     1     170.408 143.991 157.691  1.00  0.00     0.282 C 
ATOM     14  C   UNL     1     169.130 144.168 156.837  1.00  0.00     0.202 C 
ATOM     15  O   UNL     1     170.135 143.327 158.922  1.00  0.00    -0.341 OA
ATOM     16  C   UNL     1     168.411 142.823 156.648  1.00  0.00     0.179 C 
ATOM     17  C   UNL     1     169.476 142.067 158.806  1.00  0.00     0.178 C 
ATOM     18  C   UNL     1     168.162 142.142 158.000  1.00  0.00     0.177 C 
BRANCH  14  19
ATOM     19  O   UNL     1     168.288 145.104 157.466  1.00  0.00    -0.385 OA
ATOM     20  H   UNL     1     168.723 145.366 158.319  1.00  0.00     0.211 HD
ENDBRANCH  14  19
BRANCH  16  21
ATOM     21  O   UNL     1     167.224 142.962 155.905  1.00  0.00    -0.387 OA
ATOM     22  H   UNL     1     167.462 143.080 154.949  1.00  0.00     0.211 HD
ENDBRANCH  16  21
BRANCH  17  23
ATOM     23  C   UNL     1     170.421 140.933 158.347  1.00  0.00     0.191 C 
BRANCH  23  24
ATOM     24  O   UNL     1     171.708 141.115 158.878  1.00  0.00    -0.394 OA
ATOM     25  H   UNL     1     172.348 140.773 158.201  1.00  0.00     0.210 HD
ENDBRANCH  23  24
ENDBRANCH  17  23
BRANCH  18  26
ATOM     26  O   UNL     1     167.213 142.860 158.751  1.00  0.00    -0.387 OA
ATOM     27  H   UNL     1     166.470 143.100 158.137  1.00  0.00     0.211 HD
ENDBRANCH  18  26
ENDBRANCH  12  13
ENDBRANCH   7  12
BRANCH   4  28
ATOM     28  O   UNL     1     176.088 145.699 155.437  1.00  0.00    -0.365 OA
ATOM     29  H   UNL     1     176.346 146.630 155.667  1.00  0.00     0.214 HD
ENDBRANCH   4  28
BRANCH   8  30
ATOM     30  C   UNL     1     171.903 143.958 153.980  1.00  0.00     0.249 C 
BRANCH  30  31
ATOM     31  O   UNL     1     171.119 144.941 153.311  1.00  0.00    -0.461 OA
BRANCH  31  32
ATOM     32  C   UNL     1     170.276 144.638 152.238  1.00  0.00     0.338 C 
ATOM     33  O   UNL     1     170.616 143.761 151.397  1.00  0.00    -0.246 OA
BRANCH  32  34
ATOM     34  C   UNL     1     168.990 145.354 152.091  1.00  0.00     0.060 A 
ATOM     35  C   UNL     1     168.643 145.968 150.872  1.00  0.00     0.015 A 
ATOM     36  C   UNL     1     168.097 145.437 153.175  1.00  0.00     0.015 A 
ATOM     37  C   UNL     1     167.426 146.648 150.743  1.00  0.00     0.001 A 
ATOM     38  C   UNL     1     166.884 146.121 153.041  1.00  0.00     0.001 A 
ATOM     39  C   UNL     1     166.547 146.724 151.826  1.00  0.00     0.000 A 
ENDBRANCH  32  34
ENDBRANCH  31  32
ENDBRANCH  30  31
ENDBRANCH   8  30
TORSDOF 12
ENDMDL
MODEL 4
REMARK VINA RESULT:    -7.398      1.918      3.795
REMARK INTER + INTRA:         -12.288
REMARK INTER:                 -11.148
REMARK INTRA:                  -1.140
REMARK UNBOUND:                -0.782
REMARK SMILES C[C@]12C[C@]3(O)O[C@H](O1)[C@@]1(COC(=O)c4ccccc4)[C@@H]3C[C@]12O[C@@H]1O[C@H](CO)[C@@H](O)[C@@H](O)[C@H]1O
REMARK SMILES IDX 1 1 2 2 3 3 4 4 20 5 21 6 22 7 9 8 7 9 8 10 6 11 23 12 24 13
REMARK SMILES IDX 33 14 25 15 31 16 26 17 29 18 34 19 32 21 27 23 28 24 30 26
REMARK SMILES IDX 5 28 10 30 11 31 12 32 13 33 14 34 15 35 19 36 16 37 18 38
REMARK SMILES IDX 17 39
REMARK H PARENT 34 20 32 22 28 25 30 27 5 29
REMARK Flexibility Score: inf
ROOT
ATOM      1  C   UNL     1     173.299 142.232 155.388  1.00  0.00     0.046 C 
ATOM      2  C   UNL     1     172.532 143.534 155.622  1.00  0.00     0.104 C 
ATOM      3  C   UNL     1     173.071 144.251 156.918  1.00  0.00     0.104 C 
ATOM      4  C   UNL     1     172.263 145.591 156.966  1.00  0.00     0.175 C 
ATOM      5  C   UNL     1     172.316 146.300 155.578  1.00  0.00     0.070 C 
ATOM      6  C   UNL     1     173.433 145.763 154.670  1.00  0.00     0.050 C 
ATOM      7  C   UNL     1     172.527 144.551 154.410  1.00  0.00     0.115 C 
ATOM      8  C   UNL     1     171.327 145.407 154.836  1.00  0.00     0.096 C 
ATOM      9  C   UNL     1     170.591 144.604 155.898  1.00  0.00     0.267 C 
ATOM     10  O   UNL     1     171.160 143.297 155.877  1.00  0.00    -0.342 OA
ATOM     11  O   UNL     1     170.906 145.229 157.131  1.00  0.00    -0.320 OA
ENDROOT
BRANCH   7  12
ATOM     12  O   UNL     1     172.625 144.074 153.066  1.00  0.00    -0.339 OA
BRANCH  12  13
ATOM     13  C   UNL     1     171.514 143.311 152.609  1.00  0.00     0.282 C 
ATOM     14  C   UNL     1     170.983 143.878 151.271  1.00  0.00     0.202 C 
ATOM     15  O   UNL     1     171.847 141.929 152.504  1.00  0.00    -0.341 OA
ATOM     16  C   UNL     1     171.964 143.581 150.125  1.00  0.00     0.179 C 
ATOM     17  C   UNL     1     172.763 141.596 151.462  1.00  0.00     0.178 C 
ATOM     18  C   UNL     1     172.303 142.085 150.072  1.00  0.00     0.177 C 
BRANCH  14  19
ATOM     19  O   UNL     1     169.719 143.318 151.008  1.00  0.00    -0.385 OA
ATOM     20  H   UNL     1     169.082 143.708 151.662  1.00  0.00     0.211 HD
ENDBRANCH  14  19
BRANCH  16  21
ATOM     21  O   UNL     1     171.486 144.054 148.889  1.00  0.00    -0.387 OA
ATOM     22  H   UNL     1     170.646 144.556 149.047  1.00  0.00     0.211 HD
ENDBRANCH  16  21
BRANCH  17  23
ATOM     23  C   UNL     1     174.222 141.972 151.801  1.00  0.00     0.191 C 
BRANCH  23  24
ATOM     24  O   UNL     1     175.090 141.570 150.773  1.00  0.00    -0.394 OA
ATOM     25  H   UNL     1     174.690 140.761 150.361  1.00  0.00     0.210 HD
ENDBRANCH  23  24
ENDBRANCH  17  23
BRANCH  18  26
ATOM     26  O   UNL     1     171.181 141.334 149.677  1.00  0.00    -0.387 OA
ATOM     27  H   UNL     1     170.850 140.852 150.480  1.00  0.00     0.211 HD
ENDBRANCH  18  26
ENDBRANCH  12  13
ENDBRANCH   7  12
BRANCH   4  28
ATOM     28  O   UNL     1     172.697 146.441 157.993  1.00  0.00    -0.365 OA
ATOM     29  H   UNL     1     171.946 146.513 158.638  1.00  0.00     0.214 HD
ENDBRANCH   4  28
BRANCH   8  30
ATOM     30  C   UNL     1     170.468 146.145 153.797  1.00  0.00     0.249 C 
BRANCH  30  31
ATOM     31  O   UNL     1     169.090 146.010 154.133  1.00  0.00    -0.461 OA
BRANCH  31  32
ATOM     32  C   UNL     1     168.162 145.385 153.296  1.00  0.00     0.338 C 
ATOM     33  O   UNL     1     167.910 144.157 153.439  1.00  0.00    -0.246 OA
BRANCH  32  34
ATOM     34  C   UNL     1     167.484 146.168 152.240  1.00  0.00     0.060 A 
ATOM     35  C   UNL     1     168.139 146.464 151.030  1.00  0.00     0.015 A 
ATOM     36  C   UNL     1     166.171 146.635 152.436  1.00  0.00     0.015 A 
ATOM     37  C   UNL     1     167.492 147.211 150.037  1.00  0.00     0.001 A 
ATOM     38  C   UNL     1     165.530 147.383 151.443  1.00  0.00     0.001 A 
ATOM     39  C   UNL     1     166.188 147.669 150.243  1.00  0.00     0.000 A 
ENDBRANCH  32  34
ENDBRANCH  31  32
ENDBRANCH  30  31
ENDBRANCH   8  30
TORSDOF 12
ENDMDL
MODEL 5
REMARK VINA RESULT:    -7.003      1.303      2.261
REMARK INTER + INTRA:         -11.674
REMARK INTER:                 -10.516
REMARK INTRA:                  -1.158
REMARK UNBOUND:                -0.782
REMARK SMILES C[C@]12C[C@]3(O)O[C@H](O1)[C@@]1(COC(=O)c4ccccc4)[C@@H]3C[C@]12O[C@@H]1O[C@H](CO)[C@@H](O)[C@@H](O)[C@H]1O
REMARK SMILES IDX 1 1 2 2 3 3 4 4 20 5 21 6 22 7 9 8 7 9 8 10 6 11 23 12 24 13
REMARK SMILES IDX 33 14 25 15 31 16 26 17 29 18 34 19 32 21 27 23 28 24 30 26
REMARK SMILES IDX 5 28 10 30 11 31 12 32 13 33 14 34 15 35 19 36 16 37 18 38
REMARK SMILES IDX 17 39
REMARK H PARENT 34 20 32 22 28 25 30 27 5 29
REMARK Flexibility Score: inf
ROOT
ATOM      1  C   UNL     1     171.196 143.918 158.062  1.00  0.00     0.046 C 
ATOM      2  C   UNL     1     170.452 144.503 156.862  1.00  0.00     0.104 C 
ATOM      3  C   UNL     1     169.248 145.392 157.356  1.00  0.00     0.104 C 
ATOM      4  C   UNL     1     168.656 145.986 156.033  1.00  0.00     0.175 C 
ATOM      5  C   UNL     1     169.795 146.595 155.160  1.00  0.00     0.070 C 
ATOM      6  C   UNL     1     171.093 146.835 155.946  1.00  0.00     0.050 C 
ATOM      7  C   UNL     1     171.341 145.324 155.841  1.00  0.00     0.115 C 
ATOM      8  C   UNL     1     170.392 145.293 154.636  1.00  0.00     0.096 C 
ATOM      9  C   UNL     1     169.372 144.203 154.929  1.00  0.00     0.267 C 
ATOM     10  O   UNL     1     169.861 143.494 156.066  1.00  0.00    -0.342 OA
ATOM     11  O   UNL     1     168.181 144.884 155.284  1.00  0.00    -0.320 OA
ENDROOT
BRANCH   7  12
ATOM     12  O   UNL     1     172.725 145.008 155.672  1.00  0.00    -0.339 OA
BRANCH  12  13
ATOM     13  C   UNL     1     173.086 143.669 155.993  1.00  0.00     0.282 C 
ATOM     14  C   UNL     1     173.132 142.800 154.713  1.00  0.00     0.202 C 
ATOM     15  O   UNL     1     174.318 143.625 156.707  1.00  0.00    -0.341 OA
ATOM     16  C   UNL     1     174.345 143.173 153.845  1.00  0.00     0.179 C 
ATOM     17  C   UNL     1     175.478 143.972 155.953  1.00  0.00     0.178 C 
ATOM     18  C   UNL     1     175.639 143.131 154.668  1.00  0.00     0.177 C 
BRANCH  14  19
ATOM     19  O   UNL     1     173.179 141.444 155.084  1.00  0.00    -0.385 OA
ATOM     20  H   UNL     1     172.582 141.333 155.871  1.00  0.00     0.211 HD
ENDBRANCH  14  19
BRANCH  16  21
ATOM     21  O   UNL     1     174.431 142.372 152.692  1.00  0.00    -0.387 OA
ATOM     22  H   UNL     1     175.202 141.756 152.792  1.00  0.00     0.211 HD
ENDBRANCH  16  21
BRANCH  17  23
ATOM     23  C   UNL     1     175.611 145.494 155.719  1.00  0.00     0.191 C 
BRANCH  23  24
ATOM     24  O   UNL     1     175.214 146.208 156.860  1.00  0.00    -0.394 OA
ATOM     25  H   UNL     1     175.707 147.069 156.846  1.00  0.00     0.210 HD
ENDBRANCH  23  24
ENDBRANCH  17  23
BRANCH  18  26
ATOM     26  O   UNL     1     175.955 141.809 155.031  1.00  0.00    -0.387 OA
ATOM     27  H   UNL     1     175.343 141.210 154.528  1.00  0.00     0.211 HD
ENDBRANCH  18  26
ENDBRANCH  12  13
ENDBRANCH   7  12
BRANCH   4  28
ATOM     28  O   UNL     1     167.640 146.920 156.275  1.00  0.00    -0.365 OA
ATOM     29  H   UNL     1     167.170 147.058 155.411  1.00  0.00     0.214 HD
ENDBRANCH   4  28
BRANCH   8  30
ATOM     30  C   UNL     1     170.930 145.378 153.198  1.00  0.00     0.249 C 
BRANCH  30  31
ATOM     31  O   UNL     1     169.944 144.895 152.290  1.00  0.00    -0.461 OA
BRANCH  31  32
ATOM     32  C   UNL     1     169.575 145.585 151.133  1.00  0.00     0.338 C 
ATOM     33  O   UNL     1     170.379 145.667 150.163  1.00  0.00    -0.246 OA
BRANCH  32  34
ATOM     34  C   UNL     1     168.243 146.223 151.054  1.00  0.00     0.060 A 
ATOM     35  C   UNL     1     167.385 146.240 152.169  1.00  0.00     0.015 A 
ATOM     36  C   UNL     1     167.813 146.818 149.853  1.00  0.00     0.015 A 
ATOM     37  C   UNL     1     166.123 146.842 152.084  1.00  0.00     0.001 A 
ATOM     38  C   UNL     1     166.550 147.415 149.772  1.00  0.00     0.001 A 
ATOM     39  C   UNL     1     165.706 147.429 150.887  1.00  0.00     0.000 A 
ENDBRANCH  32  34
ENDBRANCH  31  32
ENDBRANCH  30  31
ENDBRANCH   8  30
TORSDOF 12
ENDMDL
MODEL 6
REMARK VINA RESULT:    -6.973      2.123      4.964
REMARK INTER + INTRA:         -11.627
REMARK INTER:                 -11.772
REMARK INTRA:                   0.145
REMARK UNBOUND:                -0.782
REMARK SMILES C[C@]12C[C@]3(O)O[C@H](O1)[C@@]1(COC(=O)c4ccccc4)[C@@H]3C[C@]12O[C@@H]1O[C@H](CO)[C@@H](O)[C@@H](O)[C@H]1O
REMARK SMILES IDX 1 1 2 2 3 3 4 4 20 5 21 6 22 7 9 8 7 9 8 10 6 11 23 12 24 13
REMARK SMILES IDX 33 14 25 15 31 16 26 17 29 18 34 19 32 21 27 23 28 24 30 26
REMARK SMILES IDX 5 28 10 30 11 31 12 32 13 33 14 34 15 35 19 36 16 37 18 38
REMARK SMILES IDX 17 39
REMARK H PARENT 34 20 32 22 28 25 30 27 5 29
REMARK Flexibility Score: inf
ROOT
ATOM      1  C   UNL     1     172.867 143.103 152.249  1.00  0.00     0.046 C 
ATOM      2  C   UNL     1     171.890 143.952 151.437  1.00  0.00     0.104 C 
ATOM      3  C   UNL     1     171.706 143.334 149.999  1.00  0.00     0.104 C 
ATOM      4  C   UNL     1     170.623 144.249 149.336  1.00  0.00     0.175 C 
ATOM      5  C   UNL     1     169.405 144.422 150.294  1.00  0.00     0.070 C 
ATOM      6  C   UNL     1     169.369 143.374 151.417  1.00  0.00     0.050 C 
ATOM      7  C   UNL     1     170.474 144.191 152.102  1.00  0.00     0.115 C 
ATOM      8  C   UNL     1     170.034 145.405 151.276  1.00  0.00     0.096 C 
ATOM      9  C   UNL     1     171.292 145.938 150.605  1.00  0.00     0.267 C 
ATOM     10  O   UNL     1     172.387 145.259 151.214  1.00  0.00    -0.342 OA
ATOM     11  O   UNL     1     171.195 145.539 149.248  1.00  0.00    -0.320 OA
ENDROOT
BRANCH   7  12
ATOM     12  O   UNL     1     170.338 144.206 153.526  1.00  0.00    -0.339 OA
BRANCH  12  13
ATOM     13  C   UNL     1     170.619 145.454 154.149  1.00  0.00     0.282 C 
ATOM     14  C   UNL     1     169.420 145.906 155.017  1.00  0.00     0.202 C 
ATOM     15  O   UNL     1     171.825 145.392 154.905  1.00  0.00    -0.341 OA
ATOM     16  C   UNL     1     169.297 145.032 156.276  1.00  0.00     0.179 C 
ATOM     17  C   UNL     1     171.773 144.586 156.081  1.00  0.00     0.178 C 
ATOM     18  C   UNL     1     170.628 144.984 157.038  1.00  0.00     0.177 C 
BRANCH  14  19
ATOM     19  O   UNL     1     169.590 147.260 155.360  1.00  0.00    -0.385 OA
ATOM     20  H   UNL     1     170.274 147.298 156.079  1.00  0.00     0.211 HD
ENDBRANCH  14  19
BRANCH  16  21
ATOM     21  O   UNL     1     168.236 145.446 157.101  1.00  0.00    -0.387 OA
ATOM     22  H   UNL     1     167.439 145.609 156.533  1.00  0.00     0.211 HD
ENDBRANCH  16  21
BRANCH  17  23
ATOM     23  C   UNL     1     171.828 143.072 155.776  1.00  0.00     0.191 C 
BRANCH  23  24
ATOM     24  O   UNL     1     171.471 142.324 156.909  1.00  0.00    -0.394 OA
ATOM     25  H   UNL     1     170.634 142.723 157.263  1.00  0.00     0.210 HD
ENDBRANCH  23  24
ENDBRANCH  17  23
BRANCH  18  26
ATOM     26  O   UNL     1     170.925 146.239 157.600  1.00  0.00    -0.387 OA
ATOM     27  H   UNL     1     171.362 146.783 156.894  1.00  0.00     0.211 HD
ENDBRANCH  18  26
ENDBRANCH  12  13
ENDBRANCH   7  12
BRANCH   4  28
ATOM     28  O   UNL     1     170.222 143.778 148.077  1.00  0.00    -0.365 OA
ATOM     29  H   UNL     1     169.307 144.131 147.920  1.00  0.00     0.214 HD
ENDBRANCH   4  28
BRANCH   8  30
ATOM     30  C   UNL     1     169.053 146.443 151.846  1.00  0.00     0.249 C 
BRANCH  30  31
ATOM     31  O   UNL     1     168.832 147.470 150.884  1.00  0.00    -0.461 OA
BRANCH  31  32
ATOM     32  C   UNL     1     167.884 147.362 149.863  1.00  0.00     0.338 C 
ATOM     33  O   UNL     1     168.257 147.203 148.668  1.00  0.00    -0.246 OA
BRANCH  32  34
ATOM     34  C   UNL     1     166.443 147.441 150.190  1.00  0.00     0.060 A 
ATOM     35  C   UNL     1     165.506 147.850 149.222  1.00  0.00     0.015 A 
ATOM     36  C   UNL     1     165.990 147.113 151.481  1.00  0.00     0.015 A 
ATOM     37  C   UNL     1     164.145 147.927 149.542  1.00  0.00     0.001 A 
ATOM     38  C   UNL     1     164.629 147.194 151.796  1.00  0.00     0.001 A 
ATOM     39  C   UNL     1     163.707 147.599 150.827  1.00  0.00     0.000 A 
ENDBRANCH  32  34
ENDBRANCH  31  32
ENDBRANCH  30  31
ENDBRANCH   8  30
TORSDOF 12
ENDMDL
MODEL 7
REMARK VINA RESULT:    -6.952      2.784      5.630
REMARK INTER + INTRA:         -11.595
REMARK INTER:                 -10.771
REMARK INTRA:                  -0.824
REMARK UNBOUND:                -0.782
REMARK SMILES C[C@]12C[C@]3(O)O[C@H](O1)[C@@]1(COC(=O)c4ccccc4)[C@@H]3C[C@]12O[C@@H]1O[C@H](CO)[C@@H](O)[C@@H](O)[C@H]1O
REMARK SMILES IDX 1 1 2 2 3 3 4 4 20 5 21 6 22 7 9 8 7 9 8 10 6 11 23 12 24 13
REMARK SMILES IDX 33 14 25 15 31 16 26 17 29 18 34 19 32 21 27 23 28 24 30 26
REMARK SMILES IDX 5 28 10 30 11 31 12 32 13 33 14 34 15 35 19 36 16 37 18 38
REMARK SMILES IDX 17 39
REMARK H PARENT 34 20 32 22 28 25 30 27 5 29
REMARK Flexibility Score: inf
ROOT
ATOM      1  C   UNL     1     171.301 146.977 157.203  1.00  0.00     0.046 C 
ATOM      2  C   UNL     1     172.568 146.231 156.787  1.00  0.00     0.104 C 
ATOM      3  C   UNL     1     173.785 146.701 157.671  1.00  0.00     0.104 C 
ATOM      4  C   UNL     1     174.967 145.792 157.193  1.00  0.00     0.175 C 
ATOM      5  C   UNL     1     174.522 144.298 157.174  1.00  0.00     0.070 C 
ATOM      6  C   UNL     1     173.242 144.041 157.985  1.00  0.00     0.050 C 
ATOM      7  C   UNL     1     172.471 144.652 156.806  1.00  0.00     0.115 C 
ATOM      8  C   UNL     1     173.673 144.337 155.907  1.00  0.00     0.096 C 
ATOM      9  C   UNL     1     174.020 145.636 155.196  1.00  0.00     0.267 C 
ATOM     10  O   UNL     1     172.943 146.534 155.456  1.00  0.00    -0.342 OA
ATOM     11  O   UNL     1     175.191 146.117 155.835  1.00  0.00    -0.320 OA
ENDROOT
BRANCH   7  12
ATOM     12  O   UNL     1     171.217 144.003 156.580  1.00  0.00    -0.339 OA
BRANCH  12  13
ATOM     13  C   UNL     1     170.166 144.387 157.460  1.00  0.00     0.282 C 
ATOM     14  C   UNL     1     168.802 144.322 156.734  1.00  0.00     0.202 C 
ATOM     15  O   UNL     1     170.173 143.596 158.646  1.00  0.00    -0.341 OA
ATOM     16  C   UNL     1     168.385 142.863 156.486  1.00  0.00     0.179 C 
ATOM     17  C   UNL     1     169.804 142.229 158.474  1.00  0.00     0.178 C 
ATOM     18  C   UNL     1     168.431 142.054 157.789  1.00  0.00     0.177 C 
BRANCH  14  19
ATOM     19  O   UNL     1     167.839 144.994 157.510  1.00  0.00    -0.385 OA
ATOM     20  H   UNL     1     167.967 145.968 157.359  1.00  0.00     0.211 HD
ENDBRANCH  14  19
BRANCH  16  21
ATOM     21  O   UNL     1     167.128 142.775 155.859  1.00  0.00    -0.387 OA
ATOM     22  H   UNL     1     167.056 143.506 155.193  1.00  0.00     0.211 HD
ENDBRANCH  16  21
BRANCH  17  23
ATOM     23  C   UNL     1     170.926 141.377 157.840  1.00  0.00     0.191 C 
BRANCH  23  24
ATOM     24  O   UNL     1     171.821 140.925 158.823  1.00  0.00    -0.394 OA
ATOM     25  H   UNL     1     171.779 139.934 158.814  1.00  0.00     0.210 HD
ENDBRANCH  23  24
ENDBRANCH  17  23
BRANCH  18  26
ATOM     26  O   UNL     1     167.426 142.482 158.676  1.00  0.00    -0.387 OA
ATOM     27  H   UNL     1     166.572 142.501 158.169  1.00  0.00     0.211 HD
ENDBRANCH  18  26
ENDBRANCH  12  13
ENDBRANCH   7  12
BRANCH   4  28
ATOM     28  O   UNL     1     176.125 145.972 157.962  1.00  0.00    -0.365 OA
ATOM     29  H   UNL     1     176.086 146.897 158.321  1.00  0.00     0.214 HD
ENDBRANCH   4  28
BRANCH   8  30
ATOM     30  C   UNL     1     173.725 143.047 155.072  1.00  0.00     0.249 C 
BRANCH  30  31
ATOM     31  O   UNL     1     173.807 143.377 153.689  1.00  0.00    -0.461 OA
BRANCH  31  32
ATOM     32  C   UNL     1     172.985 142.795 152.720  1.00  0.00     0.338 C 
ATOM     33  O   UNL     1     173.255 141.648 152.269  1.00  0.00    -0.246 OA
BRANCH  32  34
ATOM     34  C   UNL     1     171.803 143.532 152.223  1.00  0.00     0.060 A 
ATOM     35  C   UNL     1     171.273 143.268 150.946  1.00  0.00     0.015 A 
ATOM     36  C   UNL     1     171.194 144.517 153.023  1.00  0.00     0.015 A 
ATOM     37  C   UNL     1     170.157 143.975 150.482  1.00  0.00     0.001 A 
ATOM     38  C   UNL     1     170.081 145.222 152.553  1.00  0.00     0.001 A 
ATOM     39  C   UNL     1     169.561 144.950 151.284  1.00  0.00     0.000 A 
ENDBRANCH  32  34
ENDBRANCH  31  32
ENDBRANCH  30  31
ENDBRANCH   8  30
TORSDOF 12
ENDMDL
MODEL 8
REMARK VINA RESULT:    -6.787      1.809      5.498
REMARK INTER + INTRA:         -11.338
REMARK INTER:                 -10.634
REMARK INTRA:                  -0.704
REMARK UNBOUND:                -0.782
REMARK SMILES C[C@]12C[C@]3(O)O[C@H](O1)[C@@]1(COC(=O)c4ccccc4)[C@@H]3C[C@]12O[C@@H]1O[C@H](CO)[C@@H](O)[C@@H](O)[C@H]1O
REMARK SMILES IDX 1 1 2 2 3 3 4 4 20 5 21 6 22 7 9 8 7 9 8 10 6 11 23 12 24 13
REMARK SMILES IDX 33 14 25 15 31 16 26 17 29 18 34 19 32 21 27 23 28 24 30 26
REMARK SMILES IDX 5 28 10 30 11 31 12 32 13 33 14 34 15 35 19 36 16 37 18 38
REMARK SMILES IDX 17 39
REMARK H PARENT 34 20 32 22 28 25 30 27 5 29
REMARK Flexibility Score: inf
ROOT
ATOM      1  C   UNL     1     173.797 144.472 157.781  1.00  0.00     0.046 C 
ATOM      2  C   UNL     1     174.006 143.723 156.465  1.00  0.00     0.104 C 
ATOM      3  C   UNL     1     175.180 142.682 156.619  1.00  0.00     0.104 C 
ATOM      4  C   UNL     1     175.206 141.944 155.239  1.00  0.00     0.175 C 
ATOM      5  C   UNL     1     173.770 141.479 154.850  1.00  0.00     0.070 C 
ATOM      6  C   UNL     1     172.795 141.479 156.038  1.00  0.00     0.050 C 
ATOM      7  C   UNL     1     172.726 143.004 155.875  1.00  0.00     0.115 C 
ATOM      8  C   UNL     1     173.206 142.832 154.429  1.00  0.00     0.096 C 
ATOM      9  C   UNL     1     174.398 143.763 154.266  1.00  0.00     0.267 C 
ATOM     10  O   UNL     1     174.420 144.591 155.426  1.00  0.00    -0.342 OA
ATOM     11  O   UNL     1     175.540 142.922 154.274  1.00  0.00    -0.320 OA
ENDROOT
BRANCH   7  12
ATOM     12  O   UNL     1     171.420 143.523 156.140  1.00  0.00    -0.339 OA
BRANCH  12  13
ATOM     13  C   UNL     1     171.388 144.835 156.691  1.00  0.00     0.282 C 
ATOM     14  C   UNL     1     171.410 145.895 155.564  1.00  0.00     0.202 C 
ATOM     15  O   UNL     1     170.266 145.003 157.554  1.00  0.00    -0.341 OA
ATOM     16  C   UNL     1     170.070 145.919 154.811  1.00  0.00     0.179 C 
ATOM     17  C   UNL     1     168.993 145.023 156.910  1.00  0.00     0.178 C 
ATOM     18  C   UNL     1     168.898 146.080 155.789  1.00  0.00     0.177 C 
BRANCH  14  19
ATOM     19  O   UNL     1     171.692 147.153 156.128  1.00  0.00    -0.385 OA
ATOM     20  H   UNL     1     172.070 146.993 157.032  1.00  0.00     0.211 HD
ENDBRANCH  14  19
BRANCH  16  21
ATOM     21  O   UNL     1     170.051 146.901 153.804  1.00  0.00    -0.387 OA
ATOM     22  H   UNL     1     169.170 147.356 153.823  1.00  0.00     0.211 HD
ENDBRANCH  16  21
BRANCH  17  23
ATOM     23  C   UNL     1     168.514 143.618 156.480  1.00  0.00     0.191 C 
BRANCH  23  24
ATOM     24  O   UNL     1     167.502 143.156 157.336  1.00  0.00    -0.394 OA
ATOM     25  H   UNL     1     166.741 142.884 156.760  1.00  0.00     0.210 HD
ENDBRANCH  23  24
ENDBRANCH  17  23
BRANCH  18  26
ATOM     26  O   UNL     1     168.910 147.360 156.373  1.00  0.00    -0.387 OA
ATOM     27  H   UNL     1     169.860 147.636 156.460  1.00  0.00     0.211 HD
ENDBRANCH  18  26
ENDBRANCH  12  13
ENDBRANCH   7  12
BRANCH   4  28
ATOM     28  O   UNL     1     176.113 140.875 155.222  1.00  0.00    -0.365 OA
ATOM     29  H   UNL     1     175.579 140.047 155.343  1.00  0.00     0.214 HD
ENDBRANCH   4  28
BRANCH   8  30
ATOM     30  C   UNL     1     172.207 142.764 153.262  1.00  0.00     0.249 C 
BRANCH  30  31
ATOM     31  O   UNL     1     172.252 143.981 152.523  1.00  0.00    -0.461 OA
BRANCH  31  32
ATOM     32  C   UNL     1     171.793 144.088 151.208  1.00  0.00     0.338 C 
ATOM     33  O   UNL     1     172.347 143.423 150.290  1.00  0.00    -0.246 OA
BRANCH  32  34
ATOM     34  C   UNL     1     170.660 144.988 150.898  1.00  0.00     0.060 A 
ATOM     35  C   UNL     1     170.841 146.115 150.075  1.00  0.00     0.015 A 
ATOM     36  C   UNL     1     169.384 144.729 151.430  1.00  0.00     0.015 A 
ATOM     37  C   UNL     1     169.764 146.965 149.791  1.00  0.00     0.001 A 
ATOM     38  C   UNL     1     168.312 145.583 151.146  1.00  0.00     0.001 A 
ATOM     39  C   UNL     1     168.501 146.699 150.325  1.00  0.00     0.000 A 
ENDBRANCH  32  34
ENDBRANCH  31  32
ENDBRANCH  30  31
ENDBRANCH   8  30
TORSDOF 12
ENDMDL
MODEL 9
REMARK VINA RESULT:    -6.730      2.039      6.539
REMARK INTER + INTRA:         -11.250
REMARK INTER:                 -10.204
REMARK INTRA:                  -1.045
REMARK UNBOUND:                -0.782
REMARK SMILES C[C@]12C[C@]3(O)O[C@H](O1)[C@@]1(COC(=O)c4ccccc4)[C@@H]3C[C@]12O[C@@H]1O[C@H](CO)[C@@H](O)[C@@H](O)[C@H]1O
REMARK SMILES IDX 1 1 2 2 3 3 4 4 20 5 21 6 22 7 9 8 7 9 8 10 6 11 23 12 24 13
REMARK SMILES IDX 33 14 25 15 31 16 26 17 29 18 34 19 32 21 27 23 28 24 30 26
REMARK SMILES IDX 5 28 10 30 11 31 12 32 13 33 14 34 15 35 19 36 16 37 18 38
REMARK SMILES IDX 17 39
REMARK H PARENT 34 20 32 22 28 25 30 27 5 29
REMARK Flexibility Score: inf
ROOT
ATOM      1  C   UNL     1     170.475 147.434 155.858  1.00  0.00     0.046 C 
ATOM      2  C   UNL     1     171.312 146.171 156.059  1.00  0.00     0.104 C 
ATOM      3  C   UNL     1     171.567 145.934 157.596  1.00  0.00     0.104 C 
ATOM      4  C   UNL     1     172.345 144.575 157.639  1.00  0.00     0.175 C 
ATOM      5  C   UNL     1     171.608 143.507 156.776  1.00  0.00     0.070 C 
ATOM      6  C   UNL     1     170.156 143.892 156.451  1.00  0.00     0.050 C 
ATOM      7  C   UNL     1     170.732 144.854 155.402  1.00  0.00     0.115 C 
ATOM      8  C   UNL     1     172.017 144.015 155.397  1.00  0.00     0.096 C 
ATOM      9  C   UNL     1     173.160 144.994 155.622  1.00  0.00     0.267 C 
ATOM     10  O   UNL     1     172.602 146.299 155.488  1.00  0.00    -0.342 OA
ATOM     11  O   UNL     1     173.568 144.799 156.966  1.00  0.00    -0.320 OA
ENDROOT
BRANCH   7  12
ATOM     12  O   UNL     1     169.922 144.929 154.227  1.00  0.00    -0.339 OA
BRANCH  12  13
ATOM     13  C   UNL     1     170.426 145.768 153.193  1.00  0.00     0.282 C 
ATOM     14  C   UNL     1     170.821 144.925 151.958  1.00  0.00     0.202 C 
ATOM     15  O   UNL     1     169.493 146.792 152.860  1.00  0.00    -0.341 OA
ATOM     16  C   UNL     1     169.571 144.389 151.241  1.00  0.00     0.179 C 
ATOM     17  C   UNL     1     168.307 146.350 152.201  1.00  0.00     0.178 C 
ATOM     18  C   UNL     1     168.593 145.529 150.926  1.00  0.00     0.177 C 
BRANCH  14  19
ATOM     19  O   UNL     1     171.594 145.720 151.091  1.00  0.00    -0.385 OA
ATOM     20  H   UNL     1     170.987 146.062 150.384  1.00  0.00     0.211 HD
ENDBRANCH  14  19
BRANCH  16  21
ATOM     21  O   UNL     1     169.901 143.649 150.091  1.00  0.00    -0.387 OA
ATOM     22  H   UNL     1     170.551 144.172 149.555  1.00  0.00     0.211 HD
ENDBRANCH  16  21
BRANCH  17  23
ATOM     23  C   UNL     1     167.300 145.678 153.161  1.00  0.00     0.191 C 
BRANCH  23  24
ATOM     24  O   UNL     1     167.432 146.194 154.460  1.00  0.00    -0.394 OA
ATOM     25  H   UNL     1     167.997 145.554 154.966  1.00  0.00     0.210 HD
ENDBRANCH  23  24
ENDBRANCH  17  23
BRANCH  18  26
ATOM     26  O   UNL     1     169.127 146.386 149.946  1.00  0.00    -0.387 OA
ATOM     27  H   UNL     1     168.667 146.179 149.090  1.00  0.00     0.211 HD
ENDBRANCH  18  26
ENDBRANCH  12  13
ENDBRANCH   7  12
BRANCH   4  28
ATOM     28  O   UNL     1     172.554 144.121 158.949  1.00  0.00    -0.365 OA
ATOM     29  H   UNL     1     173.441 144.467 159.231  1.00  0.00     0.214 HD
ENDBRANCH   4  28
BRANCH   8  30
ATOM     30  C   UNL     1     172.240 142.907 154.356  1.00  0.00     0.249 C 
BRANCH  30  31
ATOM     31  O   UNL     1     173.552 143.020 153.812  1.00  0.00    -0.461 OA
BRANCH  31  32
ATOM     32  C   UNL     1     174.182 141.976 153.129  1.00  0.00     0.338 C 
ATOM     33  O   UNL     1     174.754 141.054 153.774  1.00  0.00    -0.246 OA
BRANCH  32  34
ATOM     34  C   UNL     1     174.181 141.961 151.650  1.00  0.00     0.060 A 
ATOM     35  C   UNL     1     175.348 141.640 150.932  1.00  0.00     0.015 A 
ATOM     36  C   UNL     1     173.008 142.277 150.939  1.00  0.00     0.015 A 
ATOM     37  C   UNL     1     175.339 141.633 149.532  1.00  0.00     0.001 A 
ATOM     38  C   UNL     1     173.006 142.272 149.540  1.00  0.00     0.001 A 
ATOM     39  C   UNL     1     174.170 141.949 148.836  1.00  0.00     0.000 A 
ENDBRANCH  32  34
ENDBRANCH  31  32
ENDBRANCH  30  31
ENDBRANCH   8  30
TORSDOF 12
ENDMDL
