MODEL 1
REMARK VINA RESULT:    13.778      0.000      0.000
REMARK INTER + INTRA:          18.279
REMARK INTER:                  19.014
REMARK INTRA:                  -0.735
REMARK UNBOUND:                -0.735
REMARK SMILES CCCCc1cccc(O)c1CCCC
REMARK SMILES IDX 5 1 11 2 9 3 8 4 7 5 6 6 4 7 3 8 2 9 1 10 12 11 13 12 14 13
REMARK SMILES IDX 15 14 10 15
REMARK H PARENT 10 16
REMARK Flexibility Score: inf
ROOT
ATOM      1  C   UNL     1      11.587  13.391  28.357  1.00  0.00    -0.041 A 
ATOM      2  C   UNL     1      12.860  13.946  28.683  1.00  0.00    -0.003 A 
ATOM      3  C   UNL     1      13.588  14.628  27.679  1.00  0.00     0.119 A 
ATOM      4  C   UNL     1      13.037  14.806  26.404  1.00  0.00     0.046 A 
ATOM      5  C   UNL     1      11.775  14.306  26.107  1.00  0.00     0.004 A 
ATOM      6  C   UNL     1      11.057  13.603  27.071  1.00  0.00     0.004 A 
ENDROOT
BRANCH   1   7
ATOM      7  C   UNL     1      10.768  12.542  29.314  1.00  0.00     0.036 C 
BRANCH   7   8
ATOM      8  C   UNL     1      11.397  11.152  29.495  1.00  0.00     0.004 C 
BRANCH   8   9
ATOM      9  C   UNL     1      11.506  10.786  30.980  1.00  0.00    -0.003 C 
ATOM     10  C   UNL     1      10.220  11.127  31.727  1.00  0.00     0.004 C 
ENDBRANCH   8   9
ENDBRANCH   7   8
ENDBRANCH   1   7
BRANCH   2  11
ATOM     11  C   UNL     1      13.474  13.819  30.066  1.00  0.00     0.040 C 
BRANCH  11  12
ATOM     12  C   UNL     1      12.844  14.818  31.048  1.00  0.00     0.005 C 
BRANCH  12  13
ATOM     13  C   UNL     1      13.577  16.167  31.072  1.00  0.00    -0.003 C 
ATOM     14  C   UNL     1      13.515  16.851  32.438  1.00  0.00     0.004 C 
ENDBRANCH  12  13
ENDBRANCH  11  12
ENDBRANCH   2  11
BRANCH   3  15
ATOM     15  O   UNL     1      14.861  15.131  27.949  1.00  0.00    -0.508 OA
ATOM     16  H   UNL     1      15.067  16.122  27.890  1.00  0.00     0.293 HD
ENDBRANCH   3  15
TORSDOF 7
ENDMDL
MODEL 2
REMARK VINA RESULT:    13.869      2.057      4.998
REMARK INTER + INTRA:          18.403
REMARK INTER:                  17.575
REMARK INTRA:                   0.829
REMARK UNBOUND:                -0.735
REMARK SMILES CCCCc1cccc(O)c1CCCC
REMARK SMILES IDX 5 1 11 2 9 3 8 4 7 5 6 6 4 7 3 8 2 9 1 10 12 11 13 12 14 13
REMARK SMILES IDX 15 14 10 15
REMARK H PARENT 10 16
REMARK Flexibility Score: inf
ROOT
ATOM      1  C   UNL     1      11.902  13.757  27.627  1.00  0.00    -0.041 A 
ATOM      2  C   UNL     1      11.749  13.019  28.839  1.00  0.00    -0.003 A 
ATOM      3  C   UNL     1      12.821  12.988  29.762  1.00  0.00     0.119 A 
ATOM      4  C   UNL     1      13.988  13.720  29.516  1.00  0.00     0.046 A 
ATOM      5  C   UNL     1      14.112  14.477  28.357  1.00  0.00     0.004 A 
ATOM      6  C   UNL     1      13.082  14.495  27.420  1.00  0.00     0.004 A 
ENDROOT
BRANCH   1   7
ATOM      7  C   UNL     1      10.870  13.770  26.513  1.00  0.00     0.036 C 
BRANCH   7   8
ATOM      8  C   UNL     1      11.322  14.669  25.353  1.00  0.00     0.004 C 
BRANCH   8   9
ATOM      9  C   UNL     1      10.156  14.976  24.406  1.00  0.00    -0.003 C 
ATOM     10  C   UNL     1      10.231  16.408  23.885  1.00  0.00     0.004 C 
ENDBRANCH   8   9
ENDBRANCH   7   8
ENDBRANCH   1   7
BRANCH   2  11
ATOM     11  C   UNL     1      10.482  12.249  29.170  1.00  0.00     0.040 C 
BRANCH  11  12
ATOM     12  C   UNL     1      10.147  12.349  30.666  1.00  0.00     0.005 C 
BRANCH  12  13
ATOM     13  C   UNL     1      10.031  10.973  31.339  1.00  0.00    -0.003 C 
ATOM     14  C   UNL     1      10.849   9.895  30.627  1.00  0.00     0.004 C 
ENDBRANCH  12  13
ENDBRANCH  11  12
ENDBRANCH   2  11
BRANCH   3  15
ATOM     15  O   UNL     1      12.726  12.227  30.929  1.00  0.00    -0.508 OA
ATOM     16  H   UNL     1      13.549  11.921  31.435  1.00  0.00     0.293 HD
ENDBRANCH   3  15
TORSDOF 7
ENDMDL
MODEL 3
REMARK VINA RESULT:    14.374      2.081      3.805
REMARK INTER + INTRA:          19.101
REMARK INTER:                  19.566
REMARK INTRA:                  -0.465
REMARK UNBOUND:                -0.735
REMARK SMILES CCCCc1cccc(O)c1CCCC
REMARK SMILES IDX 5 1 11 2 9 3 8 4 7 5 6 6 4 7 3 8 2 9 1 10 12 11 13 12 14 13
REMARK SMILES IDX 15 14 10 15
REMARK H PARENT 10 16
REMARK Flexibility Score: inf
ROOT
ATOM      1  C   UNL     1      12.517  12.427  28.994  1.00  0.00    -0.041 A 
ATOM      2  C   UNL     1      13.163  13.540  28.377  1.00  0.00    -0.003 A 
ATOM      3  C   UNL     1      14.577  13.605  28.387  1.00  0.00     0.119 A 
ATOM      4  C   UNL     1      15.328  12.561  28.941  1.00  0.00     0.046 A 
ATOM      5  C   UNL     1      14.694  11.456  29.497  1.00  0.00     0.004 A 
ATOM      6  C   UNL     1      13.303  11.389  29.526  1.00  0.00     0.004 A 
ENDROOT
BRANCH   1   7
ATOM      7  C   UNL     1      11.011  12.306  29.146  1.00  0.00     0.036 C 
BRANCH   7   8
ATOM      8  C   UNL     1      10.571  12.652  30.577  1.00  0.00     0.004 C 
BRANCH   8   9
ATOM      9  C   UNL     1      10.832  11.482  31.532  1.00  0.00    -0.003 C 
ATOM     10  C   UNL     1      10.127  10.215  31.057  1.00  0.00     0.004 C 
ENDBRANCH   8   9
ENDBRANCH   7   8
ENDBRANCH   1   7
BRANCH   2  11
ATOM     11  C   UNL     1      12.389  14.671  27.721  1.00  0.00     0.040 C 
BRANCH  11  12
ATOM     12  C   UNL     1      12.358  14.510  26.193  1.00  0.00     0.005 C 
BRANCH  12  13
ATOM     13  C   UNL     1      10.948  14.215  25.659  1.00  0.00    -0.003 C 
ATOM     14  C   UNL     1      10.482  15.237  24.622  1.00  0.00     0.004 C 
ENDBRANCH  12  13
ENDBRANCH  11  12
ENDBRANCH   2  11
BRANCH   3  15
ATOM     15  O   UNL     1      15.237  14.708  27.844  1.00  0.00    -0.508 OA
ATOM     16  H   UNL     1      14.874  15.203  27.038  1.00  0.00     0.293 HD
ENDBRANCH   3  15
TORSDOF 7
ENDMDL
MODEL 4
REMARK VINA RESULT:    14.617      1.622      4.423
REMARK INTER + INTRA:          19.437
REMARK INTER:                  19.720
REMARK INTRA:                  -0.283
REMARK UNBOUND:                -0.735
REMARK SMILES CCCCc1cccc(O)c1CCCC
REMARK SMILES IDX 5 1 11 2 9 3 8 4 7 5 6 6 4 7 3 8 2 9 1 10 12 11 13 12 14 13
REMARK SMILES IDX 15 14 10 15
REMARK H PARENT 10 16
REMARK Flexibility Score: inf
ROOT
ATOM      1  C   UNL     1      13.447  14.484  29.218  1.00  0.00    -0.041 A 
ATOM      2  C   UNL     1      12.359  13.565  29.305  1.00  0.00    -0.003 A 
ATOM      3  C   UNL     1      11.610  13.278  28.139  1.00  0.00     0.119 A 
ATOM      4  C   UNL     1      11.973  13.842  26.909  1.00  0.00     0.046 A 
ATOM      5  C   UNL     1      13.064  14.697  26.822  1.00  0.00     0.004 A 
ATOM      6  C   UNL     1      13.794  15.019  27.964  1.00  0.00     0.004 A 
ENDROOT
BRANCH   1   7
ATOM      7  C   UNL     1      14.248  14.956  30.420  1.00  0.00     0.036 C 
BRANCH   7   8
ATOM      8  C   UNL     1      13.806  16.360  30.860  1.00  0.00     0.004 C 
BRANCH   8   9
ATOM      9  C   UNL     1      13.055  16.308  32.196  1.00  0.00    -0.003 C 
ATOM     10  C   UNL     1      13.776  17.123  33.265  1.00  0.00     0.004 C 
ENDBRANCH   8   9
ENDBRANCH   7   8
ENDBRANCH   1   7
BRANCH   2  11
ATOM     11  C   UNL     1      11.961  12.893  30.607  1.00  0.00     0.040 C 
BRANCH  11  12
ATOM     12  C   UNL     1      12.260  11.387  30.569  1.00  0.00     0.005 C 
BRANCH  12  13
ATOM     13  C   UNL     1      11.014  10.529  30.838  1.00  0.00    -0.003 C 
ATOM     14  C   UNL     1       9.740  11.363  30.979  1.00  0.00     0.004 C 
ENDBRANCH  12  13
ENDBRANCH  11  12
ENDBRANCH   2  11
BRANCH   3  15
ATOM     15  O   UNL     1      10.504  12.430  28.201  1.00  0.00    -0.508 OA
ATOM     16  H   UNL     1      10.195  12.020  29.075  1.00  0.00     0.293 HD
ENDBRANCH   3  15
TORSDOF 7
ENDMDL
