MODEL 1
REMARK VINA RESULT:    -4.125      0.000      0.000
REMARK INTER + INTRA:          -8.634
REMARK INTER:                  -7.742
REMARK INTRA:                  -0.892
REMARK UNBOUND:                -0.892
REMARK SMILES CCCCCCCCCCCCCC=CC=CC(=O)OC
REMARK SMILES IDX 9 1 8 2 7 3 6 4 5 5 4 6 3 7 2 8 1 9 10 10 11 11 12 12 13 13
REMARK SMILES IDX 14 14 15 15 16 16 17 17 18 18 19 19 20 20 21 21
REMARK H PARENT
REMARK Flexibility Score: inf
ROOT
ATOM      1  C   UNL     1      17.880  32.902  39.898  1.00  0.00     0.000 C 
ENDROOT
BRANCH   1   2
ATOM      2  C   UNL     1      17.063  32.358  41.082  1.00  0.00     0.000 C 
BRANCH   2   3
ATOM      3  C   UNL     1      15.601  32.024  40.717  1.00  0.00     0.000 C 
BRANCH   3   4
ATOM      4  C   UNL     1      14.593  32.795  41.588  1.00  0.00    -0.000 C 
BRANCH   4   5
ATOM      5  C   UNL     1      13.248  32.062  41.741  1.00  0.00    -0.000 C 
BRANCH   5   6
ATOM      6  C   UNL     1      12.573  32.215  43.115  1.00  0.00    -0.000 C 
BRANCH   6   7
ATOM      7  C   UNL     1      11.845  33.561  43.277  1.00  0.00    -0.000 C 
BRANCH   7   8
ATOM      8  C   UNL     1      10.552  33.434  44.099  1.00  0.00    -0.003 C 
ATOM      9  C   UNL     1       9.554  32.451  43.485  1.00  0.00     0.004 C 
ENDBRANCH   7   8
ENDBRANCH   6   7
ENDBRANCH   5   6
ENDBRANCH   4   5
ENDBRANCH   3   4
ENDBRANCH   2   3
ENDBRANCH   1   2
BRANCH   1  10
ATOM     10  C   UNL     1      17.609  32.144  38.588  1.00  0.00     0.000 C 
BRANCH  10  11
ATOM     11  C   UNL     1      18.543  32.581  37.449  1.00  0.00     0.000 C 
BRANCH  11  12
ATOM     12  C   UNL     1      19.969  32.887  37.940  1.00  0.00     0.004 C 
BRANCH  12  13
ATOM     13  C   UNL     1      20.439  34.285  37.511  1.00  0.00     0.027 C 
BRANCH  13  14
ATOM     14  C   UNL     1      21.296  34.946  38.554  1.00  0.00    -0.027 C 
ATOM     15  C   UNL     1      21.761  34.271  39.609  1.00  0.00    -0.004 C 
BRANCH  15  16
ATOM     16  C   UNL     1      22.603  34.930  40.621  1.00  0.00     0.007 C 
ATOM     17  C   UNL     1      22.276  34.889  41.917  1.00  0.00     0.093 C 
BRANCH  17  18
ATOM     18  C   UNL     1      23.091  35.536  42.958  1.00  0.00     0.330 C 
ATOM     19  O   UNL     1      23.791  34.844  43.750  1.00  0.00    -0.247 OA
BRANCH  18  20
ATOM     20  O   UNL     1      23.082  36.929  43.054  1.00  0.00    -0.466 OA
ATOM     21  C   UNL     1      24.031  37.751  42.384  1.00  0.00     0.282 C 
ENDBRANCH  18  20
ENDBRANCH  17  18
ENDBRANCH  15  16
ENDBRANCH  13  14
ENDBRANCH  12  13
ENDBRANCH  11  12
ENDBRANCH  10  11
ENDBRANCH   1  10
TORSDOF 15
ENDMDL
MODEL 2
REMARK VINA RESULT:    -3.772      4.473      7.288
REMARK INTER + INTRA:          -7.971
REMARK INTER:                  -5.617
REMARK INTRA:                  -2.354
REMARK UNBOUND:                -0.892
REMARK SMILES CCCCCCCCCCCCCC=CC=CC(=O)OC
REMARK SMILES IDX 9 1 8 2 7 3 6 4 5 5 4 6 3 7 2 8 1 9 10 10 11 11 12 12 13 13
REMARK SMILES IDX 14 14 15 15 16 16 17 17 18 18 19 19 20 20 21 21
REMARK H PARENT
REMARK Flexibility Score: inf
ROOT
ATOM      1  C   UNL     1      24.725  34.975  43.229  1.00  0.00     0.000 C 
ENDROOT
BRANCH   1   2
ATOM      2  C   UNL     1      24.732  33.465  42.937  1.00  0.00     0.000 C 
BRANCH   2   3
ATOM      3  C   UNL     1      24.049  33.094  41.603  1.00  0.00     0.000 C 
BRANCH   3   4
ATOM      4  C   UNL     1      23.120  31.875  41.744  1.00  0.00    -0.000 C 
BRANCH   4   5
ATOM      5  C   UNL     1      21.767  32.068  41.035  1.00  0.00    -0.000 C 
BRANCH   5   6
ATOM      6  C   UNL     1      20.851  33.138  41.655  1.00  0.00    -0.000 C 
BRANCH   6   7
ATOM      7  C   UNL     1      19.434  32.615  41.946  1.00  0.00    -0.000 C 
BRANCH   7   8
ATOM      8  C   UNL     1      18.765  32.010  40.701  1.00  0.00    -0.003 C 
ATOM      9  C   UNL     1      17.851  33.000  39.979  1.00  0.00     0.004 C 
ENDBRANCH   7   8
ENDBRANCH   6   7
ENDBRANCH   5   6
ENDBRANCH   4   5
ENDBRANCH   3   4
ENDBRANCH   2   3
ENDBRANCH   1   2
BRANCH   1  10
ATOM     10  C   UNL     1      23.537  35.408  44.103  1.00  0.00     0.000 C 
BRANCH  10  11
ATOM     11  C   UNL     1      22.357  35.940  43.275  1.00  0.00     0.000 C 
BRANCH  11  12
ATOM     12  C   UNL     1      22.654  37.309  42.636  1.00  0.00     0.004 C 
BRANCH  12  13
ATOM     13  C   UNL     1      23.220  37.172  41.215  1.00  0.00     0.027 C 
BRANCH  13  14
ATOM     14  C   UNL     1      22.477  36.150  40.400  1.00  0.00    -0.027 C 
ATOM     15  C   UNL     1      21.729  36.501  39.350  1.00  0.00    -0.004 C 
BRANCH  15  16
ATOM     16  C   UNL     1      21.010  35.490  38.558  1.00  0.00     0.007 C 
ATOM     17  C   UNL     1      21.574  34.311  38.278  1.00  0.00     0.093 C 
BRANCH  17  18
ATOM     18  C   UNL     1      20.888  33.275  37.489  1.00  0.00     0.330 C 
ATOM     19  O   UNL     1      19.711  33.458  37.070  1.00  0.00    -0.247 OA
BRANCH  18  20
ATOM     20  O   UNL     1      21.563  32.085  37.206  1.00  0.00    -0.466 OA
ATOM     21  C   UNL     1      22.913  32.057  36.758  1.00  0.00     0.282 C 
ENDBRANCH  18  20
ENDBRANCH  17  18
ENDBRANCH  15  16
ENDBRANCH  13  14
ENDBRANCH  12  13
ENDBRANCH  11  12
ENDBRANCH  10  11
ENDBRANCH   1  10
TORSDOF 15
ENDMDL
MODEL 3
REMARK VINA RESULT:    -3.676      4.178      9.631
REMARK INTER + INTRA:          -7.791
REMARK INTER:                  -6.638
REMARK INTRA:                  -1.153
REMARK UNBOUND:                -0.892
REMARK SMILES CCCCCCCCCCCCCC=CC=CC(=O)OC
REMARK SMILES IDX 9 1 8 2 7 3 6 4 5 5 4 6 3 7 2 8 1 9 10 10 11 11 12 12 13 13
REMARK SMILES IDX 14 14 15 15 16 16 17 17 18 18 19 19 20 20 21 21
REMARK H PARENT
REMARK Flexibility Score: inf
ROOT
ATOM      1  C   UNL     1      21.302  33.670  40.473  1.00  0.00     0.000 C 
ENDROOT
BRANCH   1   2
ATOM      2  C   UNL     1      22.684  33.791  39.807  1.00  0.00     0.000 C 
BRANCH   2   3
ATOM      3  C   UNL     1      23.767  32.919  40.478  1.00  0.00     0.000 C 
BRANCH   3   4
ATOM      4  C   UNL     1      23.298  32.343  41.825  1.00  0.00    -0.000 C 
BRANCH   4   5
ATOM      5  C   UNL     1      24.125  32.856  43.018  1.00  0.00    -0.000 C 
BRANCH   5   6
ATOM      6  C   UNL     1      24.600  34.316  42.904  1.00  0.00    -0.000 C 
BRANCH   6   7
ATOM      7  C   UNL     1      23.725  35.293  43.706  1.00  0.00    -0.000 C 
BRANCH   7   8
ATOM      8  C   UNL     1      22.735  36.062  42.815  1.00  0.00    -0.003 C 
ATOM      9  C   UNL     1      23.150  37.515  42.585  1.00  0.00     0.004 C 
ENDBRANCH   7   8
ENDBRANCH   6   7
ENDBRANCH   5   6
ENDBRANCH   4   5
ENDBRANCH   3   4
ENDBRANCH   2   3
ENDBRANCH   1   2
BRANCH   1  10
ATOM     10  C   UNL     1      20.433  32.569  39.845  1.00  0.00     0.000 C 
BRANCH  10  11
ATOM     11  C   UNL     1      19.440  33.119  38.809  1.00  0.00     0.000 C 
BRANCH  11  12
ATOM     12  C   UNL     1      17.997  32.652  39.068  1.00  0.00     0.004 C 
BRANCH  12  13
ATOM     13  C   UNL     1      17.755  32.321  40.548  1.00  0.00     0.027 C 
BRANCH  13  14
ATOM     14  C   UNL     1      16.343  31.878  40.812  1.00  0.00    -0.027 C 
ATOM     15  C   UNL     1      15.422  32.720  41.290  1.00  0.00    -0.004 C 
BRANCH  15  16
ATOM     16  C   UNL     1      14.042  32.273  41.540  1.00  0.00     0.007 C 
ATOM     17  C   UNL     1      13.190  33.034  42.234  1.00  0.00     0.093 C 
BRANCH  17  18
ATOM     18  C   UNL     1      11.804  32.623  42.505  1.00  0.00     0.330 C 
ATOM     19  O   UNL     1      11.064  32.197  41.573  1.00  0.00    -0.247 OA
BRANCH  18  20
ATOM     20  O   UNL     1      11.319  32.705  43.812  1.00  0.00    -0.466 OA
ATOM     21  C   UNL     1      10.072  33.311  44.131  1.00  0.00     0.282 C 
ENDBRANCH  18  20
ENDBRANCH  17  18
ENDBRANCH  15  16
ENDBRANCH  13  14
ENDBRANCH  12  13
ENDBRANCH  11  12
ENDBRANCH  10  11
ENDBRANCH   1  10
TORSDOF 15
ENDMDL
MODEL 4
REMARK VINA RESULT:    -3.658      3.489      8.600
REMARK INTER + INTRA:          -7.757
REMARK INTER:                  -5.170
REMARK INTRA:                  -2.587
REMARK UNBOUND:                -0.892
REMARK SMILES CCCCCCCCCCCCCC=CC=CC(=O)OC
REMARK SMILES IDX 9 1 8 2 7 3 6 4 5 5 4 6 3 7 2 8 1 9 10 10 11 11 12 12 13 13
REMARK SMILES IDX 14 14 15 15 16 16 17 17 18 18 19 19 20 20 21 21
REMARK H PARENT
REMARK Flexibility Score: inf
ROOT
ATOM      1  C   UNL     1      22.439  37.360  41.591  1.00  0.00     0.000 C 
ENDROOT
BRANCH   1   2
ATOM      2  C   UNL     1      22.558  37.132  40.075  1.00  0.00     0.000 C 
BRANCH   2   3
ATOM      3  C   UNL     1      21.337  36.410  39.465  1.00  0.00     0.000 C 
BRANCH   3   4
ATOM      4  C   UNL     1      21.736  35.132  38.705  1.00  0.00    -0.000 C 
BRANCH   4   5
ATOM      5  C   UNL     1      20.625  34.617  37.773  1.00  0.00    -0.000 C 
BRANCH   5   6
ATOM      6  C   UNL     1      20.925  33.277  37.077  1.00  0.00    -0.000 C 
BRANCH   6   7
ATOM      7  C   UNL     1      21.834  32.360  37.913  1.00  0.00    -0.000 C 
BRANCH   7   8
ATOM      8  C   UNL     1      23.230  32.193  37.291  1.00  0.00    -0.003 C 
ATOM      9  C   UNL     1      24.357  32.567  38.255  1.00  0.00     0.004 C 
ENDBRANCH   7   8
ENDBRANCH   6   7
ENDBRANCH   5   6
ENDBRANCH   4   5
ENDBRANCH   3   4
ENDBRANCH   2   3
ENDBRANCH   1   2
BRANCH   1  10
ATOM     10  C   UNL     1      23.735  37.026  42.348  1.00  0.00     0.000 C 
BRANCH  10  11
ATOM     11  C   UNL     1      24.138  35.550  42.203  1.00  0.00     0.000 C 
BRANCH  11  12
ATOM     12  C   UNL     1      22.959  34.590  42.442  1.00  0.00     0.004 C 
BRANCH  12  13
ATOM     13  C   UNL     1      23.177  33.230  41.765  1.00  0.00     0.027 C 
BRANCH  13  14
ATOM     14  C   UNL     1      21.883  32.537  41.441  1.00  0.00    -0.027 C 
ATOM     15  C   UNL     1      20.722  33.197  41.417  1.00  0.00    -0.004 C 
BRANCH  15  16
ATOM     16  C   UNL     1      19.463  32.506  41.094  1.00  0.00     0.007 C 
ATOM     17  C   UNL     1      18.463  33.152  40.486  1.00  0.00     0.093 C 
BRANCH  17  18
ATOM     18  C   UNL     1      17.190  32.497  40.147  1.00  0.00     0.330 C 
ATOM     19  O   UNL     1      16.859  32.315  38.941  1.00  0.00    -0.247 OA
BRANCH  18  20
ATOM     20  O   UNL     1      16.353  32.073  41.181  1.00  0.00    -0.466 OA
ATOM     21  C   UNL     1      14.951  32.316  41.182  1.00  0.00     0.282 C 
ENDBRANCH  18  20
ENDBRANCH  17  18
ENDBRANCH  15  16
ENDBRANCH  13  14
ENDBRANCH  12  13
ENDBRANCH  11  12
ENDBRANCH  10  11
ENDBRANCH   1  10
TORSDOF 15
ENDMDL
MODEL 5
REMARK VINA RESULT:    -3.633      4.176      8.577
REMARK INTER + INTRA:          -7.711
REMARK INTER:                  -5.603
REMARK INTRA:                  -2.108
REMARK UNBOUND:                -0.892
REMARK SMILES CCCCCCCCCCCCCC=CC=CC(=O)OC
REMARK SMILES IDX 9 1 8 2 7 3 6 4 5 5 4 6 3 7 2 8 1 9 10 10 11 11 12 12 13 13
REMARK SMILES IDX 14 14 15 15 16 16 17 17 18 18 19 19 20 20 21 21
REMARK H PARENT
REMARK Flexibility Score: inf
ROOT
ATOM      1  C   UNL     1      24.363  34.874  43.938  1.00  0.00     0.000 C 
ENDROOT
BRANCH   1   2
ATOM      2  C   UNL     1      24.786  35.710  42.718  1.00  0.00     0.000 C 
BRANCH   2   3
ATOM      3  C   UNL     1      23.766  36.806  42.340  1.00  0.00     0.000 C 
BRANCH   3   4
ATOM      4  C   UNL     1      22.578  36.243  41.539  1.00  0.00    -0.000 C 
BRANCH   4   5
ATOM      5  C   UNL     1      22.427  36.896  40.154  1.00  0.00    -0.000 C 
BRANCH   5   6
ATOM      6  C   UNL     1      21.333  36.284  39.260  1.00  0.00    -0.000 C 
BRANCH   6   7
ATOM      7  C   UNL     1      21.744  34.932  38.654  1.00  0.00    -0.000 C 
BRANCH   7   8
ATOM      8  C   UNL     1      20.563  34.204  37.990  1.00  0.00    -0.003 C 
ATOM      9  C   UNL     1      20.925  33.603  36.632  1.00  0.00     0.004 C 
ENDBRANCH   7   8
ENDBRANCH   6   7
ENDBRANCH   5   6
ENDBRANCH   4   5
ENDBRANCH   3   4
ENDBRANCH   2   3
ENDBRANCH   1   2
BRANCH   1  10
ATOM     10  C   UNL     1      25.107  33.532  44.028  1.00  0.00     0.000 C 
BRANCH  10  11
ATOM     11  C   UNL     1      25.017  32.719  42.727  1.00  0.00     0.000 C 
BRANCH  11  12
ATOM     12  C   UNL     1      23.626  32.096  42.516  1.00  0.00     0.004 C 
BRANCH  12  13
ATOM     13  C   UNL     1      22.878  32.740  41.340  1.00  0.00     0.027 C 
BRANCH  13  14
ATOM     14  C   UNL     1      21.452  32.274  41.243  1.00  0.00    -0.027 C 
ATOM     15  C   UNL     1      20.430  33.079  41.543  1.00  0.00    -0.004 C 
BRANCH  15  16
ATOM     16  C   UNL     1      19.038  32.610  41.440  1.00  0.00     0.007 C 
ATOM     17  C   UNL     1      18.282  32.932  40.387  1.00  0.00     0.093 C 
BRANCH  17  18
ATOM     18  C   UNL     1      16.888  32.482  40.248  1.00  0.00     0.330 C 
ATOM     19  O   UNL     1      16.110  32.477  41.243  1.00  0.00    -0.247 OA
BRANCH  18  20
ATOM     20  O   UNL     1      16.434  32.066  38.994  1.00  0.00    -0.466 OA
ATOM     21  C   UNL     1      17.199  32.237  37.806  1.00  0.00     0.282 C 
ENDBRANCH  18  20
ENDBRANCH  17  18
ENDBRANCH  15  16
ENDBRANCH  13  14
ENDBRANCH  12  13
ENDBRANCH  11  12
ENDBRANCH  10  11
ENDBRANCH   1  10
TORSDOF 15
ENDMDL
MODEL 6
REMARK VINA RESULT:    -3.549      1.561      2.420
REMARK INTER + INTRA:          -7.554
REMARK INTER:                  -6.879
REMARK INTRA:                  -0.675
REMARK UNBOUND:                -0.892
REMARK SMILES CCCCCCCCCCCCCC=CC=CC(=O)OC
REMARK SMILES IDX 9 1 8 2 7 3 6 4 5 5 4 6 3 7 2 8 1 9 10 10 11 11 12 12 13 13
REMARK SMILES IDX 14 14 15 15 16 16 17 17 18 18 19 19 20 20 21 21
REMARK H PARENT
REMARK Flexibility Score: inf
ROOT
ATOM      1  C   UNL     1      15.430  32.684  41.336  1.00  0.00     0.000 C 
ENDROOT
BRANCH   1   2
ATOM      2  C   UNL     1      14.118  31.886  41.428  1.00  0.00     0.000 C 
BRANCH   2   3
ATOM      3  C   UNL     1      12.856  32.775  41.412  1.00  0.00     0.000 C 
BRANCH   3   4
ATOM      4  C   UNL     1      12.686  33.568  42.719  1.00  0.00    -0.000 C 
BRANCH   4   5
ATOM      5  C   UNL     1      11.629  32.959  43.658  1.00  0.00    -0.000 C 
BRANCH   5   6
ATOM      6  C   UNL     1      10.703  31.916  43.008  1.00  0.00    -0.000 C 
BRANCH   6   7
ATOM      7  C   UNL     1       9.285  31.921  43.604  1.00  0.00    -0.000 C 
BRANCH   7   8
ATOM      8  C   UNL     1       8.193  31.935  42.521  1.00  0.00    -0.003 C 
ATOM      9  C   UNL     1       6.815  32.304  43.072  1.00  0.00     0.004 C 
ENDBRANCH   7   8
ENDBRANCH   6   7
ENDBRANCH   5   6
ENDBRANCH   4   5
ENDBRANCH   3   4
ENDBRANCH   2   3
ENDBRANCH   1   2
BRANCH   1  10
ATOM     10  C   UNL     1      16.467  32.021  40.416  1.00  0.00     0.000 C 
BRANCH  10  11
ATOM     11  C   UNL     1      17.874  31.996  41.034  1.00  0.00     0.000 C 
BRANCH  11  12
ATOM     12  C   UNL     1      18.837  32.984  40.352  1.00  0.00     0.004 C 
BRANCH  12  13
ATOM     13  C   UNL     1      20.078  32.281  39.784  1.00  0.00     0.027 C 
BRANCH  13  14
ATOM     14  C   UNL     1      21.344  32.710  40.472  1.00  0.00    -0.027 C 
ATOM     15  C   UNL     1      21.439  33.889  41.091  1.00  0.00    -0.004 C 
BRANCH  15  16
ATOM     16  C   UNL     1      22.684  34.294  41.764  1.00  0.00     0.007 C 
ATOM     17  C   UNL     1      22.744  35.426  42.472  1.00  0.00     0.093 C 
BRANCH  17  18
ATOM     18  C   UNL     1      23.970  35.865  43.158  1.00  0.00     0.330 C 
ATOM     19  O   UNL     1      24.519  35.132  44.028  1.00  0.00    -0.247 OA
BRANCH  18  20
ATOM     20  O   UNL     1      24.520  37.106  42.829  1.00  0.00    -0.466 OA
ATOM     21  C   UNL     1      24.835  37.476  41.492  1.00  0.00     0.282 C 
ENDBRANCH  18  20
ENDBRANCH  17  18
ENDBRANCH  15  16
ENDBRANCH  13  14
ENDBRANCH  12  13
ENDBRANCH  11  12
ENDBRANCH  10  11
ENDBRANCH   1  10
TORSDOF 15
ENDMDL
MODEL 7
REMARK VINA RESULT:    -3.387      2.870      4.778
REMARK INTER + INTRA:          -7.250
REMARK INTER:                  -4.627
REMARK INTRA:                  -2.623
REMARK UNBOUND:                -0.892
REMARK SMILES CCCCCCCCCCCCCC=CC=CC(=O)OC
REMARK SMILES IDX 9 1 8 2 7 3 6 4 5 5 4 6 3 7 2 8 1 9 10 10 11 11 12 12 13 13
REMARK SMILES IDX 14 14 15 15 16 16 17 17 18 18 19 19 20 20 21 21
REMARK H PARENT
REMARK Flexibility Score: inf
ROOT
ATOM      1  C   UNL     1      22.053  31.875  38.672  1.00  0.00     0.000 C 
ENDROOT
BRANCH   1   2
ATOM      2  C   UNL     1      23.168  32.202  39.680  1.00  0.00     0.000 C 
BRANCH   2   3
ATOM      3  C   UNL     1      22.648  32.445  41.113  1.00  0.00     0.000 C 
BRANCH   3   4
ATOM      4  C   UNL     1      21.191  31.983  41.290  1.00  0.00    -0.000 C 
BRANCH   4   5
ATOM      5  C   UNL     1      20.245  33.125  41.701  1.00  0.00    -0.000 C 
BRANCH   5   6
ATOM      6  C   UNL     1      19.044  33.349  40.765  1.00  0.00    -0.000 C 
BRANCH   6   7
ATOM      7  C   UNL     1      18.595  32.062  40.052  1.00  0.00    -0.000 C 
BRANCH   7   8
ATOM      8  C   UNL     1      17.087  32.055  39.750  1.00  0.00    -0.003 C 
ATOM      9  C   UNL     1      16.235  32.373  40.979  1.00  0.00     0.004 C 
ENDBRANCH   7   8
ENDBRANCH   6   7
ENDBRANCH   5   6
ENDBRANCH   4   5
ENDBRANCH   3   4
ENDBRANCH   2   3
ENDBRANCH   1   2
BRANCH   1  10
ATOM     10  C   UNL     1      22.495  32.061  37.212  1.00  0.00     0.000 C 
BRANCH  10  11
ATOM     11  C   UNL     1      21.494  32.891  36.393  1.00  0.00     0.000 C 
BRANCH  11  12
ATOM     12  C   UNL     1      20.280  33.342  37.226  1.00  0.00     0.004 C 
BRANCH  12  13
ATOM     13  C   UNL     1      20.301  34.851  37.504  1.00  0.00     0.027 C 
BRANCH  13  14
ATOM     14  C   UNL     1      21.448  35.255  38.388  1.00  0.00    -0.027 C 
ATOM     15  C   UNL     1      21.335  36.252  39.270  1.00  0.00    -0.004 C 
BRANCH  15  16
ATOM     16  C   UNL     1      22.466  36.634  40.132  1.00  0.00     0.007 C 
ATOM     17  C   UNL     1      22.757  35.933  41.232  1.00  0.00     0.093 C 
BRANCH  17  18
ATOM     18  C   UNL     1      23.878  36.283  42.118  1.00  0.00     0.330 C 
ATOM     19  O   UNL     1      24.161  35.561  43.116  1.00  0.00    -0.247 OA
BRANCH  18  20
ATOM     20  O   UNL     1      24.630  37.426  41.837  1.00  0.00    -0.466 OA
ATOM     21  C   UNL     1      24.767  38.501  42.758  1.00  0.00     0.282 C 
ENDBRANCH  18  20
ENDBRANCH  17  18
ENDBRANCH  15  16
ENDBRANCH  13  14
ENDBRANCH  12  13
ENDBRANCH  11  12
ENDBRANCH  10  11
ENDBRANCH   1  10
TORSDOF 15
ENDMDL
MODEL 8
REMARK VINA RESULT:    -3.354      1.465      2.067
REMARK INTER + INTRA:          -7.186
REMARK INTER:                  -6.481
REMARK INTRA:                  -0.705
REMARK UNBOUND:                -0.892
REMARK SMILES CCCCCCCCCCCCCC=CC=CC(=O)OC
REMARK SMILES IDX 9 1 8 2 7 3 6 4 5 5 4 6 3 7 2 8 1 9 10 10 11 11 12 12 13 13
REMARK SMILES IDX 14 14 15 15 16 16 17 17 18 18 19 19 20 20 21 21
REMARK H PARENT
REMARK Flexibility Score: inf
ROOT
ATOM      1  C   UNL     1      19.635  33.373  39.939  1.00  0.00     0.000 C 
ENDROOT
BRANCH   1   2
ATOM      2  C   UNL     1      18.149  33.430  40.330  1.00  0.00     0.000 C 
BRANCH   2   3
ATOM      3  C   UNL     1      17.689  32.221  41.174  1.00  0.00     0.000 C 
BRANCH   3   4
ATOM      4  C   UNL     1      16.208  31.875  40.937  1.00  0.00    -0.000 C 
BRANCH   4   5
ATOM      5  C   UNL     1      15.258  33.032  41.291  1.00  0.00    -0.000 C 
BRANCH   5   6
ATOM      6  C   UNL     1      13.927  32.610  41.940  1.00  0.00    -0.000 C 
BRANCH   6   7
ATOM      7  C   UNL     1      13.397  33.644  42.947  1.00  0.00    -0.000 C 
BRANCH   7   8
ATOM      8  C   UNL     1      12.277  33.079  43.834  1.00  0.00    -0.003 C 
ATOM      9  C   UNL     1      10.890  33.579  43.429  1.00  0.00     0.004 C 
ENDBRANCH   7   8
ENDBRANCH   6   7
ENDBRANCH   5   6
ENDBRANCH   4   5
ENDBRANCH   3   4
ENDBRANCH   2   3
ENDBRANCH   1   2
BRANCH   1  10
ATOM     10  C   UNL     1      19.872  33.673  38.451  1.00  0.00     0.000 C 
BRANCH  10  11
ATOM     11  C   UNL     1      21.361  33.849  38.114  1.00  0.00     0.000 C 
BRANCH  11  12
ATOM     12  C   UNL     1      21.924  32.674  37.295  1.00  0.00     0.004 C 
BRANCH  12  13
ATOM     13  C   UNL     1      23.163  32.052  37.954  1.00  0.00     0.027 C 
BRANCH  13  14
ATOM     14  C   UNL     1      23.743  32.932  39.026  1.00  0.00    -0.027 C 
ATOM     15  C   UNL     1      23.354  32.832  40.300  1.00  0.00    -0.004 C 
BRANCH  15  16
ATOM     16  C   UNL     1      23.933  33.697  41.341  1.00  0.00     0.007 C 
ATOM     17  C   UNL     1      23.158  34.508  42.067  1.00  0.00     0.093 C 
BRANCH  17  18
ATOM     18  C   UNL     1      23.699  35.388  43.116  1.00  0.00     0.330 C 
ATOM     19  O   UNL     1      24.222  34.902  44.158  1.00  0.00    -0.247 OA
BRANCH  18  20
ATOM     20  O   UNL     1      23.631  36.772  42.938  1.00  0.00    -0.466 OA
ATOM     21  C   UNL     1      22.614  37.396  42.163  1.00  0.00     0.282 C 
ENDBRANCH  18  20
ENDBRANCH  17  18
ENDBRANCH  15  16
ENDBRANCH  13  14
ENDBRANCH  12  13
ENDBRANCH  11  12
ENDBRANCH  10  11
ENDBRANCH   1  10
TORSDOF 15
ENDMDL
MODEL 9
REMARK VINA RESULT:    -3.338      4.074      9.748
REMARK INTER + INTRA:          -7.157
REMARK INTER:                  -5.885
REMARK INTRA:                  -1.272
REMARK UNBOUND:                -0.892
REMARK SMILES CCCCCCCCCCCCCC=CC=CC(=O)OC
REMARK SMILES IDX 9 1 8 2 7 3 6 4 5 5 4 6 3 7 2 8 1 9 10 10 11 11 12 12 13 13
REMARK SMILES IDX 14 14 15 15 16 16 17 17 18 18 19 19 20 20 21 21
REMARK H PARENT
REMARK Flexibility Score: inf
ROOT
ATOM      1  C   UNL     1      22.060  34.716  39.230  1.00  0.00     0.000 C 
ENDROOT
BRANCH   1   2
ATOM      2  C   UNL     1      21.597  36.182  39.284  1.00  0.00     0.000 C 
BRANCH   2   3
ATOM      3  C   UNL     1      22.553  37.099  40.078  1.00  0.00     0.000 C 
BRANCH   3   4
ATOM      4  C   UNL     1      22.210  37.138  41.578  1.00  0.00    -0.000 C 
BRANCH   4   5
ATOM      5  C   UNL     1      23.432  37.437  42.465  1.00  0.00    -0.000 C 
BRANCH   5   6
ATOM      6  C   UNL     1      24.573  36.408  42.374  1.00  0.00    -0.000 C 
BRANCH   6   7
ATOM      7  C   UNL     1      24.458  35.293  43.427  1.00  0.00    -0.000 C 
BRANCH   7   8
ATOM      8  C   UNL     1      24.047  33.945  42.811  1.00  0.00    -0.003 C 
ATOM      9  C   UNL     1      24.740  33.667  41.477  1.00  0.00     0.004 C 
ENDBRANCH   7   8
ENDBRANCH   6   7
ENDBRANCH   5   6
ENDBRANCH   4   5
ENDBRANCH   3   4
ENDBRANCH   2   3
ENDBRANCH   1   2
BRANCH   1  10
ATOM     10  C   UNL     1      21.031  33.744  39.827  1.00  0.00     0.000 C 
BRANCH  10  11
ATOM     11  C   UNL     1      19.777  33.599  38.951  1.00  0.00     0.000 C 
BRANCH  11  12
ATOM     12  C   UNL     1      18.838  32.483  39.443  1.00  0.00     0.004 C 
BRANCH  12  13
ATOM     13  C   UNL     1      18.344  32.734  40.874  1.00  0.00     0.027 C 
BRANCH  13  14
ATOM     14  C   UNL     1      16.990  32.132  41.127  1.00  0.00    -0.027 C 
ATOM     15  C   UNL     1      15.885  32.881  41.157  1.00  0.00    -0.004 C 
BRANCH  15  16
ATOM     16  C   UNL     1      14.565  32.276  41.401  1.00  0.00     0.007 C 
ATOM     17  C   UNL     1      13.520  33.031  41.754  1.00  0.00     0.093 C 
BRANCH  17  18
ATOM     18  C   UNL     1      12.185  32.464  42.007  1.00  0.00     0.330 C 
ATOM     19  O   UNL     1      11.378  32.267  41.056  1.00  0.00    -0.247 OA
BRANCH  18  20
ATOM     20  O   UNL     1      11.826  32.142  43.318  1.00  0.00    -0.466 OA
ATOM     21  C   UNL     1      11.077  33.024  44.147  1.00  0.00     0.282 C 
ENDBRANCH  18  20
ENDBRANCH  17  18
ENDBRANCH  15  16
ENDBRANCH  13  14
ENDBRANCH  12  13
ENDBRANCH  11  12
ENDBRANCH  10  11
ENDBRANCH   1  10
TORSDOF 15
ENDMDL
