MODEL 1
REMARK VINA RESULT:    -2.463      0.000      0.000
REMARK INTER + INTRA:          -2.463
REMARK INTER:                  -2.463
REMARK INTRA:                   0.000
REMARK UNBOUND:                 0.000
REMARK SMILES CC(=O)[O-]
REMARK SMILES IDX 1 1 2 2 3 3 4 4
REMARK H PARENT
REMARK Flexibility Score: inf
ROOT
ATOM      1  C   UNL     1       1.391  20.755 -19.541  1.00  0.00     0.063 C 
ATOM      2  C   UNL     1       1.424  21.960 -18.664  1.00  0.00     0.038 C 
ATOM      3  O   UNL     1       1.441  23.112 -19.173  1.00  0.00    -0.550 OA
ATOM      4  O   UNL     1       1.380  21.818 -17.283  1.00  0.00    -0.550 OA
ENDROOT
TORSDOF 0
ENDMDL
MODEL 2
REMARK VINA RESULT:    -2.457      1.049      1.049
REMARK INTER + INTRA:          -2.457
REMARK INTER:                  -2.457
REMARK INTRA:                   0.000
REMARK UNBOUND:                 0.000
REMARK SMILES CC(=O)[O-]
REMARK SMILES IDX 1 1 2 2 3 3 4 4
REMARK H PARENT
REMARK Flexibility Score: inf
ROOT
ATOM      1  C   UNL     1       1.428  20.449 -19.802  1.00  0.00     0.063 C 
ATOM      2  C   UNL     1       1.543  21.721 -19.032  1.00  0.00     0.038 C 
ATOM      3  O   UNL     1       2.614  22.381 -19.057  1.00  0.00    -0.550 OA
ATOM      4  O   UNL     1       0.449  22.209 -18.327  1.00  0.00    -0.550 OA
ENDROOT
TORSDOF 0
ENDMDL
MODEL 3
REMARK VINA RESULT:    -2.455      1.805      2.285
REMARK INTER + INTRA:          -2.455
REMARK INTER:                  -2.455
REMARK INTRA:                   0.000
REMARK UNBOUND:                 0.000
REMARK SMILES CC(=O)[O-]
REMARK SMILES IDX 1 1 2 2 3 3 4 4
REMARK H PARENT
REMARK Flexibility Score: inf
ROOT
ATOM      1  C   UNL     1       0.805  22.247 -18.297  1.00  0.00     0.063 C 
ATOM      2  C   UNL     1       1.561  21.497 -19.341  1.00  0.00     0.038 C 
ATOM      3  O   UNL     1       1.084  20.440 -19.829  1.00  0.00    -0.550 OA
ATOM      4  O   UNL     1       2.768  21.993 -19.817  1.00  0.00    -0.550 OA
ENDROOT
TORSDOF 0
ENDMDL
MODEL 4
REMARK VINA RESULT:    -2.454      1.078      1.333
REMARK INTER + INTRA:          -2.454
REMARK INTER:                  -2.454
REMARK INTRA:                   0.000
REMARK UNBOUND:                 0.000
REMARK SMILES CC(=O)[O-]
REMARK SMILES IDX 1 1 2 2 3 3 4 4
REMARK H PARENT
REMARK Flexibility Score: inf
ROOT
ATOM      1  C   UNL     1       1.395  20.502 -19.772  1.00  0.00     0.063 C 
ATOM      2  C   UNL     1       1.497  21.739 -18.945  1.00  0.00     0.038 C 
ATOM      3  O   UNL     1       0.484  22.183 -18.345  1.00  0.00    -0.550 OA
ATOM      4  O   UNL     1       2.723  22.374 -18.791  1.00  0.00    -0.550 OA
ENDROOT
TORSDOF 0
ENDMDL
MODEL 5
REMARK VINA RESULT:    -2.400      2.818      3.013
REMARK INTER + INTRA:          -2.400
REMARK INTER:                  -2.400
REMARK INTRA:                   0.000
REMARK UNBOUND:                 0.000
REMARK SMILES CC(=O)[O-]
REMARK SMILES IDX 1 1 2 2 3 3 4 4
REMARK H PARENT
REMARK Flexibility Score: inf
ROOT
ATOM      1  C   UNL     1       1.314  20.955 -19.487  1.00  0.00     0.063 C 
ATOM      2  C   UNL     1       2.363  20.376 -20.374  1.00  0.00     0.038 C 
ATOM      3  O   UNL     1       3.216  21.127 -20.916  1.00  0.00    -0.550 OA
ATOM      4  O   UNL     1       2.435  19.002 -20.563  1.00  0.00    -0.550 OA
ENDROOT
TORSDOF 0
ENDMDL
MODEL 6
REMARK VINA RESULT:    -2.345      2.064      2.478
REMARK INTER + INTRA:          -2.345
REMARK INTER:                  -2.345
REMARK INTRA:                   0.000
REMARK UNBOUND:                 0.000
REMARK SMILES CC(=O)[O-]
REMARK SMILES IDX 1 1 2 2 3 3 4 4
REMARK H PARENT
REMARK Flexibility Score: inf
ROOT
ATOM      1  C   UNL     1       2.869  22.094 -15.883  1.00  0.00     0.063 C 
ATOM      2  C   UNL     1       2.264  22.533 -17.173  1.00  0.00     0.038 C 
ATOM      3  O   UNL     1       2.881  23.339 -17.918  1.00  0.00    -0.550 OA
ATOM      4  O   UNL     1       1.043  22.013 -17.582  1.00  0.00    -0.550 OA
ENDROOT
TORSDOF 0
ENDMDL
MODEL 7
REMARK VINA RESULT:    -2.248     13.763     14.204
REMARK INTER + INTRA:          -2.248
REMARK INTER:                  -2.248
REMARK INTRA:                   0.000
REMARK UNBOUND:                 0.000
REMARK SMILES CC(=O)[O-]
REMARK SMILES IDX 1 1 2 2 3 3 4 4
REMARK H PARENT
REMARK Flexibility Score: inf
ROOT
ATOM      1  C   UNL     1      -8.045  33.475 -16.994  1.00  0.00     0.063 C 
ATOM      2  C   UNL     1      -7.275  32.667 -16.006  1.00  0.00     0.038 C 
ATOM      3  O   UNL     1      -7.787  32.375 -14.893  1.00  0.00    -0.550 OA
ATOM      4  O   UNL     1      -6.012  32.189 -16.331  1.00  0.00    -0.550 OA
ENDROOT
TORSDOF 0
ENDMDL
MODEL 8
REMARK VINA RESULT:    -2.246     11.405     11.714
REMARK INTER + INTRA:          -2.246
REMARK INTER:                  -2.246
REMARK INTRA:                   0.000
REMARK UNBOUND:                 0.000
REMARK SMILES CC(=O)[O-]
REMARK SMILES IDX 1 1 2 2 3 3 4 4
REMARK H PARENT
REMARK Flexibility Score: inf
ROOT
ATOM      1  C   UNL     1      -4.663  31.522 -18.823  1.00  0.00     0.063 C 
ATOM      2  C   UNL     1      -4.531  31.837 -17.372  1.00  0.00     0.038 C 
ATOM      3  O   UNL     1      -3.403  32.112 -16.885  1.00  0.00    -0.550 OA
ATOM      4  O   UNL     1      -5.660  31.882 -16.564  1.00  0.00    -0.550 OA
ENDROOT
TORSDOF 0
ENDMDL
MODEL 9
REMARK VINA RESULT:    -2.230     11.379     11.691
REMARK INTER + INTRA:          -2.230
REMARK INTER:                  -2.230
REMARK INTRA:                   0.000
REMARK UNBOUND:                 0.000
REMARK SMILES CC(=O)[O-]
REMARK SMILES IDX 1 1 2 2 3 3 4 4
REMARK H PARENT
REMARK Flexibility Score: inf
ROOT
ATOM      1  C   UNL     1      -4.618  31.520 -18.779  1.00  0.00     0.063 C 
ATOM      2  C   UNL     1      -4.399  31.915 -17.358  1.00  0.00     0.038 C 
ATOM      3  O   UNL     1      -5.364  31.926 -16.549  1.00  0.00    -0.550 OA
ATOM      4  O   UNL     1      -3.120  32.219 -16.909  1.00  0.00    -0.550 OA
ENDROOT
TORSDOF 0
ENDMDL
