MODEL 1
REMARK VINA RESULT:    -3.524      0.000      0.000
REMARK INTER + INTRA:         -11.175
REMARK INTER:                  -8.881
REMARK INTRA:                  -2.294
REMARK UNBOUND:                -2.294
REMARK SMILES CCCCCCCCCCCCCCCCCCCCCCCCCCCC(=O)[O-]
REMARK SMILES IDX 15 1 16 2 17 3 18 4 19 5 20 6 21 7 22 8 23 9 24 10 25 11
REMARK SMILES IDX 26 12 27 13 28 14 29 15 30 16 14 17 13 18 12 19 11 20 10 21
REMARK SMILES IDX 9 22 8 23 7 24 6 25 5 26 4 27 3 28 2 29 1 30
REMARK H PARENT
REMARK Flexibility Score: inf
ROOT
ATOM      1  C   UNL     1     -44.008 -35.660  20.192  1.00  0.00     0.000 C 
ENDROOT
BRANCH   1   2
ATOM      2  C   UNL     1     -43.908 -37.095  19.646  1.00  0.00     0.000 C 
BRANCH   2   3
ATOM      3  C   UNL     1     -44.722 -37.286  18.356  1.00  0.00     0.000 C 
BRANCH   3   4
ATOM      4  C   UNL     1     -45.946 -36.354  18.297  1.00  0.00     0.000 C 
BRANCH   4   5
ATOM      5  C   UNL     1     -45.986 -35.530  17.002  1.00  0.00     0.000 C 
BRANCH   5   6
ATOM      6  C   UNL     1     -44.718 -34.671  16.782  1.00  0.00     0.000 C 
BRANCH   6   7
ATOM      7  C   UNL     1     -44.940 -33.168  17.031  1.00  0.00     0.000 C 
BRANCH   7   8
ATOM      8  C   UNL     1     -44.912 -32.292  15.763  1.00  0.00     0.000 C 
BRANCH   8   9
ATOM      9  C   UNL     1     -46.055 -32.608  14.781  1.00  0.00     0.000 C 
BRANCH   9  10
ATOM     10  C   UNL     1     -45.618 -32.506  13.310  1.00  0.00     0.000 C 
BRANCH  10  11
ATOM     11  C   UNL     1     -45.443 -33.858  12.591  1.00  0.00     0.000 C 
BRANCH  11  12
ATOM     12  C   UNL     1     -46.044 -35.056  13.356  1.00  0.00     0.006 C 
BRANCH  12  13
ATOM     13  C   UNL     1     -46.021 -36.351  12.532  1.00  0.00     0.053 C 
BRANCH  13  14
ATOM     14  C   UNL     1     -45.273 -37.423  13.259  1.00  0.00     0.041 C 
ATOM     15  O   UNL     1     -45.522 -38.637  13.031  1.00  0.00    -0.550 OA
ATOM     16  O   UNL     1     -44.334 -37.083  14.225  1.00  0.00    -0.550 OA
ENDBRANCH  13  14
ENDBRANCH  12  13
ENDBRANCH  11  12
ENDBRANCH  10  11
ENDBRANCH   9  10
ENDBRANCH   8   9
ENDBRANCH   7   8
ENDBRANCH   6   7
ENDBRANCH   5   6
ENDBRANCH   4   5
ENDBRANCH   3   4
ENDBRANCH   2   3
ENDBRANCH   1   2
BRANCH   1  17
ATOM     17  C   UNL     1     -44.594 -35.591  21.614  1.00  0.00     0.000 C 
BRANCH  17  18
ATOM     18  C   UNL     1     -44.840 -34.169  22.153  1.00  0.00     0.000 C 
BRANCH  18  19
ATOM     19  C   UNL     1     -43.714 -33.584  23.029  1.00  0.00     0.000 C 
BRANCH  19  20
ATOM     20  C   UNL     1     -44.200 -32.610  24.123  1.00  0.00     0.000 C 
BRANCH  20  21
ATOM     21  C   UNL     1     -44.161 -33.226  25.535  1.00  0.00     0.000 C 
BRANCH  21  22
ATOM     22  C   UNL     1     -44.639 -32.243  26.615  1.00  0.00    -0.000 C 
BRANCH  22  23
ATOM     23  C   UNL     1     -43.781 -32.321  27.891  1.00  0.00    -0.000 C 
BRANCH  23  24
ATOM     24  C   UNL     1     -42.830 -33.530  27.903  1.00  0.00    -0.000 C 
BRANCH  24  25
ATOM     25  C   UNL     1     -41.448 -33.275  28.544  1.00  0.00    -0.000 C 
BRANCH  25  26
ATOM     26  C   UNL     1     -40.858 -31.875  28.298  1.00  0.00    -0.000 C 
BRANCH  26  27
ATOM     27  C   UNL     1     -39.354 -31.906  27.979  1.00  0.00    -0.000 C 
BRANCH  27  28
ATOM     28  C   UNL     1     -39.077 -32.127  26.484  1.00  0.00    -0.000 C 
BRANCH  28  29
ATOM     29  C   UNL     1     -38.489 -33.519  26.194  1.00  0.00    -0.003 C 
ATOM     30  C   UNL     1     -37.816 -34.101  27.432  1.00  0.00     0.004 C 
ENDBRANCH  28  29
ENDBRANCH  27  28
ENDBRANCH  26  27
ENDBRANCH  25  26
ENDBRANCH  24  25
ENDBRANCH  23  24
ENDBRANCH  22  23
ENDBRANCH  21  22
ENDBRANCH  20  21
ENDBRANCH  19  20
ENDBRANCH  18  19
ENDBRANCH  17  18
ENDBRANCH   1  17
TORSDOF 26
ENDMDL
MODEL 2
REMARK VINA RESULT:    -3.300      3.768     12.394
REMARK INTER + INTRA:         -10.609
REMARK INTER:                  -8.565
REMARK INTRA:                  -2.044
REMARK UNBOUND:                -2.294
REMARK SMILES CCCCCCCCCCCCCCCCCCCCCCCCCCCC(=O)[O-]
REMARK SMILES IDX 15 1 16 2 17 3 18 4 19 5 20 6 21 7 22 8 23 9 24 10 25 11
REMARK SMILES IDX 26 12 27 13 28 14 29 15 30 16 14 17 13 18 12 19 11 20 10 21
REMARK SMILES IDX 9 22 8 23 7 24 6 25 5 26 4 27 3 28 2 29 1 30
REMARK H PARENT
REMARK Flexibility Score: inf
ROOT
ATOM      1  C   UNL     1     -45.459 -35.012  20.605  1.00  0.00     0.000 C 
ENDROOT
BRANCH   1   2
ATOM      2  C   UNL     1     -44.467 -34.984  21.782  1.00  0.00     0.000 C 
BRANCH   2   3
ATOM      3  C   UNL     1     -44.409 -33.606  22.462  1.00  0.00     0.000 C 
BRANCH   3   4
ATOM      4  C   UNL     1     -45.060 -33.617  23.857  1.00  0.00     0.000 C 
BRANCH   4   5
ATOM      5  C   UNL     1     -44.325 -32.703  24.848  1.00  0.00     0.000 C 
BRANCH   5   6
ATOM      6  C   UNL     1     -44.388 -33.207  26.310  1.00  0.00     0.000 C 
BRANCH   6   7
ATOM      7  C   UNL     1     -43.018 -33.621  26.879  1.00  0.00     0.000 C 
BRANCH   7   8
ATOM      8  C   UNL     1     -42.936 -33.638  28.417  1.00  0.00     0.000 C 
BRANCH   8   9
ATOM      9  C   UNL     1     -42.490 -32.292  29.017  1.00  0.00     0.000 C 
BRANCH   9  10
ATOM     10  C   UNL     1     -41.083 -31.876  28.557  1.00  0.00     0.000 C 
BRANCH  10  11
ATOM     11  C   UNL     1     -40.123 -33.046  28.265  1.00  0.00     0.000 C 
BRANCH  11  12
ATOM     12  C   UNL     1     -38.638 -32.720  28.537  1.00  0.00     0.006 C 
BRANCH  12  13
ATOM     13  C   UNL     1     -37.867 -32.378  27.255  1.00  0.00     0.053 C 
BRANCH  13  14
ATOM     14  C   UNL     1     -38.177 -33.369  26.176  1.00  0.00     0.041 C 
ATOM     15  O   UNL     1     -37.711 -34.538  26.238  1.00  0.00    -0.550 OA
ATOM     16  O   UNL     1     -38.938 -32.987  25.080  1.00  0.00    -0.550 OA
ENDBRANCH  13  14
ENDBRANCH  12  13
ENDBRANCH  11  12
ENDBRANCH  10  11
ENDBRANCH   9  10
ENDBRANCH   8   9
ENDBRANCH   7   8
ENDBRANCH   6   7
ENDBRANCH   5   6
ENDBRANCH   4   5
ENDBRANCH   3   4
ENDBRANCH   2   3
ENDBRANCH   1   2
BRANCH   1  17
ATOM     17  C   UNL     1     -45.323 -33.798  19.668  1.00  0.00     0.000 C 
BRANCH  17  18
ATOM     18  C   UNL     1     -46.123 -33.891  18.355  1.00  0.00     0.000 C 
BRANCH  18  19
ATOM     19  C   UNL     1     -45.295 -34.197  17.090  1.00  0.00     0.000 C 
BRANCH  19  20
ATOM     20  C   UNL     1     -46.113 -34.206  15.782  1.00  0.00     0.000 C 
BRANCH  20  21
ATOM     21  C   UNL     1     -45.479 -33.343  14.673  1.00  0.00     0.000 C 
BRANCH  21  22
ATOM     22  C   UNL     1     -46.070 -33.646  13.287  1.00  0.00    -0.000 C 
BRANCH  22  23
ATOM     23  C   UNL     1     -46.106 -35.157  12.990  1.00  0.00    -0.000 C 
BRANCH  23  24
ATOM     24  C   UNL     1     -44.729 -35.727  12.606  1.00  0.00    -0.000 C 
BRANCH  24  25
ATOM     25  C   UNL     1     -44.488 -37.198  13.012  1.00  0.00    -0.000 C 
BRANCH  25  26
ATOM     26  C   UNL     1     -44.934 -37.566  14.439  1.00  0.00    -0.000 C 
BRANCH  26  27
ATOM     27  C   UNL     1     -43.766 -38.002  15.338  1.00  0.00    -0.000 C 
BRANCH  27  28
ATOM     28  C   UNL     1     -44.183 -38.145  16.810  1.00  0.00    -0.000 C 
BRANCH  28  29
ATOM     29  C   UNL     1     -45.654 -37.762  17.046  1.00  0.00    -0.003 C 
ATOM     30  C   UNL     1     -46.045 -37.951  18.507  1.00  0.00     0.004 C 
ENDBRANCH  28  29
ENDBRANCH  27  28
ENDBRANCH  26  27
ENDBRANCH  25  26
ENDBRANCH  24  25
ENDBRANCH  23  24
ENDBRANCH  22  23
ENDBRANCH  21  22
ENDBRANCH  20  21
ENDBRANCH  19  20
ENDBRANCH  18  19
ENDBRANCH  17  18
ENDBRANCH   1  17
TORSDOF 26
ENDMDL
MODEL 3
REMARK VINA RESULT:    -3.108      1.811      2.996
REMARK INTER + INTRA:         -10.124
REMARK INTER:                  -8.336
REMARK INTRA:                  -1.789
REMARK UNBOUND:                -2.294
REMARK SMILES CCCCCCCCCCCCCCCCCCCCCCCCCCCC(=O)[O-]
REMARK SMILES IDX 15 1 16 2 17 3 18 4 19 5 20 6 21 7 22 8 23 9 24 10 25 11
REMARK SMILES IDX 26 12 27 13 28 14 29 15 30 16 14 17 13 18 12 19 11 20 10 21
REMARK SMILES IDX 9 22 8 23 7 24 6 25 5 26 4 27 3 28 2 29 1 30
REMARK H PARENT
REMARK Flexibility Score: inf
ROOT
ATOM      1  C   UNL     1     -43.434 -35.797  20.409  1.00  0.00     0.000 C 
ENDROOT
BRANCH   1   2
ATOM      2  C   UNL     1     -43.698 -37.123  19.673  1.00  0.00     0.000 C 
BRANCH   2   3
ATOM      3  C   UNL     1     -45.199 -37.387  19.469  1.00  0.00     0.000 C 
BRANCH   3   4
ATOM      4  C   UNL     1     -45.595 -37.374  17.981  1.00  0.00     0.000 C 
BRANCH   4   5
ATOM      5  C   UNL     1     -44.391 -37.606  17.057  1.00  0.00     0.000 C 
BRANCH   5   6
ATOM      6  C   UNL     1     -44.787 -38.101  15.646  1.00  0.00     0.000 C 
BRANCH   6   7
ATOM      7  C   UNL     1     -45.493 -37.031  14.793  1.00  0.00     0.000 C 
BRANCH   7   8
ATOM      8  C   UNL     1     -44.863 -36.788  13.408  1.00  0.00     0.000 C 
BRANCH   8   9
ATOM      9  C   UNL     1     -45.678 -35.820  12.531  1.00  0.00     0.000 C 
BRANCH   9  10
ATOM     10  C   UNL     1     -45.186 -34.367  12.637  1.00  0.00     0.000 C 
BRANCH  10  11
ATOM     11  C   UNL     1     -46.125 -33.419  13.410  1.00  0.00     0.000 C 
BRANCH  11  12
ATOM     12  C   UNL     1     -45.386 -32.366  14.263  1.00  0.00     0.006 C 
BRANCH  12  13
ATOM     13  C   UNL     1     -45.392 -32.713  15.759  1.00  0.00     0.053 C 
BRANCH  13  14
ATOM     14  C   UNL     1     -43.993 -32.816  16.280  1.00  0.00     0.041 C 
ATOM     15  O   UNL     1     -43.155 -31.910  16.028  1.00  0.00    -0.550 OA
ATOM     16  O   UNL     1     -43.601 -33.936  17.001  1.00  0.00    -0.550 OA
ENDBRANCH  13  14
ENDBRANCH  12  13
ENDBRANCH  11  12
ENDBRANCH  10  11
ENDBRANCH   9  10
ENDBRANCH   8   9
ENDBRANCH   7   8
ENDBRANCH   6   7
ENDBRANCH   5   6
ENDBRANCH   4   5
ENDBRANCH   3   4
ENDBRANCH   2   3
ENDBRANCH   1   2
BRANCH   1  17
ATOM     17  C   UNL     1     -44.312 -35.614  21.661  1.00  0.00     0.000 C 
BRANCH  17  18
ATOM     18  C   UNL     1     -44.920 -34.209  21.834  1.00  0.00     0.000 C 
BRANCH  18  19
ATOM     19  C   UNL     1     -45.346 -33.839  23.269  1.00  0.00     0.000 C 
BRANCH  19  20
ATOM     20  C   UNL     1     -45.414 -32.322  23.542  1.00  0.00     0.000 C 
BRANCH  20  21
ATOM     21  C   UNL     1     -45.115 -31.963  25.010  1.00  0.00     0.000 C 
BRANCH  21  22
ATOM     22  C   UNL     1     -44.554 -33.156  25.801  1.00  0.00    -0.000 C 
BRANCH  22  23
ATOM     23  C   UNL     1     -43.030 -33.299  25.633  1.00  0.00    -0.000 C 
BRANCH  23  24
ATOM     24  C   UNL     1     -42.244 -32.141  26.272  1.00  0.00    -0.000 C 
BRANCH  24  25
ATOM     25  C   UNL     1     -41.695 -32.421  27.689  1.00  0.00    -0.000 C 
BRANCH  25  26
ATOM     26  C   UNL     1     -40.268 -31.908  27.953  1.00  0.00    -0.000 C 
BRANCH  26  27
ATOM     27  C   UNL     1     -39.198 -33.001  27.790  1.00  0.00    -0.000 C 
BRANCH  27  28
ATOM     28  C   UNL     1     -38.148 -32.638  26.729  1.00  0.00    -0.000 C 
BRANCH  28  29
ATOM     29  C   UNL     1     -37.998 -33.727  25.653  1.00  0.00    -0.003 C 
ATOM     30  C   UNL     1     -38.633 -33.292  24.337  1.00  0.00     0.004 C 
ENDBRANCH  28  29
ENDBRANCH  27  28
ENDBRANCH  26  27
ENDBRANCH  25  26
ENDBRANCH  24  25
ENDBRANCH  23  24
ENDBRANCH  22  23
ENDBRANCH  21  22
ENDBRANCH  20  21
ENDBRANCH  19  20
ENDBRANCH  18  19
ENDBRANCH  17  18
ENDBRANCH   1  17
TORSDOF 26
ENDMDL
MODEL 4
REMARK VINA RESULT:    -2.808      3.728     12.272
REMARK INTER + INTRA:          -9.371
REMARK INTER:                  -8.153
REMARK INTRA:                  -1.218
REMARK UNBOUND:                -2.294
REMARK SMILES CCCCCCCCCCCCCCCCCCCCCCCCCCCC(=O)[O-]
REMARK SMILES IDX 15 1 16 2 17 3 18 4 19 5 20 6 21 7 22 8 23 9 24 10 25 11
REMARK SMILES IDX 26 12 27 13 28 14 29 15 30 16 14 17 13 18 12 19 11 20 10 21
REMARK SMILES IDX 9 22 8 23 7 24 6 25 5 26 4 27 3 28 2 29 1 30
REMARK H PARENT
REMARK Flexibility Score: inf
ROOT
ATOM      1  C   UNL     1     -44.813 -35.151  19.456  1.00  0.00     0.000 C 
ENDROOT
BRANCH   1   2
ATOM      2  C   UNL     1     -44.491 -35.998  20.700  1.00  0.00     0.000 C 
BRANCH   2   3
ATOM      3  C   UNL     1     -45.514 -35.786  21.829  1.00  0.00     0.000 C 
BRANCH   3   4
ATOM      4  C   UNL     1     -45.851 -34.299  22.037  1.00  0.00     0.000 C 
BRANCH   4   5
ATOM      5  C   UNL     1     -45.430 -33.797  23.426  1.00  0.00     0.000 C 
BRANCH   5   6
ATOM      6  C   UNL     1     -43.936 -33.400  23.507  1.00  0.00     0.000 C 
BRANCH   6   7
ATOM      7  C   UNL     1     -43.604 -32.487  24.702  1.00  0.00     0.000 C 
BRANCH   7   8
ATOM      8  C   UNL     1     -43.440 -33.218  26.048  1.00  0.00     0.000 C 
BRANCH   8   9
ATOM      9  C   UNL     1     -43.238 -32.262  27.238  1.00  0.00     0.000 C 
BRANCH   9  10
ATOM     10  C   UNL     1     -41.873 -32.446  27.921  1.00  0.00     0.000 C 
BRANCH  10  11
ATOM     11  C   UNL     1     -40.653 -32.181  27.017  1.00  0.00     0.000 C 
BRANCH  11  12
ATOM     12  C   UNL     1     -39.301 -32.547  27.666  1.00  0.00     0.006 C 
BRANCH  12  13
ATOM     13  C   UNL     1     -38.105 -32.197  26.769  1.00  0.00     0.053 C 
BRANCH  13  14
ATOM     14  C   UNL     1     -37.856 -33.289  25.778  1.00  0.00     0.041 C 
ATOM     15  O   UNL     1     -37.583 -34.454  26.173  1.00  0.00    -0.550 OA
ATOM     16  O   UNL     1     -37.876 -33.010  24.417  1.00  0.00    -0.550 OA
ENDBRANCH  13  14
ENDBRANCH  12  13
ENDBRANCH  11  12
ENDBRANCH  10  11
ENDBRANCH   9  10
ENDBRANCH   8   9
ENDBRANCH   7   8
ENDBRANCH   6   7
ENDBRANCH   5   6
ENDBRANCH   4   5
ENDBRANCH   3   4
ENDBRANCH   2   3
ENDBRANCH   1   2
BRANCH   1  17
ATOM     17  C   UNL     1     -44.431 -35.843  18.135  1.00  0.00     0.000 C 
BRANCH  17  18
ATOM     18  C   UNL     1     -45.260 -35.418  16.908  1.00  0.00     0.000 C 
BRANCH  18  19
ATOM     19  C   UNL     1     -46.115 -36.528  16.264  1.00  0.00     0.000 C 
BRANCH  19  20
ATOM     20  C   UNL     1     -45.783 -37.952  16.756  1.00  0.00     0.000 C 
BRANCH  20  21
ATOM     21  C   UNL     1     -44.349 -38.391  16.397  1.00  0.00     0.000 C 
BRANCH  21  22
ATOM     22  C   UNL     1     -43.826 -37.696  15.130  1.00  0.00    -0.000 C 
BRANCH  22  23
ATOM     23  C   UNL     1     -44.665 -38.045  13.887  1.00  0.00    -0.000 C 
BRANCH  23  24
ATOM     24  C   UNL     1     -44.707 -36.909  12.850  1.00  0.00    -0.000 C 
BRANCH  24  25
ATOM     25  C   UNL     1     -46.102 -36.299  12.596  1.00  0.00    -0.000 C 
BRANCH  25  26
ATOM     26  C   UNL     1     -46.124 -34.775  12.381  1.00  0.00    -0.000 C 
BRANCH  26  27
ATOM     27  C   UNL     1     -44.719 -34.149  12.389  1.00  0.00    -0.000 C 
BRANCH  27  28
ATOM     28  C   UNL     1     -44.694 -32.775  13.077  1.00  0.00    -0.000 C 
BRANCH  28  29
ATOM     29  C   UNL     1     -45.958 -32.512  13.913  1.00  0.00    -0.003 C 
ATOM     30  C   UNL     1     -45.606 -32.240  15.371  1.00  0.00     0.004 C 
ENDBRANCH  28  29
ENDBRANCH  27  28
ENDBRANCH  26  27
ENDBRANCH  25  26
ENDBRANCH  24  25
ENDBRANCH  23  24
ENDBRANCH  22  23
ENDBRANCH  21  22
ENDBRANCH  20  21
ENDBRANCH  19  20
ENDBRANCH  18  19
ENDBRANCH  17  18
ENDBRANCH   1  17
TORSDOF 26
ENDMDL
MODEL 5
REMARK VINA RESULT:    -2.710      1.140      1.784
REMARK INTER + INTRA:          -9.123
REMARK INTER:                  -7.129
REMARK INTRA:                  -1.994
REMARK UNBOUND:                -2.294
REMARK SMILES CCCCCCCCCCCCCCCCCCCCCCCCCCCC(=O)[O-]
REMARK SMILES IDX 15 1 16 2 17 3 18 4 19 5 20 6 21 7 22 8 23 9 24 10 25 11
REMARK SMILES IDX 26 12 27 13 28 14 29 15 30 16 14 17 13 18 12 19 11 20 10 21
REMARK SMILES IDX 9 22 8 23 7 24 6 25 5 26 4 27 3 28 2 29 1 30
REMARK H PARENT
REMARK Flexibility Score: inf
ROOT
ATOM      1  C   UNL     1     -43.888 -34.335  21.478  1.00  0.00     0.000 C 
ENDROOT
BRANCH   1   2
ATOM      2  C   UNL     1     -43.454 -35.666  20.839  1.00  0.00     0.000 C 
BRANCH   2   3
ATOM      3  C   UNL     1     -44.637 -36.626  20.632  1.00  0.00     0.000 C 
BRANCH   3   4
ATOM      4  C   UNL     1     -44.757 -37.096  19.171  1.00  0.00     0.000 C 
BRANCH   4   5
ATOM      5  C   UNL     1     -46.106 -36.710  18.546  1.00  0.00     0.000 C 
BRANCH   5   6
ATOM      6  C   UNL     1     -45.974 -35.717  17.367  1.00  0.00     0.000 C 
BRANCH   6   7
ATOM      7  C   UNL     1     -44.887 -34.646  17.581  1.00  0.00     0.000 C 
BRANCH   7   8
ATOM      8  C   UNL     1     -44.994 -33.422  16.652  1.00  0.00     0.000 C 
BRANCH   8   9
ATOM      9  C   UNL     1     -45.962 -33.636  15.474  1.00  0.00     0.000 C 
BRANCH   9  10
ATOM     10  C   UNL     1     -45.436 -33.040  14.158  1.00  0.00     0.000 C 
BRANCH  10  11
ATOM     11  C   UNL     1     -45.397 -34.022  12.970  1.00  0.00     0.000 C 
BRANCH  11  12
ATOM     12  C   UNL     1     -45.694 -35.486  13.360  1.00  0.00     0.006 C 
BRANCH  12  13
ATOM     13  C   UNL     1     -44.999 -36.493  12.432  1.00  0.00     0.053 C 
BRANCH  13  14
ATOM     14  C   UNL     1     -44.799 -37.801  13.132  1.00  0.00     0.041 C 
ATOM     15  O   UNL     1     -44.157 -37.848  14.215  1.00  0.00    -0.550 OA
ATOM     16  O   UNL     1     -45.279 -38.973  12.564  1.00  0.00    -0.550 OA
ENDBRANCH  13  14
ENDBRANCH  12  13
ENDBRANCH  11  12
ENDBRANCH  10  11
ENDBRANCH   9  10
ENDBRANCH   8   9
ENDBRANCH   7   8
ENDBRANCH   6   7
ENDBRANCH   5   6
ENDBRANCH   4   5
ENDBRANCH   3   4
ENDBRANCH   2   3
ENDBRANCH   1   2
BRANCH   1  17
ATOM     17  C   UNL     1     -44.280 -34.472  22.960  1.00  0.00     0.000 C 
BRANCH  17  18
ATOM     18  C   UNL     1     -45.596 -33.777  23.356  1.00  0.00     0.000 C 
BRANCH  18  19
ATOM     19  C   UNL     1     -45.991 -33.894  24.842  1.00  0.00     0.000 C 
BRANCH  19  20
ATOM     20  C   UNL     1     -45.913 -32.568  25.628  1.00  0.00     0.000 C 
BRANCH  20  21
ATOM     21  C   UNL     1     -44.542 -31.875  25.500  1.00  0.00     0.000 C 
BRANCH  21  22
ATOM     22  C   UNL     1     -43.380 -32.806  25.882  1.00  0.00    -0.000 C 
BRANCH  22  23
ATOM     23  C   UNL     1     -43.402 -33.179  27.375  1.00  0.00    -0.000 C 
BRANCH  23  24
ATOM     24  C   UNL     1     -41.994 -33.315  27.982  1.00  0.00    -0.000 C 
BRANCH  24  25
ATOM     25  C   UNL     1     -41.226 -31.988  28.170  1.00  0.00    -0.000 C 
BRANCH  25  26
ATOM     26  C   UNL     1     -39.694 -32.097  28.078  1.00  0.00    -0.000 C 
BRANCH  26  27
ATOM     27  C   UNL     1     -39.227 -33.095  27.005  1.00  0.00    -0.000 C 
BRANCH  27  28
ATOM     28  C   UNL     1     -39.309 -32.510  25.587  1.00  0.00    -0.000 C 
BRANCH  28  29
ATOM     29  C   UNL     1     -38.500 -33.327  24.565  1.00  0.00    -0.003 C 
ATOM     30  C   UNL     1     -37.885 -32.424  23.502  1.00  0.00     0.004 C 
ENDBRANCH  28  29
ENDBRANCH  27  28
ENDBRANCH  26  27
ENDBRANCH  25  26
ENDBRANCH  24  25
ENDBRANCH  23  24
ENDBRANCH  22  23
ENDBRANCH  21  22
ENDBRANCH  20  21
ENDBRANCH  19  20
ENDBRANCH  18  19
ENDBRANCH  17  18
ENDBRANCH   1  17
TORSDOF 26
ENDMDL
MODEL 6
REMARK VINA RESULT:    -2.564      1.802      3.265
REMARK INTER + INTRA:          -8.755
REMARK INTER:                  -7.977
REMARK INTRA:                  -0.778
REMARK UNBOUND:                -2.294
REMARK SMILES CCCCCCCCCCCCCCCCCCCCCCCCCCCC(=O)[O-]
REMARK SMILES IDX 15 1 16 2 17 3 18 4 19 5 20 6 21 7 22 8 23 9 24 10 25 11
REMARK SMILES IDX 26 12 27 13 28 14 29 15 30 16 14 17 13 18 12 19 11 20 10 21
REMARK SMILES IDX 9 22 8 23 7 24 6 25 5 26 4 27 3 28 2 29 1 30
REMARK H PARENT
REMARK Flexibility Score: inf
ROOT
ATOM      1  C   UNL     1     -44.429 -37.149  19.373  1.00  0.00     0.000 C 
ENDROOT
BRANCH   1   2
ATOM      2  C   UNL     1     -44.423 -35.610  19.340  1.00  0.00     0.000 C 
BRANCH   2   3
ATOM      3  C   UNL     1     -44.715 -35.057  17.935  1.00  0.00     0.000 C 
BRANCH   3   4
ATOM      4  C   UNL     1     -46.098 -34.385  17.850  1.00  0.00     0.000 C 
BRANCH   4   5
ATOM      5  C   UNL     1     -46.031 -32.879  18.142  1.00  0.00     0.000 C 
BRANCH   5   6
ATOM      6  C   UNL     1     -45.616 -32.035  16.913  1.00  0.00     0.000 C 
BRANCH   6   7
ATOM      7  C   UNL     1     -45.882 -32.732  15.566  1.00  0.00     0.000 C 
BRANCH   7   8
ATOM      8  C   UNL     1     -44.640 -32.908  14.672  1.00  0.00     0.000 C 
BRANCH   8   9
ATOM      9  C   UNL     1     -44.987 -33.196  13.200  1.00  0.00     0.000 C 
BRANCH   9  10
ATOM     10  C   UNL     1     -46.124 -34.220  13.048  1.00  0.00     0.000 C 
BRANCH  10  11
ATOM     11  C   UNL     1     -45.713 -35.553  12.391  1.00  0.00     0.000 C 
BRANCH  11  12
ATOM     12  C   UNL     1     -44.705 -36.375  13.223  1.00  0.00     0.006 C 
BRANCH  12  13
ATOM     13  C   UNL     1     -45.197 -36.632  14.655  1.00  0.00     0.053 C 
BRANCH  13  14
ATOM     14  C   UNL     1     -44.461 -37.784  15.264  1.00  0.00     0.041 C 
ATOM     15  O   UNL     1     -44.628 -38.071  16.479  1.00  0.00    -0.550 OA
ATOM     16  O   UNL     1     -43.553 -38.509  14.503  1.00  0.00    -0.550 OA
ENDBRANCH  13  14
ENDBRANCH  12  13
ENDBRANCH  11  12
ENDBRANCH  10  11
ENDBRANCH   9  10
ENDBRANCH   8   9
ENDBRANCH   7   8
ENDBRANCH   6   7
ENDBRANCH   5   6
ENDBRANCH   4   5
ENDBRANCH   3   4
ENDBRANCH   2   3
ENDBRANCH   1   2
BRANCH   1  17
ATOM     17  C   UNL     1     -45.596 -37.734  20.188  1.00  0.00     0.000 C 
BRANCH  17  18
ATOM     18  C   UNL     1     -46.078 -36.860  21.362  1.00  0.00     0.000 C 
BRANCH  18  19
ATOM     19  C   UNL     1     -45.289 -35.556  21.590  1.00  0.00     0.000 C 
BRANCH  19  20
ATOM     20  C   UNL     1     -46.036 -34.499  22.432  1.00  0.00     0.000 C 
BRANCH  20  21
ATOM     21  C   UNL     1     -45.180 -33.936  23.583  1.00  0.00     0.000 C 
BRANCH  21  22
ATOM     22  C   UNL     1     -44.224 -32.828  23.112  1.00  0.00    -0.000 C 
BRANCH  22  23
ATOM     23  C   UNL     1     -42.932 -32.782  23.949  1.00  0.00    -0.000 C 
BRANCH  23  24
ATOM     24  C   UNL     1     -43.134 -32.142  25.333  1.00  0.00    -0.000 C 
BRANCH  24  25
ATOM     25  C   UNL     1     -42.075 -32.514  26.393  1.00  0.00    -0.000 C 
BRANCH  25  26
ATOM     26  C   UNL     1     -42.624 -32.763  27.810  1.00  0.00    -0.000 C 
BRANCH  26  27
ATOM     27  C   UNL     1     -44.148 -32.962  27.836  1.00  0.00    -0.000 C 
BRANCH  27  28
ATOM     28  C   UNL     1     -44.546 -34.444  27.744  1.00  0.00    -0.000 C 
BRANCH  28  29
ATOM     29  C   UNL     1     -44.639 -35.115  29.125  1.00  0.00    -0.003 C 
ATOM     30  C   UNL     1     -43.959 -36.480  29.120  1.00  0.00     0.004 C 
ENDBRANCH  28  29
ENDBRANCH  27  28
ENDBRANCH  26  27
ENDBRANCH  25  26
ENDBRANCH  24  25
ENDBRANCH  23  24
ENDBRANCH  22  23
ENDBRANCH  21  22
ENDBRANCH  20  21
ENDBRANCH  19  20
ENDBRANCH  18  19
ENDBRANCH  17  18
ENDBRANCH   1  17
TORSDOF 26
ENDMDL
MODEL 7
REMARK VINA RESULT:    -2.552      3.923     12.153
REMARK INTER + INTRA:          -8.725
REMARK INTER:                  -6.845
REMARK INTRA:                  -1.880
REMARK UNBOUND:                -2.294
REMARK SMILES CCCCCCCCCCCCCCCCCCCCCCCCCCCC(=O)[O-]
REMARK SMILES IDX 15 1 16 2 17 3 18 4 19 5 20 6 21 7 22 8 23 9 24 10 25 11
REMARK SMILES IDX 26 12 27 13 28 14 29 15 30 16 14 17 13 18 12 19 11 20 10 21
REMARK SMILES IDX 9 22 8 23 7 24 6 25 5 26 4 27 3 28 2 29 1 30
REMARK H PARENT
REMARK Flexibility Score: inf
ROOT
ATOM      1  C   UNL     1     -45.122 -38.189  18.292  1.00  0.00     0.000 C 
ENDROOT
BRANCH   1   2
ATOM      2  C   UNL     1     -46.059 -37.888  19.475  1.00  0.00     0.000 C 
BRANCH   2   3
ATOM      3  C   UNL     1     -46.065 -36.397  19.850  1.00  0.00     0.000 C 
BRANCH   3   4
ATOM      4  C   UNL     1     -46.102 -36.179  21.373  1.00  0.00     0.000 C 
BRANCH   4   5
ATOM      5  C   UNL     1     -45.285 -34.952  21.804  1.00  0.00     0.000 C 
BRANCH   5   6
ATOM      6  C   UNL     1     -45.417 -34.626  23.311  1.00  0.00     0.000 C 
BRANCH   6   7
ATOM      7  C   UNL     1     -44.385 -33.599  23.812  1.00  0.00     0.000 C 
BRANCH   7   8
ATOM      8  C   UNL     1     -44.495 -33.250  25.309  1.00  0.00     0.000 C 
BRANCH   8   9
ATOM      9  C   UNL     1     -43.134 -32.952  25.965  1.00  0.00     0.000 C 
BRANCH   9  10
ATOM     10  C   UNL     1     -43.247 -31.981  27.152  1.00  0.00     0.000 C 
BRANCH  10  11
ATOM     11  C   UNL     1     -42.061 -32.020  28.136  1.00  0.00     0.000 C 
BRANCH  11  12
ATOM     12  C   UNL     1     -41.553 -33.444  28.448  1.00  0.00     0.006 C 
BRANCH  12  13
ATOM     13  C   UNL     1     -40.027 -33.501  28.606  1.00  0.00     0.053 C 
BRANCH  13  14
ATOM     14  C   UNL     1     -39.352 -33.049  27.350  1.00  0.00     0.041 C 
ATOM     15  O   UNL     1     -38.904 -31.875  27.258  1.00  0.00    -0.550 OA
ATOM     16  O   UNL     1     -39.261 -33.907  26.262  1.00  0.00    -0.550 OA
ENDBRANCH  13  14
ENDBRANCH  12  13
ENDBRANCH  11  12
ENDBRANCH  10  11
ENDBRANCH   9  10
ENDBRANCH   8   9
ENDBRANCH   7   8
ENDBRANCH   6   7
ENDBRANCH   5   6
ENDBRANCH   4   5
ENDBRANCH   3   4
ENDBRANCH   2   3
ENDBRANCH   1   2
BRANCH   1  17
ATOM     17  C   UNL     1     -45.866 -38.353  16.954  1.00  0.00     0.000 C 
BRANCH  17  18
ATOM     18  C   UNL     1     -45.411 -37.404  15.830  1.00  0.00     0.000 C 
BRANCH  18  19
ATOM     19  C   UNL     1     -44.529 -38.041  14.737  1.00  0.00     0.000 C 
BRANCH  19  20
ATOM     20  C   UNL     1     -44.582 -37.317  13.375  1.00  0.00     0.000 C 
BRANCH  20  21
ATOM     21  C   UNL     1     -46.016 -37.163  12.833  1.00  0.00     0.000 C 
BRANCH  21  22
ATOM     22  C   UNL     1     -46.084 -36.230  11.613  1.00  0.00    -0.000 C 
BRANCH  22  23
ATOM     23  C   UNL     1     -45.245 -34.954  11.812  1.00  0.00    -0.000 C 
BRANCH  23  24
ATOM     24  C   UNL     1     -45.968 -33.884  12.648  1.00  0.00    -0.000 C 
BRANCH  24  25
ATOM     25  C   UNL     1     -45.129 -32.631  12.983  1.00  0.00    -0.000 C 
BRANCH  25  26
ATOM     26  C   UNL     1     -45.405 -32.006  14.363  1.00  0.00    -0.000 C 
BRANCH  26  27
ATOM     27  C   UNL     1     -46.048 -32.994  15.351  1.00  0.00    -0.000 C 
BRANCH  27  28
ATOM     28  C   UNL     1     -45.813 -32.592  16.815  1.00  0.00    -0.000 C 
BRANCH  28  29
ATOM     29  C   UNL     1     -45.186 -33.726  17.644  1.00  0.00    -0.003 C 
ATOM     30  C   UNL     1     -44.141 -34.487  16.835  1.00  0.00     0.004 C 
ENDBRANCH  28  29
ENDBRANCH  27  28
ENDBRANCH  26  27
ENDBRANCH  25  26
ENDBRANCH  24  25
ENDBRANCH  23  24
ENDBRANCH  22  23
ENDBRANCH  21  22
ENDBRANCH  20  21
ENDBRANCH  19  20
ENDBRANCH  18  19
ENDBRANCH  17  18
ENDBRANCH   1  17
TORSDOF 26
ENDMDL
MODEL 8
REMARK VINA RESULT:    -2.513      1.871      3.117
REMARK INTER + INTRA:          -8.626
REMARK INTER:                  -6.982
REMARK INTRA:                  -1.643
REMARK UNBOUND:                -2.294
REMARK SMILES CCCCCCCCCCCCCCCCCCCCCCCCCCCC(=O)[O-]
REMARK SMILES IDX 15 1 16 2 17 3 18 4 19 5 20 6 21 7 22 8 23 9 24 10 25 11
REMARK SMILES IDX 26 12 27 13 28 14 29 15 30 16 14 17 13 18 12 19 11 20 10 21
REMARK SMILES IDX 9 22 8 23 7 24 6 25 5 26 4 27 3 28 2 29 1 30
REMARK H PARENT
REMARK Flexibility Score: inf
ROOT
ATOM      1  C   UNL     1     -43.190 -35.867  20.459  1.00  0.00     0.000 C 
ENDROOT
BRANCH   1   2
ATOM      2  C   UNL     1     -43.540 -37.000  19.478  1.00  0.00     0.000 C 
BRANCH   2   3
ATOM      3  C   UNL     1     -44.942 -36.830  18.868  1.00  0.00     0.000 C 
BRANCH   3   4
ATOM      4  C   UNL     1     -44.906 -36.072  17.529  1.00  0.00     0.000 C 
BRANCH   4   5
ATOM      5  C   UNL     1     -45.924 -34.924  17.485  1.00  0.00     0.000 C 
BRANCH   5   6
ATOM      6  C   UNL     1     -45.313 -33.579  17.021  1.00  0.00     0.000 C 
BRANCH   6   7
ATOM      7  C   UNL     1     -45.756 -33.156  15.608  1.00  0.00     0.000 C 
BRANCH   7   8
ATOM      8  C   UNL     1     -44.658 -32.483  14.762  1.00  0.00     0.000 C 
BRANCH   8   9
ATOM      9  C   UNL     1     -45.026 -32.367  13.271  1.00  0.00     0.000 C 
BRANCH   9  10
ATOM     10  C   UNL     1     -46.042 -33.431  12.826  1.00  0.00     0.000 C 
BRANCH  10  11
ATOM     11  C   UNL     1     -45.463 -34.850  12.658  1.00  0.00     0.000 C 
BRANCH  11  12
ATOM     12  C   UNL     1     -46.121 -35.906  13.572  1.00  0.00     0.006 C 
BRANCH  12  13
ATOM     13  C   UNL     1     -46.050 -37.321  12.981  1.00  0.00     0.053 C 
BRANCH  13  14
ATOM     14  C   UNL     1     -44.690 -37.910  13.188  1.00  0.00     0.041 C 
ATOM     15  O   UNL     1     -44.246 -38.777  12.389  1.00  0.00    -0.550 OA
ATOM     16  O   UNL     1     -43.933 -37.538  14.291  1.00  0.00    -0.550 OA
ENDBRANCH  13  14
ENDBRANCH  12  13
ENDBRANCH  11  12
ENDBRANCH  10  11
ENDBRANCH   9  10
ENDBRANCH   8   9
ENDBRANCH   7   8
ENDBRANCH   6   7
ENDBRANCH   5   6
ENDBRANCH   4   5
ENDBRANCH   3   4
ENDBRANCH   2   3
ENDBRANCH   1   2
BRANCH   1  17
ATOM     17  C   UNL     1     -44.346 -34.875  20.678  1.00  0.00     0.000 C 
BRANCH  17  18
ATOM     18  C   UNL     1     -44.815 -34.726  22.138  1.00  0.00     0.000 C 
BRANCH  18  19
ATOM     19  C   UNL     1     -44.007 -33.736  23.000  1.00  0.00     0.000 C 
BRANCH  19  20
ATOM     20  C   UNL     1     -44.860 -32.653  23.694  1.00  0.00     0.000 C 
BRANCH  20  21
ATOM     21  C   UNL     1     -44.426 -32.388  25.149  1.00  0.00     0.000 C 
BRANCH  21  22
ATOM     22  C   UNL     1     -43.069 -33.029  25.479  1.00  0.00    -0.000 C 
BRANCH  22  23
ATOM     23  C   UNL     1     -42.783 -33.036  26.992  1.00  0.00    -0.000 C 
BRANCH  23  24
ATOM     24  C   UNL     1     -43.768 -32.167  27.794  1.00  0.00    -0.000 C 
BRANCH  24  25
ATOM     25  C   UNL     1     -44.844 -32.946  28.581  1.00  0.00    -0.000 C 
BRANCH  25  26
ATOM     26  C   UNL     1     -45.146 -34.361  28.057  1.00  0.00    -0.000 C 
BRANCH  26  27
ATOM     27  C   UNL     1     -46.125 -35.137  28.953  1.00  0.00    -0.000 C 
BRANCH  27  28
ATOM     28  C   UNL     1     -45.769 -36.628  29.055  1.00  0.00    -0.000 C 
BRANCH  28  29
ATOM     29  C   UNL     1     -44.515 -36.991  28.241  1.00  0.00    -0.003 C 
ATOM     30  C   UNL     1     -43.273 -37.013  29.125  1.00  0.00     0.004 C 
ENDBRANCH  28  29
ENDBRANCH  27  28
ENDBRANCH  26  27
ENDBRANCH  25  26
ENDBRANCH  24  25
ENDBRANCH  23  24
ENDBRANCH  22  23
ENDBRANCH  21  22
ENDBRANCH  20  21
ENDBRANCH  19  20
ENDBRANCH  18  19
ENDBRANCH  17  18
ENDBRANCH   1  17
TORSDOF 26
ENDMDL
