MODEL 1
REMARK VINA RESULT:    -5.112      0.000      0.000
REMARK INTER + INTRA:          -6.540
REMARK INTER:                  -6.308
REMARK INTRA:                  -0.232
REMARK UNBOUND:                -0.232
REMARK SMILES C=CC[C@@H](C)C(=O)CC
REMARK SMILES IDX 4 1 5 2 6 3 7 4 8 5 9 6 3 7 2 8 1 9
REMARK H PARENT
REMARK Flexibility Score: inf
ROOT
ATOM      1  C   UNL     1       4.597  12.556  47.350  1.00  0.00     0.057 C 
ATOM      2  C   UNL     1       4.716  11.996  48.775  1.00  0.00     0.016 C 
ENDROOT
BRANCH   1   3
ATOM      3  C   UNL     1       3.138  12.642  46.954  1.00  0.00     0.135 C 
ATOM      4  O   UNL     1       2.618  13.737  46.792  1.00  0.00    -0.299 OA
BRANCH   3   5
ATOM      5  C   UNL     1       2.312  11.400  46.745  1.00  0.00     0.072 C 
ATOM      6  C   UNL     1       3.044  10.409  45.846  1.00  0.00     0.012 C 
ENDBRANCH   3   5
ENDBRANCH   1   3
BRANCH   1   7
ATOM      7  C   UNL     1       5.261  13.940  47.221  1.00  0.00     0.038 C 
BRANCH   7   8
ATOM      8  C   UNL     1       6.655  13.835  46.661  1.00  0.00    -0.034 C 
ATOM      9  C   UNL     1       7.731  14.185  47.371  1.00  0.00     0.004 C 
ENDBRANCH   7   8
ENDBRANCH   1   7
TORSDOF 4
ENDMDL
MODEL 2
REMARK VINA RESULT:    -5.027      1.567      4.092
REMARK INTER + INTRA:          -6.435
REMARK INTER:                  -6.238
REMARK INTRA:                  -0.197
REMARK UNBOUND:                -0.232
REMARK SMILES C=CC[C@@H](C)C(=O)CC
REMARK SMILES IDX 4 1 5 2 6 3 7 4 8 5 9 6 3 7 2 8 1 9
REMARK H PARENT
REMARK Flexibility Score: inf
ROOT
ATOM      1  C   UNL     1       3.554  11.859  47.674  1.00  0.00     0.057 C 
ATOM      2  C   UNL     1       3.130  11.156  48.971  1.00  0.00     0.016 C 
ENDROOT
BRANCH   1   3
ATOM      3  C   UNL     1       4.730  12.773  47.948  1.00  0.00     0.135 C 
ATOM      4  O   UNL     1       5.443  12.568  48.920  1.00  0.00    -0.299 OA
BRANCH   3   5
ATOM      5  C   UNL     1       5.047  13.929  47.037  1.00  0.00     0.072 C 
ATOM      6  C   UNL     1       6.515  13.905  46.623  1.00  0.00     0.012 C 
ENDBRANCH   3   5
ENDBRANCH   1   3
BRANCH   1   7
ATOM      7  C   UNL     1       3.917  10.849  46.568  1.00  0.00     0.038 C 
BRANCH   7   8
ATOM      8  C   UNL     1       2.701  10.421  45.789  1.00  0.00    -0.034 C 
ATOM      9  C   UNL     1       1.577  11.142  45.780  1.00  0.00     0.004 C 
ENDBRANCH   7   8
ENDBRANCH   1   7
TORSDOF 4
ENDMDL
MODEL 3
REMARK VINA RESULT:    -4.889      1.820      2.190
REMARK INTER + INTRA:          -6.265
REMARK INTER:                  -6.070
REMARK INTRA:                  -0.195
REMARK UNBOUND:                -0.232
REMARK SMILES C=CC[C@@H](C)C(=O)CC
REMARK SMILES IDX 4 1 5 2 6 3 7 4 8 5 9 6 3 7 2 8 1 9
REMARK H PARENT
REMARK Flexibility Score: inf
ROOT
ATOM      1  C   UNL     1       3.646  11.560  47.351  1.00  0.00     0.057 C 
ATOM      2  C   UNL     1       3.112  11.201  48.745  1.00  0.00     0.016 C 
ENDROOT
BRANCH   1   3
ATOM      3  C   UNL     1       2.704  11.030  46.291  1.00  0.00     0.135 C 
ATOM      4  O   UNL     1       3.060  10.110  45.569  1.00  0.00    -0.299 OA
BRANCH   3   5
ATOM      5  C   UNL     1       1.325  11.609  46.114  1.00  0.00     0.072 C 
ATOM      6  C   UNL     1       0.256  10.565  46.418  1.00  0.00     0.012 C 
ENDBRANCH   3   5
ENDBRANCH   1   3
BRANCH   1   7
ATOM      7  C   UNL     1       3.828  13.080  47.182  1.00  0.00     0.038 C 
BRANCH   7   8
ATOM      8  C   UNL     1       5.272  13.484  47.328  1.00  0.00    -0.034 C 
ATOM      9  C   UNL     1       5.892  13.476  48.511  1.00  0.00     0.004 C 
ENDBRANCH   7   8
ENDBRANCH   1   7
TORSDOF 4
ENDMDL
MODEL 4
REMARK VINA RESULT:    -4.830      2.014      3.874
REMARK INTER + INTRA:          -6.192
REMARK INTER:                  -5.760
REMARK INTRA:                  -0.431
REMARK UNBOUND:                -0.232
REMARK SMILES C=CC[C@@H](C)C(=O)CC
REMARK SMILES IDX 4 1 5 2 6 3 7 4 8 5 9 6 3 7 2 8 1 9
REMARK H PARENT
REMARK Flexibility Score: inf
ROOT
ATOM      1  C   UNL     1       3.433  11.848  47.391  1.00  0.00     0.057 C 
ATOM      2  C   UNL     1       3.454  11.250  48.805  1.00  0.00     0.016 C 
ENDROOT
BRANCH   1   3
ATOM      3  C   UNL     1       4.224  13.139  47.370  1.00  0.00     0.135 C 
ATOM      4  O   UNL     1       5.414  13.125  47.649  1.00  0.00    -0.299 OA
BRANCH   3   5
ATOM      5  C   UNL     1       3.573  14.446  47.000  1.00  0.00     0.072 C 
ATOM      6  C   UNL     1       2.118  14.231  46.598  1.00  0.00     0.012 C 
ENDBRANCH   3   5
ENDBRANCH   1   3
BRANCH   1   7
ATOM      7  C   UNL     1       3.997  10.867  46.346  1.00  0.00     0.038 C 
BRANCH   7   8
ATOM      8  C   UNL     1       2.897  10.144  45.615  1.00  0.00    -0.034 C 
ATOM      9  C   UNL     1       1.652  10.626  45.555  1.00  0.00     0.004 C 
ENDBRANCH   7   8
ENDBRANCH   1   7
TORSDOF 4
ENDMDL
MODEL 5
REMARK VINA RESULT:    -4.691      2.066      3.428
REMARK INTER + INTRA:          -6.020
REMARK INTER:                  -5.621
REMARK INTRA:                  -0.399
REMARK UNBOUND:                -0.232
REMARK SMILES C=CC[C@@H](C)C(=O)CC
REMARK SMILES IDX 4 1 5 2 6 3 7 4 8 5 9 6 3 7 2 8 1 9
REMARK H PARENT
REMARK Flexibility Score: inf
ROOT
ATOM      1  C   UNL     1       2.415  11.322  46.309  1.00  0.00     0.057 C 
ATOM      2  C   UNL     1       2.881  10.073  45.546  1.00  0.00     0.016 C 
ENDROOT
BRANCH   1   3
ATOM      3  C   UNL     1       0.909  11.447  46.213  1.00  0.00     0.135 C 
ATOM      4  O   UNL     1       0.202  10.493  46.503  1.00  0.00    -0.299 OA
BRANCH   3   5
ATOM      5  C   UNL     1       0.261  12.734  45.775  1.00  0.00     0.072 C 
ATOM      6  C   UNL     1       1.310  13.816  45.543  1.00  0.00     0.012 C 
ENDBRANCH   3   5
ENDBRANCH   1   3
BRANCH   1   7
ATOM      7  C   UNL     1       2.848  11.283  47.787  1.00  0.00     0.038 C 
BRANCH   7   8
ATOM      8  C   UNL     1       4.233  11.843  47.973  1.00  0.00    -0.034 C 
ATOM      9  C   UNL     1       4.614  12.990  47.405  1.00  0.00     0.004 C 
ENDBRANCH   7   8
ENDBRANCH   1   7
TORSDOF 4
ENDMDL
MODEL 6
REMARK VINA RESULT:    -4.687      2.911      4.094
REMARK INTER + INTRA:          -6.015
REMARK INTER:                  -5.576
REMARK INTRA:                  -0.439
REMARK UNBOUND:                -0.232
REMARK SMILES C=CC[C@@H](C)C(=O)CC
REMARK SMILES IDX 4 1 5 2 6 3 7 4 8 5 9 6 3 7 2 8 1 9
REMARK H PARENT
REMARK Flexibility Score: inf
ROOT
ATOM      1  C   UNL     1       1.410  11.431  46.491  1.00  0.00     0.057 C 
ATOM      2  C   UNL     1       0.224  10.457  46.553  1.00  0.00     0.016 C 
ENDROOT
BRANCH   1   3
ATOM      3  C   UNL     1       2.672  10.676  46.127  1.00  0.00     0.135 C 
ATOM      4  O   UNL     1       2.650   9.864  45.214  1.00  0.00    -0.299 OA
BRANCH   3   5
ATOM      5  C   UNL     1       3.963  10.916  46.864  1.00  0.00     0.072 C 
ATOM      6  C   UNL     1       3.696  11.253  48.327  1.00  0.00     0.012 C 
ENDBRANCH   3   5
ENDBRANCH   1   3
BRANCH   1   7
ATOM      7  C   UNL     1       1.165  12.567  45.480  1.00  0.00     0.038 C 
BRANCH   7   8
ATOM      8  C   UNL     1       1.318  13.921  46.122  1.00  0.00    -0.034 C 
ATOM      9  C   UNL     1       2.469  14.316  46.674  1.00  0.00     0.004 C 
ENDBRANCH   7   8
ENDBRANCH   1   7
TORSDOF 4
ENDMDL
MODEL 7
REMARK VINA RESULT:    -4.652      1.495      2.039
REMARK INTER + INTRA:          -5.971
REMARK INTER:                  -5.704
REMARK INTRA:                  -0.268
REMARK UNBOUND:                -0.232
REMARK SMILES C=CC[C@@H](C)C(=O)CC
REMARK SMILES IDX 4 1 5 2 6 3 7 4 8 5 9 6 3 7 2 8 1 9
REMARK H PARENT
REMARK Flexibility Score: inf
ROOT
ATOM      1  C   UNL     1       3.148  13.189  47.362  1.00  0.00     0.057 C 
ATOM      2  C   UNL     1       2.129  13.714  46.340  1.00  0.00     0.016 C 
ENDROOT
BRANCH   1   3
ATOM      3  C   UNL     1       3.104  11.676  47.397  1.00  0.00     0.135 C 
ATOM      4  O   UNL     1       2.535  11.107  48.317  1.00  0.00    -0.299 OA
BRANCH   3   5
ATOM      5  C   UNL     1       3.743  10.853  46.309  1.00  0.00     0.072 C 
ATOM      6  C   UNL     1       2.686  10.093  45.515  1.00  0.00     0.012 C 
ENDBRANCH   3   5
ENDBRANCH   1   3
BRANCH   1   7
ATOM      7  C   UNL     1       4.577  13.669  47.044  1.00  0.00     0.038 C 
BRANCH   7   8
ATOM      8  C   UNL     1       5.509  13.441  48.204  1.00  0.00    -0.034 C 
ATOM      9  C   UNL     1       6.780  13.851  48.182  1.00  0.00     0.004 C 
ENDBRANCH   7   8
ENDBRANCH   1   7
TORSDOF 4
ENDMDL
MODEL 8
REMARK VINA RESULT:    -4.605      1.462      4.833
REMARK INTER + INTRA:          -5.914
REMARK INTER:                  -5.751
REMARK INTRA:                  -0.164
REMARK UNBOUND:                -0.232
REMARK SMILES C=CC[C@@H](C)C(=O)CC
REMARK SMILES IDX 4 1 5 2 6 3 7 4 8 5 9 6 3 7 2 8 1 9
REMARK H PARENT
REMARK Flexibility Score: inf
ROOT
ATOM      1  C   UNL     1       2.446  11.413  46.805  1.00  0.00     0.057 C 
ATOM      2  C   UNL     1       3.290  10.467  45.938  1.00  0.00     0.016 C 
ENDROOT
BRANCH   1   3
ATOM      3  C   UNL     1       3.220  12.686  47.074  1.00  0.00     0.135 C 
ATOM      4  O   UNL     1       2.712  13.769  46.823  1.00  0.00    -0.299 OA
BRANCH   3   5
ATOM      5  C   UNL     1       4.608  12.646  47.658  1.00  0.00     0.072 C 
ATOM      6  C   UNL     1       5.464  13.775  47.095  1.00  0.00     0.012 C 
ENDBRANCH   3   5
ENDBRANCH   1   3
BRANCH   1   7
ATOM      7  C   UNL     1       1.097  11.746  46.141  1.00  0.00     0.038 C 
BRANCH   7   8
ATOM      8  C   UNL     1       0.186  10.547  46.106  1.00  0.00    -0.034 C 
ATOM      9  C   UNL     1      -0.919  10.477  46.853  1.00  0.00     0.004 C 
ENDBRANCH   7   8
ENDBRANCH   1   7
TORSDOF 4
ENDMDL
MODEL 9
REMARK VINA RESULT:    -4.564      1.817      3.611
REMARK INTER + INTRA:          -5.863
REMARK INTER:                  -5.451
REMARK INTRA:                  -0.412
REMARK UNBOUND:                -0.232
REMARK SMILES C=CC[C@@H](C)C(=O)CC
REMARK SMILES IDX 4 1 5 2 6 3 7 4 8 5 9 6 3 7 2 8 1 9
REMARK H PARENT
REMARK Flexibility Score: inf
ROOT
ATOM      1  C   UNL     1       3.534  13.238  46.661  1.00  0.00     0.057 C 
ATOM      2  C   UNL     1       4.694  13.939  47.384  1.00  0.00     0.016 C 
ENDROOT
BRANCH   1   3
ATOM      3  C   UNL     1       3.402  11.817  47.165  1.00  0.00     0.135 C 
ATOM      4  O   UNL     1       2.966  11.611  48.288  1.00  0.00    -0.299 OA
BRANCH   3   5
ATOM      5  C   UNL     1       3.789  10.645  46.302  1.00  0.00     0.072 C 
ATOM      6  C   UNL     1       2.592  10.144  45.501  1.00  0.00     0.012 C 
ENDBRANCH   3   5
ENDBRANCH   1   3
BRANCH   1   7
ATOM      7  C   UNL     1       2.204  13.991  46.850  1.00  0.00     0.038 C 
BRANCH   7   8
ATOM      8  C   UNL     1       1.359  13.944  45.604  1.00  0.00    -0.034 C 
ATOM      9  C   UNL     1       0.294  13.144  45.501  1.00  0.00     0.004 C 
ENDBRANCH   7   8
ENDBRANCH   1   7
TORSDOF 4
ENDMDL
