MODEL 1
REMARK VINA RESULT:    96.332      0.000      0.000
REMARK INTER + INTRA:         158.849
REMARK INTER:                 158.279
REMARK INTRA:                   0.570
REMARK UNBOUND:                 0.570
REMARK SMILES C[C@H]1O[C@H](OC[C@@H]2O[C@@H](Oc3c(-c4ccc(O)c(O)c4)oc4cc(O)cc(O)c4c3=O)[C@H](O)[C@H](O)[C@@H]2O)[C@H](O)[C@@H](O)[C@H]1O
REMARK SMILES IDX 7 1 36 2 34 3 32 4 9 5 8 6 6 7 5 8 4 9 1 10 2 11 42 12 3 13
REMARK SMILES IDX 40 14 38 15 43 16 41 18 39 20 37 22 35 24 10 26 11 27 12 28
REMARK SMILES IDX 30 29 21 30 29 31 31 32 22 33 27 34 23 35 26 36 24 37 13 38
REMARK SMILES IDX 20 39 14 40 18 41 15 42 16 43 19 44 17 46 28 48 25 50 33 52
REMARK H PARENT 43 17 41 19 39 21 37 23 35 25 19 45 17 47 28 49 25 51 33 53
REMARK Flexibility Score: inf
ROOT
ATOM      1  C   UNL     1      16.108   0.813  28.212  1.00  0.00     0.180 C 
ATOM      2  C   UNL     1      16.652   1.563  26.973  1.00  0.00     0.177 C 
ATOM      3  C   UNL     1      15.650   2.647  26.553  1.00  0.00     0.180 C 
ATOM      4  C   UNL     1      14.220   2.079  26.437  1.00  0.00     0.214 C 
ATOM      5  C   UNL     1      13.856   1.228  27.680  1.00  0.00     0.339 C 
ATOM      6  O   UNL     1      14.841   0.235  27.932  1.00  0.00    -0.332 OA
ENDROOT
BRANCH   1   7
ATOM      7  C   UNL     1      17.057  -0.300  28.666  1.00  0.00     0.198 C 
BRANCH   7   8
ATOM      8  O   UNL     1      18.019  -0.543  27.663  1.00  0.00    -0.347 OA
BRANCH   8   9
ATOM      9  C   UNL     1      19.338  -0.513  28.192  1.00  0.00     0.281 C 
ATOM     10  C   UNL     1      20.097  -4.109  27.917  1.00  0.00     0.041 C 
ATOM     11  C   UNL     1      19.788  -2.692  27.431  1.00  0.00     0.150 C 
ATOM     12  C   UNL     1      20.839  -2.215  26.404  1.00  0.00     0.174 C 
ATOM     13  O   UNL     1      19.750  -1.823  28.553  1.00  0.00    -0.344 OA
ATOM     14  C   UNL     1      20.486  -0.793  25.949  1.00  0.00     0.179 C 
ATOM     15  C   UNL     1      20.309   0.124  27.174  1.00  0.00     0.202 C 
BRANCH  12  16
ATOM     16  O   UNL     1      22.123  -2.221  26.978  1.00  0.00    -0.388 OA
ATOM     17  H   UNL     1      22.451  -3.158  26.952  1.00  0.00     0.211 HD
ENDBRANCH  12  16
BRANCH  14  18
ATOM     18  O   UNL     1      21.506  -0.303  25.119  1.00  0.00    -0.387 OA
ATOM     19  H   UNL     1      21.095  -0.127  24.232  1.00  0.00     0.211 HD
ENDBRANCH  14  18
BRANCH  15  20
ATOM     20  O   UNL     1      19.809   1.376  26.774  1.00  0.00    -0.385 OA
ATOM     21  H   UNL     1      19.836   1.966  27.574  1.00  0.00     0.211 HD
ENDBRANCH  15  20
ENDBRANCH   8   9
ENDBRANCH   7   8
ENDBRANCH   1   7
BRANCH   2  22
ATOM     22  O   UNL     1      16.854   0.667  25.908  1.00  0.00    -0.387 OA
ATOM     23  H   UNL     1      16.234  -0.095  26.043  1.00  0.00     0.211 HD
ENDBRANCH   2  22
BRANCH   3  24
ATOM     24  O   UNL     1      16.056   3.230  25.342  1.00  0.00    -0.387 OA
ATOM     25  H   UNL     1      17.033   3.383  25.411  1.00  0.00     0.211 HD
ENDBRANCH   3  24
BRANCH   5  26
ATOM     26  O   UNL     1      13.659   2.073  28.818  1.00  0.00    -0.454 OA
BRANCH  26  27
ATOM     27  C   UNL     1      13.057   3.348  28.840  1.00  0.00     0.214 A 
ATOM     28  C   UNL     1      11.666   3.421  29.068  1.00  0.00     0.180 A 
ATOM     29  C   UNL     1      13.768   4.562  28.674  1.00  0.00     0.239 A 
ATOM     30  O   UNL     1      11.059   4.601  29.151  1.00  0.00    -0.452 OA
ATOM     31  C   UNL     1      13.080   5.793  28.754  1.00  0.00     0.111 A 
ATOM     32  O   UNL     1      15.008   4.551  28.462  1.00  0.00    -0.285 OA
ATOM     33  C   UNL     1      11.690   5.757  29.007  1.00  0.00     0.146 A 
ATOM     34  C   UNL     1      13.720   7.049  28.607  1.00  0.00     0.134 A 
ATOM     35  C   UNL     1      10.961   6.945  29.113  1.00  0.00     0.094 A 
ATOM     36  C   UNL     1      12.972   8.230  28.718  1.00  0.00     0.093 A 
ATOM     37  C   UNL     1      11.600   8.181  28.971  1.00  0.00     0.123 A 
BRANCH  28  38
ATOM     38  C   UNL     1      10.838   2.209  29.252  1.00  0.00     0.025 A 
ATOM     39  C   UNL     1       9.439   2.312  29.167  1.00  0.00     0.062 A 
ATOM     40  C   UNL     1      11.420   0.946  29.452  1.00  0.00     0.016 A 
ATOM     41  C   UNL     1       8.630   1.179  29.307  1.00  0.00     0.158 A 
ATOM     42  C   UNL     1      10.616  -0.187  29.593  1.00  0.00     0.051 A 
ATOM     43  C   UNL     1       9.221  -0.078  29.523  1.00  0.00     0.157 A 
BRANCH  41  44
ATOM     44  O   UNL     1       7.245   1.322  29.232  1.00  0.00    -0.504 OA
ATOM     45  H   UNL     1       6.753   1.348  28.347  1.00  0.00     0.293 HD
ENDBRANCH  41  44
BRANCH  43  46
ATOM     46  O   UNL     1       8.422  -1.211  29.662  1.00  0.00    -0.504 OA
ATOM     47  H   UNL     1       7.702  -1.268  30.374  1.00  0.00     0.293 HD
ENDBRANCH  43  46
ENDBRANCH  28  38
BRANCH  34  48
ATOM     48  O   UNL     1      15.089   7.135  28.352  1.00  0.00    -0.507 OA
ATOM     49  H   UNL     1      15.457   7.204  27.409  1.00  0.00     0.293 HD
ENDBRANCH  34  48
BRANCH  37  50
ATOM     50  O   UNL     1      10.877   9.368  29.081  1.00  0.00    -0.508 OA
ATOM     51  H   UNL     1      10.174   9.622  28.397  1.00  0.00     0.293 HD
ENDBRANCH  37  50
ENDBRANCH  26  27
ENDBRANCH   5  26
BRANCH   4  52
ATOM     52  O   UNL     1      14.066   1.354  25.235  1.00  0.00    -0.384 OA
ATOM     53  H   UNL     1      13.323   0.710  25.344  1.00  0.00     0.211 HD
ENDBRANCH   4  52
TORSDOF 16
ENDMDL
MODEL 2
REMARK VINA RESULT:    96.513      3.039     10.367
REMARK INTER + INTRA:         159.147
REMARK INTER:                 158.525
REMARK INTRA:                   0.622
REMARK UNBOUND:                 0.570
REMARK SMILES C[C@H]1O[C@H](OC[C@@H]2O[C@@H](Oc3c(-c4ccc(O)c(O)c4)oc4cc(O)cc(O)c4c3=O)[C@H](O)[C@H](O)[C@@H]2O)[C@H](O)[C@@H](O)[C@H]1O
REMARK SMILES IDX 7 1 36 2 34 3 32 4 9 5 8 6 6 7 5 8 4 9 1 10 2 11 42 12 3 13
REMARK SMILES IDX 40 14 38 15 43 16 41 18 39 20 37 22 35 24 10 26 11 27 12 28
REMARK SMILES IDX 30 29 21 30 29 31 31 32 22 33 27 34 23 35 26 36 24 37 13 38
REMARK SMILES IDX 20 39 14 40 18 41 15 42 16 43 19 44 17 46 28 48 25 50 33 52
REMARK H PARENT 43 17 41 19 39 21 37 23 35 25 19 45 17 47 28 49 25 51 33 53
REMARK Flexibility Score: inf
ROOT
ATOM      1  C   UNL     1       8.262   1.469  30.937  1.00  0.00     0.180 C 
ATOM      2  C   UNL     1       8.053   0.307  29.937  1.00  0.00     0.177 C 
ATOM      3  C   UNL     1       9.060   0.439  28.786  1.00  0.00     0.180 C 
ATOM      4  C   UNL     1       9.056   1.863  28.193  1.00  0.00     0.214 C 
ATOM      5  C   UNL     1       9.123   2.933  29.312  1.00  0.00     0.339 C 
ATOM      6  O   UNL     1       8.112   2.723  30.288  1.00  0.00    -0.332 OA
ENDROOT
BRANCH   1   7
ATOM      7  C   UNL     1       7.269   1.404  32.100  1.00  0.00     0.198 C 
BRANCH   7   8
ATOM      8  O   UNL     1       6.321   0.387  31.859  1.00  0.00    -0.347 OA
BRANCH   8   9
ATOM      9  C   UNL     1       6.281  -0.548  32.929  1.00  0.00     0.281 C 
ATOM     10  C   UNL     1       3.073   0.488  34.418  1.00  0.00     0.041 C 
ATOM     11  C   UNL     1       4.015  -0.093  33.362  1.00  0.00     0.150 C 
ATOM     12  C   UNL     1       3.553  -1.499  32.917  1.00  0.00     0.174 C 
ATOM     13  O   UNL     1       5.328  -0.141  33.900  1.00  0.00    -0.344 OA
ATOM     14  C   UNL     1       4.528  -2.036  31.862  1.00  0.00     0.179 C 
ATOM     15  C   UNL     1       5.972  -1.963  32.392  1.00  0.00     0.202 C 
BRANCH  12  16
ATOM     16  O   UNL     1       3.519  -2.374  34.017  1.00  0.00    -0.388 OA
ATOM     17  H   UNL     1       4.360  -2.901  33.998  1.00  0.00     0.211 HD
ENDBRANCH  12  16
BRANCH  14  18
ATOM     18  O   UNL     1       4.190  -3.363  31.550  1.00  0.00    -0.387 OA
ATOM     19  H   UNL     1       4.700  -3.943  32.174  1.00  0.00     0.211 HD
ENDBRANCH  14  18
BRANCH  15  20
ATOM     20  O   UNL     1       6.880  -2.282  31.368  1.00  0.00    -0.385 OA
ATOM     21  H   UNL     1       6.366  -2.289  30.518  1.00  0.00     0.211 HD
ENDBRANCH  15  20
ENDBRANCH   8   9
ENDBRANCH   7   8
ENDBRANCH   1   7
BRANCH   2  22
ATOM     22  O   UNL     1       6.743   0.331  29.425  1.00  0.00    -0.387 OA
ATOM     23  H   UNL     1       6.689  -0.371  28.726  1.00  0.00     0.211 HD
ENDBRANCH   2  22
BRANCH   3  24
ATOM     24  O   UNL     1       8.780  -0.516  27.794  1.00  0.00    -0.387 OA
ATOM     25  H   UNL     1       8.762  -0.032  26.928  1.00  0.00     0.211 HD
ENDBRANCH   3  24
BRANCH   5  26
ATOM     26  O   UNL     1      10.427   2.950  29.901  1.00  0.00    -0.454 OA
BRANCH  26  27
ATOM     27  C   UNL     1      11.665   2.821  29.239  1.00  0.00     0.214 A 
ATOM     28  C   UNL     1      12.315   4.000  28.815  1.00  0.00     0.180 A 
ATOM     29  C   UNL     1      12.308   1.582  28.997  1.00  0.00     0.239 A 
ATOM     30  O   UNL     1      13.509   3.936  28.232  1.00  0.00    -0.452 OA
ATOM     31  C   UNL     1      13.569   1.561  28.362  1.00  0.00     0.111 A 
ATOM     32  O   UNL     1      11.766   0.504  29.351  1.00  0.00    -0.285 OA
ATOM     33  C   UNL     1      14.145   2.798  27.995  1.00  0.00     0.146 A 
ATOM     34  C   UNL     1      14.280   0.364  28.092  1.00  0.00     0.134 A 
ATOM     35  C   UNL     1      15.399   2.837  27.378  1.00  0.00     0.094 A 
ATOM     36  C   UNL     1      15.537   0.425  27.474  1.00  0.00     0.093 A 
ATOM     37  C   UNL     1      16.096   1.653  27.119  1.00  0.00     0.123 A 
BRANCH  28  38
ATOM     38  C   UNL     1      11.723   5.339  29.020  1.00  0.00     0.025 A 
ATOM     39  C   UNL     1      12.292   6.450  28.373  1.00  0.00     0.062 A 
ATOM     40  C   UNL     1      10.569   5.519  29.802  1.00  0.00     0.016 A 
ATOM     41  C   UNL     1      11.736   7.726  28.524  1.00  0.00     0.158 A 
ATOM     42  C   UNL     1      10.013   6.791  29.956  1.00  0.00     0.051 A 
ATOM     43  C   UNL     1      10.591   7.898  29.321  1.00  0.00     0.157 A 
BRANCH  41  44
ATOM     44  O   UNL     1      12.336   8.806  27.879  1.00  0.00    -0.504 OA
ATOM     45  H   UNL     1      11.812   9.626  27.600  1.00  0.00     0.293 HD
ENDBRANCH  41  44
BRANCH  43  46
ATOM     46  O   UNL     1      10.032   9.165  29.475  1.00  0.00    -0.504 OA
ATOM     47  H   UNL     1      10.605  10.001  29.471  1.00  0.00     0.293 HD
ENDBRANCH  43  46
ENDBRANCH  28  38
BRANCH  34  48
ATOM     48  O   UNL     1      13.751  -0.881  28.433  1.00  0.00    -0.507 OA
ATOM     49  H   UNL     1      13.696  -1.196  29.397  1.00  0.00     0.293 HD
ENDBRANCH  34  48
BRANCH  37  50
ATOM     50  O   UNL     1      17.349   1.689  26.508  1.00  0.00    -0.508 OA
ATOM     51  H   UNL     1      18.199   1.542  27.038  1.00  0.00     0.293 HD
ENDBRANCH  37  50
ENDBRANCH  26  27
ENDBRANCH   5  26
BRANCH   4  52
ATOM     52  O   UNL     1       7.939   2.049  27.348  1.00  0.00    -0.384 OA
ATOM     53  H   UNL     1       8.068   1.515  26.526  1.00  0.00     0.211 HD
ENDBRANCH   4  52
TORSDOF 16
ENDMDL
MODEL 3
REMARK VINA RESULT:    98.663      3.116      6.259
REMARK INTER + INTRA:         162.680
REMARK INTER:                 162.213
REMARK INTRA:                   0.467
REMARK UNBOUND:                 0.570
REMARK SMILES C[C@H]1O[C@H](OC[C@@H]2O[C@@H](Oc3c(-c4ccc(O)c(O)c4)oc4cc(O)cc(O)c4c3=O)[C@H](O)[C@H](O)[C@@H]2O)[C@H](O)[C@@H](O)[C@H]1O
REMARK SMILES IDX 7 1 36 2 34 3 32 4 9 5 8 6 6 7 5 8 4 9 1 10 2 11 42 12 3 13
REMARK SMILES IDX 40 14 38 15 43 16 41 18 39 20 37 22 35 24 10 26 11 27 12 28
REMARK SMILES IDX 30 29 21 30 29 31 31 32 22 33 27 34 23 35 26 36 24 37 13 38
REMARK SMILES IDX 20 39 14 40 18 41 15 42 16 43 19 44 17 46 28 48 25 50 33 52
REMARK H PARENT 43 17 41 19 39 21 37 23 35 25 19 45 17 47 28 49 25 51 33 53
REMARK Flexibility Score: inf
ROOT
ATOM      1  C   UNL     1      13.882   0.052  27.273  1.00  0.00     0.180 C 
ATOM      2  C   UNL     1      15.426  -0.020  27.350  1.00  0.00     0.177 C 
ATOM      3  C   UNL     1      15.952   1.184  28.143  1.00  0.00     0.180 C 
ATOM      4  C   UNL     1      15.353   2.508  27.624  1.00  0.00     0.214 C 
ATOM      5  C   UNL     1      13.817   2.395  27.455  1.00  0.00     0.339 C 
ATOM      6  O   UNL     1      13.466   1.266  26.665  1.00  0.00    -0.332 OA
ENDROOT
BRANCH   1   7
ATOM      7  C   UNL     1      13.297  -1.115  26.473  1.00  0.00     0.198 C 
BRANCH   7   8
ATOM      8  O   UNL     1      14.215  -2.187  26.457  1.00  0.00    -0.347 OA
BRANCH   8   9
ATOM      9  C   UNL     1      13.546  -3.441  26.482  1.00  0.00     0.281 C 
ATOM     10  C   UNL     1      11.919  -3.236  23.181  1.00  0.00     0.041 C 
ATOM     11  C   UNL     1      13.072  -3.335  24.181  1.00  0.00     0.150 C 
ATOM     12  C   UNL     1      14.003  -4.521  23.841  1.00  0.00     0.174 C 
ATOM     13  O   UNL     1      12.534  -3.476  25.487  1.00  0.00    -0.344 OA
ATOM     14  C   UNL     1      15.139  -4.577  24.870  1.00  0.00     0.179 C 
ATOM     15  C   UNL     1      14.559  -4.592  26.297  1.00  0.00     0.202 C 
BRANCH  12  16
ATOM     16  O   UNL     1      13.284  -5.730  23.866  1.00  0.00    -0.388 OA
ATOM     17  H   UNL     1      12.381  -5.541  23.499  1.00  0.00     0.211 HD
ENDBRANCH  12  16
BRANCH  14  18
ATOM     18  O   UNL     1      15.912  -5.727  24.647  1.00  0.00    -0.387 OA
ATOM     19  H   UNL     1      16.831  -5.419  24.430  1.00  0.00     0.211 HD
ENDBRANCH  14  18
BRANCH  15  20
ATOM     20  O   UNL     1      15.592  -4.460  27.241  1.00  0.00    -0.385 OA
ATOM     21  H   UNL     1      15.727  -5.356  27.649  1.00  0.00     0.211 HD
ENDBRANCH  15  20
ENDBRANCH   8   9
ENDBRANCH   7   8
ENDBRANCH   1   7
BRANCH   2  22
ATOM     22  O   UNL     1      15.981  -0.016  26.058  1.00  0.00    -0.387 OA
ATOM     23  H   UNL     1      15.470  -0.671  25.517  1.00  0.00     0.211 HD
ENDBRANCH   2  22
BRANCH   3  24
ATOM     24  O   UNL     1      17.355   1.216  28.088  1.00  0.00    -0.387 OA
ATOM     25  H   UNL     1      17.634   2.118  28.393  1.00  0.00     0.211 HD
ENDBRANCH   3  24
BRANCH   5  26
ATOM     26  O   UNL     1      13.180   2.358  28.735  1.00  0.00    -0.454 OA
BRANCH  26  27
ATOM     27  C   UNL     1      11.795   2.325  28.999  1.00  0.00     0.214 A 
ATOM     28  C   UNL     1      11.105   3.554  29.079  1.00  0.00     0.180 A 
ATOM     29  C   UNL     1      11.049   1.132  29.163  1.00  0.00     0.239 A 
ATOM     30  O   UNL     1       9.790   3.576  29.274  1.00  0.00    -0.452 OA
ATOM     31  C   UNL     1       9.656   1.202  29.383  1.00  0.00     0.111 A 
ATOM     32  O   UNL     1      11.618   0.012  29.107  1.00  0.00    -0.285 OA
ATOM     33  C   UNL     1       9.057   2.482  29.424  1.00  0.00     0.146 A 
ATOM     34  C   UNL     1       8.839   0.056  29.548  1.00  0.00     0.134 A 
ATOM     35  C   UNL     1       7.679   2.611  29.623  1.00  0.00     0.094 A 
ATOM     36  C   UNL     1       7.459   0.205  29.745  1.00  0.00     0.093 A 
ATOM     37  C   UNL     1       6.879   1.475  29.781  1.00  0.00     0.123 A 
BRANCH  28  38
ATOM     38  C   UNL     1      11.797   4.852  28.923  1.00  0.00     0.025 A 
ATOM     39  C   UNL     1      11.063   6.044  29.058  1.00  0.00     0.062 A 
ATOM     40  C   UNL     1      13.183   4.924  28.702  1.00  0.00     0.016 A 
ATOM     41  C   UNL     1      11.695   7.287  28.946  1.00  0.00     0.158 A 
ATOM     42  C   UNL     1      13.816   6.163  28.587  1.00  0.00     0.051 A 
ATOM     43  C   UNL     1      13.079   7.349  28.707  1.00  0.00     0.157 A 
BRANCH  41  44
ATOM     44  O   UNL     1      10.931   8.448  29.071  1.00  0.00    -0.504 OA
ATOM     45  H   UNL     1      10.921   8.996  29.922  1.00  0.00     0.293 HD
ENDBRANCH  41  44
BRANCH  43  46
ATOM     46  O   UNL     1      13.714   8.583  28.596  1.00  0.00    -0.504 OA
ATOM     47  H   UNL     1      13.755   9.230  29.376  1.00  0.00     0.293 HD
ENDBRANCH  43  46
ENDBRANCH  28  38
BRANCH  34  48
ATOM     48  O   UNL     1       9.385  -1.229  29.518  1.00  0.00    -0.507 OA
ATOM     49  H   UNL     1       8.991  -1.966  28.941  1.00  0.00     0.293 HD
ENDBRANCH  34  48
BRANCH  37  50
ATOM     50  O   UNL     1       5.504   1.599  29.975  1.00  0.00    -0.508 OA
ATOM     51  H   UNL     1       5.094   2.467  30.298  1.00  0.00     0.293 HD
ENDBRANCH  37  50
ENDBRANCH  26  27
ENDBRANCH   5  26
BRANCH   4  52
ATOM     52  O   UNL     1      15.989   2.910  26.429  1.00  0.00    -0.384 OA
ATOM     53  H   UNL     1      15.388   3.524  25.938  1.00  0.00     0.211 HD
ENDBRANCH   4  52
TORSDOF 16
ENDMDL
MODEL 4
REMARK VINA RESULT:    99.149      3.269     11.029
REMARK INTER + INTRA:         163.478
REMARK INTER:                 163.908
REMARK INTRA:                  -0.430
REMARK UNBOUND:                 0.570
REMARK SMILES C[C@H]1O[C@H](OC[C@@H]2O[C@@H](Oc3c(-c4ccc(O)c(O)c4)oc4cc(O)cc(O)c4c3=O)[C@H](O)[C@H](O)[C@@H]2O)[C@H](O)[C@@H](O)[C@H]1O
REMARK SMILES IDX 7 1 36 2 34 3 32 4 9 5 8 6 6 7 5 8 4 9 1 10 2 11 42 12 3 13
REMARK SMILES IDX 40 14 38 15 43 16 41 18 39 20 37 22 35 24 10 26 11 27 12 28
REMARK SMILES IDX 30 29 21 30 29 31 31 32 22 33 27 34 23 35 26 36 24 37 13 38
REMARK SMILES IDX 20 39 14 40 18 41 15 42 16 43 19 44 17 46 28 48 25 50 33 52
REMARK H PARENT 43 17 41 19 39 21 37 23 35 25 19 45 17 47 28 49 25 51 33 53
REMARK Flexibility Score: inf
ROOT
ATOM      1  C   UNL     1       8.147   3.257  30.191  1.00  0.00     0.180 C 
ATOM      2  C   UNL     1       7.691   1.801  30.449  1.00  0.00     0.177 C 
ATOM      3  C   UNL     1       8.788   0.834  29.985  1.00  0.00     0.180 C 
ATOM      4  C   UNL     1       9.259   1.160  28.553  1.00  0.00     0.214 C 
ATOM      5  C   UNL     1       9.542   2.675  28.390  1.00  0.00     0.339 C 
ATOM      6  O   UNL     1       8.432   3.456  28.814  1.00  0.00    -0.332 OA
ENDROOT
BRANCH   1   7
ATOM      7  C   UNL     1       7.081   4.271  30.615  1.00  0.00     0.198 C 
BRANCH   7   8
ATOM      8  O   UNL     1       6.013   4.252  29.693  1.00  0.00    -0.347 OA
BRANCH   8   9
ATOM      9  C   UNL     1       5.209   5.419  29.808  1.00  0.00     0.281 C 
ATOM     10  C   UNL     1       3.617   5.294  26.487  1.00  0.00     0.041 C 
ATOM     11  C   UNL     1       3.944   4.844  27.912  1.00  0.00     0.150 C 
ATOM     12  C   UNL     1       2.654   4.608  28.730  1.00  0.00     0.174 C 
ATOM     13  O   UNL     1       4.757   5.831  28.527  1.00  0.00    -0.344 OA
ATOM     14  C   UNL     1       3.035   4.160  30.147  1.00  0.00     0.179 C 
ATOM     15  C   UNL     1       4.027   5.161  30.768  1.00  0.00     0.202 C 
BRANCH  12  16
ATOM     16  O   UNL     1       1.894   5.789  28.797  1.00  0.00    -0.388 OA
ATOM     17  H   UNL     1       2.492   6.502  29.146  1.00  0.00     0.211 HD
ENDBRANCH  12  16
BRANCH  14  18
ATOM     18  O   UNL     1       1.876   4.071  30.934  1.00  0.00    -0.387 OA
ATOM     19  H   UNL     1       1.148   3.751  30.339  1.00  0.00     0.211 HD
ENDBRANCH  14  18
BRANCH  15  20
ATOM     20  O   UNL     1       4.517   4.663  31.988  1.00  0.00    -0.385 OA
ATOM     21  H   UNL     1       3.738   4.582  32.601  1.00  0.00     0.211 HD
ENDBRANCH  15  20
ENDBRANCH   8   9
ENDBRANCH   7   8
ENDBRANCH   1   7
BRANCH   2  22
ATOM     22  O   UNL     1       6.497   1.531  29.757  1.00  0.00    -0.387 OA
ATOM     23  H   UNL     1       5.766   1.517  30.427  1.00  0.00     0.211 HD
ENDBRANCH   2  22
BRANCH   3  24
ATOM     24  O   UNL     1       8.326  -0.489  30.070  1.00  0.00    -0.387 OA
ATOM     25  H   UNL     1       8.491  -0.792  31.000  1.00  0.00     0.211 HD
ENDBRANCH   3  24
BRANCH   5  26
ATOM     26  O   UNL     1      10.735   3.033  29.095  1.00  0.00    -0.454 OA
BRANCH  26  27
ATOM     27  C   UNL     1      12.061   2.954  28.622  1.00  0.00     0.214 A 
ATOM     28  C   UNL     1      12.778   4.158  28.454  1.00  0.00     0.180 A 
ATOM     29  C   UNL     1      12.727   1.738  28.332  1.00  0.00     0.239 A 
ATOM     30  O   UNL     1      14.048   4.135  28.061  1.00  0.00    -0.452 OA
ATOM     31  C   UNL     1      14.072   1.761  27.903  1.00  0.00     0.111 A 
ATOM     32  O   UNL     1      12.129   0.638  28.460  1.00  0.00    -0.285 OA
ATOM     33  C   UNL     1      14.707   3.019  27.786  1.00  0.00     0.146 A 
ATOM     34  C   UNL     1      14.809   0.588  27.600  1.00  0.00     0.134 A 
ATOM     35  C   UNL     1      16.042   3.100  27.382  1.00  0.00     0.094 A 
ATOM     36  C   UNL     1      16.148   0.691  27.197  1.00  0.00     0.093 A 
ATOM     37  C   UNL     1      16.764   1.939  27.089  1.00  0.00     0.123 A 
BRANCH  28  38
ATOM     38  C   UNL     1      12.170   5.478  28.729  1.00  0.00     0.025 A 
ATOM     39  C   UNL     1      12.636   6.609  28.038  1.00  0.00     0.062 A 
ATOM     40  C   UNL     1      11.094   5.617  29.624  1.00  0.00     0.016 A 
ATOM     41  C   UNL     1      12.061   7.866  28.256  1.00  0.00     0.158 A 
ATOM     42  C   UNL     1      10.518   6.870  29.844  1.00  0.00     0.051 A 
ATOM     43  C   UNL     1      10.997   7.999  29.165  1.00  0.00     0.157 A 
BRANCH  41  44
ATOM     44  O   UNL     1      12.561   8.968  27.563  1.00  0.00    -0.504 OA
ATOM     45  H   UNL     1      12.330   9.145  26.593  1.00  0.00     0.293 HD
ENDBRANCH  41  44
BRANCH  43  46
ATOM     46  O   UNL     1      10.418   9.246  29.385  1.00  0.00    -0.504 OA
ATOM     47  H   UNL     1      10.963  10.100  29.332  1.00  0.00     0.293 HD
ENDBRANCH  43  46
ENDBRANCH  28  38
BRANCH  34  48
ATOM     48  O   UNL     1      14.225  -0.675  27.698  1.00  0.00    -0.507 OA
ATOM     49  H   UNL     1      14.401  -1.402  27.011  1.00  0.00     0.293 HD
ENDBRANCH  34  48
BRANCH  37  50
ATOM     50  O   UNL     1      18.098   2.017  26.690  1.00  0.00    -0.508 OA
ATOM     51  H   UNL     1      18.824   1.504  27.175  1.00  0.00     0.293 HD
ENDBRANCH  37  50
ENDBRANCH  26  27
ENDBRANCH   5  26
BRANCH   4  52
ATOM     52  O   UNL     1       8.326   0.691  27.601  1.00  0.00    -0.384 OA
ATOM     53  H   UNL     1       7.675   1.411  27.411  1.00  0.00     0.211 HD
ENDBRANCH   4  52
TORSDOF 16
ENDMDL
MODEL 5
REMARK VINA RESULT:    99.216      3.001      4.009
REMARK INTER + INTRA:         163.589
REMARK INTER:                 163.922
REMARK INTRA:                  -0.334
REMARK UNBOUND:                 0.570
REMARK SMILES C[C@H]1O[C@H](OC[C@@H]2O[C@@H](Oc3c(-c4ccc(O)c(O)c4)oc4cc(O)cc(O)c4c3=O)[C@H](O)[C@H](O)[C@@H]2O)[C@H](O)[C@@H](O)[C@H]1O
REMARK SMILES IDX 7 1 36 2 34 3 32 4 9 5 8 6 6 7 5 8 4 9 1 10 2 11 42 12 3 13
REMARK SMILES IDX 40 14 38 15 43 16 41 18 39 20 37 22 35 24 10 26 11 27 12 28
REMARK SMILES IDX 30 29 21 30 29 31 31 32 22 33 27 34 23 35 26 36 24 37 13 38
REMARK SMILES IDX 20 39 14 40 18 41 15 42 16 43 19 44 17 46 28 48 25 50 33 52
REMARK H PARENT 43 17 41 19 39 21 37 23 35 25 19 45 17 47 28 49 25 51 33 53
REMARK Flexibility Score: inf
ROOT
ATOM      1  C   UNL     1      14.385  -0.167  27.810  1.00  0.00     0.180 C 
ATOM      2  C   UNL     1      15.847   0.195  27.456  1.00  0.00     0.177 C 
ATOM      3  C   UNL     1      15.994   1.721  27.398  1.00  0.00     0.180 C 
ATOM      4  C   UNL     1      14.899   2.360  26.520  1.00  0.00     0.214 C 
ATOM      5  C   UNL     1      13.499   1.802  26.881  1.00  0.00     0.339 C 
ATOM      6  O   UNL     1      13.488   0.381  26.855  1.00  0.00    -0.332 OA
ENDROOT
BRANCH   1   7
ATOM      7  C   UNL     1      14.170  -1.682  27.861  1.00  0.00     0.198 C 
BRANCH   7   8
ATOM      8  O   UNL     1      14.120  -2.200  26.549  1.00  0.00    -0.347 OA
BRANCH   8   9
ATOM      9  C   UNL     1      13.463  -3.460  26.516  1.00  0.00     0.281 C 
ATOM     10  C   UNL     1      11.892  -3.148  23.197  1.00  0.00     0.041 C 
ATOM     11  C   UNL     1      13.028  -3.273  24.213  1.00  0.00     0.150 C 
ATOM     12  C   UNL     1      13.977  -4.437  23.845  1.00  0.00     0.174 C 
ATOM     13  O   UNL     1      12.469  -3.467  25.502  1.00  0.00    -0.344 OA
ATOM     14  C   UNL     1      15.096  -4.520  24.891  1.00  0.00     0.179 C 
ATOM     15  C   UNL     1      14.491  -4.594  26.306  1.00  0.00     0.202 C 
BRANCH  12  16
ATOM     16  O   UNL     1      13.270  -5.652  23.812  1.00  0.00    -0.388 OA
ATOM     17  H   UNL     1      13.249  -6.004  24.741  1.00  0.00     0.211 HD
ENDBRANCH  12  16
BRANCH  14  18
ATOM     18  O   UNL     1      15.884  -5.654  24.639  1.00  0.00    -0.387 OA
ATOM     19  H   UNL     1      16.074  -6.073  25.519  1.00  0.00     0.211 HD
ENDBRANCH  14  18
BRANCH  15  20
ATOM     20  O   UNL     1      15.506  -4.487  27.272  1.00  0.00    -0.385 OA
ATOM     21  H   UNL     1      15.094  -4.081  28.080  1.00  0.00     0.211 HD
ENDBRANCH  15  20
ENDBRANCH   8   9
ENDBRANCH   7   8
ENDBRANCH   1   7
BRANCH   2  22
ATOM     22  O   UNL     1      16.204  -0.363  26.215  1.00  0.00    -0.387 OA
ATOM     23  H   UNL     1      17.060  -0.847  26.346  1.00  0.00     0.211 HD
ENDBRANCH   2  22
BRANCH   3  24
ATOM     24  O   UNL     1      17.273   2.061  26.927  1.00  0.00    -0.387 OA
ATOM     25  H   UNL     1      17.183   2.235  25.955  1.00  0.00     0.211 HD
ENDBRANCH   3  24
BRANCH   5  26
ATOM     26  O   UNL     1      13.078   2.307  28.151  1.00  0.00    -0.454 OA
BRANCH  26  27
ATOM     27  C   UNL     1      12.525   3.576  28.425  1.00  0.00     0.214 A 
ATOM     28  C   UNL     1      11.220   3.629  28.959  1.00  0.00     0.180 A 
ATOM     29  C   UNL     1      13.211   4.798  28.222  1.00  0.00     0.239 A 
ATOM     30  O   UNL     1      10.673   4.797  29.283  1.00  0.00    -0.452 OA
ATOM     31  C   UNL     1      12.587   6.017  28.566  1.00  0.00     0.111 A 
ATOM     32  O   UNL     1      14.374   4.804  27.743  1.00  0.00    -0.285 OA
ATOM     33  C   UNL     1      11.285   5.960  29.114  1.00  0.00     0.146 A 
ATOM     34  C   UNL     1      13.209   7.280  28.401  1.00  0.00     0.134 A 
ATOM     35  C   UNL     1      10.625   7.135  29.488  1.00  0.00     0.094 A 
ATOM     36  C   UNL     1      12.531   8.446  28.784  1.00  0.00     0.093 A 
ATOM     37  C   UNL     1      11.247   8.377  29.326  1.00  0.00     0.123 A 
BRANCH  28  38
ATOM     38  C   UNL     1      10.423   2.408  29.205  1.00  0.00     0.025 A 
ATOM     39  C   UNL     1       9.020   2.492  29.223  1.00  0.00     0.062 A 
ATOM     40  C   UNL     1      11.035   1.152  29.364  1.00  0.00     0.016 A 
ATOM     41  C   UNL     1       8.238   1.349  29.424  1.00  0.00     0.158 A 
ATOM     42  C   UNL     1      10.258   0.010  29.567  1.00  0.00     0.051 A 
ATOM     43  C   UNL     1       8.860   0.101  29.599  1.00  0.00     0.157 A 
BRANCH  41  44
ATOM     44  O   UNL     1       6.850   1.475  29.450  1.00  0.00    -0.504 OA
ATOM     45  H   UNL     1       6.279   1.311  28.630  1.00  0.00     0.293 HD
ENDBRANCH  41  44
BRANCH  43  46
ATOM     46  O   UNL     1       8.088  -1.042  29.798  1.00  0.00    -0.504 OA
ATOM     47  H   UNL     1       8.488  -1.971  29.721  1.00  0.00     0.293 HD
ENDBRANCH  43  46
ENDBRANCH  28  38
BRANCH  34  48
ATOM     48  O   UNL     1      14.492   7.387  27.861  1.00  0.00    -0.507 OA
ATOM     49  H   UNL     1      15.309   7.531  28.446  1.00  0.00     0.293 HD
ENDBRANCH  34  48
BRANCH  37  50
ATOM     50  O   UNL     1      10.594   9.550  29.703  1.00  0.00    -0.508 OA
ATOM     51  H   UNL     1      11.041  10.234  30.301  1.00  0.00     0.293 HD
ENDBRANCH  37  50
ENDBRANCH  26  27
ENDBRANCH   5  26
BRANCH   4  52
ATOM     52  O   UNL     1      15.197   2.196  25.149  1.00  0.00    -0.384 OA
ATOM     53  H   UNL     1      14.355   2.033  24.657  1.00  0.00     0.211 HD
ENDBRANCH   4  52
TORSDOF 16
ENDMDL
