MODEL 1
REMARK VINA RESULT:    -5.986      0.000      0.000
REMARK INTER + INTRA:         -10.232
REMARK INTER:                  -9.311
REMARK INTRA:                  -0.921
REMARK UNBOUND:                -0.921
REMARK SMILES COc1cc(CNC(=O)CCCCC=CC(C)C)ccc1O
REMARK SMILES IDX 11 1 12 2 13 3 14 4 15 5 16 6 17 7 18 8 10 9 8 10 9 11 7 12
REMARK SMILES IDX 6 14 5 15 4 16 19 17 3 18 20 19 21 20 2 21 1 22 22 23
REMARK H PARENT 7 13 22 24
REMARK Flexibility Score: inf
ROOT
ATOM      1  C   UNL     1      -1.386  21.345 -36.736  1.00  0.00     0.010 C 
ENDROOT
BRANCH   1   2
ATOM      2  C   UNL     1      -2.591  22.287 -36.594  1.00  0.00     0.005 C 
BRANCH   2   3
ATOM      3  C   UNL     1      -2.202  23.615 -35.933  1.00  0.00     0.027 C 
BRANCH   3   4
ATOM      4  C   UNL     1      -0.867  24.110 -36.442  1.00  0.00    -0.031 C 
ATOM      5  C   UNL     1       0.143  24.551 -35.670  1.00  0.00    -0.028 C 
BRANCH   5   6
ATOM      6  C   UNL     1       0.138  24.559 -34.155  1.00  0.00     0.005 C 
ATOM      7  C   UNL     1       0.868  25.802 -33.634  1.00  0.00     0.012 C 
ATOM      8  C   UNL     1       0.802  23.288 -33.612  1.00  0.00     0.012 C 
ENDBRANCH   5   6
ENDBRANCH   3   4
ENDBRANCH   2   3
ENDBRANCH   1   2
BRANCH   1   9
ATOM      9  C   UNL     1      -1.073  20.647 -35.411  1.00  0.00     0.100 C 
BRANCH   9  10
ATOM     10  C   UNL     1      -1.964  19.455 -35.228  1.00  0.00     0.220 C 
ATOM     11  O   UNL     1      -2.148  18.665 -36.194  1.00  0.00    -0.275 OA
ATOM     12  N   UNL     1      -2.575  19.198 -33.957  1.00  0.00    -0.352 N 
ATOM     13  H   UNL     1      -2.429  19.878 -33.176  1.00  0.00     0.163 HD
BRANCH  12  14
ATOM     14  C   UNL     1      -3.376  18.004 -33.698  1.00  0.00     0.151 C 
BRANCH  14  15
ATOM     15  C   UNL     1      -3.243  17.580 -32.262  1.00  0.00    -0.025 A 
ATOM     16  C   UNL     1      -4.391  17.392 -31.476  1.00  0.00     0.056 A 
ATOM     17  C   UNL     1      -1.979  17.361 -31.700  1.00  0.00     0.009 A 
ATOM     18  C   UNL     1      -4.283  16.988 -30.131  1.00  0.00     0.160 A 
ATOM     19  C   UNL     1      -1.863  16.963 -30.369  1.00  0.00     0.050 A 
ATOM     20  C   UNL     1      -3.005  16.776 -29.582  1.00  0.00     0.157 A 
BRANCH  18  21
ATOM     21  O   UNL     1      -5.414  16.790 -29.320  1.00  0.00    -0.493 OA
ATOM     22  C   UNL     1      -5.865  17.704 -28.327  1.00  0.00     0.278 C 
ENDBRANCH  18  21
BRANCH  20  23
ATOM     23  O   UNL     1      -2.853  16.383 -28.252  1.00  0.00    -0.504 OA
ATOM     24  H   UNL     1      -3.588  15.900 -27.744  1.00  0.00     0.293 HD
ENDBRANCH  20  23
ENDBRANCH  14  15
ENDBRANCH  12  14
ENDBRANCH   9  10
ENDBRANCH   1   9
TORSDOF 10
ENDMDL
MODEL 2
REMARK VINA RESULT:    -5.908      3.080      8.787
REMARK INTER + INTRA:         -10.111
REMARK INTER:                  -9.306
REMARK INTRA:                  -0.805
REMARK UNBOUND:                -0.921
REMARK SMILES COc1cc(CNC(=O)CCCCC=CC(C)C)ccc1O
REMARK SMILES IDX 11 1 12 2 13 3 14 4 15 5 16 6 17 7 18 8 10 9 8 10 9 11 7 12
REMARK SMILES IDX 6 14 5 15 4 16 19 17 3 18 20 19 21 20 2 21 1 22 22 23
REMARK H PARENT 7 13 22 24
REMARK Flexibility Score: inf
ROOT
ATOM      1  C   UNL     1      -1.561  19.362 -33.402  1.00  0.00     0.010 C 
ENDROOT
BRANCH   1   2
ATOM      2  C   UNL     1      -2.134  18.282 -32.472  1.00  0.00     0.005 C 
BRANCH   2   3
ATOM      3  C   UNL     1      -3.528  18.657 -31.952  1.00  0.00     0.027 C 
BRANCH   3   4
ATOM      4  C   UNL     1      -4.412  17.435 -31.827  1.00  0.00    -0.031 C 
ATOM      5  C   UNL     1      -4.792  16.867 -30.668  1.00  0.00    -0.028 C 
BRANCH   5   6
ATOM      6  C   UNL     1      -4.456  17.400 -29.290  1.00  0.00     0.005 C 
ATOM      7  C   UNL     1      -3.288  16.609 -28.692  1.00  0.00     0.012 C 
ATOM      8  C   UNL     1      -5.681  17.311 -28.371  1.00  0.00     0.012 C 
ENDBRANCH   5   6
ENDBRANCH   3   4
ENDBRANCH   2   3
ENDBRANCH   1   2
BRANCH   1   9
ATOM      9  C   UNL     1      -2.220  19.306 -34.782  1.00  0.00     0.100 C 
BRANCH   9  10
ATOM     10  C   UNL     1      -1.706  20.416 -35.648  1.00  0.00     0.220 C 
ATOM     11  O   UNL     1      -0.821  20.169 -36.513  1.00  0.00    -0.275 OA
ATOM     12  N   UNL     1      -2.240  21.740 -35.518  1.00  0.00    -0.352 N 
ATOM     13  H   UNL     1      -2.956  21.929 -34.779  1.00  0.00     0.163 HD
BRANCH  12  14
ATOM     14  C   UNL     1      -1.842  22.837 -36.397  1.00  0.00     0.151 C 
BRANCH  14  15
ATOM     15  C   UNL     1      -0.657  23.567 -35.829  1.00  0.00    -0.025 A 
ATOM     16  C   UNL     1       0.576  23.532 -36.499  1.00  0.00     0.056 A 
ATOM     17  C   UNL     1      -0.773  24.290 -34.636  1.00  0.00     0.009 A 
ATOM     18  C   UNL     1       1.694  24.217 -35.983  1.00  0.00     0.160 A 
ATOM     19  C   UNL     1       0.329  24.969 -34.117  1.00  0.00     0.050 A 
ATOM     20  C   UNL     1       1.560  24.936 -34.781  1.00  0.00     0.157 A 
BRANCH  18  21
ATOM     21  O   UNL     1       2.940  24.201 -36.633  1.00  0.00    -0.493 OA
ATOM     22  C   UNL     1       3.739  23.039 -36.821  1.00  0.00     0.278 C 
ENDBRANCH  18  21
BRANCH  20  23
ATOM     23  O   UNL     1       2.644  25.621 -34.232  1.00  0.00    -0.504 OA
ATOM     24  H   UNL     1       3.112  26.375 -34.725  1.00  0.00     0.293 HD
ENDBRANCH  20  23
ENDBRANCH  14  15
ENDBRANCH  12  14
ENDBRANCH   9  10
ENDBRANCH   1   9
TORSDOF 10
ENDMDL
MODEL 3
REMARK VINA RESULT:    -5.840      2.955      8.259
REMARK INTER + INTRA:         -10.005
REMARK INTER:                  -9.186
REMARK INTRA:                  -0.818
REMARK UNBOUND:                -0.921
REMARK SMILES COc1cc(CNC(=O)CCCCC=CC(C)C)ccc1O
REMARK SMILES IDX 11 1 12 2 13 3 14 4 15 5 16 6 17 7 18 8 10 9 8 10 9 11 7 12
REMARK SMILES IDX 6 14 5 15 4 16 19 17 3 18 20 19 21 20 2 21 1 22 22 23
REMARK H PARENT 7 13 22 24
REMARK Flexibility Score: inf
ROOT
ATOM      1  C   UNL     1      -1.423  19.078 -33.245  1.00  0.00     0.010 C 
ENDROOT
BRANCH   1   2
ATOM      2  C   UNL     1      -2.033  18.240 -32.113  1.00  0.00     0.005 C 
BRANCH   2   3
ATOM      3  C   UNL     1      -3.479  18.655 -31.810  1.00  0.00     0.027 C 
BRANCH   3   4
ATOM      4  C   UNL     1      -4.395  17.453 -31.763  1.00  0.00    -0.031 C 
ATOM      5  C   UNL     1      -4.849  16.866 -30.640  1.00  0.00    -0.028 C 
BRANCH   5   6
ATOM      6  C   UNL     1      -4.575  17.356 -29.233  1.00  0.00     0.005 C 
ATOM      7  C   UNL     1      -3.376  16.607 -28.641  1.00  0.00     0.012 C 
ATOM      8  C   UNL     1      -5.812  17.158 -28.349  1.00  0.00     0.012 C 
ENDBRANCH   5   6
ENDBRANCH   3   4
ENDBRANCH   2   3
ENDBRANCH   1   2
BRANCH   1   9
ATOM      9  C   UNL     1      -2.248  18.955 -34.528  1.00  0.00     0.100 C 
BRANCH   9  10
ATOM     10  C   UNL     1      -1.859  20.027 -35.501  1.00  0.00     0.220 C 
ATOM     11  O   UNL     1      -1.114  19.739 -36.477  1.00  0.00    -0.275 OA
ATOM     12  N   UNL     1      -2.358  21.362 -35.341  1.00  0.00    -0.352 N 
ATOM     13  H   UNL     1      -2.956  21.586 -34.512  1.00  0.00     0.163 HD
BRANCH  12  14
ATOM     14  C   UNL     1      -2.087  22.423 -36.309  1.00  0.00     0.151 C 
BRANCH  14  15
ATOM     15  C   UNL     1      -0.929  23.268 -35.855  1.00  0.00    -0.025 A 
ATOM     16  C   UNL     1      -0.316  23.014 -34.618  1.00  0.00     0.056 A 
ATOM     17  C   UNL     1      -0.449  24.307 -36.663  1.00  0.00     0.009 A 
ATOM     18  C   UNL     1       0.774  23.793 -34.184  1.00  0.00     0.160 A 
ATOM     19  C   UNL     1       0.628  25.084 -36.239  1.00  0.00     0.050 A 
ATOM     20  C   UNL     1       1.241  24.835 -35.006  1.00  0.00     0.157 A 
BRANCH  18  21
ATOM     21  O   UNL     1       1.409  23.561 -32.951  1.00  0.00    -0.493 OA
ATOM     22  C   UNL     1       1.340  22.340 -32.224  1.00  0.00     0.278 C 
ENDBRANCH  18  21
BRANCH  20  23
ATOM     23  O   UNL     1       2.313  25.635 -34.609  1.00  0.00    -0.504 OA
ATOM     24  H   UNL     1       2.215  26.636 -34.465  1.00  0.00     0.293 HD
ENDBRANCH  20  23
ENDBRANCH  14  15
ENDBRANCH  12  14
ENDBRANCH   9  10
ENDBRANCH   1   9
TORSDOF 10
ENDMDL
MODEL 4
REMARK VINA RESULT:    -5.745      1.791      2.858
REMARK INTER + INTRA:          -9.856
REMARK INTER:                  -8.597
REMARK INTRA:                  -1.259
REMARK UNBOUND:                -0.921
REMARK SMILES COc1cc(CNC(=O)CCCCC=CC(C)C)ccc1O
REMARK SMILES IDX 11 1 12 2 13 3 14 4 15 5 16 6 17 7 18 8 10 9 8 10 9 11 7 12
REMARK SMILES IDX 6 14 5 15 4 16 19 17 3 18 20 19 21 20 2 21 1 22 22 23
REMARK H PARENT 7 13 22 24
REMARK Flexibility Score: inf
ROOT
ATOM      1  C   UNL     1      -1.767  23.554 -36.592  1.00  0.00     0.010 C 
ENDROOT
BRANCH   1   2
ATOM      2  C   UNL     1      -1.776  24.018 -35.128  1.00  0.00     0.005 C 
BRANCH   2   3
ATOM      3  C   UNL     1      -0.356  24.253 -34.594  1.00  0.00     0.027 C 
BRANCH   3   4
ATOM      4  C   UNL     1       0.567  23.119 -34.978  1.00  0.00    -0.031 C 
ATOM      5  C   UNL     1       1.114  22.238 -34.120  1.00  0.00    -0.028 C 
BRANCH   5   6
ATOM      6  C   UNL     1       0.837  22.192 -32.631  1.00  0.00     0.005 C 
ATOM      7  C   UNL     1       1.907  22.984 -31.873  1.00  0.00     0.012 C 
ATOM      8  C   UNL     1       0.806  20.739 -32.139  1.00  0.00     0.012 C 
ENDBRANCH   5   6
ENDBRANCH   3   4
ENDBRANCH   2   3
ENDBRANCH   1   2
BRANCH   1   9
ATOM      9  C   UNL     1      -2.669  22.334 -36.789  1.00  0.00     0.100 C 
BRANCH   9  10
ATOM     10  C   UNL     1      -1.990  21.098 -36.280  1.00  0.00     0.220 C 
ATOM     11  O   UNL     1      -1.063  20.576 -36.959  1.00  0.00    -0.275 OA
ATOM     12  N   UNL     1      -2.367  20.534 -35.017  1.00  0.00    -0.352 N 
ATOM     13  H   UNL     1      -3.153  20.969 -34.481  1.00  0.00     0.163 HD
BRANCH  12  14
ATOM     14  C   UNL     1      -1.677  19.387 -34.432  1.00  0.00     0.151 C 
BRANCH  14  15
ATOM     15  C   UNL     1      -2.580  18.661 -33.473  1.00  0.00    -0.025 A 
ATOM     16  C   UNL     1      -3.608  17.839 -33.961  1.00  0.00     0.056 A 
ATOM     17  C   UNL     1      -2.398  18.791 -32.091  1.00  0.00     0.009 A 
ATOM     18  C   UNL     1      -4.456  17.147 -33.075  1.00  0.00     0.160 A 
ATOM     19  C   UNL     1      -3.234  18.110 -31.206  1.00  0.00     0.050 A 
ATOM     20  C   UNL     1      -4.261  17.291 -31.689  1.00  0.00     0.157 A 
BRANCH  18  21
ATOM     21  O   UNL     1      -5.492  16.316 -33.535  1.00  0.00    -0.493 OA
ATOM     22  C   UNL     1      -6.722  16.783 -34.076  1.00  0.00     0.278 C 
ENDBRANCH  18  21
BRANCH  20  23
ATOM     23  O   UNL     1      -5.084  16.630 -30.778  1.00  0.00    -0.504 OA
ATOM     24  H   UNL     1      -5.108  15.617 -30.708  1.00  0.00     0.293 HD
ENDBRANCH  20  23
ENDBRANCH  14  15
ENDBRANCH  12  14
ENDBRANCH   9  10
ENDBRANCH   1   9
TORSDOF 10
ENDMDL
MODEL 5
REMARK VINA RESULT:    -5.680      3.601      5.425
REMARK INTER + INTRA:          -9.755
REMARK INTER:                  -8.439
REMARK INTRA:                  -1.316
REMARK UNBOUND:                -0.921
REMARK SMILES COc1cc(CNC(=O)CCCCC=CC(C)C)ccc1O
REMARK SMILES IDX 11 1 12 2 13 3 14 4 15 5 16 6 17 7 18 8 10 9 8 10 9 11 7 12
REMARK SMILES IDX 6 14 5 15 4 16 19 17 3 18 20 19 21 20 2 21 1 22 22 23
REMARK H PARENT 7 13 22 24
REMARK Flexibility Score: inf
ROOT
ATOM      1  C   UNL     1      -2.633  21.486 -36.414  1.00  0.00     0.010 C 
ENDROOT
BRANCH   1   2
ATOM      2  C   UNL     1      -2.353  22.522 -37.512  1.00  0.00     0.005 C 
BRANCH   2   3
ATOM      3  C   UNL     1      -1.862  23.854 -36.929  1.00  0.00     0.027 C 
BRANCH   3   4
ATOM      4  C   UNL     1      -1.932  23.848 -35.418  1.00  0.00    -0.031 C 
ATOM      5  C   UNL     1      -0.930  24.201 -34.593  1.00  0.00    -0.028 C 
BRANCH   5   6
ATOM      6  C   UNL     1       0.416  24.732 -35.041  1.00  0.00     0.005 C 
ATOM      7  C   UNL     1       1.399  23.573 -35.238  1.00  0.00     0.012 C 
ATOM      8  C   UNL     1       0.968  25.726 -34.011  1.00  0.00     0.012 C 
ENDBRANCH   5   6
ENDBRANCH   3   4
ENDBRANCH   2   3
ENDBRANCH   1   2
BRANCH   1   9
ATOM      9  C   UNL     1      -1.468  20.503 -36.274  1.00  0.00     0.100 C 
BRANCH   9  10
ATOM     10  C   UNL     1      -1.444  19.920 -34.893  1.00  0.00     0.220 C 
ATOM     11  O   UNL     1      -2.239  18.986 -34.600  1.00  0.00    -0.275 OA
ATOM     12  N   UNL     1      -0.502  20.399 -33.923  1.00  0.00    -0.352 N 
ATOM     13  H   UNL     1       0.133  21.190 -34.179  1.00  0.00     0.163 HD
BRANCH  12  14
ATOM     14  C   UNL     1      -0.372  19.805 -32.595  1.00  0.00     0.151 C 
BRANCH  14  15
ATOM     15  C   UNL     1       0.788  20.412 -31.855  1.00  0.00    -0.025 A 
ATOM     16  C   UNL     1       1.120  21.761 -32.057  1.00  0.00     0.056 A 
ATOM     17  C   UNL     1       1.538  19.644 -30.957  1.00  0.00     0.009 A 
ATOM     18  C   UNL     1       2.199  22.346 -31.365  1.00  0.00     0.160 A 
ATOM     19  C   UNL     1       2.609  20.214 -30.270  1.00  0.00     0.050 A 
ATOM     20  C   UNL     1       2.944  21.558 -30.469  1.00  0.00     0.157 A 
BRANCH  18  21
ATOM     21  O   UNL     1       2.554  23.694 -31.545  1.00  0.00    -0.493 OA
ATOM     22  C   UNL     1       3.660  24.141 -32.320  1.00  0.00     0.278 C 
ENDBRANCH  18  21
BRANCH  20  23
ATOM     23  O   UNL     1       4.026  22.096 -29.771  1.00  0.00    -0.504 OA
ATOM     24  H   UNL     1       3.907  22.811 -29.059  1.00  0.00     0.293 HD
ENDBRANCH  20  23
ENDBRANCH  14  15
ENDBRANCH  12  14
ENDBRANCH   9  10
ENDBRANCH   1   9
TORSDOF 10
ENDMDL
MODEL 6
REMARK VINA RESULT:    -5.668      1.674      2.881
REMARK INTER + INTRA:          -9.737
REMARK INTER:                  -8.743
REMARK INTRA:                  -0.995
REMARK UNBOUND:                -0.921
REMARK SMILES COc1cc(CNC(=O)CCCCC=CC(C)C)ccc1O
REMARK SMILES IDX 11 1 12 2 13 3 14 4 15 5 16 6 17 7 18 8 10 9 8 10 9 11 7 12
REMARK SMILES IDX 6 14 5 15 4 16 19 17 3 18 20 19 21 20 2 21 1 22 22 23
REMARK H PARENT 7 13 22 24
REMARK Flexibility Score: inf
ROOT
ATOM      1  C   UNL     1      -1.768  23.483 -36.903  1.00  0.00     0.010 C 
ENDROOT
BRANCH   1   2
ATOM      2  C   UNL     1      -1.900  23.999 -35.462  1.00  0.00     0.005 C 
BRANCH   2   3
ATOM      3  C   UNL     1      -0.530  24.256 -34.820  1.00  0.00     0.027 C 
BRANCH   3   4
ATOM      4  C   UNL     1       0.465  23.184 -35.206  1.00  0.00    -0.031 C 
ATOM      5  C   UNL     1       1.117  22.382 -34.344  1.00  0.00    -0.028 C 
BRANCH   5   6
ATOM      6  C   UNL     1       0.908  22.370 -32.844  1.00  0.00     0.005 C 
ATOM      7  C   UNL     1       1.982  23.221 -32.158  1.00  0.00     0.012 C 
ATOM      8  C   UNL     1       0.950  20.933 -32.311  1.00  0.00     0.012 C 
ENDBRANCH   5   6
ENDBRANCH   3   4
ENDBRANCH   2   3
ENDBRANCH   1   2
BRANCH   1   9
ATOM      9  C   UNL     1      -2.572  22.196 -37.103  1.00  0.00     0.100 C 
BRANCH   9  10
ATOM     10  C   UNL     1      -1.924  21.059 -36.372  1.00  0.00     0.220 C 
ATOM     11  O   UNL     1      -0.983  20.425 -36.922  1.00  0.00    -0.275 OA
ATOM     12  N   UNL     1      -2.348  20.718 -35.045  1.00  0.00    -0.352 N 
ATOM     13  H   UNL     1      -3.145  21.242 -34.616  1.00  0.00     0.163 HD
BRANCH  12  14
ATOM     14  C   UNL     1      -1.690  19.682 -34.253  1.00  0.00     0.151 C 
BRANCH  14  15
ATOM     15  C   UNL     1      -2.640  18.550 -33.971  1.00  0.00    -0.025 A 
ATOM     16  C   UNL     1      -3.221  18.422 -32.700  1.00  0.00     0.056 A 
ATOM     17  C   UNL     1      -2.957  17.624 -34.972  1.00  0.00     0.009 A 
ATOM     18  C   UNL     1      -4.118  17.371 -32.424  1.00  0.00     0.160 A 
ATOM     19  C   UNL     1      -3.842  16.580 -34.707  1.00  0.00     0.050 A 
ATOM     20  C   UNL     1      -4.423  16.447 -33.440  1.00  0.00     0.157 A 
BRANCH  18  21
ATOM     21  O   UNL     1      -4.717  17.218 -31.162  1.00  0.00    -0.493 OA
ATOM     22  C   UNL     1      -4.040  17.381 -29.921  1.00  0.00     0.278 C 
ENDBRANCH  18  21
BRANCH  20  23
ATOM     23  O   UNL     1      -5.300  15.388 -33.205  1.00  0.00    -0.504 OA
ATOM     24  H   UNL     1      -5.946  15.385 -32.422  1.00  0.00     0.293 HD
ENDBRANCH  20  23
ENDBRANCH  14  15
ENDBRANCH  12  14
ENDBRANCH   9  10
ENDBRANCH   1   9
TORSDOF 10
ENDMDL
MODEL 7
REMARK VINA RESULT:    -5.597      1.275      2.549
REMARK INTER + INTRA:          -9.626
REMARK INTER:                  -8.494
REMARK INTRA:                  -1.132
REMARK UNBOUND:                -0.921
REMARK SMILES COc1cc(CNC(=O)CCCCC=CC(C)C)ccc1O
REMARK SMILES IDX 11 1 12 2 13 3 14 4 15 5 16 6 17 7 18 8 10 9 8 10 9 11 7 12
REMARK SMILES IDX 6 14 5 15 4 16 19 17 3 18 20 19 21 20 2 21 1 22 22 23
REMARK H PARENT 7 13 22 24
REMARK Flexibility Score: inf
ROOT
ATOM      1  C   UNL     1      -1.777  22.701 -37.300  1.00  0.00     0.010 C 
ENDROOT
BRANCH   1   2
ATOM      2  C   UNL     1      -1.614  24.043 -36.572  1.00  0.00     0.005 C 
BRANCH   2   3
ATOM      3  C   UNL     1      -0.166  24.276 -36.121  1.00  0.00     0.027 C 
BRANCH   3   4
ATOM      4  C   UNL     1      -0.096  24.581 -34.641  1.00  0.00    -0.031 C 
ATOM      5  C   UNL     1       0.374  23.746 -33.697  1.00  0.00    -0.028 C 
BRANCH   5   6
ATOM      6  C   UNL     1       0.981  22.384 -33.967  1.00  0.00     0.005 C 
ATOM      7  C   UNL     1       0.713  21.446 -32.786  1.00  0.00     0.012 C 
ATOM      8  C   UNL     1       2.489  22.511 -34.212  1.00  0.00     0.012 C 
ENDBRANCH   5   6
ENDBRANCH   3   4
ENDBRANCH   2   3
ENDBRANCH   1   2
BRANCH   1   9
ATOM      9  C   UNL     1      -2.716  21.767 -36.531  1.00  0.00     0.100 C 
BRANCH   9  10
ATOM     10  C   UNL     1      -1.929  20.697 -35.837  1.00  0.00     0.220 C 
ATOM     11  O   UNL     1      -0.778  20.400 -36.260  1.00  0.00    -0.275 OA
ATOM     12  N   UNL     1      -2.466  20.040 -34.681  1.00  0.00    -0.352 N 
ATOM     13  H   UNL     1      -3.431  20.285 -34.359  1.00  0.00     0.163 HD
BRANCH  12  14
ATOM     14  C   UNL     1      -1.707  19.057 -33.912  1.00  0.00     0.151 C 
BRANCH  14  15
ATOM     15  C   UNL     1      -2.582  18.405 -32.878  1.00  0.00    -0.025 A 
ATOM     16  C   UNL     1      -2.015  17.891 -31.701  1.00  0.00     0.056 A 
ATOM     17  C   UNL     1      -3.965  18.312 -33.075  1.00  0.00     0.009 A 
ATOM     18  C   UNL     1      -2.823  17.284 -30.720  1.00  0.00     0.160 A 
ATOM     19  C   UNL     1      -4.772  17.710 -32.110  1.00  0.00     0.050 A 
ATOM     20  C   UNL     1      -4.210  17.195 -30.936  1.00  0.00     0.157 A 
BRANCH  18  21
ATOM     21  O   UNL     1      -2.284  16.762 -29.532  1.00  0.00    -0.493 OA
ATOM     22  C   UNL     1      -1.069  16.025 -29.451  1.00  0.00     0.278 C 
ENDBRANCH  18  21
BRANCH  20  23
ATOM     23  O   UNL     1      -5.045  16.594 -29.994  1.00  0.00    -0.504 OA
ATOM     24  H   UNL     1      -4.949  15.617 -29.733  1.00  0.00     0.293 HD
ENDBRANCH  20  23
ENDBRANCH  14  15
ENDBRANCH  12  14
ENDBRANCH   9  10
ENDBRANCH   1   9
TORSDOF 10
ENDMDL
MODEL 8
REMARK VINA RESULT:    -5.551      2.023      3.750
REMARK INTER + INTRA:          -9.555
REMARK INTER:                  -8.450
REMARK INTRA:                  -1.105
REMARK UNBOUND:                -0.921
REMARK SMILES COc1cc(CNC(=O)CCCCC=CC(C)C)ccc1O
REMARK SMILES IDX 11 1 12 2 13 3 14 4 15 5 16 6 17 7 18 8 10 9 8 10 9 11 7 12
REMARK SMILES IDX 6 14 5 15 4 16 19 17 3 18 20 19 21 20 2 21 1 22 22 23
REMARK H PARENT 7 13 22 24
REMARK Flexibility Score: inf
ROOT
ATOM      1  C   UNL     1       1.427  23.548 -33.602  1.00  0.00     0.010 C 
ENDROOT
BRANCH   1   2
ATOM      2  C   UNL     1       0.562  24.695 -34.146  1.00  0.00     0.005 C 
BRANCH   2   3
ATOM      3  C   UNL     1      -0.779  24.190 -34.692  1.00  0.00     0.027 C 
BRANCH   3   4
ATOM      4  C   UNL     1      -0.819  24.266 -36.202  1.00  0.00    -0.031 C 
ATOM      5  C   UNL     1      -1.232  23.279 -37.019  1.00  0.00    -0.028 C 
BRANCH   5   6
ATOM      6  C   UNL     1      -1.796  21.951 -36.558  1.00  0.00     0.005 C 
ATOM      7  C   UNL     1      -0.942  20.801 -37.103  1.00  0.00     0.012 C 
ATOM      8  C   UNL     1      -3.249  21.798 -37.023  1.00  0.00     0.012 C 
ENDBRANCH   5   6
ENDBRANCH   3   4
ENDBRANCH   2   3
ENDBRANCH   1   2
BRANCH   1   9
ATOM      9  C   UNL     1       0.968  22.200 -34.162  1.00  0.00     0.100 C 
BRANCH   9  10
ATOM     10  C   UNL     1       0.624  21.263 -33.043  1.00  0.00     0.220 C 
ATOM     11  O   UNL     1       1.227  21.367 -31.940  1.00  0.00    -0.275 OA
ATOM     12  N   UNL     1      -0.404  20.279 -33.216  1.00  0.00    -0.352 N 
ATOM     13  H   UNL     1      -0.875  20.194 -34.146  1.00  0.00     0.163 HD
BRANCH  12  14
ATOM     14  C   UNL     1      -0.843  19.403 -32.132  1.00  0.00     0.151 C 
BRANCH  14  15
ATOM     15  C   UNL     1      -2.059  18.621 -32.544  1.00  0.00    -0.025 A 
ATOM     16  C   UNL     1      -2.939  18.126 -31.569  1.00  0.00     0.056 A 
ATOM     17  C   UNL     1      -2.327  18.387 -33.898  1.00  0.00     0.009 A 
ATOM     18  C   UNL     1      -4.086  17.398 -31.940  1.00  0.00     0.160 A 
ATOM     19  C   UNL     1      -3.459  17.665 -34.274  1.00  0.00     0.050 A 
ATOM     20  C   UNL     1      -4.339  17.169 -33.305  1.00  0.00     0.157 A 
BRANCH  18  21
ATOM     21  O   UNL     1      -4.987  16.892 -30.987  1.00  0.00    -0.493 OA
ATOM     22  C   UNL     1      -4.762  16.896 -29.581  1.00  0.00     0.278 C 
ENDBRANCH  18  21
BRANCH  20  23
ATOM     23  O   UNL     1      -5.459  16.445 -33.715  1.00  0.00    -0.504 OA
ATOM     24  H   UNL     1      -5.880  16.575 -34.630  1.00  0.00     0.293 HD
ENDBRANCH  20  23
ENDBRANCH  14  15
ENDBRANCH  12  14
ENDBRANCH   9  10
ENDBRANCH   1   9
TORSDOF 10
ENDMDL
MODEL 9
REMARK VINA RESULT:    -5.462      2.447      4.613
REMARK INTER + INTRA:          -9.417
REMARK INTER:                  -7.781
REMARK INTRA:                  -1.636
REMARK UNBOUND:                -0.921
REMARK SMILES COc1cc(CNC(=O)CCCCC=CC(C)C)ccc1O
REMARK SMILES IDX 11 1 12 2 13 3 14 4 15 5 16 6 17 7 18 8 10 9 8 10 9 11 7 12
REMARK SMILES IDX 6 14 5 15 4 16 19 17 3 18 20 19 21 20 2 21 1 22 22 23
REMARK H PARENT 7 13 22 24
REMARK Flexibility Score: inf
ROOT
ATOM      1  C   UNL     1       2.278  25.080 -34.425  1.00  0.00     0.010 C 
ENDROOT
BRANCH   1   2
ATOM      2  C   UNL     1       1.512  26.118 -35.258  1.00  0.00     0.005 C 
BRANCH   2   3
ATOM      3  C   UNL     1       1.080  25.553 -36.618  1.00  0.00     0.027 C 
BRANCH   3   4
ATOM      4  C   UNL     1       1.114  24.041 -36.618  1.00  0.00    -0.031 C 
ATOM      5  C   UNL     1       0.034  23.239 -36.571  1.00  0.00    -0.028 C 
BRANCH   5   6
ATOM      6  C   UNL     1      -1.403  23.719 -36.585  1.00  0.00     0.005 C 
ATOM      7  C   UNL     1      -1.884  23.976 -35.153  1.00  0.00     0.012 C 
ATOM      8  C   UNL     1      -2.305  22.683 -37.268  1.00  0.00     0.012 C 
ENDBRANCH   5   6
ENDBRANCH   3   4
ENDBRANCH   2   3
ENDBRANCH   1   2
BRANCH   1   9
ATOM      9  C   UNL     1       1.450  24.617 -33.224  1.00  0.00     0.100 C 
BRANCH   9  10
ATOM     10  C   UNL     1       1.630  23.145 -33.006  1.00  0.00     0.220 C 
ATOM     11  O   UNL     1       2.755  22.619 -33.225  1.00  0.00    -0.275 OA
ATOM     12  N   UNL     1       0.541  22.348 -32.520  1.00  0.00    -0.352 N 
ATOM     13  H   UNL     1      -0.390  22.799 -32.366  1.00  0.00     0.163 HD
BRANCH  12  14
ATOM     14  C   UNL     1       0.687  20.930 -32.203  1.00  0.00     0.151 C 
BRANCH  14  15
ATOM     15  C   UNL     1      -0.410  20.129 -32.848  1.00  0.00    -0.025 A 
ATOM     16  C   UNL     1      -1.077  19.134 -32.115  1.00  0.00     0.056 A 
ATOM     17  C   UNL     1      -0.779  20.372 -34.176  1.00  0.00     0.009 A 
ATOM     18  C   UNL     1      -2.111  18.381 -32.704  1.00  0.00     0.160 A 
ATOM     19  C   UNL     1      -1.800  19.629 -34.768  1.00  0.00     0.050 A 
ATOM     20  C   UNL     1      -2.467  18.636 -34.041  1.00  0.00     0.157 A 
BRANCH  18  21
ATOM     21  O   UNL     1      -2.798  17.380 -31.995  1.00  0.00    -0.493 OA
ATOM     22  C   UNL     1      -3.860  17.623 -31.079  1.00  0.00     0.278 C 
ENDBRANCH  18  21
BRANCH  20  23
ATOM     23  O   UNL     1      -3.480  17.907 -34.665  1.00  0.00    -0.504 OA
ATOM     24  H   UNL     1      -4.441  18.234 -34.694  1.00  0.00     0.293 HD
ENDBRANCH  20  23
ENDBRANCH  14  15
ENDBRANCH  12  14
ENDBRANCH   9  10
ENDBRANCH   1   9
TORSDOF 10
ENDMDL
