MODEL 1
REMARK VINA RESULT:    -1.550      0.000      0.000
REMARK INTER + INTRA:          -5.431
REMARK INTER:                  -2.819
REMARK INTRA:                  -2.611
REMARK UNBOUND:                -2.611
REMARK SMILES CCCCCCCCCCCCCCCC(=O)[O-]
REMARK SMILES IDX 9 1 10 2 11 3 12 4 13 5 14 6 15 7 16 8 17 9 18 10 8 11 7 12
REMARK SMILES IDX 6 13 5 14 4 15 3 16 2 17 1 18
REMARK H PARENT
REMARK Flexibility Score: inf
ROOT
ATOM      1  C   UNL     1       8.330  12.361  23.611  1.00  0.00     0.000 C 
ENDROOT
BRANCH   1   2
ATOM      2  C   UNL     1       9.386  12.939  24.568  1.00  0.00     0.000 C 
BRANCH   2   3
ATOM      3  C   UNL     1      10.442  11.900  24.979  1.00  0.00     0.000 C 
BRANCH   3   4
ATOM      4  C   UNL     1      10.634  11.822  26.501  1.00  0.00     0.000 C 
BRANCH   4   5
ATOM      5  C   UNL     1      10.668  13.227  27.121  1.00  0.00     0.000 C 
BRANCH   5   6
ATOM      6  C   UNL     1       9.963  13.294  28.489  1.00  0.00     0.006 C 
BRANCH   6   7
ATOM      7  C   UNL     1       9.559  14.712  28.923  1.00  0.00     0.053 C 
BRANCH   7   8
ATOM      8  C   UNL     1      10.445  15.241  30.008  1.00  0.00     0.041 C 
ATOM      9  O   UNL     1       9.959  15.545  31.130  1.00  0.00    -0.550 OA
ATOM     10  O   UNL     1      11.800  15.430  29.771  1.00  0.00    -0.550 OA
ENDBRANCH   7   8
ENDBRANCH   6   7
ENDBRANCH   5   6
ENDBRANCH   4   5
ENDBRANCH   3   4
ENDBRANCH   2   3
ENDBRANCH   1   2
BRANCH   1  11
ATOM     11  C   UNL     1       7.956  10.908  23.946  1.00  0.00     0.000 C 
BRANCH  11  12
ATOM     12  C   UNL     1       6.443  10.721  24.155  1.00  0.00    -0.000 C 
BRANCH  12  13
ATOM     13  C   UNL     1       6.089  10.198  25.559  1.00  0.00    -0.000 C 
BRANCH  13  14
ATOM     14  C   UNL     1       7.238  10.229  26.585  1.00  0.00    -0.000 C 
BRANCH  14  15
ATOM     15  C   UNL     1       7.068  11.331  27.644  1.00  0.00    -0.000 C 
BRANCH  15  16
ATOM     16  C   UNL     1       6.029  12.393  27.241  1.00  0.00    -0.000 C 
BRANCH  16  17
ATOM     17  C   UNL     1       6.616  13.759  26.835  1.00  0.00    -0.003 C 
ATOM     18  C   UNL     1       5.876  14.405  25.665  1.00  0.00     0.004 C 
ENDBRANCH  16  17
ENDBRANCH  15  16
ENDBRANCH  14  15
ENDBRANCH  13  14
ENDBRANCH  12  13
ENDBRANCH  11  12
ENDBRANCH   1  11
TORSDOF 14
ENDMDL
MODEL 2
REMARK VINA RESULT:    -1.417      2.133      2.393
REMARK INTER + INTRA:          -5.188
REMARK INTER:                  -2.946
REMARK INTRA:                  -2.242
REMARK UNBOUND:                -2.611
REMARK SMILES CCCCCCCCCCCCCCCC(=O)[O-]
REMARK SMILES IDX 9 1 10 2 11 3 12 4 13 5 14 6 15 7 16 8 17 9 18 10 8 11 7 12
REMARK SMILES IDX 6 13 5 14 4 15 3 16 2 17 1 18
REMARK H PARENT
REMARK Flexibility Score: inf
ROOT
ATOM      1  C   UNL     1       8.334  12.215  23.570  1.00  0.00     0.000 C 
ENDROOT
BRANCH   1   2
ATOM      2  C   UNL     1       9.383  12.579  24.635  1.00  0.00     0.000 C 
BRANCH   2   3
ATOM      3  C   UNL     1      10.236  11.373  25.061  1.00  0.00     0.000 C 
BRANCH   3   4
ATOM      4  C   UNL     1      11.376  11.763  26.014  1.00  0.00     0.000 C 
BRANCH   4   5
ATOM      5  C   UNL     1      10.849  11.971  27.442  1.00  0.00     0.000 C 
BRANCH   5   6
ATOM      6  C   UNL     1      11.756  11.336  28.512  1.00  0.00     0.006 C 
BRANCH   6   7
ATOM      7  C   UNL     1      11.000  10.566  29.607  1.00  0.00     0.053 C 
BRANCH   7   8
ATOM      8  C   UNL     1      11.553  10.839  30.970  1.00  0.00     0.041 C 
ATOM      9  O   UNL     1      12.003   9.894  31.672  1.00  0.00    -0.550 OA
ATOM     10  O   UNL     1      11.542  12.131  31.481  1.00  0.00    -0.550 OA
ENDBRANCH   7   8
ENDBRANCH   6   7
ENDBRANCH   5   6
ENDBRANCH   4   5
ENDBRANCH   3   4
ENDBRANCH   2   3
ENDBRANCH   1   2
BRANCH   1  11
ATOM     11  C   UNL     1       7.685  10.844  23.821  1.00  0.00     0.000 C 
BRANCH  11  12
ATOM     12  C   UNL     1       6.194  10.954  24.182  1.00  0.00    -0.000 C 
BRANCH  12  13
ATOM     13  C   UNL     1       5.875  10.424  25.592  1.00  0.00    -0.000 C 
BRANCH  13  14
ATOM     14  C   UNL     1       7.100  10.062  26.455  1.00  0.00    -0.000 C 
BRANCH  14  15
ATOM     15  C   UNL     1       7.341  11.056  27.603  1.00  0.00    -0.000 C 
BRANCH  15  16
ATOM     16  C   UNL     1       6.358  12.242  27.584  1.00  0.00    -0.000 C 
BRANCH  16  17
ATOM     17  C   UNL     1       6.987  13.605  27.239  1.00  0.00    -0.003 C 
ATOM     18  C   UNL     1       6.355  14.264  26.015  1.00  0.00     0.004 C 
ENDBRANCH  16  17
ENDBRANCH  15  16
ENDBRANCH  14  15
ENDBRANCH  13  14
ENDBRANCH  12  13
ENDBRANCH  11  12
ENDBRANCH   1  11
TORSDOF 14
ENDMDL
MODEL 3
REMARK VINA RESULT:    -1.403     23.049     24.396
REMARK INTER + INTRA:          -5.162
REMARK INTER:                  -2.739
REMARK INTRA:                  -2.423
REMARK UNBOUND:                -2.611
REMARK SMILES CCCCCCCCCCCCCCCC(=O)[O-]
REMARK SMILES IDX 9 1 10 2 11 3 12 4 13 5 14 6 15 7 16 8 17 9 18 10 8 11 7 12
REMARK SMILES IDX 6 13 5 14 4 15 3 16 2 17 1 18
REMARK H PARENT
REMARK Flexibility Score: inf
ROOT
ATOM      1  C   UNL     1      22.126  26.147  13.774  1.00  0.00     0.000 C 
ENDROOT
BRANCH   1   2
ATOM      2  C   UNL     1      22.904  24.885  13.364  1.00  0.00     0.000 C 
BRANCH   2   3
ATOM      3  C   UNL     1      24.170  24.671  14.210  1.00  0.00     0.000 C 
BRANCH   3   4
ATOM      4  C   UNL     1      24.356  25.758  15.279  1.00  0.00     0.000 C 
BRANCH   4   5
ATOM      5  C   UNL     1      25.839  25.916  15.646  1.00  0.00     0.000 C 
BRANCH   5   6
ATOM      6  C   UNL     1      26.091  27.075  16.629  1.00  0.00     0.006 C 
BRANCH   6   7
ATOM      7  C   UNL     1      25.030  27.210  17.733  1.00  0.00     0.053 C 
BRANCH   7   8
ATOM      8  C   UNL     1      25.280  28.397  18.611  1.00  0.00     0.041 C 
ATOM      9  O   UNL     1      25.415  28.248  19.854  1.00  0.00    -0.550 OA
ATOM     10  O   UNL     1      25.329  29.671  18.060  1.00  0.00    -0.550 OA
ENDBRANCH   7   8
ENDBRANCH   6   7
ENDBRANCH   5   6
ENDBRANCH   4   5
ENDBRANCH   3   4
ENDBRANCH   2   3
ENDBRANCH   1   2
BRANCH   1  11
ATOM     11  C   UNL     1      21.821  27.070  12.582  1.00  0.00     0.000 C 
BRANCH  11  12
ATOM     12  C   UNL     1      23.096  27.560  11.875  1.00  0.00    -0.000 C 
BRANCH  12  13
ATOM     13  C   UNL     1      23.535  28.965  12.329  1.00  0.00    -0.000 C 
BRANCH  13  14
ATOM     14  C   UNL     1      24.736  29.002  13.294  1.00  0.00    -0.000 C 
BRANCH  14  15
ATOM     15  C   UNL     1      24.340  29.378  14.731  1.00  0.00    -0.000 C 
BRANCH  15  16
ATOM     16  C   UNL     1      22.840  29.692  14.877  1.00  0.00    -0.000 C 
BRANCH  16  17
ATOM     17  C   UNL     1      22.130  28.961  16.032  1.00  0.00    -0.003 C 
ATOM     18  C   UNL     1      20.608  29.072  15.966  1.00  0.00     0.004 C 
ENDBRANCH  16  17
ENDBRANCH  15  16
ENDBRANCH  14  15
ENDBRANCH  13  14
ENDBRANCH  12  13
ENDBRANCH  11  12
ENDBRANCH   1  11
TORSDOF 14
ENDMDL
MODEL 4
REMARK VINA RESULT:    -1.359     22.012     23.902
REMARK INTER + INTRA:          -5.083
REMARK INTER:                  -2.661
REMARK INTRA:                  -2.422
REMARK UNBOUND:                -2.611
REMARK SMILES CCCCCCCCCCCCCCCC(=O)[O-]
REMARK SMILES IDX 9 1 10 2 11 3 12 4 13 5 14 6 15 7 16 8 17 9 18 10 8 11 7 12
REMARK SMILES IDX 6 13 5 14 4 15 3 16 2 17 1 18
REMARK H PARENT
REMARK Flexibility Score: inf
ROOT
ATOM      1  C   UNL     1      22.695  25.128  14.456  1.00  0.00     0.000 C 
ENDROOT
BRANCH   1   2
ATOM      2  C   UNL     1      22.099  26.035  13.366  1.00  0.00     0.000 C 
BRANCH   2   3
ATOM      3  C   UNL     1      23.052  26.233  12.176  1.00  0.00     0.000 C 
BRANCH   3   4
ATOM      4  C   UNL     1      23.835  27.552  12.260  1.00  0.00     0.000 C 
BRANCH   4   5
ATOM      5  C   UNL     1      23.058  28.600  13.070  1.00  0.00     0.000 C 
BRANCH   5   6
ATOM      6  C   UNL     1      23.935  29.323  14.109  1.00  0.00     0.006 C 
BRANCH   6   7
ATOM      7  C   UNL     1      23.144  30.125  15.156  1.00  0.00     0.053 C 
BRANCH   7   8
ATOM      8  C   UNL     1      23.461  29.690  16.553  1.00  0.00     0.041 C 
ATOM      9  O   UNL     1      24.649  29.712  16.969  1.00  0.00    -0.550 OA
ATOM     10  O   UNL     1      22.448  29.228  17.384  1.00  0.00    -0.550 OA
ENDBRANCH   7   8
ENDBRANCH   6   7
ENDBRANCH   5   6
ENDBRANCH   4   5
ENDBRANCH   3   4
ENDBRANCH   2   3
ENDBRANCH   1   2
BRANCH   1  11
ATOM     11  C   UNL     1      22.713  25.797  15.840  1.00  0.00     0.000 C 
BRANCH  11  12
ATOM     12  C   UNL     1      24.130  26.205  16.279  1.00  0.00    -0.000 C 
BRANCH  12  13
ATOM     13  C   UNL     1      25.220  25.755  15.289  1.00  0.00    -0.000 C 
BRANCH  13  14
ATOM     14  C   UNL     1      26.121  24.603  15.776  1.00  0.00    -0.000 C 
BRANCH  14  15
ATOM     15  C   UNL     1      26.026  23.351  14.889  1.00  0.00    -0.000 C 
BRANCH  15  16
ATOM     16  C   UNL     1      25.213  22.216  15.539  1.00  0.00    -0.000 C 
BRANCH  16  17
ATOM     17  C   UNL     1      24.889  22.418  17.031  1.00  0.00    -0.003 C 
ATOM     18  C   UNL     1      23.389  22.468  17.318  1.00  0.00     0.004 C 
ENDBRANCH  16  17
ENDBRANCH  15  16
ENDBRANCH  14  15
ENDBRANCH  13  14
ENDBRANCH  12  13
ENDBRANCH  11  12
ENDBRANCH   1  11
TORSDOF 14
ENDMDL
MODEL 5
REMARK VINA RESULT:    -1.345     21.822     23.787
REMARK INTER + INTRA:          -5.058
REMARK INTER:                  -2.663
REMARK INTRA:                  -2.394
REMARK UNBOUND:                -2.611
REMARK SMILES CCCCCCCCCCCCCCCC(=O)[O-]
REMARK SMILES IDX 9 1 10 2 11 3 12 4 13 5 14 6 15 7 16 8 17 9 18 10 8 11 7 12
REMARK SMILES IDX 6 13 5 14 4 15 3 16 2 17 1 18
REMARK H PARENT
REMARK Flexibility Score: inf
ROOT
ATOM      1  C   UNL     1      21.424  26.834  14.752  1.00  0.00     0.000 C 
ENDROOT
BRANCH   1   2
ATOM      2  C   UNL     1      22.318  25.757  15.393  1.00  0.00     0.000 C 
BRANCH   2   3
ATOM      3  C   UNL     1      22.773  24.691  14.383  1.00  0.00     0.000 C 
BRANCH   3   4
ATOM      4  C   UNL     1      24.289  24.720  14.136  1.00  0.00     0.000 C 
BRANCH   4   5
ATOM      5  C   UNL     1      24.884  23.307  14.218  1.00  0.00     0.000 C 
BRANCH   5   6
ATOM      6  C   UNL     1      25.999  23.190  15.274  1.00  0.00     0.006 C 
BRANCH   6   7
ATOM      7  C   UNL     1      25.805  22.037  16.273  1.00  0.00     0.053 C 
BRANCH   7   8
ATOM      8  C   UNL     1      25.385  22.529  17.623  1.00  0.00     0.041 C 
ATOM      9  O   UNL     1      26.125  22.338  18.625  1.00  0.00    -0.550 OA
ATOM     10  O   UNL     1      24.162  23.168  17.783  1.00  0.00    -0.550 OA
ENDBRANCH   7   8
ENDBRANCH   6   7
ENDBRANCH   5   6
ENDBRANCH   4   5
ENDBRANCH   3   4
ENDBRANCH   2   3
ENDBRANCH   1   2
BRANCH   1  11
ATOM     11  C   UNL     1      21.683  27.001  13.246  1.00  0.00     0.000 C 
BRANCH  11  12
ATOM     12  C   UNL     1      22.412  28.315  12.915  1.00  0.00    -0.000 C 
BRANCH  12  13
ATOM     13  C   UNL     1      23.899  28.109  12.572  1.00  0.00    -0.000 C 
BRANCH  13  14
ATOM     14  C   UNL     1      24.892  28.476  13.692  1.00  0.00    -0.000 C 
BRANCH  14  15
ATOM     15  C   UNL     1      24.223  29.187  14.879  1.00  0.00    -0.000 C 
BRANCH  15  16
ATOM     16  C   UNL     1      24.630  28.593  16.240  1.00  0.00    -0.000 C 
BRANCH  16  17
ATOM     17  C   UNL     1      25.756  27.544  16.184  1.00  0.00    -0.003 C 
ATOM     18  C   UNL     1      25.537  26.377  17.145  1.00  0.00     0.004 C 
ENDBRANCH  16  17
ENDBRANCH  15  16
ENDBRANCH  14  15
ENDBRANCH  13  14
ENDBRANCH  12  13
ENDBRANCH  11  12
ENDBRANCH   1  11
TORSDOF 14
ENDMDL
MODEL 6
REMARK VINA RESULT:    -1.344     22.248     23.973
REMARK INTER + INTRA:          -5.055
REMARK INTER:                  -2.497
REMARK INTRA:                  -2.558
REMARK UNBOUND:                -2.611
REMARK SMILES CCCCCCCCCCCCCCCC(=O)[O-]
REMARK SMILES IDX 9 1 10 2 11 3 12 4 13 5 14 6 15 7 16 8 17 9 18 10 8 11 7 12
REMARK SMILES IDX 6 13 5 14 4 15 3 16 2 17 1 18
REMARK H PARENT
REMARK Flexibility Score: inf
ROOT
ATOM      1  C   UNL     1      22.562  25.970  15.978  1.00  0.00     0.000 C 
ENDROOT
BRANCH   1   2
ATOM      2  C   UNL     1      22.949  24.901  14.941  1.00  0.00     0.000 C 
BRANCH   2   3
ATOM      3  C   UNL     1      24.448  24.922  14.602  1.00  0.00     0.000 C 
BRANCH   3   4
ATOM      4  C   UNL     1      25.247  25.866  15.514  1.00  0.00     0.000 C 
BRANCH   4   5
ATOM      5  C   UNL     1      26.105  25.071  16.509  1.00  0.00     0.000 C 
BRANCH   5   6
ATOM      6  C   UNL     1      25.785  25.408  17.977  1.00  0.00     0.006 C 
BRANCH   6   7
ATOM      7  C   UNL     1      26.040  26.875  18.359  1.00  0.00     0.053 C 
BRANCH   7   8
ATOM      8  C   UNL     1      25.422  27.230  19.675  1.00  0.00     0.041 C 
ATOM      9  O   UNL     1      26.098  27.148  20.735  1.00  0.00    -0.550 OA
ATOM     10  O   UNL     1      24.089  27.617  19.737  1.00  0.00    -0.550 OA
ENDBRANCH   7   8
ENDBRANCH   6   7
ENDBRANCH   5   6
ENDBRANCH   4   5
ENDBRANCH   3   4
ENDBRANCH   2   3
ENDBRANCH   1   2
BRANCH   1  11
ATOM     11  C   UNL     1      21.446  26.903  15.482  1.00  0.00     0.000 C 
BRANCH  11  12
ATOM     12  C   UNL     1      21.743  28.384  15.771  1.00  0.00    -0.000 C 
BRANCH  12  13
ATOM     13  C   UNL     1      23.063  28.595  16.535  1.00  0.00    -0.000 C 
BRANCH  13  14
ATOM     14  C   UNL     1      24.170  29.328  15.752  1.00  0.00    -0.000 C 
BRANCH  14  15
ATOM     15  C   UNL     1      23.775  29.630  14.297  1.00  0.00    -0.000 C 
BRANCH  15  16
ATOM     16  C   UNL     1      24.673  28.914  13.271  1.00  0.00    -0.000 C 
BRANCH  16  17
ATOM     17  C   UNL     1      23.969  27.831  12.432  1.00  0.00    -0.003 C 
ATOM     18  C   UNL     1      22.509  28.163  12.127  1.00  0.00     0.004 C 
ENDBRANCH  16  17
ENDBRANCH  15  16
ENDBRANCH  14  15
ENDBRANCH  13  14
ENDBRANCH  12  13
ENDBRANCH  11  12
ENDBRANCH   1  11
TORSDOF 14
ENDMDL
MODEL 7
REMARK VINA RESULT:    -1.323     21.652     23.691
REMARK INTER + INTRA:          -5.018
REMARK INTER:                  -2.364
REMARK INTRA:                  -2.654
REMARK UNBOUND:                -2.611
REMARK SMILES CCCCCCCCCCCCCCCC(=O)[O-]
REMARK SMILES IDX 9 1 10 2 11 3 12 4 13 5 14 6 15 7 16 8 17 9 18 10 8 11 7 12
REMARK SMILES IDX 6 13 5 14 4 15 3 16 2 17 1 18
REMARK H PARENT
REMARK Flexibility Score: inf
ROOT
ATOM      1  C   UNL     1      22.750  28.498  15.571  1.00  0.00     0.000 C 
ENDROOT
BRANCH   1   2
ATOM      2  C   UNL     1      22.476  27.359  14.575  1.00  0.00     0.000 C 
BRANCH   2   3
ATOM      3  C   UNL     1      21.727  26.180  15.217  1.00  0.00     0.000 C 
BRANCH   3   4
ATOM      4  C   UNL     1      22.208  24.818  14.694  1.00  0.00     0.000 C 
BRANCH   4   5
ATOM      5  C   UNL     1      23.497  24.972  13.873  1.00  0.00     0.000 C 
BRANCH   5   6
ATOM      6  C   UNL     1      24.669  24.150  14.441  1.00  0.00     0.006 C 
BRANCH   6   7
ATOM      7  C   UNL     1      24.349  22.664  14.667  1.00  0.00     0.053 C 
BRANCH   7   8
ATOM      8  C   UNL     1      25.538  21.789  14.422  1.00  0.00     0.041 C 
ATOM      9  O   UNL     1      26.030  21.110  15.363  1.00  0.00    -0.550 OA
ATOM     10  O   UNL     1      26.125  21.747  13.164  1.00  0.00    -0.550 OA
ENDBRANCH   7   8
ENDBRANCH   6   7
ENDBRANCH   5   6
ENDBRANCH   4   5
ENDBRANCH   3   4
ENDBRANCH   2   3
ENDBRANCH   1   2
BRANCH   1  11
ATOM     11  C   UNL     1      24.192  29.024  15.490  1.00  0.00     0.000 C 
BRANCH  11  12
ATOM     12  C   UNL     1      25.065  28.204  14.524  1.00  0.00    -0.000 C 
BRANCH  12  13
ATOM     13  C   UNL     1      26.096  27.318  15.247  1.00  0.00    -0.000 C 
BRANCH  13  14
ATOM     14  C   UNL     1      26.103  27.433  16.784  1.00  0.00    -0.000 C 
BRANCH  14  15
ATOM     15  C   UNL     1      25.870  26.086  17.487  1.00  0.00    -0.000 C 
BRANCH  15  16
ATOM     16  C   UNL     1      24.395  25.856  17.867  1.00  0.00    -0.000 C 
BRANCH  16  17
ATOM     17  C   UNL     1      23.995  24.382  18.067  1.00  0.00    -0.003 C 
ATOM     18  C   UNL     1      22.512  24.202  18.389  1.00  0.00     0.004 C 
ENDBRANCH  16  17
ENDBRANCH  15  16
ENDBRANCH  14  15
ENDBRANCH  13  14
ENDBRANCH  12  13
ENDBRANCH  11  12
ENDBRANCH   1  11
TORSDOF 14
ENDMDL
MODEL 8
REMARK VINA RESULT:    -1.301     21.725     23.586
REMARK INTER + INTRA:          -4.977
REMARK INTER:                  -2.429
REMARK INTRA:                  -2.548
REMARK UNBOUND:                -2.611
REMARK SMILES CCCCCCCCCCCCCCCC(=O)[O-]
REMARK SMILES IDX 9 1 10 2 11 3 12 4 13 5 14 6 15 7 16 8 17 9 18 10 8 11 7 12
REMARK SMILES IDX 6 13 5 14 4 15 3 16 2 17 1 18
REMARK H PARENT
REMARK Flexibility Score: inf
ROOT
ATOM      1  C   UNL     1      24.439  28.291  15.566  1.00  0.00     0.000 C 
ENDROOT
BRANCH   1   2
ATOM      2  C   UNL     1      25.738  27.470  15.492  1.00  0.00     0.000 C 
BRANCH   2   3
ATOM      3  C   UNL     1      25.540  26.010  15.931  1.00  0.00     0.000 C 
BRANCH   3   4
ATOM      4  C   UNL     1      24.517  25.265  15.061  1.00  0.00     0.000 C 
BRANCH   4   5
ATOM      5  C   UNL     1      23.368  24.713  15.918  1.00  0.00     0.000 C 
BRANCH   5   6
ATOM      6  C   UNL     1      23.496  25.092  17.405  1.00  0.00     0.006 C 
BRANCH   6   7
ATOM      7  C   UNL     1      22.204  25.639  18.032  1.00  0.00     0.053 C 
BRANCH   7   8
ATOM      8  C   UNL     1      21.093  24.637  17.994  1.00  0.00     0.041 C 
ATOM      9  O   UNL     1      20.024  24.899  17.380  1.00  0.00    -0.550 OA
ATOM     10  O   UNL     1      21.223  23.427  18.665  1.00  0.00    -0.550 OA
ENDBRANCH   7   8
ENDBRANCH   6   7
ENDBRANCH   5   6
ENDBRANCH   4   5
ENDBRANCH   3   4
ENDBRANCH   2   3
ENDBRANCH   1   2
BRANCH   1  11
ATOM     11  C   UNL     1      24.232  29.189  14.336  1.00  0.00     0.000 C 
BRANCH  11  12
ATOM     12  C   UNL     1      25.252  28.903  13.220  1.00  0.00    -0.000 C 
BRANCH  12  13
ATOM     13  C   UNL     1      24.590  28.542  11.877  1.00  0.00    -0.000 C 
BRANCH  13  14
ATOM     14  C   UNL     1      23.082  28.232  11.946  1.00  0.00    -0.000 C 
BRANCH  14  15
ATOM     15  C   UNL     1      22.781  26.726  12.019  1.00  0.00    -0.000 C 
BRANCH  15  16
ATOM     16  C   UNL     1      21.700  26.381  13.060  1.00  0.00    -0.000 C 
BRANCH  16  17
ATOM     17  C   UNL     1      20.934  27.589  13.630  1.00  0.00    -0.003 C 
ATOM     18  C   UNL     1      20.833  27.570  15.154  1.00  0.00     0.004 C 
ENDBRANCH  16  17
ENDBRANCH  15  16
ENDBRANCH  14  15
ENDBRANCH  13  14
ENDBRANCH  12  13
ENDBRANCH  11  12
ENDBRANCH   1  11
TORSDOF 14
ENDMDL
MODEL 9
REMARK VINA RESULT:    -1.299     22.045     24.083
REMARK INTER + INTRA:          -4.974
REMARK INTER:                  -2.652
REMARK INTRA:                  -2.322
REMARK UNBOUND:                -2.611
REMARK SMILES CCCCCCCCCCCCCCCC(=O)[O-]
REMARK SMILES IDX 9 1 10 2 11 3 12 4 13 5 14 6 15 7 16 8 17 9 18 10 8 11 7 12
REMARK SMILES IDX 6 13 5 14 4 15 3 16 2 17 1 18
REMARK H PARENT
REMARK Flexibility Score: inf
ROOT
ATOM      1  C   UNL     1      22.866  26.097  12.777  1.00  0.00     0.000 C 
ENDROOT
BRANCH   1   2
ATOM      2  C   UNL     1      21.794  26.597  13.762  1.00  0.00     0.000 C 
BRANCH   2   3
ATOM      3  C   UNL     1      22.006  26.059  15.186  1.00  0.00     0.000 C 
BRANCH   3   4
ATOM      4  C   UNL     1      21.453  24.638  15.370  1.00  0.00     0.000 C 
BRANCH   4   5
ATOM      5  C   UNL     1      22.518  23.710  15.973  1.00  0.00     0.000 C 
BRANCH   5   6
ATOM      6  C   UNL     1      23.624  23.337  14.968  1.00  0.00     0.006 C 
BRANCH   6   7
ATOM      7  C   UNL     1      24.478  22.130  15.388  1.00  0.00     0.053 C 
BRANCH   7   8
ATOM      8  C   UNL     1      25.318  21.616  14.260  1.00  0.00     0.041 C 
ATOM      9  O   UNL     1      25.273  22.174  13.132  1.00  0.00    -0.550 OA
ATOM     10  O   UNL     1      26.125  20.501  14.445  1.00  0.00    -0.550 OA
ENDBRANCH   7   8
ENDBRANCH   6   7
ENDBRANCH   5   6
ENDBRANCH   4   5
ENDBRANCH   3   4
ENDBRANCH   2   3
ENDBRANCH   1   2
BRANCH   1  11
ATOM     11  C   UNL     1      23.594  27.245  12.059  1.00  0.00     0.000 C 
BRANCH  11  12
ATOM     12  C   UNL     1      23.162  28.630  12.572  1.00  0.00    -0.000 C 
BRANCH  12  13
ATOM     13  C   UNL     1      24.225  29.302  13.460  1.00  0.00    -0.000 C 
BRANCH  13  14
ATOM     14  C   UNL     1      23.826  29.497  14.936  1.00  0.00    -0.000 C 
BRANCH  14  15
ATOM     15  C   UNL     1      24.594  28.571  15.893  1.00  0.00    -0.000 C 
BRANCH  15  16
ATOM     16  C   UNL     1      25.641  27.700  15.173  1.00  0.00    -0.000 C 
BRANCH  16  17
ATOM     17  C   UNL     1      25.698  26.232  15.636  1.00  0.00    -0.003 C 
ATOM     18  C   UNL     1      25.242  26.041  17.081  1.00  0.00     0.004 C 
ENDBRANCH  16  17
ENDBRANCH  15  16
ENDBRANCH  14  15
ENDBRANCH  13  14
ENDBRANCH  12  13
ENDBRANCH  11  12
ENDBRANCH   1  11
TORSDOF 14
ENDMDL
