MODEL 1
REMARK VINA RESULT:    -4.949      0.000      0.000
REMARK INTER + INTRA:         -10.875
REMARK INTER:                  -9.000
REMARK INTRA:                  -1.875
REMARK UNBOUND:                -1.875
REMARK SMILES CCCCCCCCCCCCCCCC(=O)[O-]
REMARK SMILES IDX 9 1 10 2 11 3 12 4 13 5 14 6 15 7 16 8 17 9 18 10 8 11 7 12
REMARK SMILES IDX 6 13 5 14 4 15 3 16 2 17 1 18
REMARK H PARENT
REMARK Flexibility Score: inf
ROOT
ATOM      1  C   UNL     1      64.506  30.292   9.527  1.00  0.00     0.000 C 
ENDROOT
BRANCH   1   2
ATOM      2  C   UNL     1      64.614  31.576  10.371  1.00  0.00     0.000 C 
BRANCH   2   3
ATOM      3  C   UNL     1      63.758  31.528  11.648  1.00  0.00     0.000 C 
BRANCH   3   4
ATOM      4  C   UNL     1      64.153  32.612  12.664  1.00  0.00     0.000 C 
BRANCH   4   5
ATOM      5  C   UNL     1      63.091  32.818  13.755  1.00  0.00     0.000 C 
BRANCH   5   6
ATOM      6  C   UNL     1      61.689  32.482  13.225  1.00  0.00     0.006 C 
BRANCH   6   7
ATOM      7  C   UNL     1      60.578  33.126  14.066  1.00  0.00     0.053 C 
BRANCH   7   8
ATOM      8  C   UNL     1      60.819  32.947  15.533  1.00  0.00     0.041 C 
ATOM      9  O   UNL     1      60.714  31.808  16.059  1.00  0.00    -0.550 OA
ATOM     10  O   UNL     1      61.124  34.045  16.328  1.00  0.00    -0.550 OA
ENDBRANCH   7   8
ENDBRANCH   6   7
ENDBRANCH   5   6
ENDBRANCH   4   5
ENDBRANCH   3   4
ENDBRANCH   2   3
ENDBRANCH   1   2
BRANCH   1  11
ATOM     11  C   UNL     1      63.474  29.264  10.024  1.00  0.00     0.000 C 
BRANCH  11  12
ATOM     12  C   UNL     1      62.218  29.196   9.137  1.00  0.00    -0.000 C 
BRANCH  12  13
ATOM     13  C   UNL     1      61.147  28.249   9.701  1.00  0.00    -0.000 C 
BRANCH  13  14
ATOM     14  C   UNL     1      59.826  28.967  10.019  1.00  0.00    -0.000 C 
BRANCH  14  15
ATOM     15  C   UNL     1      59.860  29.577  11.427  1.00  0.00    -0.000 C 
BRANCH  15  16
ATOM     16  C   UNL     1      60.037  28.519  12.528  1.00  0.00    -0.000 C 
BRANCH  16  17
ATOM     17  C   UNL     1      60.917  29.012  13.687  1.00  0.00    -0.003 C 
ATOM     18  C   UNL     1      62.384  28.666  13.447  1.00  0.00     0.004 C 
ENDBRANCH  16  17
ENDBRANCH  15  16
ENDBRANCH  14  15
ENDBRANCH  13  14
ENDBRANCH  12  13
ENDBRANCH  11  12
ENDBRANCH   1  11
TORSDOF 14
ENDMDL
MODEL 2
REMARK VINA RESULT:    -4.901     12.581     15.212
REMARK INTER + INTRA:         -10.787
REMARK INTER:                  -8.438
REMARK INTRA:                  -2.349
REMARK UNBOUND:                -1.875
REMARK SMILES CCCCCCCCCCCCCCCC(=O)[O-]
REMARK SMILES IDX 9 1 10 2 11 3 12 4 13 5 14 6 15 7 16 8 17 9 18 10 8 11 7 12
REMARK SMILES IDX 6 13 5 14 4 15 3 16 2 17 1 18
REMARK H PARENT
REMARK Flexibility Score: inf
ROOT
ATOM      1  C   UNL     1      61.391  27.766  25.439  1.00  0.00     0.000 C 
ENDROOT
BRANCH   1   2
ATOM      2  C   UNL     1      61.864  29.088  24.806  1.00  0.00     0.000 C 
BRANCH   2   3
ATOM      3  C   UNL     1      63.002  29.758  25.596  1.00  0.00     0.000 C 
BRANCH   3   4
ATOM      4  C   UNL     1      64.353  29.678  24.867  1.00  0.00     0.000 C 
BRANCH   4   5
ATOM      5  C   UNL     1      65.267  28.579  25.432  1.00  0.00     0.000 C 
BRANCH   5   6
ATOM      6  C   UNL     1      65.613  27.544  24.350  1.00  0.00     0.006 C 
BRANCH   6   7
ATOM      7  C   UNL     1      64.946  26.186  24.609  1.00  0.00     0.053 C 
BRANCH   7   8
ATOM      8  C   UNL     1      63.800  25.944  23.675  1.00  0.00     0.041 C 
ATOM      9  O   UNL     1      63.013  24.983  23.875  1.00  0.00    -0.550 OA
ATOM     10  O   UNL     1      63.623  26.758  22.564  1.00  0.00    -0.550 OA
ENDBRANCH   7   8
ENDBRANCH   6   7
ENDBRANCH   5   6
ENDBRANCH   4   5
ENDBRANCH   3   4
ENDBRANCH   2   3
ENDBRANCH   1   2
BRANCH   1  11
ATOM     11  C   UNL     1      62.094  27.379  26.754  1.00  0.00     0.000 C 
BRANCH  11  12
ATOM     12  C   UNL     1      61.137  27.346  27.959  1.00  0.00    -0.000 C 
BRANCH  12  13
ATOM     13  C   UNL     1      61.091  28.684  28.712  1.00  0.00    -0.000 C 
BRANCH  13  14
ATOM     14  C   UNL     1      62.486  29.182  29.125  1.00  0.00    -0.000 C 
BRANCH  14  15
ATOM     15  C   UNL     1      62.577  30.710  29.010  1.00  0.00    -0.000 C 
BRANCH  15  16
ATOM     16  C   UNL     1      64.025  31.223  29.067  1.00  0.00    -0.000 C 
BRANCH  16  17
ATOM     17  C   UNL     1      65.055  30.125  28.765  1.00  0.00    -0.003 C 
ATOM     18  C   UNL     1      66.402  30.727  28.372  1.00  0.00     0.004 C 
ENDBRANCH  16  17
ENDBRANCH  15  16
ENDBRANCH  14  15
ENDBRANCH  13  14
ENDBRANCH  12  13
ENDBRANCH  11  12
ENDBRANCH   1  11
TORSDOF 14
ENDMDL
MODEL 3
REMARK VINA RESULT:    -4.823      1.306      3.077
REMARK INTER + INTRA:         -10.645
REMARK INTER:                  -8.447
REMARK INTRA:                  -2.198
REMARK UNBOUND:                -1.875
REMARK SMILES CCCCCCCCCCCCCCCC(=O)[O-]
REMARK SMILES IDX 9 1 10 2 11 3 12 4 13 5 14 6 15 7 16 8 17 9 18 10 8 11 7 12
REMARK SMILES IDX 6 13 5 14 4 15 3 16 2 17 1 18
REMARK H PARENT
REMARK Flexibility Score: inf
ROOT
ATOM      1  C   UNL     1      62.170  29.525  13.963  1.00  0.00     0.000 C 
ENDROOT
BRANCH   1   2
ATOM      2  C   UNL     1      63.327  30.408  13.460  1.00  0.00     0.000 C 
BRANCH   2   3
ATOM      3  C   UNL     1      62.852  31.574  12.577  1.00  0.00     0.000 C 
BRANCH   3   4
ATOM      4  C   UNL     1      62.351  32.772  13.402  1.00  0.00     0.000 C 
BRANCH   4   5
ATOM      5  C   UNL     1      60.819  32.812  13.519  1.00  0.00     0.000 C 
BRANCH   5   6
ATOM      6  C   UNL     1      60.380  32.713  14.987  1.00  0.00     0.006 C 
BRANCH   6   7
ATOM      7  C   UNL     1      60.906  33.881  15.832  1.00  0.00     0.053 C 
BRANCH   7   8
ATOM      8  C   UNL     1      61.720  33.403  16.995  1.00  0.00     0.041 C 
ATOM      9  O   UNL     1      61.353  33.655  18.172  1.00  0.00    -0.550 OA
ATOM     10  O   UNL     1      62.905  32.711  16.777  1.00  0.00    -0.550 OA
ENDBRANCH   7   8
ENDBRANCH   6   7
ENDBRANCH   5   6
ENDBRANCH   4   5
ENDBRANCH   3   4
ENDBRANCH   2   3
ENDBRANCH   1   2
BRANCH   1  11
ATOM     11  C   UNL     1      61.844  28.304  13.083  1.00  0.00     0.000 C 
BRANCH  11  12
ATOM     12  C   UNL     1      60.341  28.165  12.781  1.00  0.00    -0.000 C 
BRANCH  12  13
ATOM     13  C   UNL     1      59.693  29.502  12.387  1.00  0.00    -0.000 C 
BRANCH  13  14
ATOM     14  C   UNL     1      59.979  29.893  10.928  1.00  0.00    -0.000 C 
BRANCH  14  15
ATOM     15  C   UNL     1      59.927  28.663  10.011  1.00  0.00    -0.000 C 
BRANCH  15  16
ATOM     16  C   UNL     1      61.193  28.509   9.153  1.00  0.00    -0.000 C 
BRANCH  16  17
ATOM     17  C   UNL     1      62.226  29.615   9.418  1.00  0.00    -0.003 C 
ATOM     18  C   UNL     1      63.630  29.033   9.556  1.00  0.00     0.004 C 
ENDBRANCH  16  17
ENDBRANCH  15  16
ENDBRANCH  14  15
ENDBRANCH  13  14
ENDBRANCH  12  13
ENDBRANCH  11  12
ENDBRANCH   1  11
TORSDOF 14
ENDMDL
MODEL 4
REMARK VINA RESULT:    -4.821      1.341      2.567
REMARK INTER + INTRA:         -10.642
REMARK INTER:                  -9.014
REMARK INTRA:                  -1.627
REMARK UNBOUND:                -1.875
REMARK SMILES CCCCCCCCCCCCCCCC(=O)[O-]
REMARK SMILES IDX 9 1 10 2 11 3 12 4 13 5 14 6 15 7 16 8 17 9 18 10 8 11 7 12
REMARK SMILES IDX 6 13 5 14 4 15 3 16 2 17 1 18
REMARK H PARENT
REMARK Flexibility Score: inf
ROOT
ATOM      1  C   UNL     1      64.063  31.918  11.884  1.00  0.00     0.000 C 
ENDROOT
BRANCH   1   2
ATOM      2  C   UNL     1      63.146  32.528  12.960  1.00  0.00     0.000 C 
BRANCH   2   3
ATOM      3  C   UNL     1      61.789  31.812  13.069  1.00  0.00     0.000 C 
BRANCH   3   4
ATOM      4  C   UNL     1      60.632  32.782  13.360  1.00  0.00     0.000 C 
BRANCH   4   5
ATOM      5  C   UNL     1      60.177  32.738  14.827  1.00  0.00     0.000 C 
BRANCH   5   6
ATOM      6  C   UNL     1      60.736  33.934  15.611  1.00  0.00     0.006 C 
BRANCH   6   7
ATOM      7  C   UNL     1      61.963  33.556  16.453  1.00  0.00     0.053 C 
BRANCH   7   8
ATOM      8  C   UNL     1      62.022  34.334  17.731  1.00  0.00     0.041 C 
ATOM      9  O   UNL     1      61.077  34.264  18.559  1.00  0.00    -0.550 OA
ATOM     10  O   UNL     1      63.103  35.166  17.990  1.00  0.00    -0.550 OA
ENDBRANCH   7   8
ENDBRANCH   6   7
ENDBRANCH   5   6
ENDBRANCH   4   5
ENDBRANCH   3   4
ENDBRANCH   2   3
ENDBRANCH   1   2
BRANCH   1  11
ATOM     11  C   UNL     1      63.833  30.423  11.595  1.00  0.00     0.000 C 
BRANCH  11  12
ATOM     12  C   UNL     1      64.095  30.048  10.125  1.00  0.00    -0.000 C 
BRANCH  12  13
ATOM     13  C   UNL     1      63.051  29.065   9.572  1.00  0.00    -0.000 C 
BRANCH  13  14
ATOM     14  C   UNL     1      61.620  29.621   9.633  1.00  0.00    -0.000 C 
BRANCH  14  15
ATOM     15  C   UNL     1      60.677  28.630  10.330  1.00  0.00    -0.000 C 
BRANCH  15  16
ATOM     16  C   UNL     1      59.732  29.315  11.331  1.00  0.00    -0.000 C 
BRANCH  16  17
ATOM     17  C   UNL     1      59.667  28.582  12.680  1.00  0.00    -0.003 C 
ATOM     18  C   UNL     1      61.065  28.363  13.254  1.00  0.00     0.004 C 
ENDBRANCH  16  17
ENDBRANCH  15  16
ENDBRANCH  14  15
ENDBRANCH  13  14
ENDBRANCH  12  13
ENDBRANCH  11  12
ENDBRANCH   1  11
TORSDOF 14
ENDMDL
MODEL 5
REMARK VINA RESULT:    -4.804      1.507      3.180
REMARK INTER + INTRA:         -10.611
REMARK INTER:                  -8.934
REMARK INTRA:                  -1.676
REMARK UNBOUND:                -1.875
REMARK SMILES CCCCCCCCCCCCCCCC(=O)[O-]
REMARK SMILES IDX 9 1 10 2 11 3 12 4 13 5 14 6 15 7 16 8 17 9 18 10 8 11 7 12
REMARK SMILES IDX 6 13 5 14 4 15 3 16 2 17 1 18
REMARK H PARENT
REMARK Flexibility Score: inf
ROOT
ATOM      1  C   UNL     1      63.498  31.023  12.055  1.00  0.00     0.000 C 
ENDROOT
BRANCH   1   2
ATOM      2  C   UNL     1      63.878  32.386  12.664  1.00  0.00     0.000 C 
BRANCH   2   3
ATOM      3  C   UNL     1      63.007  32.767  13.873  1.00  0.00     0.000 C 
BRANCH   3   4
ATOM      4  C   UNL     1      61.503  32.674  13.568  1.00  0.00     0.000 C 
BRANCH   4   5
ATOM      5  C   UNL     1      60.631  33.204  14.717  1.00  0.00     0.000 C 
BRANCH   5   6
ATOM      6  C   UNL     1      61.497  33.859  15.804  1.00  0.00     0.006 C 
BRANCH   6   7
ATOM      7  C   UNL     1      61.310  33.195  17.176  1.00  0.00     0.053 C 
BRANCH   7   8
ATOM      8  C   UNL     1      61.649  34.129  18.296  1.00  0.00     0.041 C 
ATOM      9  O   UNL     1      62.486  35.052  18.120  1.00  0.00    -0.550 OA
ATOM     10  O   UNL     1      61.067  33.957  19.546  1.00  0.00    -0.550 OA
ENDBRANCH   7   8
ENDBRANCH   6   7
ENDBRANCH   5   6
ENDBRANCH   4   5
ENDBRANCH   3   4
ENDBRANCH   2   3
ENDBRANCH   1   2
BRANCH   1  11
ATOM     11  C   UNL     1      63.644  29.817  13.000  1.00  0.00     0.000 C 
BRANCH  11  12
ATOM     12  C   UNL     1      62.564  28.743  12.775  1.00  0.00    -0.000 C 
BRANCH  12  13
ATOM     13  C   UNL     1      61.264  29.046  13.537  1.00  0.00    -0.000 C 
BRANCH  13  14
ATOM     14  C   UNL     1      60.008  28.834  12.676  1.00  0.00    -0.000 C 
BRANCH  14  15
ATOM     15  C   UNL     1      60.086  29.654  11.381  1.00  0.00    -0.000 C 
BRANCH  15  16
ATOM     16  C   UNL     1      59.686  28.842  10.139  1.00  0.00    -0.000 C 
BRANCH  16  17
ATOM     17  C   UNL     1      60.898  28.257   9.398  1.00  0.00    -0.003 C 
ATOM     18  C   UNL     1      61.979  29.315   9.195  1.00  0.00     0.004 C 
ENDBRANCH  16  17
ENDBRANCH  15  16
ENDBRANCH  14  15
ENDBRANCH  13  14
ENDBRANCH  12  13
ENDBRANCH  11  12
ENDBRANCH   1  11
TORSDOF 14
ENDMDL
MODEL 6
REMARK VINA RESULT:    -4.764      1.543      3.644
REMARK INTER + INTRA:         -10.539
REMARK INTER:                  -8.603
REMARK INTRA:                  -1.936
REMARK UNBOUND:                -1.875
REMARK SMILES CCCCCCCCCCCCCCCC(=O)[O-]
REMARK SMILES IDX 9 1 10 2 11 3 12 4 13 5 14 6 15 7 16 8 17 9 18 10 8 11 7 12
REMARK SMILES IDX 6 13 5 14 4 15 3 16 2 17 1 18
REMARK H PARENT
REMARK Flexibility Score: inf
ROOT
ATOM      1  C   UNL     1      61.194  28.898  13.746  1.00  0.00     0.000 C 
ENDROOT
BRANCH   1   2
ATOM      2  C   UNL     1      61.307  30.337  14.283  1.00  0.00     0.000 C 
BRANCH   2   3
ATOM      3  C   UNL     1      60.285  31.297  13.649  1.00  0.00     0.000 C 
BRANCH   3   4
ATOM      4  C   UNL     1      60.829  32.728  13.507  1.00  0.00     0.000 C 
BRANCH   4   5
ATOM      5  C   UNL     1      61.879  33.071  14.576  1.00  0.00     0.000 C 
BRANCH   5   6
ATOM      6  C   UNL     1      61.234  33.800  15.764  1.00  0.00     0.006 C 
BRANCH   6   7
ATOM      7  C   UNL     1      61.426  33.042  17.085  1.00  0.00     0.053 C 
BRANCH   7   8
ATOM      8  C   UNL     1      61.631  33.977  18.236  1.00  0.00     0.041 C 
ATOM      9  O   UNL     1      62.363  34.992  18.105  1.00  0.00    -0.550 OA
ATOM     10  O   UNL     1      61.043  33.708  19.466  1.00  0.00    -0.550 OA
ENDBRANCH   7   8
ENDBRANCH   6   7
ENDBRANCH   5   6
ENDBRANCH   4   5
ENDBRANCH   3   4
ENDBRANCH   2   3
ENDBRANCH   1   2
BRANCH   1  11
ATOM     11  C   UNL     1      60.009  28.642  12.797  1.00  0.00     0.000 C 
BRANCH  11  12
ATOM     12  C   UNL     1      60.450  28.339  11.354  1.00  0.00    -0.000 C 
BRANCH  12  13
ATOM     13  C   UNL     1      60.104  29.477  10.380  1.00  0.00    -0.000 C 
BRANCH  13  14
ATOM     14  C   UNL     1      61.269  29.833   9.443  1.00  0.00    -0.000 C 
BRANCH  14  15
ATOM     15  C   UNL     1      62.451  28.876   9.652  1.00  0.00    -0.000 C 
BRANCH  15  16
ATOM     16  C   UNL     1      63.746  29.608  10.036  1.00  0.00    -0.000 C 
BRANCH  16  17
ATOM     17  C   UNL     1      63.709  30.166  11.467  1.00  0.00    -0.003 C 
ATOM     18  C   UNL     1      63.996  31.665  11.480  1.00  0.00     0.004 C 
ENDBRANCH  16  17
ENDBRANCH  15  16
ENDBRANCH  14  15
ENDBRANCH  13  14
ENDBRANCH  12  13
ENDBRANCH  11  12
ENDBRANCH   1  11
TORSDOF 14
ENDMDL
MODEL 7
REMARK VINA RESULT:    -4.734      1.499      2.954
REMARK INTER + INTRA:         -10.484
REMARK INTER:                  -8.251
REMARK INTRA:                  -2.234
REMARK UNBOUND:                -1.875
REMARK SMILES CCCCCCCCCCCCCCCC(=O)[O-]
REMARK SMILES IDX 9 1 10 2 11 3 12 4 13 5 14 6 15 7 16 8 17 9 18 10 8 11 7 12
REMARK SMILES IDX 6 13 5 14 4 15 3 16 2 17 1 18
REMARK H PARENT
REMARK Flexibility Score: inf
ROOT
ATOM      1  C   UNL     1      63.103  31.166  12.260  1.00  0.00     0.000 C 
ENDROOT
BRANCH   1   2
ATOM      2  C   UNL     1      63.965  32.438  12.372  1.00  0.00     0.000 C 
BRANCH   2   3
ATOM      3  C   UNL     1      64.625  32.596  13.752  1.00  0.00     0.000 C 
BRANCH   3   4
ATOM      4  C   UNL     1      63.753  33.394  14.735  1.00  0.00     0.000 C 
BRANCH   4   5
ATOM      5  C   UNL     1      63.376  32.584  15.985  1.00  0.00     0.000 C 
BRANCH   5   6
ATOM      6  C   UNL     1      61.934  32.064  15.887  1.00  0.00     0.006 C 
BRANCH   6   7
ATOM      7  C   UNL     1      60.963  33.135  15.368  1.00  0.00     0.053 C 
BRANCH   7   8
ATOM      8  C   UNL     1      60.107  32.615  14.255  1.00  0.00     0.041 C 
ATOM      9  O   UNL     1      60.423  32.835  13.057  1.00  0.00    -0.550 OA
ATOM     10  O   UNL     1      58.939  31.919  14.541  1.00  0.00    -0.550 OA
ENDBRANCH   7   8
ENDBRANCH   6   7
ENDBRANCH   5   6
ENDBRANCH   4   5
ENDBRANCH   3   4
ENDBRANCH   2   3
ENDBRANCH   1   2
BRANCH   1  11
ATOM     11  C   UNL     1      63.576  29.975  13.113  1.00  0.00     0.000 C 
BRANCH  11  12
ATOM     12  C   UNL     1      62.572  28.808  13.125  1.00  0.00    -0.000 C 
BRANCH  12  13
ATOM     13  C   UNL     1      61.192  29.224  13.658  1.00  0.00    -0.000 C 
BRANCH  13  14
ATOM     14  C   UNL     1      60.040  28.762  12.751  1.00  0.00    -0.000 C 
BRANCH  14  15
ATOM     15  C   UNL     1      59.992  29.593  11.461  1.00  0.00    -0.000 C 
BRANCH  15  16
ATOM     16  C   UNL     1      59.752  28.733  10.210  1.00  0.00    -0.000 C 
BRANCH  16  17
ATOM     17  C   UNL     1      61.058  28.218   9.587  1.00  0.00    -0.003 C 
ATOM     18  C   UNL     1      62.024  29.367   9.307  1.00  0.00     0.004 C 
ENDBRANCH  16  17
ENDBRANCH  15  16
ENDBRANCH  14  15
ENDBRANCH  13  14
ENDBRANCH  12  13
ENDBRANCH  11  12
ENDBRANCH   1  11
TORSDOF 14
ENDMDL
MODEL 8
REMARK VINA RESULT:    -4.730      1.348      2.318
REMARK INTER + INTRA:         -10.476
REMARK INTER:                  -8.680
REMARK INTRA:                  -1.797
REMARK UNBOUND:                -1.875
REMARK SMILES CCCCCCCCCCCCCCCC(=O)[O-]
REMARK SMILES IDX 9 1 10 2 11 3 12 4 13 5 14 6 15 7 16 8 17 9 18 10 8 11 7 12
REMARK SMILES IDX 6 13 5 14 4 15 3 16 2 17 1 18
REMARK H PARENT
REMARK Flexibility Score: inf
ROOT
ATOM      1  C   UNL     1      63.861  30.668  11.644  1.00  0.00     0.000 C 
ENDROOT
BRANCH   1   2
ATOM      2  C   UNL     1      63.477  32.033  12.244  1.00  0.00     0.000 C 
BRANCH   2   3
ATOM      3  C   UNL     1      62.566  31.912  13.478  1.00  0.00     0.000 C 
BRANCH   3   4
ATOM      4  C   UNL     1      61.280  32.744  13.345  1.00  0.00     0.000 C 
BRANCH   4   5
ATOM      5  C   UNL     1      60.433  32.735  14.627  1.00  0.00     0.000 C 
BRANCH   5   6
ATOM      6  C   UNL     1      60.913  33.815  15.608  1.00  0.00     0.006 C 
BRANCH   6   7
ATOM      7  C   UNL     1      61.868  33.253  16.671  1.00  0.00     0.053 C 
BRANCH   7   8
ATOM      8  C   UNL     1      61.871  34.090  17.913  1.00  0.00     0.041 C 
ATOM      9  O   UNL     1      62.653  35.070  18.014  1.00  0.00    -0.550 OA
ATOM     10  O   UNL     1      61.034  33.766  18.974  1.00  0.00    -0.550 OA
ENDBRANCH   7   8
ENDBRANCH   6   7
ENDBRANCH   5   6
ENDBRANCH   4   5
ENDBRANCH   3   4
ENDBRANCH   2   3
ENDBRANCH   1   2
BRANCH   1  11
ATOM     11  C   UNL     1      63.561  30.502  10.143  1.00  0.00     0.000 C 
BRANCH  11  12
ATOM     12  C   UNL     1      63.530  29.030   9.695  1.00  0.00    -0.000 C 
BRANCH  12  13
ATOM     13  C   UNL     1      62.125  28.569   9.278  1.00  0.00    -0.000 C 
BRANCH  13  14
ATOM     14  C   UNL     1      61.099  29.714   9.282  1.00  0.00    -0.000 C 
BRANCH  14  15
ATOM     15  C   UNL     1      59.878  29.353  10.139  1.00  0.00    -0.000 C 
BRANCH  15  16
ATOM     16  C   UNL     1      59.997  29.862  11.585  1.00  0.00    -0.000 C 
BRANCH  16  17
ATOM     17  C   UNL     1      59.974  28.725  12.617  1.00  0.00    -0.003 C 
ATOM     18  C   UNL     1      61.382  28.402  13.109  1.00  0.00     0.004 C 
ENDBRANCH  16  17
ENDBRANCH  15  16
ENDBRANCH  14  15
ENDBRANCH  13  14
ENDBRANCH  12  13
ENDBRANCH  11  12
ENDBRANCH   1  11
TORSDOF 14
ENDMDL
MODEL 9
REMARK VINA RESULT:    -4.663      2.087      4.994
REMARK INTER + INTRA:         -10.355
REMARK INTER:                  -8.353
REMARK INTRA:                  -2.002
REMARK UNBOUND:                -1.875
REMARK SMILES CCCCCCCCCCCCCCCC(=O)[O-]
REMARK SMILES IDX 9 1 10 2 11 3 12 4 13 5 14 6 15 7 16 8 17 9 18 10 8 11 7 12
REMARK SMILES IDX 6 13 5 14 4 15 3 16 2 17 1 18
REMARK H PARENT
REMARK Flexibility Score: inf
ROOT
ATOM      1  C   UNL     1      63.383  31.136  11.624  1.00  0.00     0.000 C 
ENDROOT
BRANCH   1   2
ATOM      2  C   UNL     1      63.994  30.439  10.393  1.00  0.00     0.000 C 
BRANCH   2   3
ATOM      3  C   UNL     1      63.409  29.038  10.146  1.00  0.00     0.000 C 
BRANCH   3   4
ATOM      4  C   UNL     1      62.144  29.073   9.272  1.00  0.00     0.000 C 
BRANCH   4   5
ATOM      5  C   UNL     1      61.016  28.189   9.826  1.00  0.00     0.000 C 
BRANCH   5   6
ATOM      6  C   UNL     1      59.837  29.046  10.310  1.00  0.00     0.006 C 
BRANCH   6   7
ATOM      7  C   UNL     1      60.053  29.584  11.731  1.00  0.00     0.053 C 
BRANCH   7   8
ATOM      8  C   UNL     1      60.365  28.486  12.700  1.00  0.00     0.041 C 
ATOM      9  O   UNL     1      59.451  27.727  13.114  1.00  0.00    -0.550 OA
ATOM     10  O   UNL     1      61.661  28.323  13.174  1.00  0.00    -0.550 OA
ENDBRANCH   7   8
ENDBRANCH   6   7
ENDBRANCH   5   6
ENDBRANCH   4   5
ENDBRANCH   3   4
ENDBRANCH   2   3
ENDBRANCH   1   2
BRANCH   1  11
ATOM     11  C   UNL     1      64.128  32.396  12.102  1.00  0.00     0.000 C 
BRANCH  11  12
ATOM     12  C   UNL     1      64.211  32.498  13.636  1.00  0.00    -0.000 C 
BRANCH  12  13
ATOM     13  C   UNL     1      64.133  31.126  14.324  1.00  0.00    -0.000 C 
BRANCH  13  14
ATOM     14  C   UNL     1      63.269  31.146  15.595  1.00  0.00    -0.000 C 
BRANCH  14  15
ATOM     15  C   UNL     1      61.777  31.067  15.244  1.00  0.00    -0.000 C 
BRANCH  15  16
ATOM     16  C   UNL     1      60.966  32.233  15.833  1.00  0.00    -0.000 C 
BRANCH  16  17
ATOM     17  C   UNL     1      60.750  33.372  14.826  1.00  0.00    -0.003 C 
ATOM     18  C   UNL     1      60.553  32.827  13.414  1.00  0.00     0.004 C 
ENDBRANCH  16  17
ENDBRANCH  15  16
ENDBRANCH  14  15
ENDBRANCH  13  14
ENDBRANCH  12  13
ENDBRANCH  11  12
ENDBRANCH   1  11
TORSDOF 14
ENDMDL
