MODEL 1
REMARK VINA RESULT:    -6.736      0.000      0.000
REMARK INTER + INTRA:          -9.932
REMARK INTER:                  -8.902
REMARK INTRA:                  -1.031
REMARK UNBOUND:                -1.031
REMARK SMILES CC[C@@H](C=C[C@H](C)[C@H]1CC[C@@H]2C3=CC[C@H]4C[C@H](O)CC[C@@]4(C)[C@@H]3CC[C@@]21C)C(C)C
REMARK SMILES IDX 6 1 7 2 5 3 4 4 3 5 2 6 1 7 28 8 29 9 30 10 8 11 9 12 26 13
REMARK SMILES IDX 10 14 11 15 25 16 27 17 12 18 24 19 23 20 13 21 21 22 14 23
REMARK SMILES IDX 15 24 20 25 22 26 16 27 19 28 17 29 18 30
REMARK H PARENT 18 31
REMARK Flexibility Score: inf
ROOT
ATOM      1  C   UNL     1      42.394  12.232 114.072  1.00  0.00     0.012 C 
ATOM      2  C   UNL     1      42.263  12.813 115.501  1.00  0.00     0.012 C 
ENDROOT
BRANCH   1   3
ATOM      3  C   UNL     1      42.418  10.710 114.121  1.00  0.00    -0.028 C 
ATOM      4  C   UNL     1      43.360  10.018 114.785  1.00  0.00    -0.027 C 
BRANCH   4   5
ATOM      5  C   UNL     1      43.382   8.500 114.842  1.00  0.00     0.014 C 
BRANCH   5   6
ATOM      6  C   UNL     1      43.336   8.002 116.313  1.00  0.00     0.004 C 
ATOM      7  C   UNL     1      43.681   9.068 117.363  1.00  0.00     0.004 C 
ENDBRANCH   5   6
BRANCH   5   8
ATOM      8  C   UNL     1      44.546   7.836 114.024  1.00  0.00    -0.011 C 
ATOM      9  C   UNL     1      45.928   8.360 114.454  1.00  0.00     0.008 C 
ATOM     10  C   UNL     1      44.543   6.296 114.045  1.00  0.00     0.008 C 
ENDBRANCH   5   8
ENDBRANCH   4   5
ENDBRANCH   1   3
BRANCH   1  11
ATOM     11  C   UNL     1      41.369  12.731 113.001  1.00  0.00     0.002 C 
ATOM     12  C   UNL     1      40.230  13.613 113.505  1.00  0.00     0.005 C 
ATOM     13  C   UNL     1      41.923  13.441 111.728  1.00  0.00    -0.023 C 
ATOM     14  C   UNL     1      39.575  14.167 112.246  1.00  0.00     0.009 C 
ATOM     15  C   UNL     1      40.649  14.124 111.136  1.00  0.00     0.021 C 
ATOM     16  C   UNL     1      42.561  12.402 110.738  1.00  0.00     0.008 C 
ATOM     17  C   UNL     1      42.980  14.525 112.047  1.00  0.00     0.012 C 
ATOM     18  C   UNL     1      40.274  13.486 109.801  1.00  0.00    -0.067 C 
ATOM     19  C   UNL     1      42.634  12.893 109.267  1.00  0.00     0.009 C 
ATOM     20  C   UNL     1      41.363  13.666 108.768  1.00  0.00     0.021 C 
ATOM     21  C   UNL     1      39.410  12.452 109.682  1.00  0.00    -0.027 C 
ATOM     22  C   UNL     1      40.898  13.328 107.307  1.00  0.00    -0.023 C 
ATOM     23  C   UNL     1      39.101  11.795 108.363  1.00  0.00     0.031 C 
ATOM     24  C   UNL     1      40.216  11.926 107.288  1.00  0.00     0.002 C 
ATOM     25  C   UNL     1      39.866  14.399 106.826  1.00  0.00     0.010 C 
ATOM     26  C   UNL     1      42.142  13.369 106.364  1.00  0.00     0.012 C 
ATOM     27  C   UNL     1      39.657  11.589 105.885  1.00  0.00     0.036 C 
ATOM     28  C   UNL     1      39.256  14.087 105.445  1.00  0.00     0.032 C 
ATOM     29  C   UNL     1      38.683  12.661 105.343  1.00  0.00     0.114 C 
BRANCH  29  30
ATOM     30  O   UNL     1      38.385  12.388 104.000  1.00  0.00    -0.393 OA
ATOM     31  H   UNL     1      39.191  12.619 103.469  1.00  0.00     0.210 HD
ENDBRANCH  29  30
ENDBRANCH   1  11
TORSDOF 6
ENDMDL
MODEL 2
REMARK VINA RESULT:    -6.678      3.821      7.946
REMARK INTER + INTRA:          -9.856
REMARK INTER:                  -8.795
REMARK INTRA:                  -1.061
REMARK UNBOUND:                -1.031
REMARK SMILES CC[C@@H](C=C[C@H](C)[C@H]1CC[C@@H]2C3=CC[C@H]4C[C@H](O)CC[C@@]4(C)[C@@H]3CC[C@@]21C)C(C)C
REMARK SMILES IDX 6 1 7 2 5 3 4 4 3 5 2 6 1 7 28 8 29 9 30 10 8 11 9 12 26 13
REMARK SMILES IDX 10 14 11 15 25 16 27 17 12 18 24 19 23 20 13 21 21 22 14 23
REMARK SMILES IDX 15 24 20 25 22 26 16 27 19 28 17 29 18 30
REMARK H PARENT 18 31
REMARK Flexibility Score: inf
ROOT
ATOM      1  C   UNL     1      38.712  10.585 106.101  1.00  0.00     0.012 C 
ATOM      2  C   UNL     1      39.145  10.285 104.646  1.00  0.00     0.012 C 
ENDROOT
BRANCH   1   3
ATOM      3  C   UNL     1      38.332   9.295 106.816  1.00  0.00    -0.028 C 
ATOM      4  C   UNL     1      38.746   8.085 106.403  1.00  0.00    -0.027 C 
BRANCH   4   5
ATOM      5  C   UNL     1      38.375   6.798 107.120  1.00  0.00     0.014 C 
BRANCH   5   6
ATOM      6  C   UNL     1      38.112   5.655 106.101  1.00  0.00     0.004 C 
ATOM      7  C   UNL     1      38.702   4.294 106.495  1.00  0.00     0.004 C 
ENDBRANCH   5   6
BRANCH   5   8
ATOM      8  C   UNL     1      37.211   6.947 108.163  1.00  0.00    -0.011 C 
ATOM      9  C   UNL     1      35.842   6.589 107.556  1.00  0.00     0.008 C 
ATOM     10  C   UNL     1      37.422   6.164 109.472  1.00  0.00     0.008 C 
ENDBRANCH   5   8
ENDBRANCH   4   5
ENDBRANCH   1   3
BRANCH   1  11
ATOM     11  C   UNL     1      39.692  11.431 106.978  1.00  0.00     0.002 C 
ATOM     12  C   UNL     1      40.902  12.030 106.265  1.00  0.00     0.005 C 
ATOM     13  C   UNL     1      39.096  12.585 107.842  1.00  0.00    -0.023 C 
ATOM     14  C   UNL     1      41.504  13.007 107.267  1.00  0.00     0.009 C 
ATOM     15  C   UNL     1      40.364  13.414 108.227  1.00  0.00     0.021 C 
ATOM     16  C   UNL     1      38.348  12.016 109.100  1.00  0.00     0.008 C 
ATOM     17  C   UNL     1      38.115  13.490 107.058  1.00  0.00     0.012 C 
ATOM     18  C   UNL     1      40.624  13.324 109.728  1.00  0.00    -0.067 C 
ATOM     19  C   UNL     1      38.209  13.032 110.266  1.00  0.00     0.009 C 
ATOM     20  C   UNL     1      39.483  13.908 110.530  1.00  0.00     0.021 C 
ATOM     21  C   UNL     1      41.426  12.395 110.294  1.00  0.00    -0.027 C 
ATOM     22  C   UNL     1      39.839  14.141 112.042  1.00  0.00    -0.023 C 
ATOM     23  C   UNL     1      41.621  12.283 111.783  1.00  0.00     0.031 C 
ATOM     24  C   UNL     1      40.449  12.838 112.640  1.00  0.00     0.002 C 
ATOM     25  C   UNL     1      40.891  15.292 112.159  1.00  0.00     0.010 C 
ATOM     26  C   UNL     1      38.543  14.565 112.801  1.00  0.00     0.012 C 
ATOM     27  C   UNL     1      40.904  13.048 114.105  1.00  0.00     0.036 C 
ATOM     28  C   UNL     1      41.399  15.516 113.597  1.00  0.00     0.032 C 
ATOM     29  C   UNL     1      41.894  14.224 114.273  1.00  0.00     0.114 C 
BRANCH  29  30
ATOM     30  O   UNL     1      42.094  14.476 115.638  1.00  0.00    -0.393 OA
ATOM     31  H   UNL     1      41.716  15.374 115.829  1.00  0.00     0.210 HD
ENDBRANCH  29  30
ENDBRANCH   1  11
TORSDOF 6
ENDMDL
MODEL 3
REMARK VINA RESULT:    -6.361      4.306      8.367
REMARK INTER + INTRA:          -9.437
REMARK INTER:                  -8.201
REMARK INTRA:                  -1.236
REMARK UNBOUND:                -1.031
REMARK SMILES CC[C@@H](C=C[C@H](C)[C@H]1CC[C@@H]2C3=CC[C@H]4C[C@H](O)CC[C@@]4(C)[C@@H]3CC[C@@]21C)C(C)C
REMARK SMILES IDX 6 1 7 2 5 3 4 4 3 5 2 6 1 7 28 8 29 9 30 10 8 11 9 12 26 13
REMARK SMILES IDX 10 14 11 15 25 16 27 17 12 18 24 19 23 20 13 21 21 22 14 23
REMARK SMILES IDX 15 24 20 25 22 26 16 27 19 28 17 29 18 30
REMARK H PARENT 18 31
REMARK Flexibility Score: inf
ROOT
ATOM      1  C   UNL     1      40.259  14.373 105.460  1.00  0.00     0.012 C 
ATOM      2  C   UNL     1      40.861  14.791 104.097  1.00  0.00     0.012 C 
ENDROOT
BRANCH   1   3
ATOM      3  C   UNL     1      40.372  12.865 105.647  1.00  0.00    -0.028 C 
ATOM      4  C   UNL     1      39.302  12.052 105.658  1.00  0.00    -0.027 C 
BRANCH   4   5
ATOM      5  C   UNL     1      39.412  10.547 105.836  1.00  0.00     0.014 C 
BRANCH   5   6
ATOM      6  C   UNL     1      39.148   9.811 104.493  1.00  0.00     0.004 C 
ATOM      7  C   UNL     1      40.378   9.123 103.885  1.00  0.00     0.004 C 
ENDBRANCH   5   6
BRANCH   5   8
ATOM      8  C   UNL     1      38.550   9.967 107.014  1.00  0.00    -0.011 C 
ATOM      9  C   UNL     1      37.617  11.028 107.623  1.00  0.00     0.008 C 
ATOM     10  C   UNL     1      37.742   8.707 106.652  1.00  0.00     0.008 C 
ENDBRANCH   5   8
ENDBRANCH   4   5
ENDBRANCH   1   3
BRANCH   1  11
ATOM     11  C   UNL     1      40.776  15.124 106.730  1.00  0.00     0.002 C 
ATOM     12  C   UNL     1      41.546  16.420 106.491  1.00  0.00     0.005 C 
ATOM     13  C   UNL     1      39.753  15.443 107.864  1.00  0.00    -0.023 C 
ATOM     14  C   UNL     1      41.673  17.062 107.866  1.00  0.00     0.009 C 
ATOM     15  C   UNL     1      40.513  16.504 108.722  1.00  0.00     0.021 C 
ATOM     16  C   UNL     1      39.401  14.150 108.683  1.00  0.00     0.008 C 
ATOM     17  C   UNL     1      38.435  16.062 107.338  1.00  0.00     0.012 C 
ATOM     18  C   UNL     1      40.846  15.938 110.099  1.00  0.00    -0.067 C 
ATOM     19  C   UNL     1      38.859  14.435 110.110  1.00  0.00     0.009 C 
ATOM     20  C   UNL     1      39.599  15.586 110.877  1.00  0.00     0.021 C 
ATOM     21  C   UNL     1      42.008  15.310 110.389  1.00  0.00    -0.027 C 
ATOM     22  C   UNL     1      39.869  15.316 112.400  1.00  0.00    -0.023 C 
ATOM     23  C   UNL     1      42.293  14.701 111.736  1.00  0.00     0.031 C 
ATOM     24  C   UNL     1      41.034  14.290 112.549  1.00  0.00     0.002 C 
ATOM     25  C   UNL     1      40.279  16.651 113.102  1.00  0.00     0.010 C 
ATOM     26  C   UNL     1      38.555  14.787 113.056  1.00  0.00     0.012 C 
ATOM     27  C   UNL     1      41.400  14.063 114.036  1.00  0.00     0.036 C 
ATOM     28  C   UNL     1      40.686  16.470 114.578  1.00  0.00     0.032 C 
ATOM     29  C   UNL     1      41.746  15.372 114.784  1.00  0.00     0.114 C 
BRANCH  29  30
ATOM     30  O   UNL     1      41.863  15.109 116.157  1.00  0.00    -0.393 OA
ATOM     31  H   UNL     1      40.948  14.946 116.503  1.00  0.00     0.210 HD
ENDBRANCH  29  30
ENDBRANCH   1  11
TORSDOF 6
ENDMDL
MODEL 4
REMARK VINA RESULT:    -6.298      8.040      9.793
REMARK INTER + INTRA:          -9.354
REMARK INTER:                  -7.949
REMARK INTRA:                  -1.406
REMARK UNBOUND:                -1.031
REMARK SMILES CC[C@@H](C=C[C@H](C)[C@H]1CC[C@@H]2C3=CC[C@H]4C[C@H](O)CC[C@@]4(C)[C@@H]3CC[C@@]21C)C(C)C
REMARK SMILES IDX 6 1 7 2 5 3 4 4 3 5 2 6 1 7 28 8 29 9 30 10 8 11 9 12 26 13
REMARK SMILES IDX 10 14 11 15 25 16 27 17 12 18 24 19 23 20 13 21 21 22 14 23
REMARK SMILES IDX 15 24 20 25 22 26 16 27 19 28 17 29 18 30
REMARK H PARENT 18 31
REMARK Flexibility Score: inf
ROOT
ATOM      1  C   UNL     1      36.199   3.156 114.969  1.00  0.00     0.012 C 
ATOM      2  C   UNL     1      35.459   2.327 116.046  1.00  0.00     0.012 C 
ENDROOT
BRANCH   1   3
ATOM      3  C   UNL     1      37.700   3.134 115.224  1.00  0.00    -0.028 C 
ATOM      4  C   UNL     1      38.600   2.892 114.255  1.00  0.00    -0.027 C 
BRANCH   4   5
ATOM      5  C   UNL     1      40.099   2.878 114.506  1.00  0.00     0.014 C 
BRANCH   5   6
ATOM      6  C   UNL     1      40.837   3.786 113.484  1.00  0.00     0.004 C 
ATOM      7  C   UNL     1      40.804   5.284 113.815  1.00  0.00     0.004 C 
ENDBRANCH   5   6
BRANCH   5   8
ATOM      8  C   UNL     1      40.729   1.443 114.594  1.00  0.00    -0.011 C 
ATOM      9  C   UNL     1      42.098   1.369 113.893  1.00  0.00     0.008 C 
ATOM     10  C   UNL     1      40.844   0.883 116.024  1.00  0.00     0.008 C 
ENDBRANCH   5   8
ENDBRANCH   4   5
ENDBRANCH   1   3
BRANCH   1  11
ATOM     11  C   UNL     1      35.891   2.820 113.473  1.00  0.00     0.002 C 
ATOM     12  C   UNL     1      34.958   1.640 113.216  1.00  0.00     0.005 C 
ATOM     13  C   UNL     1      35.382   3.971 112.551  1.00  0.00    -0.023 C 
ATOM     14  C   UNL     1      34.620   1.722 111.733  1.00  0.00     0.009 C 
ATOM     15  C   UNL     1      34.821   3.196 111.316  1.00  0.00     0.021 C 
ATOM     16  C   UNL     1      36.554   4.943 112.167  1.00  0.00     0.008 C 
ATOM     17  C   UNL     1      34.245   4.804 113.189  1.00  0.00     0.012 C 
ATOM     18  C   UNL     1      35.667   3.481 110.078  1.00  0.00    -0.067 C 
ATOM     19  C   UNL     1      36.300   5.757 110.869  1.00  0.00     0.009 C 
ATOM     20  C   UNL     1      35.636   4.946 109.703  1.00  0.00     0.021 C 
ATOM     21  C   UNL     1      36.720   2.722 109.700  1.00  0.00    -0.027 C 
ATOM     22  C   UNL     1      36.207   5.234 108.269  1.00  0.00    -0.023 C 
ATOM     23  C   UNL     1      37.582   3.056 108.511  1.00  0.00     0.031 C 
ATOM     24  C   UNL     1      37.605   4.560 108.120  1.00  0.00     0.002 C 
ATOM     25  C   UNL     1      35.242   4.641 107.193  1.00  0.00     0.010 C 
ATOM     26  C   UNL     1      36.296   6.780 108.068  1.00  0.00     0.012 C 
ATOM     27  C   UNL     1      38.168   4.738 106.689  1.00  0.00     0.036 C 
ATOM     28  C   UNL     1      35.777   4.765 105.752  1.00  0.00     0.032 C 
ATOM     29  C   UNL     1      37.210   4.224 105.589  1.00  0.00     0.114 C 
BRANCH  29  30
ATOM     30  O   UNL     1      37.696   4.605 104.330  1.00  0.00    -0.393 OA
ATOM     31  H   UNL     1      38.663   4.384 104.310  1.00  0.00     0.210 HD
ENDBRANCH  29  30
ENDBRANCH   1  11
TORSDOF 6
ENDMDL
MODEL 5
REMARK VINA RESULT:    -6.061      3.760      8.493
REMARK INTER + INTRA:          -9.041
REMARK INTER:                  -7.776
REMARK INTRA:                  -1.265
REMARK UNBOUND:                -1.031
REMARK SMILES CC[C@@H](C=C[C@H](C)[C@H]1CC[C@@H]2C3=CC[C@H]4C[C@H](O)CC[C@@]4(C)[C@@H]3CC[C@@]21C)C(C)C
REMARK SMILES IDX 6 1 7 2 5 3 4 4 3 5 2 6 1 7 28 8 29 9 30 10 8 11 9 12 26 13
REMARK SMILES IDX 10 14 11 15 25 16 27 17 12 18 24 19 23 20 13 21 21 22 14 23
REMARK SMILES IDX 15 24 20 25 22 26 16 27 19 28 17 29 18 30
REMARK H PARENT 18 31
REMARK Flexibility Score: inf
ROOT
ATOM      1  C   UNL     1      38.933  11.079 105.935  1.00  0.00     0.012 C 
ATOM      2  C   UNL     1      39.550  10.093 104.914  1.00  0.00     0.012 C 
ENDROOT
BRANCH   1   3
ATOM      3  C   UNL     1      37.825  10.397 106.726  1.00  0.00    -0.028 C 
ATOM      4  C   UNL     1      36.522  10.657 106.527  1.00  0.00    -0.027 C 
BRANCH   4   5
ATOM      5  C   UNL     1      35.415   9.972 107.310  1.00  0.00     0.014 C 
BRANCH   5   6
ATOM      6  C   UNL     1      34.325   9.414 106.352  1.00  0.00     0.004 C 
ATOM      7  C   UNL     1      34.062   7.908 106.486  1.00  0.00     0.004 C 
ENDBRANCH   5   6
BRANCH   5   8
ATOM      8  C   UNL     1      34.804  10.840 108.467  1.00  0.00    -0.011 C 
ATOM      9  C   UNL     1      35.377  10.454 109.843  1.00  0.00     0.008 C 
ATOM     10  C   UNL     1      34.929  12.360 108.258  1.00  0.00     0.008 C 
ENDBRANCH   5   8
ENDBRANCH   4   5
ENDBRANCH   1   3
BRANCH   1  11
ATOM     11  C   UNL     1      39.918  11.822 106.896  1.00  0.00     0.002 C 
ATOM     12  C   UNL     1      41.171  12.419 106.261  1.00  0.00     0.005 C 
ATOM     13  C   UNL     1      39.341  12.937 107.822  1.00  0.00    -0.023 C 
ATOM     14  C   UNL     1      41.780  13.299 107.345  1.00  0.00     0.009 C 
ATOM     15  C   UNL     1      40.626  13.685 108.299  1.00  0.00     0.021 C 
ATOM     16  C   UNL     1      38.532  12.314 109.015  1.00  0.00     0.008 C 
ATOM     17  C   UNL     1      38.420  13.933 107.075  1.00  0.00     0.012 C 
ATOM     18  C   UNL     1      40.836  13.482 109.797  1.00  0.00    -0.067 C 
ATOM     19  C   UNL     1      38.397  13.252 110.245  1.00  0.00     0.009 C 
ATOM     20  C   UNL     1      39.695  14.054 110.606  1.00  0.00     0.021 C 
ATOM     21  C   UNL     1      41.585  12.484 110.319  1.00  0.00    -0.027 C 
ATOM     22  C   UNL     1      40.013  14.169 112.139  1.00  0.00    -0.023 C 
ATOM     23  C   UNL     1      41.728  12.261 111.801  1.00  0.00     0.031 C 
ATOM     24  C   UNL     1      40.553  12.803 112.662  1.00  0.00     0.002 C 
ATOM     25  C   UNL     1      41.105  15.264 112.366  1.00  0.00     0.010 C 
ATOM     26  C   UNL     1      38.712  14.592 112.890  1.00  0.00     0.012 C 
ATOM     27  C   UNL     1      40.970  12.893 114.150  1.00  0.00     0.036 C 
ATOM     28  C   UNL     1      41.576  15.368 113.830  1.00  0.00     0.032 C 
ATOM     29  C   UNL     1      42.000  14.013 114.428  1.00  0.00     0.114 C 
BRANCH  29  30
ATOM     30  O   UNL     1      42.167  14.163 115.812  1.00  0.00    -0.393 OA
ATOM     31  H   UNL     1      42.638  15.024 115.959  1.00  0.00     0.210 HD
ENDBRANCH  29  30
ENDBRANCH   1  11
TORSDOF 6
ENDMDL
MODEL 6
REMARK VINA RESULT:    -5.988      2.552      3.750
REMARK INTER + INTRA:          -8.944
REMARK INTER:                  -9.009
REMARK INTRA:                   0.065
REMARK UNBOUND:                -1.031
REMARK SMILES CC[C@@H](C=C[C@H](C)[C@H]1CC[C@@H]2C3=CC[C@H]4C[C@H](O)CC[C@@]4(C)[C@@H]3CC[C@@]21C)C(C)C
REMARK SMILES IDX 6 1 7 2 5 3 4 4 3 5 2 6 1 7 28 8 29 9 30 10 8 11 9 12 26 13
REMARK SMILES IDX 10 14 11 15 25 16 27 17 12 18 24 19 23 20 13 21 21 22 14 23
REMARK SMILES IDX 15 24 20 25 22 26 16 27 19 28 17 29 18 30
REMARK H PARENT 18 31
REMARK Flexibility Score: inf
ROOT
ATOM      1  C   UNL     1      42.174  10.631 113.631  1.00  0.00     0.012 C 
ATOM      2  C   UNL     1      43.041  10.017 112.506  1.00  0.00     0.012 C 
ENDROOT
BRANCH   1   3
ATOM      3  C   UNL     1      42.978  10.735 114.921  1.00  0.00    -0.028 C 
ATOM      4  C   UNL     1      43.629   9.689 115.459  1.00  0.00    -0.027 C 
BRANCH   4   5
ATOM      5  C   UNL     1      44.438   9.793 116.741  1.00  0.00     0.014 C 
BRANCH   5   6
ATOM      6  C   UNL     1      45.811   9.083 116.585  1.00  0.00     0.004 C 
ATOM      7  C   UNL     1      47.031  10.001 116.741  1.00  0.00     0.004 C 
ENDBRANCH   5   6
BRANCH   5   8
ATOM      8  C   UNL     1      43.672   9.334 118.032  1.00  0.00    -0.011 C 
ATOM      9  C   UNL     1      44.458   8.274 118.824  1.00  0.00     0.008 C 
ATOM     10  C   UNL     1      43.256  10.484 118.969  1.00  0.00     0.008 C 
ENDBRANCH   5   8
ENDBRANCH   4   5
ENDBRANCH   1   3
BRANCH   1  11
ATOM     11  C   UNL     1      41.454  11.984 113.322  1.00  0.00     0.002 C 
ATOM     12  C   UNL     1      41.932  13.205 114.103  1.00  0.00     0.005 C 
ATOM     13  C   UNL     1      41.360  12.444 111.834  1.00  0.00    -0.023 C 
ATOM     14  C   UNL     1      41.275  14.395 113.413  1.00  0.00     0.009 C 
ATOM     15  C   UNL     1      40.968  13.950 111.966  1.00  0.00     0.021 C 
ATOM     16  C   UNL     1      40.281  11.609 111.056  1.00  0.00     0.008 C 
ATOM     17  C   UNL     1      42.705  12.332 111.076  1.00  0.00     0.012 C 
ATOM     18  C   UNL     1      39.559  14.183 111.429  1.00  0.00    -0.067 C 
ATOM     19  C   UNL     1      39.729  12.315 109.788  1.00  0.00     0.009 C 
ATOM     20  C   UNL     1      39.458  13.851 109.957  1.00  0.00     0.021 C 
ATOM     21  C   UNL     1      38.447  14.135 112.197  1.00  0.00    -0.027 C 
ATOM     22  C   UNL     1      38.139  14.380 109.287  1.00  0.00    -0.023 C 
ATOM     23  C   UNL     1      37.059  14.304 111.637  1.00  0.00     0.031 C 
ATOM     24  C   UNL     1      36.909  13.935 110.135  1.00  0.00     0.002 C 
ATOM     25  C   UNL     1      38.174  15.942 109.229  1.00  0.00     0.010 C 
ATOM     26  C   UNL     1      38.060  13.824 107.831  1.00  0.00     0.012 C 
ATOM     27  C   UNL     1      35.591  14.513 109.565  1.00  0.00     0.036 C 
ATOM     28  C   UNL     1      36.868  16.566 108.698  1.00  0.00     0.032 C 
ATOM     29  C   UNL     1      35.612  16.054 109.427  1.00  0.00     0.114 C 
BRANCH  29  30
ATOM     30  O   UNL     1      34.476  16.475 108.720  1.00  0.00    -0.393 OA
ATOM     31  H   UNL     1      34.497  17.467 108.696  1.00  0.00     0.210 HD
ENDBRANCH  29  30
ENDBRANCH   1  11
TORSDOF 6
ENDMDL
MODEL 7
REMARK VINA RESULT:    -5.985      8.176     10.700
REMARK INTER + INTRA:          -8.941
REMARK INTER:                  -7.635
REMARK INTRA:                  -1.306
REMARK UNBOUND:                -1.031
REMARK SMILES CC[C@@H](C=C[C@H](C)[C@H]1CC[C@@H]2C3=CC[C@H]4C[C@H](O)CC[C@@]4(C)[C@@H]3CC[C@@]21C)C(C)C
REMARK SMILES IDX 6 1 7 2 5 3 4 4 3 5 2 6 1 7 28 8 29 9 30 10 8 11 9 12 26 13
REMARK SMILES IDX 10 14 11 15 25 16 27 17 12 18 24 19 23 20 13 21 21 22 14 23
REMARK SMILES IDX 15 24 20 25 22 26 16 27 19 28 17 29 18 30
REMARK H PARENT 18 31
REMARK Flexibility Score: inf
ROOT
ATOM      1  C   UNL     1      39.880   0.713 115.394  1.00  0.00     0.012 C 
ATOM      2  C   UNL     1      39.937  -0.575 116.250  1.00  0.00     0.012 C 
ENDROOT
BRANCH   1   3
ATOM      3  C   UNL     1      41.196   0.916 114.656  1.00  0.00    -0.028 C 
ATOM      4  C   UNL     1      41.464   0.337 113.473  1.00  0.00    -0.027 C 
BRANCH   4   5
ATOM      5  C   UNL     1      42.773   0.544 112.730  1.00  0.00     0.014 C 
BRANCH   5   6
ATOM      6  C   UNL     1      42.684   1.776 111.788  1.00  0.00     0.004 C 
ATOM      7  C   UNL     1      43.027   3.118 112.450  1.00  0.00     0.004 C 
ENDBRANCH   5   6
BRANCH   5   8
ATOM      8  C   UNL     1      43.311  -0.733 111.993  1.00  0.00    -0.011 C 
ATOM      9  C   UNL     1      44.832  -0.901 112.163  1.00  0.00     0.008 C 
ATOM     10  C   UNL     1      42.595  -2.041 112.379  1.00  0.00     0.008 C 
ENDBRANCH   5   8
ENDBRANCH   4   5
ENDBRANCH   1   3
BRANCH   1  11
ATOM     11  C   UNL     1      38.671   0.868 114.414  1.00  0.00     0.002 C 
ATOM     12  C   UNL     1      37.435   0.024 114.717  1.00  0.00     0.005 C 
ATOM     13  C   UNL     1      38.140   2.305 114.121  1.00  0.00    -0.023 C 
ATOM     14  C   UNL     1      36.350   0.573 113.800  1.00  0.00     0.009 C 
ATOM     15  C   UNL     1      36.748   2.029 113.468  1.00  0.00     0.021 C 
ATOM     16  C   UNL     1      39.112   3.076 113.158  1.00  0.00     0.008 C 
ATOM     17  C   UNL     1      37.944   3.155 115.400  1.00  0.00     0.012 C 
ATOM     18  C   UNL     1      36.753   2.454 112.002  1.00  0.00    -0.067 C 
ATOM     19  C   UNL     1      38.441   4.246 112.387  1.00  0.00     0.009 C 
ATOM     20  C   UNL     1      37.000   3.938 111.850  1.00  0.00     0.021 C 
ATOM     21  C   UNL     1      37.063   1.622 110.982  1.00  0.00    -0.027 C 
ATOM     22  C   UNL     1      36.689   4.477 110.408  1.00  0.00    -0.023 C 
ATOM     23  C   UNL     1      37.124   2.076 109.548  1.00  0.00     0.031 C 
ATOM     24  C   UNL     1      37.415   3.590 109.352  1.00  0.00     0.002 C 
ATOM     25  C   UNL     1      35.149   4.414 110.148  1.00  0.00     0.010 C 
ATOM     26  C   UNL     1      37.153   5.965 110.320  1.00  0.00     0.012 C 
ATOM     27  C   UNL     1      37.062   4.026 107.909  1.00  0.00     0.036 C 
ATOM     28  C   UNL     1      34.751   4.808 108.712  1.00  0.00     0.032 C 
ATOM     29  C   UNL     1      35.540   4.043 107.633  1.00  0.00     0.114 C 
BRANCH  29  30
ATOM     30  O   UNL     1      35.297   4.639 106.387  1.00  0.00    -0.393 OA
ATOM     31  H   UNL     1      34.517   5.243 106.499  1.00  0.00     0.210 HD
ENDBRANCH  29  30
ENDBRANCH   1  11
TORSDOF 6
ENDMDL
MODEL 8
REMARK VINA RESULT:    -5.921      8.157     12.098
REMARK INTER + INTRA:          -8.856
REMARK INTER:                  -7.427
REMARK INTRA:                  -1.429
REMARK UNBOUND:                -1.031
REMARK SMILES CC[C@@H](C=C[C@H](C)[C@H]1CC[C@@H]2C3=CC[C@H]4C[C@H](O)CC[C@@]4(C)[C@@H]3CC[C@@]21C)C(C)C
REMARK SMILES IDX 6 1 7 2 5 3 4 4 3 5 2 6 1 7 28 8 29 9 30 10 8 11 9 12 26 13
REMARK SMILES IDX 10 14 11 15 25 16 27 17 12 18 24 19 23 20 13 21 21 22 14 23
REMARK SMILES IDX 15 24 20 25 22 26 16 27 19 28 17 29 18 30
REMARK H PARENT 18 31
REMARK Flexibility Score: inf
ROOT
ATOM      1  C   UNL     1      33.882   4.490 113.490  1.00  0.00     0.012 C 
ATOM      2  C   UNL     1      33.059   5.448 114.384  1.00  0.00     0.012 C 
ENDROOT
BRANCH   1   3
ATOM      3  C   UNL     1      34.189   5.149 112.151  1.00  0.00    -0.028 C 
ATOM      4  C   UNL     1      34.959   6.245 112.039  1.00  0.00    -0.027 C 
BRANCH   4   5
ATOM      5  C   UNL     1      35.273   6.899 110.704  1.00  0.00     0.014 C 
BRANCH   5   6
ATOM      6  C   UNL     1      34.159   6.595 109.665  1.00  0.00     0.004 C 
ATOM      7  C   UNL     1      33.595   7.829 108.949  1.00  0.00     0.004 C 
ENDBRANCH   5   6
BRANCH   5   8
ATOM      8  C   UNL     1      36.708   6.585 110.150  1.00  0.00    -0.011 C 
ATOM      9  C   UNL     1      37.730   6.368 111.281  1.00  0.00     0.008 C 
ATOM     10  C   UNL     1      36.767   5.406 109.161  1.00  0.00     0.008 C 
ENDBRANCH   5   8
ENDBRANCH   4   5
ENDBRANCH   1   3
BRANCH   1  11
ATOM     11  C   UNL     1      35.178   3.872 114.108  1.00  0.00     0.002 C 
ATOM     12  C   UNL     1      35.117   3.495 115.586  1.00  0.00     0.005 C 
ATOM     13  C   UNL     1      35.827   2.650 113.387  1.00  0.00    -0.023 C 
ATOM     14  C   UNL     1      36.379   2.680 115.837  1.00  0.00     0.009 C 
ATOM     15  C   UNL     1      36.801   2.090 114.472  1.00  0.00     0.021 C 
ATOM     16  C   UNL     1      36.577   3.101 112.083  1.00  0.00     0.008 C 
ATOM     17  C   UNL     1      34.803   1.553 113.007  1.00  0.00     0.012 C 
ATOM     18  C   UNL     1      38.251   2.270 114.031  1.00  0.00    -0.067 C 
ATOM     19  C   UNL     1      37.677   2.111 111.612  1.00  0.00     0.009 C 
ATOM     20  C   UNL     1      38.551   1.502 112.764  1.00  0.00     0.021 C 
ATOM     21  C   UNL     1      39.000   3.352 114.345  1.00  0.00    -0.027 C 
ATOM     22  C   UNL     1      40.086   1.384 112.455  1.00  0.00    -0.023 C 
ATOM     23  C   UNL     1      40.409   3.541 113.847  1.00  0.00     0.031 C 
ATOM     24  C   UNL     1      40.741   2.797 112.524  1.00  0.00     0.002 C 
ATOM     25  C   UNL     1      40.763   0.460 113.518  1.00  0.00     0.010 C 
ATOM     26  C   UNL     1      40.264   0.742 111.043  1.00  0.00     0.012 C 
ATOM     27  C   UNL     1      42.274   2.719 112.318  1.00  0.00     0.036 C 
ATOM     28  C   UNL     1      42.295   0.378 113.374  1.00  0.00     0.032 C 
ATOM     29  C   UNL     1      42.973   1.759 113.309  1.00  0.00     0.114 C 
BRANCH  29  30
ATOM     30  O   UNL     1      44.313   1.588 112.929  1.00  0.00    -0.393 OA
ATOM     31  H   UNL     1      44.743   2.482 112.963  1.00  0.00     0.210 HD
ENDBRANCH  29  30
ENDBRANCH   1  11
TORSDOF 6
ENDMDL
MODEL 9
REMARK VINA RESULT:    -5.764      1.651      2.433
REMARK INTER + INTRA:          -8.648
REMARK INTER:                  -8.609
REMARK INTRA:                  -0.039
REMARK UNBOUND:                -1.031
REMARK SMILES CC[C@@H](C=C[C@H](C)[C@H]1CC[C@@H]2C3=CC[C@H]4C[C@H](O)CC[C@@]4(C)[C@@H]3CC[C@@]21C)C(C)C
REMARK SMILES IDX 6 1 7 2 5 3 4 4 3 5 2 6 1 7 28 8 29 9 30 10 8 11 9 12 26 13
REMARK SMILES IDX 10 14 11 15 25 16 27 17 12 18 24 19 23 20 13 21 21 22 14 23
REMARK SMILES IDX 15 24 20 25 22 26 16 27 19 28 17 29 18 30
REMARK H PARENT 18 31
REMARK Flexibility Score: inf
ROOT
ATOM      1  C   UNL     1      42.675  11.751 113.971  1.00  0.00     0.012 C 
ATOM      2  C   UNL     1      42.250  12.613 115.185  1.00  0.00     0.012 C 
ENDROOT
BRANCH   1   3
ATOM      3  C   UNL     1      42.848  10.297 114.390  1.00  0.00    -0.028 C 
ATOM      4  C   UNL     1      43.560   9.931 115.470  1.00  0.00    -0.027 C 
BRANCH   4   5
ATOM      5  C   UNL     1      43.726   8.481 115.894  1.00  0.00     0.014 C 
BRANCH   5   6
ATOM      6  C   UNL     1      43.747   8.358 117.443  1.00  0.00     0.004 C 
ATOM      7  C   UNL     1      43.465   9.666 118.195  1.00  0.00     0.004 C 
ENDBRANCH   5   6
BRANCH   5   8
ATOM      8  C   UNL     1      44.937   7.742 115.221  1.00  0.00    -0.011 C 
ATOM      9  C   UNL     1      45.991   7.300 116.252  1.00  0.00     0.008 C 
ATOM     10  C   UNL     1      44.542   6.547 114.334  1.00  0.00     0.008 C 
ENDBRANCH   5   8
ENDBRANCH   4   5
ENDBRANCH   1   3
BRANCH   1  11
ATOM     11  C   UNL     1      41.798  11.851 112.681  1.00  0.00     0.002 C 
ATOM     12  C   UNL     1      40.740  10.767 112.489  1.00  0.00     0.005 C 
ATOM     13  C   UNL     1      41.077  13.202 112.384  1.00  0.00    -0.023 C 
ATOM     14  C   UNL     1      39.874  11.261 111.337  1.00  0.00     0.009 C 
ATOM     15  C   UNL     1      40.027  12.799 111.300  1.00  0.00     0.021 C 
ATOM     16  C   UNL     1      42.095  14.278 111.861  1.00  0.00     0.008 C 
ATOM     17  C   UNL     1      40.340  13.783 113.615  1.00  0.00     0.012 C 
ATOM     18  C   UNL     1      40.363  13.453 109.963  1.00  0.00    -0.067 C 
ATOM     19  C   UNL     1      41.439  15.423 111.043  1.00  0.00     0.009 C 
ATOM     20  C   UNL     1      40.317  14.961 110.049  1.00  0.00     0.021 C 
ATOM     21  C   UNL     1      41.127  12.866 109.013  1.00  0.00    -0.027 C 
ATOM     22  C   UNL     1      40.326  15.667 108.646  1.00  0.00    -0.023 C 
ATOM     23  C   UNL     1      41.500  13.553 107.726  1.00  0.00     0.031 C 
ATOM     24  C   UNL     1      41.501  15.106 107.788  1.00  0.00     0.002 C 
ATOM     25  C   UNL     1      38.979  15.379 107.908  1.00  0.00     0.010 C 
ATOM     26  C   UNL     1      40.463  17.207 108.861  1.00  0.00     0.012 C 
ATOM     27  C   UNL     1      41.494  15.704 106.361  1.00  0.00     0.036 C 
ATOM     28  C   UNL     1      38.938  15.928 106.468  1.00  0.00     0.032 C 
ATOM     29  C   UNL     1      40.151  15.500 105.621  1.00  0.00     0.114 C 
BRANCH  29  30
ATOM     30  O   UNL     1      40.155  16.241 104.430  1.00  0.00    -0.393 OA
ATOM     31  H   UNL     1      39.487  16.967 104.535  1.00  0.00     0.210 HD
ENDBRANCH  29  30
ENDBRANCH   1  11
TORSDOF 6
ENDMDL
