MODEL 1
REMARK VINA RESULT:    -4.245      0.000      0.000
REMARK INTER + INTRA:          -5.023
REMARK INTER:                  -4.989
REMARK INTRA:                  -0.034
REMARK UNBOUND:                -0.034
REMARK SMILES O=C([O-])CCC(=O)[O-]
REMARK SMILES IDX 4 1 2 2 1 3 3 4 5 5 6 6 7 7 8 8
REMARK H PARENT
REMARK Flexibility Score: inf
ROOT
ATOM      1  C   UNL     1      -2.188   4.573   5.257  1.00  0.00     0.059 C 
ENDROOT
BRANCH   1   2
ATOM      2  C   UNL     1      -2.344   3.225   5.885  1.00  0.00     0.042 C 
ATOM      3  O   UNL     1      -2.110   3.067   7.113  1.00  0.00    -0.550 OA
ATOM      4  O   UNL     1      -2.700   2.132   5.106  1.00  0.00    -0.550 OA
ENDBRANCH   1   2
BRANCH   1   5
ATOM      5  C   UNL     1      -3.482   5.378   5.386  1.00  0.00     0.059 C 
BRANCH   5   6
ATOM      6  C   UNL     1      -3.359   6.686   4.672  1.00  0.00     0.042 C 
ATOM      7  O   UNL     1      -2.415   6.880   3.861  1.00  0.00    -0.550 OA
ATOM      8  O   UNL     1      -4.314   7.677   4.865  1.00  0.00    -0.550 OA
ENDBRANCH   5   6
ENDBRANCH   1   5
TORSDOF 3
ENDMDL
MODEL 2
REMARK VINA RESULT:    -4.236      0.273      4.297
REMARK INTER + INTRA:          -5.013
REMARK INTER:                  -4.979
REMARK INTRA:                  -0.034
REMARK UNBOUND:                -0.034
REMARK SMILES O=C([O-])CCC(=O)[O-]
REMARK SMILES IDX 4 1 2 2 1 3 3 4 5 5 6 6 7 7 8 8
REMARK H PARENT
REMARK Flexibility Score: inf
ROOT
ATOM      1  C   UNL     1      -3.540   5.477   5.564  1.00  0.00     0.059 C 
ENDROOT
BRANCH   1   2
ATOM      2  C   UNL     1      -3.502   6.763   4.802  1.00  0.00     0.042 C 
ATOM      3  O   UNL     1      -2.748   6.884   3.799  1.00  0.00    -0.550 OA
ATOM      4  O   UNL     1      -4.260   7.847   5.227  1.00  0.00    -0.550 OA
ENDBRANCH   1   2
BRANCH   1   5
ATOM      5  C   UNL     1      -2.346   4.597   5.190  1.00  0.00     0.059 C 
BRANCH   5   6
ATOM      6  C   UNL     1      -2.446   3.265   5.862  1.00  0.00     0.042 C 
ATOM      7  O   UNL     1      -2.500   2.211   5.176  1.00  0.00    -0.550 OA
ATOM      8  O   UNL     1      -2.429   3.183   7.249  1.00  0.00    -0.550 OA
ENDBRANCH   5   6
ENDBRANCH   1   5
TORSDOF 3
ENDMDL
MODEL 3
REMARK VINA RESULT:    -4.020      1.421      4.449
REMARK INTER + INTRA:          -4.759
REMARK INTER:                  -4.691
REMARK INTRA:                  -0.068
REMARK UNBOUND:                -0.034
REMARK SMILES O=C([O-])CCC(=O)[O-]
REMARK SMILES IDX 4 1 2 2 1 3 3 4 5 5 6 6 7 7 8 8
REMARK H PARENT
REMARK Flexibility Score: inf
ROOT
ATOM      1  C   UNL     1      -3.661   6.736   4.412  1.00  0.00     0.059 C 
ENDROOT
BRANCH   1   2
ATOM      2  C   UNL     1      -3.968   8.120   4.890  1.00  0.00     0.042 C 
ATOM      3  O   UNL     1      -4.246   9.029   4.063  1.00  0.00    -0.550 OA
ATOM      4  O   UNL     1      -3.898   8.421   6.244  1.00  0.00    -0.550 OA
ENDBRANCH   1   2
BRANCH   1   5
ATOM      5  C   UNL     1      -3.821   5.729   5.552  1.00  0.00     0.059 C 
BRANCH   5   6
ATOM      6  C   UNL     1      -2.688   4.753   5.551  1.00  0.00     0.042 C 
ATOM      7  O   UNL     1      -1.673   4.960   4.835  1.00  0.00    -0.550 OA
ATOM      8  O   UNL     1      -2.730   3.638   6.379  1.00  0.00    -0.550 OA
ENDBRANCH   5   6
ENDBRANCH   1   5
TORSDOF 3
ENDMDL
MODEL 4
REMARK VINA RESULT:    -3.971      1.381      2.136
REMARK INTER + INTRA:          -4.701
REMARK INTER:                  -4.624
REMARK INTRA:                  -0.076
REMARK UNBOUND:                -0.034
REMARK SMILES O=C([O-])CCC(=O)[O-]
REMARK SMILES IDX 4 1 2 2 1 3 3 4 5 5 6 6 7 7 8 8
REMARK H PARENT
REMARK Flexibility Score: inf
ROOT
ATOM      1  C   UNL     1      -3.850   5.615   5.478  1.00  0.00     0.059 C 
ENDROOT
BRANCH   1   2
ATOM      2  C   UNL     1      -2.649   4.726   5.537  1.00  0.00     0.042 C 
ATOM      3  O   UNL     1      -1.645   4.967   4.815  1.00  0.00    -0.550 OA
ATOM      4  O   UNL     1      -2.655   3.602   6.354  1.00  0.00    -0.550 OA
ENDBRANCH   1   2
BRANCH   1   5
ATOM      5  C   UNL     1      -3.685   6.666   4.378  1.00  0.00     0.059 C 
BRANCH   5   6
ATOM      6  C   UNL     1      -4.016   8.027   4.901  1.00  0.00     0.042 C 
ATOM      7  O   UNL     1      -4.024   8.246   6.142  1.00  0.00    -0.550 OA
ATOM      8  O   UNL     1      -4.267   9.070   4.018  1.00  0.00    -0.550 OA
ENDBRANCH   5   6
ENDBRANCH   1   5
TORSDOF 3
ENDMDL
MODEL 5
REMARK VINA RESULT:    -3.768      3.224      4.813
REMARK INTER + INTRA:          -4.463
REMARK INTER:                  -4.430
REMARK INTRA:                  -0.033
REMARK UNBOUND:                -0.034
REMARK SMILES O=C([O-])CCC(=O)[O-]
REMARK SMILES IDX 4 1 2 2 1 3 3 4 5 5 6 6 7 7 8 8
REMARK H PARENT
REMARK Flexibility Score: inf
ROOT
ATOM      1  C   UNL     1      -4.437   7.693   6.489  1.00  0.00     0.059 C 
ENDROOT
BRANCH   1   2
ATOM      2  C   UNL     1      -4.056   7.447   5.064  1.00  0.00     0.042 C 
ATOM      3  O   UNL     1      -3.663   8.399   4.339  1.00  0.00    -0.550 OA
ATOM      4  O   UNL     1      -4.181   6.174   4.521  1.00  0.00    -0.550 OA
ENDBRANCH   1   2
BRANCH   1   5
ATOM      5  C   UNL     1      -5.253   6.521   7.036  1.00  0.00     0.059 C 
BRANCH   5   6
ATOM      6  C   UNL     1      -6.178   6.985   8.115  1.00  0.00     0.042 C 
ATOM      7  O   UNL     1      -7.379   6.603   8.128  1.00  0.00    -0.550 OA
ATOM      8  O   UNL     1      -5.705   7.800   9.136  1.00  0.00    -0.550 OA
ENDBRANCH   5   6
ENDBRANCH   1   5
TORSDOF 3
ENDMDL
MODEL 6
REMARK VINA RESULT:    -3.766      3.035      4.337
REMARK INTER + INTRA:          -4.460
REMARK INTER:                  -4.427
REMARK INTRA:                  -0.034
REMARK UNBOUND:                -0.034
REMARK SMILES O=C([O-])CCC(=O)[O-]
REMARK SMILES IDX 4 1 2 2 1 3 3 4 5 5 6 6 7 7 8 8
REMARK H PARENT
REMARK Flexibility Score: inf
ROOT
ATOM      1  C   UNL     1      -5.128   6.508   7.027  1.00  0.00     0.059 C 
ENDROOT
BRANCH   1   2
ATOM      2  C   UNL     1      -6.070   7.007   8.076  1.00  0.00     0.042 C 
ATOM      3  O   UNL     1      -5.655   7.771   8.989  1.00  0.00    -0.550 OA
ATOM      4  O   UNL     1      -7.395   6.590   8.077  1.00  0.00    -0.550 OA
ENDBRANCH   1   2
BRANCH   1   5
ATOM      5  C   UNL     1      -4.541   7.677   6.234  1.00  0.00     0.059 C 
BRANCH   5   6
ATOM      6  C   UNL     1      -3.893   7.187   4.979  1.00  0.00     0.042 C 
ATOM      7  O   UNL     1      -3.141   7.948   4.314  1.00  0.00    -0.550 OA
ATOM      8  O   UNL     1      -4.079   5.873   4.568  1.00  0.00    -0.550 OA
ENDBRANCH   5   6
ENDBRANCH   1   5
TORSDOF 3
ENDMDL
MODEL 7
REMARK VINA RESULT:    -3.726     16.346     17.222
REMARK INTER + INTRA:          -4.413
REMARK INTER:                  -4.234
REMARK INTRA:                  -0.180
REMARK UNBOUND:                -0.034
REMARK SMILES O=C([O-])CCC(=O)[O-]
REMARK SMILES IDX 4 1 2 2 1 3 3 4 5 5 6 6 7 7 8 8
REMARK H PARENT
REMARK Flexibility Score: inf
ROOT
ATOM      1  C   UNL     1       2.100  -5.130  -6.706  1.00  0.00     0.059 C 
ENDROOT
BRANCH   1   2
ATOM      2  C   UNL     1       2.261  -5.055  -8.191  1.00  0.00     0.042 C 
ATOM      3  O   UNL     1       2.800  -6.005  -8.819  1.00  0.00    -0.550 OA
ATOM      4  O   UNL     1       1.862  -3.915  -8.877  1.00  0.00    -0.550 OA
ENDBRANCH   1   2
BRANCH   1   5
ATOM      5  C   UNL     1       0.643  -4.881  -6.312  1.00  0.00     0.059 C 
BRANCH   5   6
ATOM      6  C   UNL     1      -0.239  -5.958  -6.858  1.00  0.00     0.042 C 
ATOM      7  O   UNL     1      -0.032  -7.163  -6.552  1.00  0.00    -0.550 OA
ATOM      8  O   UNL     1      -1.321  -5.630  -7.665  1.00  0.00    -0.550 OA
ENDBRANCH   5   6
ENDBRANCH   1   5
TORSDOF 3
ENDMDL
MODEL 8
REMARK VINA RESULT:    -3.607     15.563     16.225
REMARK INTER + INTRA:          -4.273
REMARK INTER:                  -4.149
REMARK INTRA:                  -0.124
REMARK UNBOUND:                -0.034
REMARK SMILES O=C([O-])CCC(=O)[O-]
REMARK SMILES IDX 4 1 2 2 1 3 3 4 5 5 6 6 7 7 8 8
REMARK H PARENT
REMARK Flexibility Score: inf
ROOT
ATOM      1  C   UNL     1       0.218  -4.336  -6.404  1.00  0.00     0.059 C 
ENDROOT
BRANCH   1   2
ATOM      2  C   UNL     1       1.128  -5.523  -6.425  1.00  0.00     0.042 C 
ATOM      3  O   UNL     1       0.657  -6.685  -6.309  1.00  0.00    -0.550 OA
ATOM      4  O   UNL     1       2.503  -5.344  -6.523  1.00  0.00    -0.550 OA
ENDBRANCH   1   2
BRANCH   1   5
ATOM      5  C   UNL     1      -0.363  -4.082  -7.796  1.00  0.00     0.059 C 
BRANCH   5   6
ATOM      6  C   UNL     1       0.426  -3.030  -8.508  1.00  0.00     0.042 C 
ATOM      7  O   UNL     1       0.075  -1.822  -8.445  1.00  0.00    -0.550 OA
ATOM      8  O   UNL     1       1.579  -3.375  -9.202  1.00  0.00    -0.550 OA
ENDBRANCH   5   6
ENDBRANCH   1   5
TORSDOF 3
ENDMDL
MODEL 9
REMARK VINA RESULT:    -3.588     15.652     16.661
REMARK INTER + INTRA:          -4.251
REMARK INTER:                  -4.129
REMARK INTRA:                  -0.122
REMARK UNBOUND:                -0.034
REMARK SMILES O=C([O-])CCC(=O)[O-]
REMARK SMILES IDX 4 1 2 2 1 3 3 4 5 5 6 6 7 7 8 8
REMARK H PARENT
REMARK Flexibility Score: inf
ROOT
ATOM      1  C   UNL     1      -0.299  -4.025  -8.026  1.00  0.00     0.059 C 
ENDROOT
BRANCH   1   2
ATOM      2  C   UNL     1       0.582  -3.007  -8.679  1.00  0.00     0.042 C 
ATOM      3  O   UNL     1       1.656  -3.361  -9.234  1.00  0.00    -0.550 OA
ATOM      4  O   UNL     1       0.243  -1.661  -8.632  1.00  0.00    -0.550 OA
ENDBRANCH   1   2
BRANCH   1   5
ATOM      5  C   UNL     1       0.129  -4.252  -6.575  1.00  0.00     0.059 C 
BRANCH   5   6
ATOM      6  C   UNL     1       0.972  -5.482  -6.464  1.00  0.00     0.042 C 
ATOM      7  O   UNL     1       2.229  -5.389  -6.446  1.00  0.00    -0.550 OA
ATOM      8  O   UNL     1       0.372  -6.727  -6.331  1.00  0.00    -0.550 OA
ENDBRANCH   5   6
ENDBRANCH   1   5
TORSDOF 3
ENDMDL
