MODEL 1
REMARK VINA RESULT:    -5.159      0.000      0.000
REMARK INTER + INTRA:          -5.310
REMARK INTER:                  -5.310
REMARK INTRA:                   0.000
REMARK UNBOUND:                 0.000
REMARK SMILES Cc1cccc(O)c1C
REMARK SMILES IDX 1 1 2 2 8 3 6 4 5 5 4 6 3 7 9 8 7 9
REMARK H PARENT 7 10
REMARK Flexibility Score: inf
ROOT
ATOM      1  C   UNL     1      23.639  -1.513  24.628  1.00  0.00     0.045 C 
ATOM      2  C   UNL     1      24.936  -0.855  24.233  1.00  0.00    -0.045 A 
ATOM      3  C   UNL     1      25.886  -0.419  25.198  1.00  0.00    -0.006 A 
ATOM      4  C   UNL     1      27.086   0.193  24.754  1.00  0.00     0.118 A 
ATOM      5  C   UNL     1      27.323   0.361  23.387  1.00  0.00     0.046 A 
ATOM      6  C   UNL     1      26.389  -0.068  22.448  1.00  0.00     0.004 A 
ATOM      7  C   UNL     1      25.205  -0.671  22.865  1.00  0.00     0.004 A 
ATOM      8  C   UNL     1      25.652  -0.590  26.682  1.00  0.00     0.048 C 
ENDROOT
BRANCH   4   9
ATOM      9  O   UNL     1      28.064   0.646  25.644  1.00  0.00    -0.508 OA
ATOM     10  H   UNL     1      29.057   0.527  25.489  1.00  0.00     0.293 HD
ENDBRANCH   4   9
TORSDOF 1
ENDMDL
MODEL 2
REMARK VINA RESULT:    -4.936     10.001     11.374
REMARK INTER + INTRA:          -5.080
REMARK INTER:                  -5.080
REMARK INTRA:                   0.000
REMARK UNBOUND:                 0.000
REMARK SMILES Cc1cccc(O)c1C
REMARK SMILES IDX 1 1 2 2 8 3 6 4 5 5 4 6 3 7 9 8 7 9
REMARK H PARENT 7 10
REMARK Flexibility Score: inf
ROOT
ATOM      1  C   UNL     1      18.667  -4.884  27.655  1.00  0.00     0.045 C 
ATOM      2  C   UNL     1      18.436  -6.286  27.151  1.00  0.00    -0.045 A 
ATOM      3  C   UNL     1      17.366  -6.605  26.270  1.00  0.00    -0.006 A 
ATOM      4  C   UNL     1      17.208  -7.946  25.836  1.00  0.00     0.118 A 
ATOM      5  C   UNL     1      18.096  -8.933  26.273  1.00  0.00     0.046 A 
ATOM      6  C   UNL     1      19.141  -8.614  27.136  1.00  0.00     0.004 A 
ATOM      7  C   UNL     1      19.311  -7.302  27.573  1.00  0.00     0.004 A 
ATOM      8  C   UNL     1      16.393  -5.554  25.784  1.00  0.00     0.048 C 
ENDROOT
BRANCH   4   9
ATOM      9  O   UNL     1      16.181  -8.333  24.971  1.00  0.00    -0.508 OA
ATOM     10  H   UNL     1      16.308  -8.458  23.975  1.00  0.00     0.293 HD
ENDBRANCH   4   9
TORSDOF 1
ENDMDL
MODEL 3
REMARK VINA RESULT:    -4.828     12.748     14.400
REMARK INTER + INTRA:          -4.969
REMARK INTER:                  -4.969
REMARK INTRA:                   0.000
REMARK UNBOUND:                 0.000
REMARK SMILES Cc1cccc(O)c1C
REMARK SMILES IDX 1 1 2 2 8 3 6 4 5 5 4 6 3 7 9 8 7 9
REMARK H PARENT 7 10
REMARK Flexibility Score: inf
ROOT
ATOM      1  C   UNL     1      17.795  -5.296  31.859  1.00  0.00     0.045 C 
ATOM      2  C   UNL     1      17.180  -4.837  33.156  1.00  0.00    -0.045 A 
ATOM      3  C   UNL     1      17.542  -5.408  34.408  1.00  0.00    -0.006 A 
ATOM      4  C   UNL     1      16.923  -4.928  35.589  1.00  0.00     0.118 A 
ATOM      5  C   UNL     1      15.970  -3.907  35.516  1.00  0.00     0.046 A 
ATOM      6  C   UNL     1      15.620  -3.353  34.287  1.00  0.00     0.004 A 
ATOM      7  C   UNL     1      16.218  -3.813  33.117  1.00  0.00     0.004 A 
ATOM      8  C   UNL     1      18.570  -6.513  34.512  1.00  0.00     0.048 C 
ENDROOT
BRANCH   4   9
ATOM      9  O   UNL     1      17.229  -5.440  36.852  1.00  0.00    -0.508 OA
ATOM     10  H   UNL     1      17.788  -6.271  36.997  1.00  0.00     0.293 HD
ENDBRANCH   4   9
TORSDOF 1
ENDMDL
MODEL 4
REMARK VINA RESULT:    -4.827     10.396     11.308
REMARK INTER + INTRA:          -4.968
REMARK INTER:                  -4.968
REMARK INTRA:                   0.000
REMARK UNBOUND:                 0.000
REMARK SMILES Cc1cccc(O)c1C
REMARK SMILES IDX 1 1 2 2 8 3 6 4 5 5 4 6 3 7 9 8 7 9
REMARK H PARENT 7 10
REMARK Flexibility Score: inf
ROOT
ATOM      1  C   UNL     1      20.062  -7.682  28.045  1.00  0.00     0.045 C 
ATOM      2  C   UNL     1      18.862  -7.088  27.354  1.00  0.00    -0.045 A 
ATOM      3  C   UNL     1      18.051  -7.845  26.463  1.00  0.00    -0.006 A 
ATOM      4  C   UNL     1      16.937  -7.220  25.848  1.00  0.00     0.118 A 
ATOM      5  C   UNL     1      16.647  -5.880  26.117  1.00  0.00     0.046 A 
ATOM      6  C   UNL     1      17.445  -5.145  26.990  1.00  0.00     0.004 A 
ATOM      7  C   UNL     1      18.543  -5.741  27.603  1.00  0.00     0.004 A 
ATOM      8  C   UNL     1      18.344  -9.296  26.157  1.00  0.00     0.048 C 
ENDROOT
BRANCH   4   9
ATOM      9  O   UNL     1      16.096  -7.901  24.963  1.00  0.00    -0.508 OA
ATOM     10  H   UNL     1      15.641  -8.777  25.188  1.00  0.00     0.293 HD
ENDBRANCH   4   9
TORSDOF 1
ENDMDL
MODEL 5
REMARK VINA RESULT:    -4.630      9.837     10.609
REMARK INTER + INTRA:          -4.766
REMARK INTER:                  -4.766
REMARK INTRA:                   0.000
REMARK UNBOUND:                 0.000
REMARK SMILES Cc1cccc(O)c1C
REMARK SMILES IDX 1 1 2 2 8 3 6 4 5 5 4 6 3 7 9 8 7 9
REMARK H PARENT 7 10
REMARK Flexibility Score: inf
ROOT
ATOM      1  C   UNL     1      18.076  -9.312  26.148  1.00  0.00     0.045 C 
ATOM      2  C   UNL     1      17.965  -7.854  26.513  1.00  0.00    -0.045 A 
ATOM      3  C   UNL     1      18.859  -7.234  27.430  1.00  0.00    -0.006 A 
ATOM      4  C   UNL     1      18.694  -5.857  27.727  1.00  0.00     0.118 A 
ATOM      5  C   UNL     1      17.667  -5.128  27.124  1.00  0.00     0.046 A 
ATOM      6  C   UNL     1      16.795  -5.741  26.227  1.00  0.00     0.004 A 
ATOM      7  C   UNL     1      16.941  -7.092  25.923  1.00  0.00     0.004 A 
ATOM      8  C   UNL     1      19.978  -8.003  28.095  1.00  0.00     0.048 C 
ENDROOT
BRANCH   4   9
ATOM      9  O   UNL     1      19.535  -5.182  28.617  1.00  0.00    -0.508 OA
ATOM     10  H   UNL     1      19.322  -4.272  29.003  1.00  0.00     0.293 HD
ENDBRANCH   4   9
TORSDOF 1
ENDMDL
MODEL 6
REMARK VINA RESULT:    -4.568     13.428     15.222
REMARK INTER + INTRA:          -4.701
REMARK INTER:                  -4.701
REMARK INTRA:                   0.000
REMARK UNBOUND:                 0.000
REMARK SMILES Cc1cccc(O)c1C
REMARK SMILES IDX 1 1 2 2 8 3 6 4 5 5 4 6 3 7 9 8 7 9
REMARK H PARENT 7 10
REMARK Flexibility Score: inf
ROOT
ATOM      1  C   UNL     1      15.509  -1.050  32.698  1.00  0.00     0.045 C 
ATOM      2  C   UNL     1      15.202  -2.050  33.783  1.00  0.00    -0.045 A 
ATOM      3  C   UNL     1      15.928  -3.266  33.917  1.00  0.00    -0.006 A 
ATOM      4  C   UNL     1      15.584  -4.161  34.962  1.00  0.00     0.118 A 
ATOM      5  C   UNL     1      14.546  -3.845  35.842  1.00  0.00     0.046 A 
ATOM      6  C   UNL     1      13.839  -2.653  35.705  1.00  0.00     0.004 A 
ATOM      7  C   UNL     1      14.163  -1.762  34.685  1.00  0.00     0.004 A 
ATOM      8  C   UNL     1      17.055  -3.629  32.977  1.00  0.00     0.048 C 
ENDROOT
BRANCH   4   9
ATOM      9  O   UNL     1      16.253  -5.372  35.155  1.00  0.00    -0.508 OA
ATOM     10  H   UNL     1      17.198  -5.437  35.513  1.00  0.00     0.293 HD
ENDBRANCH   4   9
TORSDOF 1
ENDMDL
MODEL 7
REMARK VINA RESULT:    -4.535      9.958     11.304
REMARK INTER + INTRA:          -4.668
REMARK INTER:                  -4.668
REMARK INTRA:                   0.000
REMARK UNBOUND:                 0.000
REMARK SMILES Cc1cccc(O)c1C
REMARK SMILES IDX 1 1 2 2 8 3 6 4 5 5 4 6 3 7 9 8 7 9
REMARK H PARENT 7 10
REMARK Flexibility Score: inf
ROOT
ATOM      1  C   UNL     1      20.146  -7.188  28.032  1.00  0.00     0.045 C 
ATOM      2  C   UNL     1      18.927  -7.482  27.197  1.00  0.00    -0.045 A 
ATOM      3  C   UNL     1      18.044  -6.455  26.761  1.00  0.00    -0.006 A 
ATOM      4  C   UNL     1      16.915  -6.805  25.978  1.00  0.00     0.118 A 
ATOM      5  C   UNL     1      16.680  -8.141  25.643  1.00  0.00     0.046 A 
ATOM      6  C   UNL     1      17.548  -9.142  26.073  1.00  0.00     0.004 A 
ATOM      7  C   UNL     1      18.662  -8.817  26.843  1.00  0.00     0.004 A 
ATOM      8  C   UNL     1      18.277  -5.002  27.110  1.00  0.00     0.048 C 
ENDROOT
BRANCH   4   9
ATOM      9  O   UNL     1      16.005  -5.850  25.514  1.00  0.00    -0.508 OA
ATOM     10  H   UNL     1      16.282  -4.958  25.127  1.00  0.00     0.293 HD
ENDBRANCH   4   9
TORSDOF 1
ENDMDL
MODEL 8
REMARK VINA RESULT:    -4.503      1.454      2.825
REMARK INTER + INTRA:          -4.635
REMARK INTER:                  -4.635
REMARK INTRA:                   0.000
REMARK UNBOUND:                 0.000
REMARK SMILES Cc1cccc(O)c1C
REMARK SMILES IDX 1 1 2 2 8 3 6 4 5 5 4 6 3 7 9 8 7 9
REMARK H PARENT 7 10
REMARK Flexibility Score: inf
ROOT
ATOM      1  C   UNL     1      27.073   0.614  22.776  1.00  0.00     0.045 C 
ATOM      2  C   UNL     1      26.303  -0.221  23.767  1.00  0.00    -0.045 A 
ATOM      3  C   UNL     1      26.810  -0.513  25.064  1.00  0.00    -0.006 A 
ATOM      4  C   UNL     1      26.031  -1.305  25.945  1.00  0.00     0.118 A 
ATOM      5  C   UNL     1      24.785  -1.789  25.537  1.00  0.00     0.046 A 
ATOM      6  C   UNL     1      24.295  -1.499  24.266  1.00  0.00     0.004 A 
ATOM      7  C   UNL     1      25.046  -0.723  23.387  1.00  0.00     0.004 A 
ATOM      8  C   UNL     1      28.156  -0.001  25.528  1.00  0.00     0.048 C 
ENDROOT
BRANCH   4   9
ATOM      9  O   UNL     1      26.465  -1.632  27.233  1.00  0.00    -0.508 OA
ATOM     10  H   UNL     1      25.836  -1.860  27.992  1.00  0.00     0.293 HD
ENDBRANCH   4   9
TORSDOF 1
ENDMDL
MODEL 9
REMARK VINA RESULT:    -4.433      2.802      3.895
REMARK INTER + INTRA:          -4.563
REMARK INTER:                  -4.563
REMARK INTRA:                   0.000
REMARK UNBOUND:                 0.000
REMARK SMILES Cc1cccc(O)c1C
REMARK SMILES IDX 1 1 2 2 8 3 6 4 5 5 4 6 3 7 9 8 7 9
REMARK H PARENT 7 10
REMARK Flexibility Score: inf
ROOT
ATOM      1  C   UNL     1      26.419  -0.024  26.132  1.00  0.00     0.045 C 
ATOM      2  C   UNL     1      25.450  -1.111  25.744  1.00  0.00    -0.045 A 
ATOM      3  C   UNL     1      25.637  -2.465  26.138  1.00  0.00    -0.006 A 
ATOM      4  C   UNL     1      24.685  -3.436  25.736  1.00  0.00     0.118 A 
ATOM      5  C   UNL     1      23.583  -3.059  24.964  1.00  0.00     0.046 A 
ATOM      6  C   UNL     1      23.406  -1.732  24.581  1.00  0.00     0.004 A 
ATOM      7  C   UNL     1      24.331  -0.765  24.967  1.00  0.00     0.004 A 
ATOM      8  C   UNL     1      26.821  -2.896  26.973  1.00  0.00     0.048 C 
ENDROOT
BRANCH   4   9
ATOM      9  O   UNL     1      24.802  -4.784  26.086  1.00  0.00    -0.508 OA
ATOM     10  H   UNL     1      25.553  -5.381  25.763  1.00  0.00     0.293 HD
ENDBRANCH   4   9
TORSDOF 1
ENDMDL
