MODEL 1
REMARK VINA RESULT:    -1.957      0.000      0.000
REMARK INTER + INTRA:          -2.128
REMARK INTER:                  -2.128
REMARK INTRA:                   0.000
REMARK UNBOUND:                 0.000
REMARK SMILES Cc1cc(O)c2c(c1)C(=O)c1cc(O)cc(O)c1C2=O
REMARK SMILES IDX 1 1 2 2 8 3 7 4 6 5 4 6 3 7 19 8 20 9 18 10 11 11 9 12 10 13
REMARK SMILES IDX 12 14 13 15 15 16 16 17 5 18 17 20 14 22
REMARK H PARENT 5 19 17 21 14 23
REMARK Flexibility Score: inf
ROOT
ATOM      1  C   UNL     1      33.502  40.897  27.752  1.00  0.00     0.044 C 
ATOM      2  C   UNL     1      32.195  40.176  27.900  1.00  0.00    -0.047 A 
ATOM      3  C   UNL     1      31.785  39.254  26.931  1.00  0.00     0.016 A 
ATOM      4  C   UNL     1      30.579  38.547  27.078  1.00  0.00     0.038 A 
ATOM      5  C   UNL     1      29.781  38.751  28.224  1.00  0.00     0.076 A 
ATOM      6  C   UNL     1      30.205  39.675  29.206  1.00  0.00     0.127 A 
ATOM      7  C   UNL     1      31.409  40.371  29.041  1.00  0.00     0.050 A 
ATOM      8  C   UNL     1      28.528  37.967  28.382  1.00  0.00     0.201 C 
ATOM      9  O   UNL     1      28.002  37.862  29.523  1.00  0.00    -0.288 OA
ATOM     10  C   UNL     1      27.961  37.218  27.225  1.00  0.00     0.076 A 
ATOM     11  C   UNL     1      28.799  36.968  26.113  1.00  0.00     0.041 A 
ATOM     12  C   UNL     1      30.144  37.586  26.039  1.00  0.00     0.194 C 
ATOM     13  O   UNL     1      30.916  37.305  25.081  1.00  0.00    -0.289 OA
ATOM     14  C   UNL     1      28.348  36.141  25.069  1.00  0.00     0.059 A 
ATOM     15  C   UNL     1      27.076  35.574  25.112  1.00  0.00     0.120 A 
ATOM     16  C   UNL     1      26.227  35.854  26.183  1.00  0.00     0.093 A 
ATOM     17  C   UNL     1      26.639  36.696  27.222  1.00  0.00     0.131 A 
ENDROOT
BRANCH   6  18
ATOM     18  O   UNL     1      29.431  39.909  30.344  1.00  0.00    -0.507 OA
ATOM     19  H   UNL     1      29.836  39.917  31.273  1.00  0.00     0.293 HD
ENDBRANCH   6  18
BRANCH  17  20
ATOM     20  O   UNL     1      25.693  37.011  28.199  1.00  0.00    -0.507 OA
ATOM     21  H   UNL     1      24.702  36.837  28.098  1.00  0.00     0.293 HD
ENDBRANCH  17  20
BRANCH  15  22
ATOM     22  O   UNL     1      26.658  34.743  24.074  1.00  0.00    -0.508 OA
ATOM     23  H   UNL     1      27.229  33.972  23.749  1.00  0.00     0.293 HD
ENDBRANCH  15  22
TORSDOF 3
ENDMDL
MODEL 2
REMARK VINA RESULT:    -1.814      2.551      5.566
REMARK INTER + INTRA:          -1.974
REMARK INTER:                  -1.974
REMARK INTRA:                   0.000
REMARK UNBOUND:                 0.000
REMARK SMILES Cc1cc(O)c2c(c1)C(=O)c1cc(O)cc(O)c1C2=O
REMARK SMILES IDX 1 1 2 2 8 3 7 4 6 5 4 6 3 7 19 8 20 9 18 10 11 11 9 12 10 13
REMARK SMILES IDX 12 14 13 15 15 16 16 17 5 18 17 20 14 22
REMARK H PARENT 5 19 17 21 14 23
REMARK Flexibility Score: inf
ROOT
ATOM      1  C   UNL     1      23.967  37.640  26.898  1.00  0.00     0.044 C 
ATOM      2  C   UNL     1      25.430  37.933  26.743  1.00  0.00    -0.047 A 
ATOM      3  C   UNL     1      26.385  37.014  27.193  1.00  0.00     0.016 A 
ATOM      4  C   UNL     1      27.758  37.263  27.021  1.00  0.00     0.038 A 
ATOM      5  C   UNL     1      28.181  38.441  26.369  1.00  0.00     0.076 A 
ATOM      6  C   UNL     1      27.212  39.361  25.905  1.00  0.00     0.127 A 
ATOM      7  C   UNL     1      25.850  39.096  26.088  1.00  0.00     0.050 A 
ATOM      8  C   UNL     1      29.635  38.671  26.161  1.00  0.00     0.201 C 
ATOM      9  O   UNL     1      30.013  39.501  25.292  1.00  0.00    -0.288 OA
ATOM     10  C   UNL     1      30.636  37.844  26.892  1.00  0.00     0.076 A 
ATOM     11  C   UNL     1      30.204  36.634  27.483  1.00  0.00     0.041 A 
ATOM     12  C   UNL     1      28.761  36.294  27.515  1.00  0.00     0.194 C 
ATOM     13  O   UNL     1      28.386  35.182  27.980  1.00  0.00    -0.289 OA
ATOM     14  C   UNL     1      31.144  35.757  28.052  1.00  0.00     0.059 A 
ATOM     15  C   UNL     1      32.501  36.076  28.053  1.00  0.00     0.120 A 
ATOM     16  C   UNL     1      32.929  37.289  27.514  1.00  0.00     0.093 A 
ATOM     17  C   UNL     1      32.013  38.192  26.965  1.00  0.00     0.131 A 
ENDROOT
BRANCH   6  18
ATOM     18  O   UNL     1      27.599  40.541  25.270  1.00  0.00    -0.507 OA
ATOM     19  H   UNL     1      28.285  41.167  25.676  1.00  0.00     0.293 HD
ENDBRANCH   6  18
BRANCH  17  20
ATOM     20  O   UNL     1      32.509  39.428  26.546  1.00  0.00    -0.507 OA
ATOM     21  H   UNL     1      33.445  39.565  26.187  1.00  0.00     0.293 HD
ENDBRANCH  17  20
BRANCH  15  22
ATOM     22  O   UNL     1      33.416  35.183  28.607  1.00  0.00    -0.508 OA
ATOM     23  H   UNL     1      33.114  34.387  29.157  1.00  0.00     0.293 HD
ENDBRANCH  15  22
TORSDOF 3
ENDMDL
MODEL 3
REMARK VINA RESULT:    -1.464      1.731      6.079
REMARK INTER + INTRA:          -1.592
REMARK INTER:                  -1.592
REMARK INTRA:                   0.000
REMARK UNBOUND:                 0.000
REMARK SMILES Cc1cc(O)c2c(c1)C(=O)c1cc(O)cc(O)c1C2=O
REMARK SMILES IDX 1 1 2 2 8 3 7 4 6 5 4 6 3 7 19 8 20 9 18 10 11 11 9 12 10 13
REMARK SMILES IDX 12 14 13 15 15 16 16 17 5 18 17 20 14 22
REMARK H PARENT 5 19 17 21 14 23
REMARK Flexibility Score: inf
ROOT
ATOM      1  C   UNL     1      23.976  37.625  27.017  1.00  0.00     0.044 C 
ATOM      2  C   UNL     1      25.441  37.396  26.789  1.00  0.00    -0.047 A 
ATOM      3  C   UNL     1      26.385  38.261  27.353  1.00  0.00     0.016 A 
ATOM      4  C   UNL     1      27.761  38.035  27.175  1.00  0.00     0.038 A 
ATOM      5  C   UNL     1      28.199  36.913  26.439  1.00  0.00     0.076 A 
ATOM      6  C   UNL     1      27.241  36.035  25.882  1.00  0.00     0.127 A 
ATOM      7  C   UNL     1      25.875  36.278  26.069  1.00  0.00     0.050 A 
ATOM      8  C   UNL     1      29.657  36.668  26.293  1.00  0.00     0.201 C 
ATOM      9  O   UNL     1      30.064  35.520  25.968  1.00  0.00    -0.288 OA
ATOM     10  C   UNL     1      30.636  37.737  26.640  1.00  0.00     0.076 A 
ATOM     11  C   UNL     1      30.192  38.821  27.433  1.00  0.00     0.041 A 
ATOM     12  C   UNL     1      28.753  38.965  27.760  1.00  0.00     0.194 C 
ATOM     13  O   UNL     1      28.370  39.892  28.526  1.00  0.00    -0.289 OA
ATOM     14  C   UNL     1      31.117  39.770  27.903  1.00  0.00     0.059 A 
ATOM     15  C   UNL     1      32.469  39.662  27.582  1.00  0.00     0.120 A 
ATOM     16  C   UNL     1      32.907  38.622  26.761  1.00  0.00     0.093 A 
ATOM     17  C   UNL     1      32.004  37.679  26.258  1.00  0.00     0.131 A 
ENDROOT
BRANCH   6  18
ATOM     18  O   UNL     1      27.642  34.925  25.138  1.00  0.00    -0.507 OA
ATOM     19  H   UNL     1      28.383  34.310  25.453  1.00  0.00     0.293 HD
ENDBRANCH   6  18
BRANCH  17  20
ATOM     20  O   UNL     1      32.504  36.736  25.358  1.00  0.00    -0.507 OA
ATOM     21  H   UNL     1      33.300  36.901  24.756  1.00  0.00     0.293 HD
ENDBRANCH  17  20
BRANCH  15  22
ATOM     22  O   UNL     1      33.369  40.605  28.074  1.00  0.00    -0.508 OA
ATOM     23  H   UNL     1      33.476  40.769  29.068  1.00  0.00     0.293 HD
ENDBRANCH  15  22
TORSDOF 3
ENDMDL
MODEL 4
REMARK VINA RESULT:    -1.342      1.852      1.952
REMARK INTER + INTRA:          -1.460
REMARK INTER:                  -1.460
REMARK INTRA:                   0.000
REMARK UNBOUND:                 0.000
REMARK SMILES Cc1cc(O)c2c(c1)C(=O)c1cc(O)cc(O)c1C2=O
REMARK SMILES IDX 1 1 2 2 8 3 7 4 6 5 4 6 3 7 19 8 20 9 18 10 11 11 9 12 10 13
REMARK SMILES IDX 12 14 13 15 15 16 16 17 5 18 17 20 14 22
REMARK H PARENT 5 19 17 21 14 23
REMARK Flexibility Score: inf
ROOT
ATOM      1  C   UNL     1      32.635  41.409  28.478  1.00  0.00     0.044 C 
ATOM      2  C   UNL     1      31.609  40.324  28.335  1.00  0.00    -0.047 A 
ATOM      3  C   UNL     1      31.933  39.130  27.681  1.00  0.00     0.016 A 
ATOM      4  C   UNL     1      30.990  38.093  27.572  1.00  0.00     0.038 A 
ATOM      5  C   UNL     1      29.709  38.246  28.144  1.00  0.00     0.076 A 
ATOM      6  C   UNL     1      29.391  39.449  28.815  1.00  0.00     0.127 A 
ATOM      7  C   UNL     1      30.343  40.471  28.912  1.00  0.00     0.050 A 
ATOM      8  C   UNL     1      28.737  37.125  28.053  1.00  0.00     0.201 C 
ATOM      9  O   UNL     1      27.754  37.091  28.842  1.00  0.00    -0.288 OA
ATOM     10  C   UNL     1      28.984  35.993  27.117  1.00  0.00     0.076 A 
ATOM     11  C   UNL     1      30.291  35.819  26.604  1.00  0.00     0.041 A 
ATOM     12  C   UNL     1      31.335  36.840  26.863  1.00  0.00     0.194 C 
ATOM     13  O   UNL     1      32.517  36.648  26.464  1.00  0.00    -0.289 OA
ATOM     14  C   UNL     1      30.597  34.681  25.837  1.00  0.00     0.059 A 
ATOM     15  C   UNL     1      29.620  33.726  25.563  1.00  0.00     0.120 A 
ATOM     16  C   UNL     1      28.317  33.915  26.026  1.00  0.00     0.093 A 
ATOM     17  C   UNL     1      27.978  35.051  26.769  1.00  0.00     0.131 A 
ENDROOT
BRANCH   6  18
ATOM     18  O   UNL     1      28.129  39.636  29.380  1.00  0.00    -0.507 OA
ATOM     19  H   UNL     1      27.286  39.632  28.818  1.00  0.00     0.293 HD
ENDBRANCH   6  18
BRANCH  17  20
ATOM     20  O   UNL     1      26.632  35.216  27.100  1.00  0.00    -0.507 OA
ATOM     21  H   UNL     1      25.882  34.675  26.691  1.00  0.00     0.293 HD
ENDBRANCH  17  20
BRANCH  15  22
ATOM     22  O   UNL     1      29.952  32.598  24.815  1.00  0.00    -0.508 OA
ATOM     23  H   UNL     1      30.554  32.659  24.004  1.00  0.00     0.293 HD
ENDBRANCH  15  22
TORSDOF 3
ENDMDL
MODEL 5
REMARK VINA RESULT:    -1.336      2.565      4.831
REMARK INTER + INTRA:          -1.453
REMARK INTER:                  -1.453
REMARK INTRA:                   0.000
REMARK UNBOUND:                 0.000
REMARK SMILES Cc1cc(O)c2c(c1)C(=O)c1cc(O)cc(O)c1C2=O
REMARK SMILES IDX 1 1 2 2 8 3 7 4 6 5 4 6 3 7 19 8 20 9 18 10 11 11 9 12 10 13
REMARK SMILES IDX 12 14 13 15 15 16 16 17 5 18 17 20 14 22
REMARK H PARENT 5 19 17 21 14 23
REMARK Flexibility Score: inf
ROOT
ATOM      1  C   UNL     1      32.711  36.815  22.772  1.00  0.00     0.044 C 
ATOM      2  C   UNL     1      31.721  37.294  23.792  1.00  0.00    -0.047 A 
ATOM      3  C   UNL     1      32.073  37.344  25.146  1.00  0.00     0.016 A 
ATOM      4  C   UNL     1      31.164  37.825  26.106  1.00  0.00     0.038 A 
ATOM      5  C   UNL     1      29.892  38.282  25.701  1.00  0.00     0.076 A 
ATOM      6  C   UNL     1      29.547  38.242  24.331  1.00  0.00     0.127 A 
ATOM      7  C   UNL     1      30.464  37.758  23.390  1.00  0.00     0.050 A 
ATOM      8  C   UNL     1      28.959  38.823  26.724  1.00  0.00     0.201 C 
ATOM      9  O   UNL     1      27.996  39.551  26.361  1.00  0.00    -0.288 OA
ATOM     10  C   UNL     1      29.225  38.602  28.173  1.00  0.00     0.076 A 
ATOM     11  C   UNL     1      30.526  38.205  28.563  1.00  0.00     0.041 A 
ATOM     12  C   UNL     1      31.538  37.857  27.538  1.00  0.00     0.194 C 
ATOM     13  O   UNL     1      32.717  37.572  27.887  1.00  0.00    -0.289 OA
ATOM     14  C   UNL     1      30.855  38.130  29.928  1.00  0.00     0.059 A 
ATOM     15  C   UNL     1      29.906  38.429  30.905  1.00  0.00     0.120 A 
ATOM     16  C   UNL     1      28.608  38.775  30.528  1.00  0.00     0.093 A 
ATOM     17  C   UNL     1      28.246  38.832  29.178  1.00  0.00     0.131 A 
ENDROOT
BRANCH   6  18
ATOM     18  O   UNL     1      28.291  38.675  23.901  1.00  0.00    -0.507 OA
ATOM     19  H   UNL     1      27.738  39.330  24.441  1.00  0.00     0.293 HD
ENDBRANCH   6  18
BRANCH  17  20
ATOM     20  O   UNL     1      26.902  39.080  28.889  1.00  0.00    -0.507 OA
ATOM     21  H   UNL     1      26.511  39.034  27.958  1.00  0.00     0.293 HD
ENDBRANCH  17  20
BRANCH  15  22
ATOM     22  O   UNL     1      30.262  38.364  32.251  1.00  0.00    -0.508 OA
ATOM     23  H   UNL     1      30.984  37.734  32.578  1.00  0.00     0.293 HD
ENDBRANCH  15  22
TORSDOF 3
ENDMDL
MODEL 6
REMARK VINA RESULT:    -1.305      2.351      4.956
REMARK INTER + INTRA:          -1.420
REMARK INTER:                  -1.420
REMARK INTRA:                   0.000
REMARK UNBOUND:                 0.000
REMARK SMILES Cc1cc(O)c2c(c1)C(=O)c1cc(O)cc(O)c1C2=O
REMARK SMILES IDX 1 1 2 2 8 3 7 4 6 5 4 6 3 7 19 8 20 9 18 10 11 11 9 12 10 13
REMARK SMILES IDX 12 14 13 15 15 16 16 17 5 18 17 20 14 22
REMARK H PARENT 5 19 17 21 14 23
REMARK Flexibility Score: inf
ROOT
ATOM      1  C   UNL     1      24.034  37.965  27.021  1.00  0.00     0.044 C 
ATOM      2  C   UNL     1      25.509  37.829  27.260  1.00  0.00    -0.047 A 
ATOM      3  C   UNL     1      26.403  37.865  26.184  1.00  0.00     0.016 A 
ATOM      4  C   UNL     1      27.789  37.774  26.400  1.00  0.00     0.038 A 
ATOM      5  C   UNL     1      28.289  37.666  27.716  1.00  0.00     0.076 A 
ATOM      6  C   UNL     1      27.382  37.643  28.800  1.00  0.00     0.127 A 
ATOM      7  C   UNL     1      26.005  37.733  28.564  1.00  0.00     0.050 A 
ATOM      8  C   UNL     1      29.759  37.609  27.929  1.00  0.00     0.201 C 
ATOM      9  O   UNL     1      30.231  37.874  29.068  1.00  0.00    -0.288 OA
ATOM     10  C   UNL     1      30.674  37.356  26.781  1.00  0.00     0.076 A 
ATOM     11  C   UNL     1      30.170  37.532  25.470  1.00  0.00     0.041 A 
ATOM     12  C   UNL     1      28.727  37.795  25.255  1.00  0.00     0.194 C 
ATOM     13  O   UNL     1      28.294  38.021  24.092  1.00  0.00    -0.289 OA
ATOM     14  C   UNL     1      31.040  37.445  24.369  1.00  0.00     0.059 A 
ATOM     15  C   UNL     1      32.394  37.173  24.553  1.00  0.00     0.120 A 
ATOM     16  C   UNL     1      32.888  36.951  25.839  1.00  0.00     0.093 A 
ATOM     17  C   UNL     1      32.041  37.004  26.951  1.00  0.00     0.131 A 
ENDROOT
BRANCH   6  18
ATOM     18  O   UNL     1      27.844  37.523  30.111  1.00  0.00    -0.507 OA
ATOM     19  H   UNL     1      27.433  36.867  30.765  1.00  0.00     0.293 HD
ENDBRANCH   6  18
BRANCH  17  20
ATOM     20  O   UNL     1      32.591  36.664  28.188  1.00  0.00    -0.507 OA
ATOM     21  H   UNL     1      32.054  36.290  28.958  1.00  0.00     0.293 HD
ENDBRANCH  17  20
BRANCH  15  22
ATOM     22  O   UNL     1      33.239  37.109  23.447  1.00  0.00    -0.508 OA
ATOM     23  H   UNL     1      32.981  36.598  22.611  1.00  0.00     0.293 HD
ENDBRANCH  15  22
TORSDOF 3
ENDMDL
MODEL 7
REMARK VINA RESULT:    -1.174      1.295      5.493
REMARK INTER + INTRA:          -1.277
REMARK INTER:                  -1.277
REMARK INTRA:                   0.000
REMARK UNBOUND:                 0.000
REMARK SMILES Cc1cc(O)c2c(c1)C(=O)c1cc(O)cc(O)c1C2=O
REMARK SMILES IDX 1 1 2 2 8 3 7 4 6 5 4 6 3 7 19 8 20 9 18 10 11 11 9 12 10 13
REMARK SMILES IDX 12 14 13 15 15 16 16 17 5 18 17 20 14 22
REMARK H PARENT 5 19 17 21 14 23
REMARK Flexibility Score: inf
ROOT
ATOM      1  C   UNL     1      26.625  34.756  24.323  1.00  0.00     0.044 C 
ATOM      2  C   UNL     1      27.151  35.697  25.366  1.00  0.00    -0.047 A 
ATOM      3  C   UNL     1      28.329  36.417  25.136  1.00  0.00     0.016 A 
ATOM      4  C   UNL     1      28.812  37.327  26.092  1.00  0.00     0.038 A 
ATOM      5  C   UNL     1      28.093  37.535  27.289  1.00  0.00     0.076 A 
ATOM      6  C   UNL     1      26.897  36.815  27.511  1.00  0.00     0.127 A 
ATOM      7  C   UNL     1      26.433  35.911  26.548  1.00  0.00     0.050 A 
ATOM      8  C   UNL     1      28.597  38.529  28.272  1.00  0.00     0.201 C 
ATOM      9  O   UNL     1      27.814  38.988  29.147  1.00  0.00    -0.288 OA
ATOM     10  C   UNL     1      29.983  39.065  28.153  1.00  0.00     0.076 A 
ATOM     11  C   UNL     1      30.662  38.902  26.923  1.00  0.00     0.041 A 
ATOM     12  C   UNL     1      30.068  38.071  25.848  1.00  0.00     0.194 C 
ATOM     13  O   UNL     1      30.642  37.985  24.728  1.00  0.00    -0.289 OA
ATOM     14  C   UNL     1      31.909  39.519  26.725  1.00  0.00     0.059 A 
ATOM     15  C   UNL     1      32.492  40.282  27.735  1.00  0.00     0.120 A 
ATOM     16  C   UNL     1      31.850  40.408  28.968  1.00  0.00     0.093 A 
ATOM     17  C   UNL     1      30.621  39.782  29.202  1.00  0.00     0.131 A 
ENDROOT
BRANCH   6  18
ATOM     18  O   UNL     1      26.171  36.988  28.690  1.00  0.00    -0.507 OA
ATOM     19  H   UNL     1      25.337  37.563  28.724  1.00  0.00     0.293 HD
ENDBRANCH   6  18
BRANCH  17  20
ATOM     20  O   UNL     1      30.099  39.868  30.494  1.00  0.00    -0.507 OA
ATOM     21  H   UNL     1      30.057  40.726  31.026  1.00  0.00     0.293 HD
ENDBRANCH  17  20
BRANCH  15  22
ATOM     22  O   UNL     1      33.721  40.899  27.509  1.00  0.00    -0.508 OA
ATOM     23  H   UNL     1      34.118  41.550  28.175  1.00  0.00     0.293 HD
ENDBRANCH  15  22
TORSDOF 3
ENDMDL
MODEL 8
REMARK VINA RESULT:    -0.612      2.943      4.091
REMARK INTER + INTRA:          -0.666
REMARK INTER:                  -0.666
REMARK INTRA:                   0.000
REMARK UNBOUND:                 0.000
REMARK SMILES Cc1cc(O)c2c(c1)C(=O)c1cc(O)cc(O)c1C2=O
REMARK SMILES IDX 1 1 2 2 8 3 7 4 6 5 4 6 3 7 19 8 20 9 18 10 11 11 9 12 10 13
REMARK SMILES IDX 12 14 13 15 15 16 16 17 5 18 17 20 14 22
REMARK H PARENT 5 19 17 21 14 23
REMARK Flexibility Score: inf
ROOT
ATOM      1  C   UNL     1      33.541  35.363  28.879  1.00  0.00     0.044 C 
ATOM      2  C   UNL     1      32.188  35.616  28.281  1.00  0.00    -0.047 A 
ATOM      3  C   UNL     1      31.815  36.911  27.905  1.00  0.00     0.016 A 
ATOM      4  C   UNL     1      30.564  37.153  27.312  1.00  0.00     0.038 A 
ATOM      5  C   UNL     1      29.681  36.079  27.072  1.00  0.00     0.076 A 
ATOM      6  C   UNL     1      30.068  34.770  27.441  1.00  0.00     0.127 A 
ATOM      7  C   UNL     1      31.317  34.549  28.033  1.00  0.00     0.050 A 
ATOM      8  C   UNL     1      28.378  36.347  26.408  1.00  0.00     0.201 C 
ATOM      9  O   UNL     1      27.750  35.397  25.868  1.00  0.00    -0.288 OA
ATOM     10  C   UNL     1      27.875  37.744  26.282  1.00  0.00     0.076 A 
ATOM     11  C   UNL     1      28.791  38.806  26.464  1.00  0.00     0.041 A 
ATOM     12  C   UNL     1      30.170  38.529  26.934  1.00  0.00     0.194 C 
ATOM     13  O   UNL     1      31.005  39.471  27.027  1.00  0.00    -0.289 OA
ATOM     14  C   UNL     1      28.389  40.129  26.210  1.00  0.00     0.059 A 
ATOM     15  C   UNL     1      27.088  40.408  25.793  1.00  0.00     0.120 A 
ATOM     16  C   UNL     1      26.166  39.370  25.658  1.00  0.00     0.093 A 
ATOM     17  C   UNL     1      26.531  38.047  25.930  1.00  0.00     0.131 A 
ENDROOT
BRANCH   6  18
ATOM     18  O   UNL     1      29.212  33.689  27.229  1.00  0.00    -0.507 OA
ATOM     19  H   UNL     1      29.558  32.739  27.160  1.00  0.00     0.293 HD
ENDBRANCH   6  18
BRANCH  17  20
ATOM     20  O   UNL     1      25.522  37.083  25.874  1.00  0.00    -0.507 OA
ATOM     21  H   UNL     1      25.328  36.521  25.057  1.00  0.00     0.293 HD
ENDBRANCH  17  20
BRANCH  15  22
ATOM     22  O   UNL     1      26.718  41.726  25.531  1.00  0.00    -0.508 OA
ATOM     23  H   UNL     1      26.303  42.312  26.245  1.00  0.00     0.293 HD
ENDBRANCH  15  22
TORSDOF 3
ENDMDL
MODEL 9
REMARK VINA RESULT:    -0.159      2.620      3.974
REMARK INTER + INTRA:          -0.173
REMARK INTER:                  -0.173
REMARK INTRA:                   0.000
REMARK UNBOUND:                 0.000
REMARK SMILES Cc1cc(O)c2c(c1)C(=O)c1cc(O)cc(O)c1C2=O
REMARK SMILES IDX 1 1 2 2 8 3 7 4 6 5 4 6 3 7 19 8 20 9 18 10 11 11 9 12 10 13
REMARK SMILES IDX 12 14 13 15 15 16 16 17 5 18 17 20 14 22
REMARK H PARENT 5 19 17 21 14 23
REMARK Flexibility Score: inf
ROOT
ATOM      1  C   UNL     1      30.166  38.784  32.131  1.00  0.00     0.044 C 
ATOM      2  C   UNL     1      29.863  38.720  30.663  1.00  0.00    -0.047 A 
ATOM      3  C   UNL     1      30.795  38.172  29.774  1.00  0.00     0.016 A 
ATOM      4  C   UNL     1      30.506  38.076  28.402  1.00  0.00     0.038 A 
ATOM      5  C   UNL     1      29.257  38.514  27.914  1.00  0.00     0.076 A 
ATOM      6  C   UNL     1      28.313  39.054  28.818  1.00  0.00     0.127 A 
ATOM      7  C   UNL     1      28.620  39.144  30.181  1.00  0.00     0.050 A 
ATOM      8  C   UNL     1      28.953  38.369  26.467  1.00  0.00     0.201 C 
ATOM      9  O   UNL     1      27.755  38.409  26.077  1.00  0.00    -0.288 OA
ATOM     10  C   UNL     1      30.044  38.063  25.499  1.00  0.00     0.076 A 
ATOM     11  C   UNL     1      31.268  37.563  26.003  1.00  0.00     0.041 A 
ATOM     12  C   UNL     1      31.506  37.512  27.466  1.00  0.00     0.194 C 
ATOM     13  O   UNL     1      32.569  37.001  27.914  1.00  0.00    -0.289 OA
ATOM     14  C   UNL     1      32.266  37.126  25.115  1.00  0.00     0.059 A 
ATOM     15  C   UNL     1      32.067  37.192  23.736  1.00  0.00     0.120 A 
ATOM     16  C   UNL     1      30.882  37.728  23.231  1.00  0.00     0.093 A 
ATOM     17  C   UNL     1      29.883  38.196  24.093  1.00  0.00     0.131 A 
ENDROOT
BRANCH   6  18
ATOM     18  O   UNL     1      27.074  39.509  28.365  1.00  0.00    -0.507 OA
ATOM     19  H   UNL     1      26.577  39.045  27.614  1.00  0.00     0.293 HD
ENDBRANCH   6  18
BRANCH  17  20
ATOM     20  O   UNL     1      28.776  38.814  23.508  1.00  0.00    -0.507 OA
ATOM     21  H   UNL     1      28.626  38.868  22.510  1.00  0.00     0.293 HD
ENDBRANCH  17  20
BRANCH  15  22
ATOM     22  O   UNL     1      33.064  36.736  22.876  1.00  0.00    -0.508 OA
ATOM     23  H   UNL     1      33.134  35.760  22.616  1.00  0.00     0.293 HD
ENDBRANCH  15  22
TORSDOF 3
ENDMDL
