MODEL 1
REMARK VINA RESULT:    -7.204      0.000      0.000
REMARK INTER + INTRA:          -9.082
REMARK INTER:                  -8.678
REMARK INTRA:                  -0.404
REMARK UNBOUND:                -0.404
REMARK SMILES O=c1c(O)c(-c2ccc(O)cc2O)oc2cc(O)cc(O)c12
REMARK SMILES IDX 5 1 3 2 2 3 1 4 22 5 20 6 19 7 17 8 16 9 15 10 14 11 6 12
REMARK SMILES IDX 8 13 7 14 9 15 11 16 12 17 10 18 13 20 4 22 21 24 18 26
REMARK H PARENT 10 19 13 21 4 23 21 25 18 27
REMARK Flexibility Score: inf
ROOT
ATOM      1  C   UNL     1      16.491  56.627  26.465  1.00  0.00     0.184 A 
ATOM      2  C   UNL     1      17.198  57.436  25.559  1.00  0.00     0.208 A 
ATOM      3  C   UNL     1      16.786  58.765  25.371  1.00  0.00     0.238 A 
ATOM      4  O   UNL     1      17.405  59.496  24.552  1.00  0.00    -0.285 OA
ATOM      5  C   UNL     1      15.689  59.262  26.104  1.00  0.00     0.111 A 
ATOM      6  C   UNL     1      15.211  60.590  25.977  1.00  0.00     0.134 A 
ATOM      7  C   UNL     1      14.120  61.013  26.750  1.00  0.00     0.093 A 
ATOM      8  C   UNL     1      13.499  60.136  27.647  1.00  0.00     0.123 A 
ATOM      9  C   UNL     1      13.967  58.828  27.776  1.00  0.00     0.094 A 
ATOM     10  C   UNL     1      15.051  58.385  27.013  1.00  0.00     0.146 A 
ATOM     11  O   UNL     1      15.472  57.133  27.153  1.00  0.00    -0.451 OA
ENDROOT
BRANCH   1  12
ATOM     12  C   UNL     1      16.866  55.217  26.703  1.00  0.00     0.063 A 
ATOM     13  C   UNL     1      17.010  52.937  25.873  1.00  0.00     0.047 A 
ATOM     14  C   UNL     1      16.661  54.277  25.682  1.00  0.00     0.020 A 
ATOM     15  C   UNL     1      17.579  52.523  27.079  1.00  0.00     0.119 A 
ATOM     16  C   UNL     1      17.810  53.459  28.096  1.00  0.00     0.093 A 
ATOM     17  C   UNL     1      17.469  54.807  27.911  1.00  0.00     0.130 A 
BRANCH  15  18
ATOM     18  O   UNL     1      17.919  51.184  27.256  1.00  0.00    -0.508 OA
ATOM     19  H   UNL     1      18.870  50.901  27.462  1.00  0.00     0.293 HD
ENDBRANCH  15  18
BRANCH  17  20
ATOM     20  O   UNL     1      17.747  55.737  28.912  1.00  0.00    -0.507 OA
ATOM     21  H   UNL     1      17.609  56.731  28.769  1.00  0.00     0.293 HD
ENDBRANCH  17  20
ENDBRANCH   1  12
BRANCH   2  22
ATOM     22  O   UNL     1      18.308  56.926  24.881  1.00  0.00    -0.502 OA
ATOM     23  H   UNL     1      18.286  56.707  23.893  1.00  0.00     0.293 HD
ENDBRANCH   2  22
BRANCH   6  24
ATOM     24  O   UNL     1      15.811  61.487  25.091  1.00  0.00    -0.507 OA
ATOM     25  H   UNL     1      15.378  61.734  24.209  1.00  0.00     0.293 HD
ENDBRANCH   6  24
BRANCH   8  26
ATOM     26  O   UNL     1      12.416  60.557  28.415  1.00  0.00    -0.508 OA
ATOM     27  H   UNL     1      12.546  61.066  29.282  1.00  0.00     0.293 HD
ENDBRANCH   8  26
TORSDOF 6
ENDMDL
MODEL 2
REMARK VINA RESULT:    -7.198     10.582     12.508
REMARK INTER + INTRA:          -9.075
REMARK INTER:                  -8.745
REMARK INTRA:                  -0.329
REMARK UNBOUND:                -0.404
REMARK SMILES O=c1c(O)c(-c2ccc(O)cc2O)oc2cc(O)cc(O)c12
REMARK SMILES IDX 5 1 3 2 2 3 1 4 22 5 20 6 19 7 17 8 16 9 15 10 14 11 6 12
REMARK SMILES IDX 8 13 7 14 9 15 11 16 12 17 10 18 13 20 4 22 21 24 18 26
REMARK H PARENT 10 19 13 21 4 23 21 25 18 27
REMARK Flexibility Score: inf
ROOT
ATOM      1  C   UNL     1      22.904  62.984  32.107  1.00  0.00     0.184 A 
ATOM      2  C   UNL     1      22.423  63.253  33.400  1.00  0.00     0.208 A 
ATOM      3  C   UNL     1      23.272  63.043  34.498  1.00  0.00     0.238 A 
ATOM      4  O   UNL     1      22.848  63.269  35.663  1.00  0.00    -0.285 OA
ATOM      5  C   UNL     1      24.590  62.591  34.280  1.00  0.00     0.111 A 
ATOM      6  C   UNL     1      25.511  62.358  35.330  1.00  0.00     0.134 A 
ATOM      7  C   UNL     1      26.809  61.916  35.031  1.00  0.00     0.093 A 
ATOM      8  C   UNL     1      27.202  61.704  33.705  1.00  0.00     0.123 A 
ATOM      9  C   UNL     1      26.297  61.932  32.668  1.00  0.00     0.094 A 
ATOM     10  C   UNL     1      24.999  62.370  32.944  1.00  0.00     0.146 A 
ATOM     11  O   UNL     1      24.158  62.574  31.937  1.00  0.00    -0.451 OA
ENDROOT
BRANCH   1  12
ATOM     12  C   UNL     1      22.059  63.173  30.909  1.00  0.00     0.063 A 
ATOM     13  C   UNL     1      20.754  62.186  29.111  1.00  0.00     0.047 A 
ATOM     14  C   UNL     1      21.561  62.043  30.244  1.00  0.00     0.020 A 
ATOM     15  C   UNL     1      20.424  63.459  28.639  1.00  0.00     0.119 A 
ATOM     16  C   UNL     1      20.898  64.594  29.311  1.00  0.00     0.093 A 
ATOM     17  C   UNL     1      21.703  64.459  30.452  1.00  0.00     0.130 A 
BRANCH  15  18
ATOM     18  O   UNL     1      19.622  63.586  27.507  1.00  0.00    -0.508 OA
ATOM     19  H   UNL     1      19.829  63.083  26.652  1.00  0.00     0.293 HD
ENDBRANCH  15  18
BRANCH  17  20
ATOM     20  O   UNL     1      22.127  65.595  31.140  1.00  0.00    -0.507 OA
ATOM     21  H   UNL     1      21.545  66.421  31.214  1.00  0.00     0.293 HD
ENDBRANCH  17  20
ENDBRANCH   1  12
BRANCH   2  22
ATOM     22  O   UNL     1      21.127  63.743  33.579  1.00  0.00    -0.502 OA
ATOM     23  H   UNL     1      20.307  63.158  33.474  1.00  0.00     0.293 HD
ENDBRANCH   2  22
BRANCH   6  24
ATOM     24  O   UNL     1      25.149  62.562  36.663  1.00  0.00    -0.507 OA
ATOM     25  H   UNL     1      25.445  61.931  37.398  1.00  0.00     0.293 HD
ENDBRANCH   6  24
BRANCH   8  26
ATOM     26  O   UNL     1      28.491  61.267  33.409  1.00  0.00    -0.508 OA
ATOM     27  H   UNL     1      28.711  60.822  32.525  1.00  0.00     0.293 HD
ENDBRANCH   8  26
TORSDOF 6
ENDMDL
MODEL 3
REMARK VINA RESULT:    -7.147     10.378     12.380
REMARK INTER + INTRA:          -9.013
REMARK INTER:                  -8.586
REMARK INTRA:                  -0.427
REMARK UNBOUND:                -0.404
REMARK SMILES O=c1c(O)c(-c2ccc(O)cc2O)oc2cc(O)cc(O)c12
REMARK SMILES IDX 5 1 3 2 2 3 1 4 22 5 20 6 19 7 17 8 16 9 15 10 14 11 6 12
REMARK SMILES IDX 8 13 7 14 9 15 11 16 12 17 10 18 13 20 4 22 21 24 18 26
REMARK H PARENT 10 19 13 21 4 23 21 25 18 27
REMARK Flexibility Score: inf
ROOT
ATOM      1  C   UNL     1      23.386  63.461  30.985  1.00  0.00     0.184 A 
ATOM      2  C   UNL     1      22.436  63.649  32.003  1.00  0.00     0.208 A 
ATOM      3  C   UNL     1      22.764  63.275  33.316  1.00  0.00     0.238 A 
ATOM      4  O   UNL     1      21.915  63.428  34.235  1.00  0.00    -0.285 OA
ATOM      5  C   UNL     1      24.040  62.740  33.588  1.00  0.00     0.111 A 
ATOM      6  C   UNL     1      24.453  62.342  34.883  1.00  0.00     0.134 A 
ATOM      7  C   UNL     1      25.744  61.828  35.073  1.00  0.00     0.093 A 
ATOM      8  C   UNL     1      26.629  61.705  33.996  1.00  0.00     0.123 A 
ATOM      9  C   UNL     1      26.227  62.097  32.719  1.00  0.00     0.094 A 
ATOM     10  C   UNL     1      24.944  62.609  32.506  1.00  0.00     0.146 A 
ATOM     11  O   UNL     1      24.586  62.969  31.279  1.00  0.00    -0.451 OA
ENDROOT
BRANCH   1  12
ATOM     12  C   UNL     1      23.102  63.822  29.581  1.00  0.00     0.063 A 
ATOM     13  C   UNL     1      22.852  65.552  27.891  1.00  0.00     0.047 A 
ATOM     14  C   UNL     1      23.111  65.176  29.212  1.00  0.00     0.020 A 
ATOM     15  C   UNL     1      22.594  64.581  26.921  1.00  0.00     0.119 A 
ATOM     16  C   UNL     1      22.605  63.225  27.274  1.00  0.00     0.093 A 
ATOM     17  C   UNL     1      22.870  62.838  28.597  1.00  0.00     0.130 A 
BRANCH  15  18
ATOM     18  O   UNL     1      22.333  64.970  25.609  1.00  0.00    -0.508 OA
ATOM     19  H   UNL     1      21.770  64.400  24.989  1.00  0.00     0.293 HD
ENDBRANCH  15  18
BRANCH  17  20
ATOM     20  O   UNL     1      22.926  61.485  28.926  1.00  0.00    -0.507 OA
ATOM     21  H   UNL     1      22.806  61.163  29.879  1.00  0.00     0.293 HD
ENDBRANCH  17  20
ENDBRANCH   1  12
BRANCH   2  22
ATOM     22  O   UNL     1      21.196  64.222  31.709  1.00  0.00    -0.502 OA
ATOM     23  H   UNL     1      20.326  63.717  31.819  1.00  0.00     0.293 HD
ENDBRANCH   2  22
BRANCH   6  24
ATOM     24  O   UNL     1      23.593  62.453  35.976  1.00  0.00    -0.507 OA
ATOM     25  H   UNL     1      22.790  63.072  35.962  1.00  0.00     0.293 HD
ENDBRANCH   6  24
BRANCH   8  26
ATOM     26  O   UNL     1      27.911  61.196  34.187  1.00  0.00    -0.508 OA
ATOM     27  H   UNL     1      28.734  61.779  34.092  1.00  0.00     0.293 HD
ENDBRANCH   8  26
TORSDOF 6
ENDMDL
MODEL 4
REMARK VINA RESULT:    -7.141      9.154     11.099
REMARK INTER + INTRA:          -9.006
REMARK INTER:                  -8.586
REMARK INTRA:                  -0.420
REMARK UNBOUND:                -0.404
REMARK SMILES O=c1c(O)c(-c2ccc(O)cc2O)oc2cc(O)cc(O)c12
REMARK SMILES IDX 5 1 3 2 2 3 1 4 22 5 20 6 19 7 17 8 16 9 15 10 14 11 6 12
REMARK SMILES IDX 8 13 7 14 9 15 11 16 12 17 10 18 13 20 4 22 21 24 18 26
REMARK H PARENT 10 19 13 21 4 23 21 25 18 27
REMARK Flexibility Score: inf
ROOT
ATOM      1  C   UNL     1      24.095  63.635  26.588  1.00  0.00     0.184 A 
ATOM      2  C   UNL     1      23.309  62.479  26.735  1.00  0.00     0.208 A 
ATOM      3  C   UNL     1      22.312  62.458  27.723  1.00  0.00     0.238 A 
ATOM      4  O   UNL     1      21.608  61.423  27.872  1.00  0.00    -0.285 OA
ATOM      5  C   UNL     1      22.107  63.598  28.528  1.00  0.00     0.111 A 
ATOM      6  C   UNL     1      21.121  63.661  29.543  1.00  0.00     0.134 A 
ATOM      7  C   UNL     1      20.973  64.836  30.295  1.00  0.00     0.093 A 
ATOM      8  C   UNL     1      21.789  65.946  30.053  1.00  0.00     0.123 A 
ATOM      9  C   UNL     1      22.762  65.888  29.054  1.00  0.00     0.094 A 
ATOM     10  C   UNL     1      22.928  64.727  28.294  1.00  0.00     0.146 A 
ATOM     11  O   UNL     1      23.865  64.698  27.353  1.00  0.00    -0.451 OA
ENDROOT
BRANCH   1  12
ATOM     12  C   UNL     1      25.169  63.720  25.575  1.00  0.00     0.063 A 
ATOM     13  C   UNL     1      27.403  63.084  24.858  1.00  0.00     0.047 A 
ATOM     14  C   UNL     1      26.370  63.030  25.798  1.00  0.00     0.020 A 
ATOM     15  C   UNL     1      27.244  63.817  23.680  1.00  0.00     0.119 A 
ATOM     16  C   UNL     1      26.040  64.490  23.437  1.00  0.00     0.093 A 
ATOM     17  C   UNL     1      24.995  64.436  24.373  1.00  0.00     0.130 A 
BRANCH  15  18
ATOM     18  O   UNL     1      28.284  63.865  22.754  1.00  0.00    -0.508 OA
ATOM     19  H   UNL     1      29.138  64.377  22.942  1.00  0.00     0.293 HD
ENDBRANCH  15  18
BRANCH  17  20
ATOM     20  O   UNL     1      23.784  65.070  24.098  1.00  0.00    -0.507 OA
ATOM     21  H   UNL     1      23.650  66.059  24.273  1.00  0.00     0.293 HD
ENDBRANCH  17  20
ENDBRANCH   1  12
BRANCH   2  22
ATOM     22  O   UNL     1      23.508  61.384  25.891  1.00  0.00    -0.502 OA
ATOM     23  H   UNL     1      24.132  60.623  26.130  1.00  0.00     0.293 HD
ENDBRANCH   2  22
BRANCH   6  24
ATOM     24  O   UNL     1      20.291  62.570  29.807  1.00  0.00    -0.507 OA
ATOM     25  H   UNL     1      19.633  62.576  30.578  1.00  0.00     0.293 HD
ENDBRANCH   6  24
BRANCH   8  26
ATOM     26  O   UNL     1      21.641  67.112  30.800  1.00  0.00    -0.508 OA
ATOM     27  H   UNL     1      20.881  67.760  30.627  1.00  0.00     0.293 HD
ENDBRANCH   8  26
TORSDOF 6
ENDMDL
MODEL 5
REMARK VINA RESULT:    -7.140     10.070     12.535
REMARK INTER + INTRA:          -9.005
REMARK INTER:                  -8.607
REMARK INTRA:                  -0.398
REMARK UNBOUND:                -0.404
REMARK SMILES O=c1c(O)c(-c2ccc(O)cc2O)oc2cc(O)cc(O)c12
REMARK SMILES IDX 5 1 3 2 2 3 1 4 22 5 20 6 19 7 17 8 16 9 15 10 14 11 6 12
REMARK SMILES IDX 8 13 7 14 9 15 11 16 12 17 10 18 13 20 4 22 21 24 18 26
REMARK H PARENT 10 19 13 21 4 23 21 25 18 27
REMARK Flexibility Score: inf
ROOT
ATOM      1  C   UNL     1      22.962  62.794  32.398  1.00  0.00     0.184 A 
ATOM      2  C   UNL     1      23.383  63.087  33.707  1.00  0.00     0.208 A 
ATOM      3  C   UNL     1      24.293  62.222  34.336  1.00  0.00     0.238 A 
ATOM      4  O   UNL     1      24.668  62.468  35.514  1.00  0.00    -0.285 OA
ATOM      5  C   UNL     1      24.778  61.097  33.639  1.00  0.00     0.111 A 
ATOM      6  C   UNL     1      25.699  60.178  34.198  1.00  0.00     0.134 A 
ATOM      7  C   UNL     1      26.142  59.087  33.436  1.00  0.00     0.093 A 
ATOM      8  C   UNL     1      25.683  58.897  32.128  1.00  0.00     0.123 A 
ATOM      9  C   UNL     1      24.776  59.800  31.573  1.00  0.00     0.094 A 
ATOM     10  C   UNL     1      24.320  60.893  32.316  1.00  0.00     0.146 A 
ATOM     11  O   UNL     1      23.452  61.733  31.764  1.00  0.00    -0.451 OA
ENDROOT
BRANCH   1  12
ATOM     12  C   UNL     1      21.998  63.656  31.682  1.00  0.00     0.063 A 
ATOM     13  C   UNL     1      19.739  64.533  31.489  1.00  0.00     0.047 A 
ATOM     14  C   UNL     1      20.674  63.723  32.140  1.00  0.00     0.020 A 
ATOM     15  C   UNL     1      20.119  65.295  30.382  1.00  0.00     0.119 A 
ATOM     16  C   UNL     1      21.445  65.254  29.931  1.00  0.00     0.093 A 
ATOM     17  C   UNL     1      22.391  64.448  30.583  1.00  0.00     0.130 A 
BRANCH  15  18
ATOM     18  O   UNL     1      19.175  66.095  29.741  1.00  0.00    -0.508 OA
ATOM     19  H   UNL     1      19.006  67.051  30.032  1.00  0.00     0.293 HD
ENDBRANCH  15  18
BRANCH  17  20
ATOM     20  O   UNL     1      23.718  64.453  30.155  1.00  0.00    -0.507 OA
ATOM     21  H   UNL     1      24.049  65.106  29.454  1.00  0.00     0.293 HD
ENDBRANCH  17  20
ENDBRANCH   1  12
BRANCH   2  22
ATOM     22  O   UNL     1      22.918  64.234  34.354  1.00  0.00    -0.502 OA
ATOM     23  H   UNL     1      23.226  64.496  35.282  1.00  0.00     0.293 HD
ENDBRANCH   2  22
BRANCH   6  24
ATOM     24  O   UNL     1      26.175  60.341  35.501  1.00  0.00    -0.507 OA
ATOM     25  H   UNL     1      26.304  59.552  36.123  1.00  0.00     0.293 HD
ENDBRANCH   6  24
BRANCH   8  26
ATOM     26  O   UNL     1      26.124  57.814  31.372  1.00  0.00    -0.508 OA
ATOM     27  H   UNL     1      25.604  57.480  30.568  1.00  0.00     0.293 HD
ENDBRANCH   8  26
TORSDOF 6
ENDMDL
MODEL 6
REMARK VINA RESULT:    -7.117      9.855     11.080
REMARK INTER + INTRA:          -8.978
REMARK INTER:                  -8.700
REMARK INTRA:                  -0.278
REMARK UNBOUND:                -0.404
REMARK SMILES O=c1c(O)c(-c2ccc(O)cc2O)oc2cc(O)cc(O)c12
REMARK SMILES IDX 5 1 3 2 2 3 1 4 22 5 20 6 19 7 17 8 16 9 15 10 14 11 6 12
REMARK SMILES IDX 8 13 7 14 9 15 11 16 12 17 10 18 13 20 4 22 21 24 18 26
REMARK H PARENT 10 19 13 21 4 23 21 25 18 27
REMARK Flexibility Score: inf
ROOT
ATOM      1  C   UNL     1      23.573  62.727  31.389  1.00  0.00     0.184 A 
ATOM      2  C   UNL     1      23.686  61.582  30.581  1.00  0.00     0.208 A 
ATOM      3  C   UNL     1      23.375  61.682  29.216  1.00  0.00     0.238 A 
ATOM      4  O   UNL     1      23.461  60.659  28.484  1.00  0.00    -0.285 OA
ATOM      5  C   UNL     1      22.978  62.925  28.683  1.00  0.00     0.111 A 
ATOM      6  C   UNL     1      22.651  63.113  27.317  1.00  0.00     0.134 A 
ATOM      7  C   UNL     1      22.273  64.384  26.861  1.00  0.00     0.093 A 
ATOM      8  C   UNL     1      22.218  65.471  27.742  1.00  0.00     0.123 A 
ATOM      9  C   UNL     1      22.539  65.290  29.088  1.00  0.00     0.094 A 
ATOM     10  C   UNL     1      22.915  64.031  29.564  1.00  0.00     0.146 A 
ATOM     11  O   UNL     1      23.211  63.887  30.850  1.00  0.00    -0.451 OA
ENDROOT
BRANCH   1  12
ATOM     12  C   UNL     1      23.874  62.689  32.836  1.00  0.00     0.063 A 
ATOM     13  C   UNL     1      25.460  62.212  34.615  1.00  0.00     0.047 A 
ATOM     14  C   UNL     1      25.140  62.254  33.255  1.00  0.00     0.020 A 
ATOM     15  C   UNL     1      24.524  62.616  35.571  1.00  0.00     0.119 A 
ATOM     16  C   UNL     1      23.265  63.073  35.160  1.00  0.00     0.093 A 
ATOM     17  C   UNL     1      22.938  63.125  33.796  1.00  0.00     0.130 A 
BRANCH  15  18
ATOM     18  O   UNL     1      24.855  62.565  36.923  1.00  0.00    -0.508 OA
ATOM     19  H   UNL     1      25.337  61.767  37.321  1.00  0.00     0.293 HD
ENDBRANCH  15  18
BRANCH  17  20
ATOM     20  O   UNL     1      21.700  63.628  33.398  1.00  0.00    -0.507 OA
ATOM     21  H   UNL     1      21.120  63.142  32.724  1.00  0.00     0.293 HD
ENDBRANCH  17  20
ENDBRANCH   1  12
BRANCH   2  22
ATOM     22  O   UNL     1      24.125  60.375  31.131  1.00  0.00    -0.502 OA
ATOM     23  H   UNL     1      25.107  60.164  31.259  1.00  0.00     0.293 HD
ENDBRANCH   2  22
BRANCH   6  24
ATOM     24  O   UNL     1      22.698  62.049  26.415  1.00  0.00    -0.507 OA
ATOM     25  H   UNL     1      22.283  61.149  26.629  1.00  0.00     0.293 HD
ENDBRANCH   6  24
BRANCH   8  26
ATOM     26  O   UNL     1      21.844  66.733  27.288  1.00  0.00    -0.508 OA
ATOM     27  H   UNL     1      21.221  67.327  27.824  1.00  0.00     0.293 HD
ENDBRANCH   8  26
TORSDOF 6
ENDMDL
MODEL 7
REMARK VINA RESULT:    -7.023      9.386     10.972
REMARK INTER + INTRA:          -8.864
REMARK INTER:                  -8.555
REMARK INTRA:                  -0.309
REMARK UNBOUND:                -0.404
REMARK SMILES O=c1c(O)c(-c2ccc(O)cc2O)oc2cc(O)cc(O)c12
REMARK SMILES IDX 5 1 3 2 2 3 1 4 22 5 20 6 19 7 17 8 16 9 15 10 14 11 6 12
REMARK SMILES IDX 8 13 7 14 9 15 11 16 12 17 10 18 13 20 4 22 21 24 18 26
REMARK H PARENT 10 19 13 21 4 23 21 25 18 27
REMARK Flexibility Score: inf
ROOT
ATOM      1  C   UNL     1      23.201  63.734  28.047  1.00  0.00     0.184 A 
ATOM      2  C   UNL     1      21.841  64.069  28.157  1.00  0.00     0.208 A 
ATOM      3  C   UNL     1      21.237  64.048  29.424  1.00  0.00     0.238 A 
ATOM      4  O   UNL     1      20.014  64.335  29.533  1.00  0.00    -0.285 OA
ATOM      5  C   UNL     1      22.008  63.713  30.556  1.00  0.00     0.111 A 
ATOM      6  C   UNL     1      21.478  63.672  31.868  1.00  0.00     0.134 A 
ATOM      7  C   UNL     1      22.313  63.338  32.945  1.00  0.00     0.093 A 
ATOM      8  C   UNL     1      23.666  63.046  32.735  1.00  0.00     0.123 A 
ATOM      9  C   UNL     1      24.192  63.086  31.443  1.00  0.00     0.094 A 
ATOM     10  C   UNL     1      23.376  63.414  30.356  1.00  0.00     0.146 A 
ATOM     11  O   UNL     1      23.903  63.438  29.137  1.00  0.00    -0.451 OA
ENDROOT
BRANCH   1  12
ATOM     12  C   UNL     1      23.896  63.726  26.742  1.00  0.00     0.063 A 
ATOM     13  C   UNL     1      24.604  64.939  24.758  1.00  0.00     0.047 A 
ATOM     14  C   UNL     1      23.949  64.911  25.993  1.00  0.00     0.020 A 
ATOM     15  C   UNL     1      25.223  63.788  24.264  1.00  0.00     0.119 A 
ATOM     16  C   UNL     1      25.195  62.606  25.015  1.00  0.00     0.093 A 
ATOM     17  C   UNL     1      24.546  62.571  26.259  1.00  0.00     0.130 A 
BRANCH  15  18
ATOM     18  O   UNL     1      25.868  63.830  23.029  1.00  0.00    -0.508 OA
ATOM     19  H   UNL     1      26.610  64.494  22.842  1.00  0.00     0.293 HD
ENDBRANCH  15  18
BRANCH  17  20
ATOM     20  O   UNL     1      24.567  61.402  27.020  1.00  0.00    -0.507 OA
ATOM     21  H   UNL     1      24.758  61.418  28.014  1.00  0.00     0.293 HD
ENDBRANCH  17  20
ENDBRANCH   1  12
BRANCH   2  22
ATOM     22  O   UNL     1      21.116  64.440  27.021  1.00  0.00    -0.502 OA
ATOM     23  H   UNL     1      21.369  64.129  26.092  1.00  0.00     0.293 HD
ENDBRANCH   2  22
BRANCH   6  24
ATOM     24  O   UNL     1      20.133  63.959  32.109  1.00  0.00    -0.507 OA
ATOM     25  H   UNL     1      19.501  63.266  32.492  1.00  0.00     0.293 HD
ENDBRANCH   6  24
BRANCH   8  26
ATOM     26  O   UNL     1      24.494  62.716  33.804  1.00  0.00    -0.508 OA
ATOM     27  H   UNL     1      24.573  63.314  34.619  1.00  0.00     0.293 HD
ENDBRANCH   8  26
TORSDOF 6
ENDMDL
MODEL 8
REMARK VINA RESULT:    -7.003      9.969     10.979
REMARK INTER + INTRA:          -8.840
REMARK INTER:                  -8.818
REMARK INTRA:                  -0.022
REMARK UNBOUND:                -0.404
REMARK SMILES O=c1c(O)c(-c2ccc(O)cc2O)oc2cc(O)cc(O)c12
REMARK SMILES IDX 5 1 3 2 2 3 1 4 22 5 20 6 19 7 17 8 16 9 15 10 14 11 6 12
REMARK SMILES IDX 8 13 7 14 9 15 11 16 12 17 10 18 13 20 4 22 21 24 18 26
REMARK H PARENT 10 19 13 21 4 23 21 25 18 27
REMARK Flexibility Score: inf
ROOT
ATOM      1  C   UNL     1      23.693  62.915  31.048  1.00  0.00     0.184 A 
ATOM      2  C   UNL     1      22.721  63.902  31.282  1.00  0.00     0.208 A 
ATOM      3  C   UNL     1      22.269  64.679  30.203  1.00  0.00     0.238 A 
ATOM      4  O   UNL     1      21.406  65.575  30.403  1.00  0.00    -0.285 OA
ATOM      5  C   UNL     1      22.783  64.440  28.912  1.00  0.00     0.111 A 
ATOM      6  C   UNL     1      22.378  65.174  27.770  1.00  0.00     0.134 A 
ATOM      7  C   UNL     1      22.930  64.869  26.517  1.00  0.00     0.093 A 
ATOM      8  C   UNL     1      23.875  63.846  26.383  1.00  0.00     0.123 A 
ATOM      9  C   UNL     1      24.275  63.120  27.505  1.00  0.00     0.094 A 
ATOM     10  C   UNL     1      23.740  63.409  28.764  1.00  0.00     0.146 A 
ATOM     11  O   UNL     1      24.144  62.705  29.815  1.00  0.00    -0.451 OA
ENDROOT
BRANCH   1  12
ATOM     12  C   UNL     1      24.220  62.070  32.141  1.00  0.00     0.063 A 
ATOM     13  C   UNL     1      24.942  61.876  34.454  1.00  0.00     0.047 A 
ATOM     14  C   UNL     1      24.450  62.648  33.398  1.00  0.00     0.020 A 
ATOM     15  C   UNL     1      25.197  60.515  34.271  1.00  0.00     0.119 A 
ATOM     16  C   UNL     1      24.948  59.923  33.025  1.00  0.00     0.093 A 
ATOM     17  C   UNL     1      24.448  60.689  31.962  1.00  0.00     0.130 A 
BRANCH  15  18
ATOM     18  O   UNL     1      25.690  59.758  35.331  1.00  0.00    -0.508 OA
ATOM     19  H   UNL     1      26.628  59.898  35.690  1.00  0.00     0.293 HD
ENDBRANCH  15  18
BRANCH  17  20
ATOM     20  O   UNL     1      24.159  60.078  30.742  1.00  0.00    -0.507 OA
ATOM     21  H   UNL     1      24.833  60.055  29.986  1.00  0.00     0.293 HD
ENDBRANCH  17  20
ENDBRANCH   1  12
BRANCH   2  22
ATOM     22  O   UNL     1      22.200  64.084  32.565  1.00  0.00    -0.502 OA
ATOM     23  H   UNL     1      22.632  63.680  33.388  1.00  0.00     0.293 HD
ENDBRANCH   2  22
BRANCH   6  24
ATOM     24  O   UNL     1      21.437  66.200  27.872  1.00  0.00    -0.507 OA
ATOM     25  H   UNL     1      20.638  66.253  27.252  1.00  0.00     0.293 HD
ENDBRANCH   6  24
BRANCH   8  26
ATOM     26  O   UNL     1      24.420  63.543  25.138  1.00  0.00    -0.508 OA
ATOM     27  H   UNL     1      24.321  64.171  24.348  1.00  0.00     0.293 HD
ENDBRANCH   8  26
TORSDOF 6
ENDMDL
MODEL 9
REMARK VINA RESULT:    -6.910      1.701      2.134
REMARK INTER + INTRA:          -8.728
REMARK INTER:                  -8.334
REMARK INTRA:                  -0.394
REMARK UNBOUND:                -0.404
REMARK SMILES O=c1c(O)c(-c2ccc(O)cc2O)oc2cc(O)cc(O)c12
REMARK SMILES IDX 5 1 3 2 2 3 1 4 22 5 20 6 19 7 17 8 16 9 15 10 14 11 6 12
REMARK SMILES IDX 8 13 7 14 9 15 11 16 12 17 10 18 13 20 4 22 21 24 18 26
REMARK H PARENT 10 19 13 21 4 23 21 25 18 27
REMARK Flexibility Score: inf
ROOT
ATOM      1  C   UNL     1      17.459  56.276  27.429  1.00  0.00     0.184 A 
ATOM      2  C   UNL     1      18.173  56.427  26.227  1.00  0.00     0.208 A 
ATOM      3  C   UNL     1      17.884  57.524  25.400  1.00  0.00     0.238 A 
ATOM      4  O   UNL     1      18.509  57.663  24.314  1.00  0.00    -0.285 OA
ATOM      5  C   UNL     1      16.903  58.455  25.798  1.00  0.00     0.111 A 
ATOM      6  C   UNL     1      16.553  59.589  25.024  1.00  0.00     0.134 A 
ATOM      7  C   UNL     1      15.573  60.476  25.494  1.00  0.00     0.093 A 
ATOM      8  C   UNL     1      14.937  60.252  26.721  1.00  0.00     0.123 A 
ATOM      9  C   UNL     1      15.279  59.136  27.486  1.00  0.00     0.094 A 
ATOM     10  C   UNL     1      16.251  58.238  27.035  1.00  0.00     0.146 A 
ATOM     11  O   UNL     1      16.552  57.182  27.782  1.00  0.00    -0.451 OA
ENDROOT
BRANCH   1  12
ATOM     12  C   UNL     1      17.707  55.139  28.341  1.00  0.00     0.063 A 
ATOM     13  C   UNL     1      17.128  52.892  29.063  1.00  0.00     0.047 A 
ATOM     14  C   UNL     1      16.916  53.986  28.220  1.00  0.00     0.020 A 
ATOM     15  C   UNL     1      18.139  52.930  30.026  1.00  0.00     0.119 A 
ATOM     16  C   UNL     1      18.949  54.069  30.139  1.00  0.00     0.093 A 
ATOM     17  C   UNL     1      18.747  55.170  29.293  1.00  0.00     0.130 A 
BRANCH  15  18
ATOM     18  O   UNL     1      18.336  51.833  30.862  1.00  0.00    -0.508 OA
ATOM     19  H   UNL     1      19.072  51.159  30.686  1.00  0.00     0.293 HD
ENDBRANCH  15  18
BRANCH  17  20
ATOM     20  O   UNL     1      19.590  56.277  29.382  1.00  0.00    -0.507 OA
ATOM     21  H   UNL     1      20.055  56.523  30.248  1.00  0.00     0.293 HD
ENDBRANCH  17  20
ENDBRANCH   1  12
BRANCH   2  22
ATOM     22  O   UNL     1      19.170  55.511  25.883  1.00  0.00    -0.502 OA
ATOM     23  H   UNL     1      19.796  55.660  25.101  1.00  0.00     0.293 HD
ENDBRANCH   2  22
BRANCH   6  24
ATOM     24  O   UNL     1      17.171  59.840  23.798  1.00  0.00    -0.507 OA
ATOM     25  H   UNL     1      16.633  60.025  22.959  1.00  0.00     0.293 HD
ENDBRANCH   6  24
BRANCH   8  26
ATOM     26  O   UNL     1      13.965  61.133  27.187  1.00  0.00    -0.508 OA
ATOM     27  H   UNL     1      13.305  61.576  26.558  1.00  0.00     0.293 HD
ENDBRANCH   8  26
TORSDOF 6
ENDMDL
