MODEL 1
REMARK VINA RESULT:    -4.657      0.000      0.000
REMARK INTER + INTRA:          -7.269
REMARK INTER:                  -6.291
REMARK INTRA:                  -0.978
REMARK UNBOUND:                -0.978
REMARK SMILES CC(=O)CCC=C(C)CCC=C(C)C
REMARK SMILES IDX 7 1 6 2 8 3 9 4 10 5 11 6 13 7 12 8 14 9 5 10 4 11 2 12 3 13
REMARK SMILES IDX 1 14
REMARK H PARENT
REMARK Flexibility Score: inf
ROOT
ATOM      1  C   UNL     1      55.006  17.891  -2.139  1.00  0.00    -0.077 C 
ATOM      2  C   UNL     1      55.144  17.384  -3.386  1.00  0.00    -0.028 C 
ATOM      3  C   UNL     1      55.129  19.371  -1.861  1.00  0.00     0.039 C 
ENDROOT
BRANCH   1   4
ATOM      4  C   UNL     1      54.742  16.946  -0.988  1.00  0.00     0.034 C 
BRANCH   4   5
ATOM      5  C   UNL     1      54.371  15.551  -1.501  1.00  0.00     0.032 C 
BRANCH   5   6
ATOM      6  C   UNL     1      55.328  14.513  -0.969  1.00  0.00    -0.028 C 
ATOM      7  C   UNL     1      55.954  13.689  -3.251  1.00  0.00     0.039 C 
ATOM      8  C   UNL     1      56.066  13.686  -1.743  1.00  0.00    -0.080 C 
ATOM      9  C   UNL     1      57.011  12.725  -1.071  1.00  0.00     0.039 C 
ENDBRANCH   5   6
ENDBRANCH   4   5
ENDBRANCH   1   4
BRANCH   2  10
ATOM     10  C   UNL     1      55.375  18.213  -4.624  1.00  0.00     0.035 C 
BRANCH  10  11
ATOM     11  C   UNL     1      54.109  18.270  -5.485  1.00  0.00     0.079 C 
BRANCH  11  12
ATOM     12  C   UNL     1      53.364  19.558  -5.251  1.00  0.00     0.130 C 
ATOM     13  O   UNL     1      53.689  20.561  -5.868  1.00  0.00    -0.300 OA
ATOM     14  C   UNL     1      52.237  19.641  -4.265  1.00  0.00     0.087 C 
ENDBRANCH  11  12
ENDBRANCH  10  11
ENDBRANCH   2  10
TORSDOF 6
ENDMDL
MODEL 2
REMARK VINA RESULT:    -4.469      2.764      6.118
REMARK INTER + INTRA:          -7.015
REMARK INTER:                  -6.007
REMARK INTRA:                  -1.008
REMARK UNBOUND:                -0.978
REMARK SMILES CC(=O)CCC=C(C)CCC=C(C)C
REMARK SMILES IDX 7 1 6 2 8 3 9 4 10 5 11 6 13 7 12 8 14 9 5 10 4 11 2 12 3 13
REMARK SMILES IDX 1 14
REMARK H PARENT
REMARK Flexibility Score: inf
ROOT
ATOM      1  C   UNL     1      54.972  17.721  -2.885  1.00  0.00    -0.077 C 
ATOM      2  C   UNL     1      55.118  16.536  -3.520  1.00  0.00    -0.028 C 
ATOM      3  C   UNL     1      54.278  17.831  -1.548  1.00  0.00     0.039 C 
ENDROOT
BRANCH   1   4
ATOM      4  C   UNL     1      55.501  18.977  -3.544  1.00  0.00     0.034 C 
BRANCH   4   5
ATOM      5  C   UNL     1      55.246  18.948  -5.055  1.00  0.00     0.032 C 
BRANCH   5   6
ATOM      6  C   UNL     1      54.008  19.736  -5.404  1.00  0.00    -0.028 C 
ATOM      7  C   UNL     1      52.628  17.688  -5.826  1.00  0.00     0.039 C 
ATOM      8  C   UNL     1      52.817  19.185  -5.728  1.00  0.00    -0.080 C 
ATOM      9  C   UNL     1      51.655  20.100  -6.014  1.00  0.00     0.039 C 
ENDBRANCH   5   6
ENDBRANCH   4   5
ENDBRANCH   1   4
BRANCH   2  10
ATOM     10  C   UNL     1      54.669  15.208  -2.963  1.00  0.00     0.035 C 
BRANCH  10  11
ATOM     11  C   UNL     1      55.821  14.198  -2.973  1.00  0.00     0.079 C 
BRANCH  11  12
ATOM     12  C   UNL     1      56.155  13.758  -1.572  1.00  0.00     0.130 C 
ATOM     13  O   UNL     1      56.882  12.790  -1.404  1.00  0.00    -0.300 OA
ATOM     14  C   UNL     1      55.604  14.475  -0.375  1.00  0.00     0.087 C 
ENDBRANCH  11  12
ENDBRANCH  10  11
ENDBRANCH   2  10
TORSDOF 6
ENDMDL
MODEL 3
REMARK VINA RESULT:    -4.464      1.668      2.547
REMARK INTER + INTRA:          -7.008
REMARK INTER:                  -6.007
REMARK INTRA:                  -1.001
REMARK UNBOUND:                -0.978
REMARK SMILES CC(=O)CCC=C(C)CCC=C(C)C
REMARK SMILES IDX 7 1 6 2 8 3 9 4 10 5 11 6 13 7 12 8 14 9 5 10 4 11 2 12 3 13
REMARK SMILES IDX 1 14
REMARK H PARENT
REMARK Flexibility Score: inf
ROOT
ATOM      1  C   UNL     1      54.795  18.994  -3.726  1.00  0.00    -0.077 C 
ATOM      2  C   UNL     1      53.542  19.165  -4.206  1.00  0.00    -0.028 C 
ATOM      3  C   UNL     1      56.007  19.034  -4.626  1.00  0.00     0.039 C 
ENDROOT
BRANCH   1   4
ATOM      4  C   UNL     1      54.985  18.732  -2.248  1.00  0.00     0.034 C 
BRANCH   4   5
ATOM      5  C   UNL     1      54.186  17.502  -1.804  1.00  0.00     0.032 C 
BRANCH   5   6
ATOM      6  C   UNL     1      55.028  16.254  -1.901  1.00  0.00    -0.028 C 
ATOM      7  C   UNL     1      53.897  15.461  -3.991  1.00  0.00     0.039 C 
ATOM      8  C   UNL     1      54.928  15.340  -2.892  1.00  0.00    -0.080 C 
ATOM      9  C   UNL     1      55.865  14.160  -2.880  1.00  0.00     0.039 C 
ENDBRANCH   5   6
ENDBRANCH   4   5
ENDBRANCH   1   4
BRANCH   2  10
ATOM     10  C   UNL     1      53.213  19.464  -5.647  1.00  0.00     0.035 C 
BRANCH  10  11
ATOM     11  C   UNL     1      52.838  20.939  -5.824  1.00  0.00     0.079 C 
BRANCH  11  12
ATOM     12  C   UNL     1      51.390  21.166  -5.477  1.00  0.00     0.130 C 
ATOM     13  O   UNL     1      50.521  20.777  -6.243  1.00  0.00    -0.300 OA
ATOM     14  C   UNL     1      50.989  21.872  -4.216  1.00  0.00     0.087 C 
ENDBRANCH  11  12
ENDBRANCH  10  11
ENDBRANCH   2  10
TORSDOF 6
ENDMDL
MODEL 4
REMARK VINA RESULT:    -4.438      2.932      5.844
REMARK INTER + INTRA:          -6.973
REMARK INTER:                  -5.961
REMARK INTRA:                  -1.012
REMARK UNBOUND:                -0.978
REMARK SMILES CC(=O)CCC=C(C)CCC=C(C)C
REMARK SMILES IDX 7 1 6 2 8 3 9 4 10 5 11 6 13 7 12 8 14 9 5 10 4 11 2 12 3 13
REMARK SMILES IDX 1 14
REMARK H PARENT
REMARK Flexibility Score: inf
ROOT
ATOM      1  C   UNL     1      54.445  16.192  -2.035  1.00  0.00    -0.077 C 
ATOM      2  C   UNL     1      55.296  15.532  -2.854  1.00  0.00    -0.028 C 
ATOM      3  C   UNL     1      53.051  15.683  -1.754  1.00  0.00     0.039 C 
ENDROOT
BRANCH   1   4
ATOM      4  C   UNL     1      54.896  17.489  -1.399  1.00  0.00     0.034 C 
BRANCH   4   5
ATOM      5  C   UNL     1      54.483  18.689  -2.259  1.00  0.00     0.032 C 
BRANCH   5   6
ATOM      6  C   UNL     1      55.631  19.148  -3.122  1.00  0.00    -0.028 C 
ATOM      7  C   UNL     1      54.634  18.216  -5.223  1.00  0.00     0.039 C 
ATOM      8  C   UNL     1      55.702  18.965  -4.460  1.00  0.00    -0.080 C 
ATOM      9  C   UNL     1      56.895  19.515  -5.198  1.00  0.00     0.039 C 
ENDBRANCH   5   6
ENDBRANCH   4   5
ENDBRANCH   1   4
BRANCH   2  10
ATOM     10  C   UNL     1      54.988  14.217  -3.524  1.00  0.00     0.035 C 
BRANCH  10  11
ATOM     11  C   UNL     1      56.087  13.189  -3.234  1.00  0.00     0.079 C 
BRANCH  11  12
ATOM     12  C   UNL     1      55.968  12.664  -1.828  1.00  0.00     0.130 C 
ATOM     13  O   UNL     1      55.024  11.947  -1.533  1.00  0.00    -0.300 OA
ATOM     14  C   UNL     1      56.978  13.012  -0.775  1.00  0.00     0.087 C 
ENDBRANCH  11  12
ENDBRANCH  10  11
ENDBRANCH   2  10
TORSDOF 6
ENDMDL
MODEL 5
REMARK VINA RESULT:    -4.415      2.490      6.244
REMARK INTER + INTRA:          -6.941
REMARK INTER:                  -6.036
REMARK INTRA:                  -0.905
REMARK UNBOUND:                -0.978
REMARK SMILES CC(=O)CCC=C(C)CCC=C(C)C
REMARK SMILES IDX 7 1 6 2 8 3 9 4 10 5 11 6 13 7 12 8 14 9 5 10 4 11 2 12 3 13
REMARK SMILES IDX 1 14
REMARK H PARENT
REMARK Flexibility Score: inf
ROOT
ATOM      1  C   UNL     1      55.194  18.350  -3.120  1.00  0.00    -0.077 C 
ATOM      2  C   UNL     1      54.995  17.021  -2.963  1.00  0.00    -0.028 C 
ATOM      3  C   UNL     1      55.164  19.305  -1.950  1.00  0.00     0.039 C 
ENDROOT
BRANCH   1   4
ATOM      4  C   UNL     1      55.432  18.898  -4.510  1.00  0.00     0.034 C 
BRANCH   4   5
ATOM      5  C   UNL     1      54.209  18.665  -5.405  1.00  0.00     0.032 C 
BRANCH   5   6
ATOM      6  C   UNL     1      53.370  19.914  -5.500  1.00  0.00    -0.028 C 
ATOM      7  C   UNL     1      51.722  19.131  -3.783  1.00  0.00     0.039 C 
ATOM      8  C   UNL     1      52.264  20.150  -4.759  1.00  0.00    -0.080 C 
ATOM      9  C   UNL     1      51.548  21.464  -4.935  1.00  0.00     0.039 C 
ENDBRANCH   5   6
ENDBRANCH   4   5
ENDBRANCH   1   4
BRANCH   2  10
ATOM     10  C   UNL     1      54.781  16.340  -1.635  1.00  0.00     0.035 C 
BRANCH  10  11
ATOM     11  C   UNL     1      54.400  14.870  -1.833  1.00  0.00     0.079 C 
BRANCH  11  12
ATOM     12  C   UNL     1      55.632  14.014  -1.970  1.00  0.00     0.130 C 
ATOM     13  O   UNL     1      56.332  13.809  -0.990  1.00  0.00    -0.300 OA
ATOM     14  C   UNL     1      56.026  13.417  -3.288  1.00  0.00     0.087 C 
ENDBRANCH  11  12
ENDBRANCH  10  11
ENDBRANCH   2  10
TORSDOF 6
ENDMDL
MODEL 6
REMARK VINA RESULT:    -4.356      1.318      1.778
REMARK INTER + INTRA:          -6.862
REMARK INTER:                  -5.751
REMARK INTRA:                  -1.111
REMARK UNBOUND:                -0.978
REMARK SMILES CC(=O)CCC=C(C)CCC=C(C)C
REMARK SMILES IDX 7 1 6 2 8 3 9 4 10 5 11 6 13 7 12 8 14 9 5 10 4 11 2 12 3 13
REMARK SMILES IDX 1 14
REMARK H PARENT
REMARK Flexibility Score: inf
ROOT
ATOM      1  C   UNL     1      53.825  17.665  -1.451  1.00  0.00    -0.077 C 
ATOM      2  C   UNL     1      54.993  18.258  -1.790  1.00  0.00    -0.028 C 
ATOM      3  C   UNL     1      52.499  18.152  -1.985  1.00  0.00     0.039 C 
ENDROOT
BRANCH   1   4
ATOM      4  C   UNL     1      53.846  16.496  -0.490  1.00  0.00     0.034 C 
BRANCH   4   5
ATOM      5  C   UNL     1      55.247  15.878  -0.415  1.00  0.00     0.032 C 
BRANCH   5   6
ATOM      6  C   UNL     1      55.215  14.430  -0.834  1.00  0.00    -0.028 C 
ATOM      7  C   UNL     1      55.465  14.962  -3.269  1.00  0.00     0.039 C 
ATOM      8  C   UNL     1      55.337  14.001  -2.110  1.00  0.00    -0.080 C 
ATOM      9  C   UNL     1      55.326  12.517  -2.374  1.00  0.00     0.039 C 
ENDBRANCH   5   6
ENDBRANCH   4   5
ENDBRANCH   1   4
BRANCH   2  10
ATOM     10  C   UNL     1      55.119  19.406  -2.759  1.00  0.00     0.035 C 
BRANCH  10  11
ATOM     11  C   UNL     1      55.597  18.912  -4.128  1.00  0.00     0.079 C 
BRANCH  11  12
ATOM     12  C   UNL     1      54.464  18.918  -5.121  1.00  0.00     0.130 C 
ATOM     13  O   UNL     1      54.032  19.984  -5.533  1.00  0.00    -0.300 OA
ATOM     14  C   UNL     1      53.845  17.641  -5.608  1.00  0.00     0.087 C 
ENDBRANCH  11  12
ENDBRANCH  10  11
ENDBRANCH   2  10
TORSDOF 6
ENDMDL
MODEL 7
REMARK VINA RESULT:    -4.212      2.389      5.711
REMARK INTER + INTRA:          -6.667
REMARK INTER:                  -5.420
REMARK INTRA:                  -1.248
REMARK UNBOUND:                -0.978
REMARK SMILES CC(=O)CCC=C(C)CCC=C(C)C
REMARK SMILES IDX 7 1 6 2 8 3 9 4 10 5 11 6 13 7 12 8 14 9 5 10 4 11 2 12 3 13
REMARK SMILES IDX 1 14
REMARK H PARENT
REMARK Flexibility Score: inf
ROOT
ATOM      1  C   UNL     1      55.169  18.275  -3.252  1.00  0.00    -0.077 C 
ATOM      2  C   UNL     1      55.091  16.926  -3.207  1.00  0.00    -0.028 C 
ATOM      3  C   UNL     1      55.120  19.120  -2.000  1.00  0.00     0.039 C 
ENDROOT
BRANCH   1   4
ATOM      4  C   UNL     1      55.285  18.960  -4.596  1.00  0.00     0.034 C 
BRANCH   4   5
ATOM      5  C   UNL     1      53.999  18.785  -5.411  1.00  0.00     0.032 C 
BRANCH   5   6
ATOM      6  C   UNL     1      53.170  20.045  -5.377  1.00  0.00    -0.028 C 
ATOM      7  C   UNL     1      51.669  19.200  -3.558  1.00  0.00     0.039 C 
ATOM      8  C   UNL     1      52.136  20.257  -4.533  1.00  0.00    -0.080 C 
ATOM      9  C   UNL     1      51.423  21.583  -4.587  1.00  0.00     0.039 C 
ENDBRANCH   5   6
ENDBRANCH   4   5
ENDBRANCH   1   4
BRANCH   2  10
ATOM     10  C   UNL     1      55.006  16.116  -1.938  1.00  0.00     0.035 C 
BRANCH  10  11
ATOM     11  C   UNL     1      53.766  15.217  -1.948  1.00  0.00     0.079 C 
BRANCH  11  12
ATOM     12  C   UNL     1      52.524  16.017  -1.658  1.00  0.00     0.130 C 
ATOM     13  O   UNL     1      51.541  15.880  -2.370  1.00  0.00    -0.300 OA
ATOM     14  C   UNL     1      52.471  16.992  -0.519  1.00  0.00     0.087 C 
ENDBRANCH  11  12
ENDBRANCH  10  11
ENDBRANCH   2  10
TORSDOF 6
ENDMDL
MODEL 8
REMARK VINA RESULT:    -4.171      3.127      6.135
REMARK INTER + INTRA:          -6.612
REMARK INTER:                  -5.543
REMARK INTRA:                  -1.069
REMARK UNBOUND:                -0.978
REMARK SMILES CC(=O)CCC=C(C)CCC=C(C)C
REMARK SMILES IDX 7 1 6 2 8 3 9 4 10 5 11 6 13 7 12 8 14 9 5 10 4 11 2 12 3 13
REMARK SMILES IDX 1 14
REMARK H PARENT
REMARK Flexibility Score: inf
ROOT
ATOM      1  C   UNL     1      53.698  15.492  -4.120  1.00  0.00    -0.077 C 
ATOM      2  C   UNL     1      54.989  15.176  -3.866  1.00  0.00    -0.028 C 
ATOM      3  C   UNL     1      52.581  15.094  -3.185  1.00  0.00     0.039 C 
ENDROOT
BRANCH   1   4
ATOM      4  C   UNL     1      53.363  16.244  -5.389  1.00  0.00     0.034 C 
BRANCH   4   5
ATOM      5  C   UNL     1      53.304  17.753  -5.129  1.00  0.00     0.032 C 
BRANCH   5   6
ATOM      6  C   UNL     1      54.641  18.395  -5.405  1.00  0.00    -0.028 C 
ATOM      7  C   UNL     1      55.101  18.854  -2.986  1.00  0.00     0.039 C 
ATOM      8  C   UNL     1      55.471  18.873  -4.451  1.00  0.00    -0.080 C 
ATOM      9  C   UNL     1      56.795  19.453  -4.875  1.00  0.00     0.039 C 
ENDBRANCH   5   6
ENDBRANCH   4   5
ENDBRANCH   1   4
BRANCH   2  10
ATOM     10  C   UNL     1      55.465  14.461  -2.627  1.00  0.00     0.035 C 
BRANCH  10  11
ATOM     11  C   UNL     1      56.180  13.156  -2.993  1.00  0.00     0.079 C 
BRANCH  11  12
ATOM     12  C   UNL     1      55.223  11.994  -2.949  1.00  0.00     0.130 C 
ATOM     13  O   UNL     1      55.353  11.078  -3.747  1.00  0.00    -0.300 OA
ATOM     14  C   UNL     1      54.101  11.942  -1.955  1.00  0.00     0.087 C 
ENDBRANCH  11  12
ENDBRANCH  10  11
ENDBRANCH   2  10
TORSDOF 6
ENDMDL
MODEL 9
REMARK VINA RESULT:    -4.141      2.123      3.414
REMARK INTER + INTRA:          -6.572
REMARK INTER:                  -5.378
REMARK INTRA:                  -1.194
REMARK UNBOUND:                -0.978
REMARK SMILES CC(=O)CCC=C(C)CCC=C(C)C
REMARK SMILES IDX 7 1 6 2 8 3 9 4 10 5 11 6 13 7 12 8 14 9 5 10 4 11 2 12 3 13
REMARK SMILES IDX 1 14
REMARK H PARENT
REMARK Flexibility Score: inf
ROOT
ATOM      1  C   UNL     1      54.980  16.859  -2.867  1.00  0.00    -0.077 C 
ATOM      2  C   UNL     1      55.433  17.536  -3.947  1.00  0.00    -0.028 C 
ATOM      3  C   UNL     1      54.382  17.567  -1.675  1.00  0.00     0.039 C 
ENDROOT
BRANCH   1   4
ATOM      4  C   UNL     1      55.096  15.351  -2.844  1.00  0.00     0.034 C 
BRANCH   4   5
ATOM      5  C   UNL     1      54.389  14.731  -4.055  1.00  0.00     0.032 C 
BRANCH   5   6
ATOM      6  C   UNL     1      52.902  14.974  -3.988  1.00  0.00    -0.028 C 
ATOM      7  C   UNL     1      52.842  16.195  -6.175  1.00  0.00     0.039 C 
ATOM      8  C   UNL     1      52.188  15.609  -4.944  1.00  0.00    -0.080 C 
ATOM      9  C   UNL     1      50.699  15.744  -4.759  1.00  0.00     0.039 C 
ENDBRANCH   5   6
ENDBRANCH   4   5
ENDBRANCH   1   4
BRANCH   2  10
ATOM     10  C   UNL     1      55.349  19.032  -4.115  1.00  0.00     0.035 C 
BRANCH  10  11
ATOM     11  C   UNL     1      54.653  19.393  -5.431  1.00  0.00     0.079 C 
BRANCH  11  12
ATOM     12  C   UNL     1      53.252  19.883  -5.175  1.00  0.00     0.130 C 
ATOM     13  O   UNL     1      52.558  19.312  -4.347  1.00  0.00    -0.300 OA
ATOM     14  C   UNL     1      52.683  21.050  -5.925  1.00  0.00     0.087 C 
ENDBRANCH  11  12
ENDBRANCH  10  11
ENDBRANCH   2  10
TORSDOF 6
ENDMDL
