MODEL 1
REMARK VINA RESULT:    -6.606      0.000      0.000
REMARK INTER + INTRA:          -7.447
REMARK INTER:                  -7.378
REMARK INTRA:                  -0.069
REMARK UNBOUND:                -0.069
REMARK SMILES COc1cc2ccc(=O)oc2c(O)c1O
REMARK SMILES IDX 3 1 14 2 12 3 11 4 5 5 4 6 6 7 7 8 8 9 9 10 10 11 2 12 1 13
REMARK SMILES IDX 15 14 13 16
REMARK H PARENT 15 15 13 17
REMARK Flexibility Score: inf
ROOT
ATOM      1  C   UNL     1      10.114  71.753  -0.298  1.00  0.00     0.165 A 
ATOM      2  C   UNL     1      10.235  71.896   1.098  1.00  0.00     0.204 A 
ATOM      3  C   UNL     1       9.992  70.807   1.947  1.00  0.00     0.205 A 
ATOM      4  C   UNL     1       9.626  69.563   1.408  1.00  0.00     0.184 A 
ATOM      5  C   UNL     1       9.503  69.416   0.010  1.00  0.00     0.025 A 
ATOM      6  C   UNL     1       9.746  70.504  -0.836  1.00  0.00     0.062 A 
ATOM      7  C   UNL     1       9.137  68.165  -0.500  1.00  0.00     0.020 A 
ATOM      8  C   UNL     1       8.904  67.108   0.378  1.00  0.00     0.094 A 
ATOM      9  C   UNL     1       9.044  67.326   1.751  1.00  0.00     0.336 A 
ATOM     10  O   UNL     1       8.839  66.385   2.563  1.00  0.00    -0.246 OA
ATOM     11  O   UNL     1       9.394  68.526   2.210  1.00  0.00    -0.419 OA
ENDROOT
BRANCH   1  12
ATOM     12  O   UNL     1      10.365  72.866  -1.116  1.00  0.00    -0.493 OA
ATOM     13  C   UNL     1      11.602  73.125  -1.774  1.00  0.00     0.278 C 
ENDBRANCH   1  12
BRANCH   2  14
ATOM     14  O   UNL     1      10.597  73.121   1.660  1.00  0.00    -0.502 OA
ATOM     15  H   UNL     1      10.074  73.547   2.415  1.00  0.00     0.293 HD
ENDBRANCH   2  14
BRANCH   3  16
ATOM     16  O   UNL     1      10.120  70.979   3.327  1.00  0.00    -0.502 OA
ATOM     17  H   UNL     1      10.243  70.197   3.959  1.00  0.00     0.293 HD
ENDBRANCH   3  16
TORSDOF 3
ENDMDL
MODEL 2
REMARK VINA RESULT:    -6.332      2.026      3.288
REMARK INTER + INTRA:          -7.141
REMARK INTER:                  -7.087
REMARK INTRA:                  -0.054
REMARK UNBOUND:                -0.069
REMARK SMILES COc1cc2ccc(=O)oc2c(O)c1O
REMARK SMILES IDX 3 1 14 2 12 3 11 4 5 5 4 6 6 7 7 8 8 9 9 10 10 11 2 12 1 13
REMARK SMILES IDX 15 14 13 16
REMARK H PARENT 15 15 13 17
REMARK Flexibility Score: inf
ROOT
ATOM      1  C   UNL     1       9.810  71.748   0.562  1.00  0.00     0.165 A 
ATOM      2  C   UNL     1       9.832  71.869  -0.841  1.00  0.00     0.204 A 
ATOM      3  C   UNL     1       9.809  70.725  -1.653  1.00  0.00     0.205 A 
ATOM      4  C   UNL     1       9.763  69.450  -1.069  1.00  0.00     0.184 A 
ATOM      5  C   UNL     1       9.741  69.324   0.337  1.00  0.00     0.025 A 
ATOM      6  C   UNL     1       9.765  70.467   1.145  1.00  0.00     0.062 A 
ATOM      7  C   UNL     1       9.695  68.041   0.892  1.00  0.00     0.020 A 
ATOM      8  C   UNL     1       9.674  66.930   0.051  1.00  0.00     0.094 A 
ATOM      9  C   UNL     1       9.698  67.128  -1.333  1.00  0.00     0.336 A 
ATOM     10  O   UNL     1       9.679  66.139  -2.111  1.00  0.00    -0.246 OA
ATOM     11  O   UNL     1       9.741  68.360  -1.835  1.00  0.00    -0.419 OA
ENDROOT
BRANCH   1  12
ATOM     12  O   UNL     1       9.834  72.915   1.341  1.00  0.00    -0.493 OA
ATOM     13  C   UNL     1       9.059  73.120   2.518  1.00  0.00     0.278 C 
ENDBRANCH   1  12
BRANCH   2  14
ATOM     14  O   UNL     1       9.878  73.125  -1.448  1.00  0.00    -0.502 OA
ATOM     15  H   UNL     1      10.690  73.452  -1.957  1.00  0.00     0.293 HD
ENDBRANCH   2  14
BRANCH   3  16
ATOM     16  O   UNL     1       9.832  70.876  -3.040  1.00  0.00    -0.502 OA
ATOM     17  H   UNL     1       9.308  70.268  -3.658  1.00  0.00     0.293 HD
ENDBRANCH   3  16
TORSDOF 3
ENDMDL
MODEL 3
REMARK VINA RESULT:    -6.326      1.898      3.074
REMARK INTER + INTRA:          -7.135
REMARK INTER:                  -7.086
REMARK INTRA:                  -0.049
REMARK UNBOUND:                -0.069
REMARK SMILES COc1cc2ccc(=O)oc2c(O)c1O
REMARK SMILES IDX 3 1 14 2 12 3 11 4 5 5 4 6 6 7 7 8 8 9 9 10 10 11 2 12 1 13
REMARK SMILES IDX 15 14 13 16
REMARK H PARENT 15 15 13 17
REMARK Flexibility Score: inf
ROOT
ATOM      1  C   UNL     1       9.902  70.784  -0.961  1.00  0.00     0.165 A 
ATOM      2  C   UNL     1       9.461  69.763  -1.826  1.00  0.00     0.204 A 
ATOM      3  C   UNL     1       9.108  68.505  -1.317  1.00  0.00     0.205 A 
ATOM      4  C   UNL     1       9.191  68.255   0.061  1.00  0.00     0.184 A 
ATOM      5  C   UNL     1       9.633  69.275   0.931  1.00  0.00     0.025 A 
ATOM      6  C   UNL     1       9.986  70.530   0.422  1.00  0.00     0.062 A 
ATOM      7  C   UNL     1       9.707  68.999   2.301  1.00  0.00     0.020 A 
ATOM      8  C   UNL     1       9.346  67.735   2.766  1.00  0.00     0.094 A 
ATOM      9  C   UNL     1       8.918  66.773   1.848  1.00  0.00     0.336 A 
ATOM     10  O   UNL     1       8.588  65.625   2.246  1.00  0.00    -0.246 OA
ATOM     11  O   UNL     1       8.857  67.062   0.550  1.00  0.00    -0.419 OA
ENDROOT
BRANCH   1  12
ATOM     12  O   UNL     1      10.247  72.030  -1.508  1.00  0.00    -0.493 OA
ATOM     13  C   UNL     1      10.769  73.125  -0.762  1.00  0.00     0.278 C 
ENDBRANCH   1  12
BRANCH   2  14
ATOM     14  O   UNL     1       9.368  69.984  -3.201  1.00  0.00    -0.502 OA
ATOM     15  H   UNL     1       8.479  70.049  -3.681  1.00  0.00     0.293 HD
ENDBRANCH   2  14
BRANCH   3  16
ATOM     16  O   UNL     1       8.674  67.513  -2.199  1.00  0.00    -0.502 OA
ATOM     17  H   UNL     1       7.697  67.257  -2.285  1.00  0.00     0.293 HD
ENDBRANCH   3  16
TORSDOF 3
ENDMDL
MODEL 4
REMARK VINA RESULT:    -6.247      1.833      2.717
REMARK INTER + INTRA:          -7.046
REMARK INTER:                  -6.983
REMARK INTRA:                  -0.063
REMARK UNBOUND:                -0.069
REMARK SMILES COc1cc2ccc(=O)oc2c(O)c1O
REMARK SMILES IDX 3 1 14 2 12 3 11 4 5 5 4 6 6 7 7 8 8 9 9 10 10 11 2 12 1 13
REMARK SMILES IDX 15 14 13 16
REMARK H PARENT 15 15 13 17
REMARK Flexibility Score: inf
ROOT
ATOM      1  C   UNL     1       9.900  70.822   1.088  1.00  0.00     0.165 A 
ATOM      2  C   UNL     1      10.083  69.784   2.024  1.00  0.00     0.204 A 
ATOM      3  C   UNL     1      10.055  68.444   1.611  1.00  0.00     0.205 A 
ATOM      4  C   UNL     1       9.844  68.128   0.260  1.00  0.00     0.184 A 
ATOM      5  C   UNL     1       9.659  69.165  -0.680  1.00  0.00     0.025 A 
ATOM      6  C   UNL     1       9.687  70.502  -0.266  1.00  0.00     0.062 A 
ATOM      7  C   UNL     1       9.450  68.822  -2.020  1.00  0.00     0.020 A 
ATOM      8  C   UNL     1       9.429  67.478  -2.388  1.00  0.00     0.094 A 
ATOM      9  C   UNL     1       9.619  66.503  -1.405  1.00  0.00     0.336 A 
ATOM     10  O   UNL     1       9.604  65.283  -1.715  1.00  0.00    -0.246 OA
ATOM     11  O   UNL     1       9.816  66.857  -0.137  1.00  0.00    -0.419 OA
ENDROOT
BRANCH   1  12
ATOM     12  O   UNL     1       9.934  72.151   1.539  1.00  0.00    -0.493 OA
ATOM     13  C   UNL     1      10.884  73.125   1.116  1.00  0.00     0.278 C 
ENDBRANCH   1  12
BRANCH   2  14
ATOM     14  O   UNL     1      10.296  70.070   3.373  1.00  0.00    -0.502 OA
ATOM     15  H   UNL     1       9.785  69.604   4.113  1.00  0.00     0.293 HD
ENDBRANCH   2  14
BRANCH   3  16
ATOM     16  O   UNL     1      10.241  67.437   2.561  1.00  0.00    -0.502 OA
ATOM     17  H   UNL     1      10.274  67.632   3.554  1.00  0.00     0.293 HD
ENDBRANCH   3  16
TORSDOF 3
ENDMDL
MODEL 5
REMARK VINA RESULT:    -5.935      1.943      3.644
REMARK INTER + INTRA:          -6.698
REMARK INTER:                  -6.648
REMARK INTRA:                  -0.050
REMARK UNBOUND:                -0.069
REMARK SMILES COc1cc2ccc(=O)oc2c(O)c1O
REMARK SMILES IDX 3 1 14 2 12 3 11 4 5 5 4 6 6 7 7 8 8 9 9 10 10 11 2 12 1 13
REMARK SMILES IDX 15 14 13 16
REMARK H PARENT 15 15 13 17
REMARK Flexibility Score: inf
ROOT
ATOM      1  C   UNL     1       9.650  69.131  -1.543  1.00  0.00     0.165 A 
ATOM      2  C   UNL     1       9.750  70.536  -1.504  1.00  0.00     0.204 A 
ATOM      3  C   UNL     1       9.761  71.213  -0.276  1.00  0.00     0.205 A 
ATOM      4  C   UNL     1       9.672  70.492   0.925  1.00  0.00     0.184 A 
ATOM      5  C   UNL     1       9.571  69.085   0.890  1.00  0.00     0.025 A 
ATOM      6  C   UNL     1       9.561  68.411  -0.336  1.00  0.00     0.062 A 
ATOM      7  C   UNL     1       9.485  68.392   2.103  1.00  0.00     0.020 A 
ATOM      8  C   UNL     1       9.498  69.103   3.301  1.00  0.00     0.094 A 
ATOM      9  C   UNL     1       9.600  70.496   3.261  1.00  0.00     0.336 A 
ATOM     10  O   UNL     1       9.614  71.158   4.332  1.00  0.00    -0.246 OA
ATOM     11  O   UNL     1       9.682  71.131   2.094  1.00  0.00    -0.419 OA
ENDROOT
BRANCH   1  12
ATOM     12  O   UNL     1       9.643  68.489  -2.791  1.00  0.00    -0.493 OA
ATOM     13  C   UNL     1       9.033  67.228  -3.049  1.00  0.00     0.278 C 
ENDBRANCH   1  12
BRANCH   2  14
ATOM     14  O   UNL     1       9.840  71.277  -2.684  1.00  0.00    -0.502 OA
ATOM     15  H   UNL     1      10.576  71.127  -3.363  1.00  0.00     0.293 HD
ENDBRANCH   2  14
BRANCH   3  16
ATOM     16  O   UNL     1       9.862  72.606  -0.270  1.00  0.00    -0.502 OA
ATOM     17  H   UNL     1      10.673  73.086   0.100  1.00  0.00     0.293 HD
ENDBRANCH   3  16
TORSDOF 3
ENDMDL
MODEL 6
REMARK VINA RESULT:    -5.892      1.660      4.326
REMARK INTER + INTRA:          -6.649
REMARK INTER:                  -6.599
REMARK INTRA:                  -0.051
REMARK UNBOUND:                -0.069
REMARK SMILES COc1cc2ccc(=O)oc2c(O)c1O
REMARK SMILES IDX 3 1 14 2 12 3 11 4 5 5 4 6 6 7 7 8 8 9 9 10 10 11 2 12 1 13
REMARK SMILES IDX 15 14 13 16
REMARK H PARENT 15 15 13 17
REMARK Flexibility Score: inf
ROOT
ATOM      1  C   UNL     1       9.630  69.156   1.964  1.00  0.00     0.165 A 
ATOM      2  C   UNL     1       9.953  70.521   1.828  1.00  0.00     0.204 A 
ATOM      3  C   UNL     1      10.112  71.089   0.557  1.00  0.00     0.205 A 
ATOM      4  C   UNL     1       9.950  70.298  -0.592  1.00  0.00     0.184 A 
ATOM      5  C   UNL     1       9.628  68.931  -0.460  1.00  0.00     0.025 A 
ATOM      6  C   UNL     1       9.469  68.365   0.810  1.00  0.00     0.062 A 
ATOM      7  C   UNL     1       9.472  68.166  -1.622  1.00  0.00     0.020 A 
ATOM      8  C   UNL     1       9.639  68.769  -2.867  1.00  0.00     0.094 A 
ATOM      9  C   UNL     1       9.959  70.129  -2.923  1.00  0.00     0.336 A 
ATOM     10  O   UNL     1      10.114  70.694  -4.037  1.00  0.00    -0.246 OA
ATOM     11  O   UNL     1      10.101  70.833  -1.803  1.00  0.00    -0.419 OA
ENDROOT
BRANCH   1  12
ATOM     12  O   UNL     1       9.479  68.623   3.254  1.00  0.00    -0.493 OA
ATOM     13  C   UNL     1       9.762  67.274   3.612  1.00  0.00     0.278 C 
ENDBRANCH   1  12
BRANCH   2  14
ATOM     14  O   UNL     1      10.119  71.329   2.954  1.00  0.00    -0.502 OA
ATOM     15  H   UNL     1      11.024  71.487   3.379  1.00  0.00     0.293 HD
ENDBRANCH   2  14
BRANCH   3  16
ATOM     16  O   UNL     1      10.431  72.444   0.453  1.00  0.00    -0.502 OA
ATOM     17  H   UNL     1       9.977  73.150   1.021  1.00  0.00     0.293 HD
ENDBRANCH   3  16
TORSDOF 3
ENDMDL
MODEL 7
REMARK VINA RESULT:    -5.870      1.931      4.457
REMARK INTER + INTRA:          -6.625
REMARK INTER:                  -6.572
REMARK INTRA:                  -0.053
REMARK UNBOUND:                -0.069
REMARK SMILES COc1cc2ccc(=O)oc2c(O)c1O
REMARK SMILES IDX 3 1 14 2 12 3 11 4 5 5 4 6 6 7 7 8 8 9 9 10 10 11 2 12 1 13
REMARK SMILES IDX 15 14 13 16
REMARK H PARENT 15 15 13 17
REMARK Flexibility Score: inf
ROOT
ATOM      1  C   UNL     1       9.513  70.567   2.412  1.00  0.00     0.165 A 
ATOM      2  C   UNL     1       9.669  69.195   2.134  1.00  0.00     0.204 A 
ATOM      3  C   UNL     1       9.987  68.765   0.838  1.00  0.00     0.205 A 
ATOM      4  C   UNL     1      10.153  69.703  -0.193  1.00  0.00     0.184 A 
ATOM      5  C   UNL     1       9.997  71.078   0.081  1.00  0.00     0.025 A 
ATOM      6  C   UNL     1       9.679  71.506   1.376  1.00  0.00     0.062 A 
ATOM      7  C   UNL     1      10.167  71.991  -0.965  1.00  0.00     0.020 A 
ATOM      8  C   UNL     1      10.483  71.523  -2.239  1.00  0.00     0.094 A 
ATOM      9  C   UNL     1      10.622  70.147  -2.439  1.00  0.00     0.336 A 
ATOM     10  O   UNL     1      10.907  69.702  -3.582  1.00  0.00    -0.246 OA
ATOM     11  O   UNL     1      10.455  69.300  -1.426  1.00  0.00    -0.419 OA
ENDROOT
BRANCH   1  12
ATOM     12  O   UNL     1       9.194  70.959   3.722  1.00  0.00    -0.493 OA
ATOM     13  C   UNL     1       8.274  71.994   4.057  1.00  0.00     0.278 C 
ENDBRANCH   1  12
BRANCH   2  14
ATOM     14  O   UNL     1       9.510  68.241   3.141  1.00  0.00    -0.502 OA
ATOM     15  H   UNL     1       8.656  67.710   3.254  1.00  0.00     0.293 HD
ENDBRANCH   2  14
BRANCH   3  16
ATOM     16  O   UNL     1      10.137  67.399   0.593  1.00  0.00    -0.502 OA
ATOM     17  H   UNL     1       9.351  66.804   0.359  1.00  0.00     0.293 HD
ENDBRANCH   3  16
TORSDOF 3
ENDMDL
MODEL 8
REMARK VINA RESULT:    -5.865      2.049      3.650
REMARK INTER + INTRA:          -6.619
REMARK INTER:                  -6.567
REMARK INTRA:                  -0.052
REMARK UNBOUND:                -0.069
REMARK SMILES COc1cc2ccc(=O)oc2c(O)c1O
REMARK SMILES IDX 3 1 14 2 12 3 11 4 5 5 4 6 6 7 7 8 8 9 9 10 10 11 2 12 1 13
REMARK SMILES IDX 15 14 13 16
REMARK H PARENT 15 15 13 17
REMARK Flexibility Score: inf
ROOT
ATOM      1  C   UNL     1      10.126  70.255  -2.013  1.00  0.00     0.165 A 
ATOM      2  C   UNL     1       9.524  69.030  -1.660  1.00  0.00     0.204 A 
ATOM      3  C   UNL     1       9.118  68.794  -0.339  1.00  0.00     0.205 A 
ATOM      4  C   UNL     1       9.310  69.779   0.643  1.00  0.00     0.184 A 
ATOM      5  C   UNL     1       9.913  71.006   0.293  1.00  0.00     0.025 A 
ATOM      6  C   UNL     1      10.318  71.241  -1.026  1.00  0.00     0.062 A 
ATOM      7  C   UNL     1      10.092  71.970   1.292  1.00  0.00     0.020 A 
ATOM      8  C   UNL     1       9.675  71.695   2.593  1.00  0.00     0.094 A 
ATOM      9  C   UNL     1       9.086  70.458   2.867  1.00  0.00     0.336 A 
ATOM     10  O   UNL     1       8.702  70.189   4.036  1.00  0.00    -0.246 OA
ATOM     11  O   UNL     1       8.927  69.559   1.899  1.00  0.00    -0.419 OA
ENDROOT
BRANCH   1  12
ATOM     12  O   UNL     1      10.518  70.455  -3.346  1.00  0.00    -0.493 OA
ATOM     13  C   UNL     1      11.677  71.179  -3.749  1.00  0.00     0.278 C 
ENDBRANCH   1  12
BRANCH   2  14
ATOM     14  O   UNL     1       9.321  68.034  -2.616  1.00  0.00    -0.502 OA
ATOM     15  H   UNL     1       9.950  67.898  -3.398  1.00  0.00     0.293 HD
ENDBRANCH   2  14
BRANCH   3  16
ATOM     16  O   UNL     1       8.524  67.571  -0.019  1.00  0.00    -0.502 OA
ATOM     17  H   UNL     1       8.062  66.999  -0.715  1.00  0.00     0.293 HD
ENDBRANCH   3  16
TORSDOF 3
ENDMDL
MODEL 9
REMARK VINA RESULT:    -5.502      2.098      4.328
REMARK INTER + INTRA:          -6.214
REMARK INTER:                  -6.146
REMARK INTRA:                  -0.068
REMARK UNBOUND:                -0.069
REMARK SMILES COc1cc2ccc(=O)oc2c(O)c1O
REMARK SMILES IDX 3 1 14 2 12 3 11 4 5 5 4 6 6 7 7 8 8 9 9 10 10 11 2 12 1 13
REMARK SMILES IDX 15 14 13 16
REMARK H PARENT 15 15 13 17
REMARK Flexibility Score: inf
ROOT
ATOM      1  C   UNL     1       9.652  68.092  -0.870  1.00  0.00     0.165 A 
ATOM      2  C   UNL     1       9.428  67.220   0.213  1.00  0.00     0.204 A 
ATOM      3  C   UNL     1       9.315  67.723   1.517  1.00  0.00     0.205 A 
ATOM      4  C   UNL     1       9.425  69.102   1.751  1.00  0.00     0.184 A 
ATOM      5  C   UNL     1       9.650  69.979   0.668  1.00  0.00     0.025 A 
ATOM      6  C   UNL     1       9.763  69.475  -0.633  1.00  0.00     0.062 A 
ATOM      7  C   UNL     1       9.756  71.350   0.930  1.00  0.00     0.020 A 
ATOM      8  C   UNL     1       9.638  71.809   2.241  1.00  0.00     0.094 A 
ATOM      9  C   UNL     1       9.416  70.883   3.264  1.00  0.00     0.336 A 
ATOM     10  O   UNL     1       9.307  71.276   4.455  1.00  0.00    -0.246 OA
ATOM     11  O   UNL     1       9.319  69.585   2.988  1.00  0.00    -0.419 OA
ENDROOT
BRANCH   1  12
ATOM     12  O   UNL     1       9.759  67.551  -2.161  1.00  0.00    -0.493 OA
ATOM     13  C   UNL     1       8.686  67.466  -3.095  1.00  0.00     0.278 C 
ENDBRANCH   1  12
BRANCH   2  14
ATOM     14  O   UNL     1       9.314  65.844   0.009  1.00  0.00    -0.502 OA
ATOM     15  H   UNL     1       8.694  65.449  -0.688  1.00  0.00     0.293 HD
ENDBRANCH   2  14
BRANCH   3  16
ATOM     16  O   UNL     1       9.092  66.834   2.571  1.00  0.00    -0.502 OA
ATOM     17  H   UNL     1       8.273  66.239   2.611  1.00  0.00     0.293 HD
ENDBRANCH   3  16
TORSDOF 3
ENDMDL
