MODEL 1
REMARK VINA RESULT:    -5.215      0.000      0.000
REMARK INTER + INTRA:          -5.700
REMARK INTER:                  -5.673
REMARK INTRA:                  -0.027
REMARK UNBOUND:                -0.027
REMARK SMILES O=C([O-])c1ccc(O)cc1
REMARK SMILES IDX 4 1 5 2 10 3 6 4 9 5 7 6 2 7 1 8 3 9 8 10
REMARK H PARENT 8 11
REMARK Flexibility Score: inf
ROOT
ATOM      1  C   UNL     1     202.695 209.180 280.206  1.00  0.00    -0.003 A 
ATOM      2  C   UNL     1     201.590 209.703 279.513  1.00  0.00     0.014 A 
ATOM      3  C   UNL     1     203.930 209.850 280.125  1.00  0.00     0.014 A 
ATOM      4  C   UNL     1     201.717 210.872 278.755  1.00  0.00     0.047 A 
ATOM      5  C   UNL     1     204.054 211.018 279.366  1.00  0.00     0.047 A 
ATOM      6  C   UNL     1     202.947 211.532 278.679  1.00  0.00     0.115 A 
ENDROOT
BRANCH   1   7
ATOM      7  C   UNL     1     202.559 207.945 281.008  1.00  0.00     0.071 C 
ATOM      8  O   UNL     1     202.070 207.984 282.168  1.00  0.00    -0.545 OA
ATOM      9  O   UNL     1     202.970 206.721 280.492  1.00  0.00    -0.545 OA
ENDBRANCH   1   7
BRANCH   6  10
ATOM     10  O   UNL     1     203.058 212.694 277.920  1.00  0.00    -0.508 OA
ATOM     11  H   UNL     1     202.600 213.554 278.198  1.00  0.00     0.293 HD
ENDBRANCH   6  10
TORSDOF 2
ENDMDL
MODEL 2
REMARK VINA RESULT:    -5.007      2.474      3.473
REMARK INTER + INTRA:          -5.473
REMARK INTER:                  -5.437
REMARK INTRA:                  -0.036
REMARK UNBOUND:                -0.027
REMARK SMILES O=C([O-])c1ccc(O)cc1
REMARK SMILES IDX 4 1 5 2 10 3 6 4 9 5 7 6 2 7 1 8 3 9 8 10
REMARK H PARENT 8 11
REMARK Flexibility Score: inf
ROOT
ATOM      1  C   UNL     1     203.271 207.876 279.250  1.00  0.00    -0.003 A 
ATOM      2  C   UNL     1     202.818 209.131 278.806  1.00  0.00     0.014 A 
ATOM      3  C   UNL     1     202.608 207.253 280.324  1.00  0.00     0.014 A 
ATOM      4  C   UNL     1     201.726 209.750 279.423  1.00  0.00     0.047 A 
ATOM      5  C   UNL     1     201.517 207.875 280.939  1.00  0.00     0.047 A 
ATOM      6  C   UNL     1     201.073 209.125 280.491  1.00  0.00     0.115 A 
ENDROOT
BRANCH   1   7
ATOM      7  C   UNL     1     204.425 207.223 278.595  1.00  0.00     0.071 C 
ATOM      8  O   UNL     1     204.844 206.105 278.998  1.00  0.00    -0.545 OA
ATOM      9  O   UNL     1     205.067 207.836 277.525  1.00  0.00    -0.545 OA
ENDBRANCH   1   7
BRANCH   6  10
ATOM     10  O   UNL     1     199.988 209.753 281.095  1.00  0.00    -0.508 OA
ATOM     11  H   UNL     1     199.320 210.292 280.556  1.00  0.00     0.293 HD
ENDBRANCH   6  10
TORSDOF 2
ENDMDL
MODEL 3
REMARK VINA RESULT:    -4.998      2.461      3.458
REMARK INTER + INTRA:          -5.463
REMARK INTER:                  -5.427
REMARK INTRA:                  -0.036
REMARK UNBOUND:                -0.027
REMARK SMILES O=C([O-])c1ccc(O)cc1
REMARK SMILES IDX 4 1 5 2 10 3 6 4 9 5 7 6 2 7 1 8 3 9 8 10
REMARK H PARENT 8 11
REMARK Flexibility Score: inf
ROOT
ATOM      1  C   UNL     1     203.274 207.914 279.215  1.00  0.00    -0.003 A 
ATOM      2  C   UNL     1     202.578 207.276 280.257  1.00  0.00     0.014 A 
ATOM      3  C   UNL     1     202.854 209.191 278.797  1.00  0.00     0.014 A 
ATOM      4  C   UNL     1     201.485 207.901 280.867  1.00  0.00     0.047 A 
ATOM      5  C   UNL     1     201.761 209.812 279.409  1.00  0.00     0.047 A 
ATOM      6  C   UNL     1     201.074 209.169 280.445  1.00  0.00     0.115 A 
ENDROOT
BRANCH   1   7
ATOM      7  C   UNL     1     204.430 207.252 278.572  1.00  0.00     0.071 C 
ATOM      8  O   UNL     1     204.860 206.149 279.005  1.00  0.00    -0.545 OA
ATOM      9  O   UNL     1     205.060 207.838 277.480  1.00  0.00    -0.545 OA
ENDBRANCH   1   7
BRANCH   6  10
ATOM     10  O   UNL     1     199.985 209.779 281.062  1.00  0.00    -0.508 OA
ATOM     11  H   UNL     1     199.885 210.787 281.085  1.00  0.00     0.293 HD
ENDBRANCH   6  10
TORSDOF 2
ENDMDL
MODEL 4
REMARK VINA RESULT:    -4.958      1.048      1.472
REMARK INTER + INTRA:          -5.420
REMARK INTER:                  -5.393
REMARK INTRA:                  -0.027
REMARK UNBOUND:                -0.027
REMARK SMILES O=C([O-])c1ccc(O)cc1
REMARK SMILES IDX 4 1 5 2 10 3 6 4 9 5 7 6 2 7 1 8 3 9 8 10
REMARK H PARENT 8 11
REMARK Flexibility Score: inf
ROOT
ATOM      1  C   UNL     1     203.196 208.582 279.471  1.00  0.00    -0.003 A 
ATOM      2  C   UNL     1     202.249 208.886 278.477  1.00  0.00     0.014 A 
ATOM      3  C   UNL     1     203.999 209.617 279.986  1.00  0.00     0.014 A 
ATOM      4  C   UNL     1     202.110 210.196 278.007  1.00  0.00     0.047 A 
ATOM      5  C   UNL     1     203.857 210.925 279.513  1.00  0.00     0.047 A 
ATOM      6  C   UNL     1     202.912 211.218 278.523  1.00  0.00     0.115 A 
ENDROOT
BRANCH   1   7
ATOM      7  C   UNL     1     203.341 207.197 279.967  1.00  0.00     0.071 C 
ATOM      8  O   UNL     1     204.264 206.455 279.538  1.00  0.00    -0.545 OA
ATOM      9  O   UNL     1     202.458 206.692 280.915  1.00  0.00    -0.545 OA
ENDBRANCH   1   7
BRANCH   6  10
ATOM     10  O   UNL     1     202.762 212.517 278.045  1.00  0.00    -0.508 OA
ATOM     11  H   UNL     1     202.700 212.714 277.053  1.00  0.00     0.293 HD
ENDBRANCH   6  10
TORSDOF 2
ENDMDL
MODEL 5
REMARK VINA RESULT:    -4.947      2.829      4.612
REMARK INTER + INTRA:          -5.408
REMARK INTER:                  -5.379
REMARK INTRA:                  -0.028
REMARK UNBOUND:                -0.027
REMARK SMILES O=C([O-])c1ccc(O)cc1
REMARK SMILES IDX 4 1 5 2 10 3 6 4 9 5 7 6 2 7 1 8 3 9 8 10
REMARK H PARENT 8 11
REMARK Flexibility Score: inf
ROOT
ATOM      1  C   UNL     1     203.658 208.435 279.283  1.00  0.00    -0.003 A 
ATOM      2  C   UNL     1     204.457 208.208 278.148  1.00  0.00     0.014 A 
ATOM      3  C   UNL     1     203.282 207.340 280.083  1.00  0.00     0.014 A 
ATOM      4  C   UNL     1     204.870 206.912 277.820  1.00  0.00     0.047 A 
ATOM      5  C   UNL     1     203.696 206.046 279.751  1.00  0.00     0.047 A 
ATOM      6  C   UNL     1     204.491 205.829 278.619  1.00  0.00     0.115 A 
ENDROOT
BRANCH   1   7
ATOM      7  C   UNL     1     203.224 209.806 279.628  1.00  0.00     0.071 C 
ATOM      8  O   UNL     1     202.002 210.111 279.628  1.00  0.00    -0.545 OA
ATOM      9  O   UNL     1     204.160 210.780 279.957  1.00  0.00    -0.545 OA
ENDBRANCH   1   7
BRANCH   6  10
ATOM     10  O   UNL     1     204.909 204.545 278.280  1.00  0.00    -0.508 OA
ATOM     11  H   UNL     1     204.781 203.762 278.911  1.00  0.00     0.293 HD
ENDBRANCH   6  10
TORSDOF 2
ENDMDL
MODEL 6
REMARK VINA RESULT:    -4.861      2.904      4.608
REMARK INTER + INTRA:          -5.315
REMARK INTER:                  -5.288
REMARK INTRA:                  -0.027
REMARK UNBOUND:                -0.027
REMARK SMILES O=C([O-])c1ccc(O)cc1
REMARK SMILES IDX 4 1 5 2 10 3 6 4 9 5 7 6 2 7 1 8 3 9 8 10
REMARK H PARENT 8 11
REMARK Flexibility Score: inf
ROOT
ATOM      1  C   UNL     1     202.238 206.583 278.459  1.00  0.00    -0.003 A 
ATOM      2  C   UNL     1     202.371 207.967 278.668  1.00  0.00     0.014 A 
ATOM      3  C   UNL     1     201.962 205.750 279.559  1.00  0.00     0.014 A 
ATOM      4  C   UNL     1     202.230 208.506 279.952  1.00  0.00     0.047 A 
ATOM      5  C   UNL     1     201.822 206.293 280.840  1.00  0.00     0.047 A 
ATOM      6  C   UNL     1     201.956 207.672 281.040  1.00  0.00     0.115 A 
ENDROOT
BRANCH   1   7
ATOM      7  C   UNL     1     202.386 206.015 277.101  1.00  0.00     0.071 C 
ATOM      8  O   UNL     1     203.526 205.734 276.644  1.00  0.00    -0.545 OA
ATOM      9  O   UNL     1     201.268 205.785 276.308  1.00  0.00    -0.545 OA
ENDBRANCH   1   7
BRANCH   6  10
ATOM     10  O   UNL     1     201.819 208.223 282.311  1.00  0.00    -0.508 OA
ATOM     11  H   UNL     1     201.030 208.812 282.551  1.00  0.00     0.293 HD
ENDBRANCH   6  10
TORSDOF 2
ENDMDL
MODEL 7
REMARK VINA RESULT:    -4.822      3.578      4.434
REMARK INTER + INTRA:          -5.271
REMARK INTER:                  -5.237
REMARK INTRA:                  -0.034
REMARK UNBOUND:                -0.027
REMARK SMILES O=C([O-])c1ccc(O)cc1
REMARK SMILES IDX 4 1 5 2 10 3 6 4 9 5 7 6 2 7 1 8 3 9 8 10
REMARK H PARENT 8 11
REMARK Flexibility Score: inf
ROOT
ATOM      1  C   UNL     1     203.469 207.007 278.936  1.00  0.00    -0.003 A 
ATOM      2  C   UNL     1     203.510 205.667 278.513  1.00  0.00     0.014 A 
ATOM      3  C   UNL     1     204.210 207.969 278.224  1.00  0.00     0.014 A 
ATOM      4  C   UNL     1     204.276 205.296 277.403  1.00  0.00     0.047 A 
ATOM      5  C   UNL     1     204.976 207.595 277.115  1.00  0.00     0.047 A 
ATOM      6  C   UNL     1     205.010 206.258 276.702  1.00  0.00     0.115 A 
ENDROOT
BRANCH   1   7
ATOM      7  C   UNL     1     202.658 207.397 280.109  1.00  0.00     0.071 C 
ATOM      8  O   UNL     1     202.385 206.557 281.008  1.00  0.00    -0.545 OA
ATOM      9  O   UNL     1     202.182 208.698 280.237  1.00  0.00    -0.545 OA
ENDBRANCH   1   7
BRANCH   6  10
ATOM     10  O   UNL     1     205.768 205.874 275.599  1.00  0.00    -0.508 OA
ATOM     11  H   UNL     1     206.731 205.573 275.696  1.00  0.00     0.293 HD
ENDBRANCH   6  10
TORSDOF 2
ENDMDL
MODEL 8
REMARK VINA RESULT:    -4.651      2.860      3.318
REMARK INTER + INTRA:          -5.086
REMARK INTER:                  -5.051
REMARK INTRA:                  -0.035
REMARK UNBOUND:                -0.027
REMARK SMILES O=C([O-])c1ccc(O)cc1
REMARK SMILES IDX 4 1 5 2 10 3 6 4 9 5 7 6 2 7 1 8 3 9 8 10
REMARK H PARENT 8 11
REMARK Flexibility Score: inf
ROOT
ATOM      1  C   UNL     1     203.429 207.571 279.176  1.00  0.00    -0.003 A 
ATOM      2  C   UNL     1     204.164 206.651 278.408  1.00  0.00     0.014 A 
ATOM      3  C   UNL     1     203.555 208.945 278.901  1.00  0.00     0.014 A 
ATOM      4  C   UNL     1     205.009 207.098 277.386  1.00  0.00     0.047 A 
ATOM      5  C   UNL     1     204.401 209.387 277.879  1.00  0.00     0.047 A 
ATOM      6  C   UNL     1     205.130 208.465 277.119  1.00  0.00     0.115 A 
ENDROOT
BRANCH   1   7
ATOM      7  C   UNL     1     202.536 207.097 280.256  1.00  0.00     0.071 C 
ATOM      8  O   UNL     1     202.651 205.931 280.719  1.00  0.00    -0.545 OA
ATOM      9  O   UNL     1     201.553 207.932 280.775  1.00  0.00    -0.545 OA
ENDBRANCH   1   7
BRANCH   6  10
ATOM     10  O   UNL     1     205.974 208.894 276.098  1.00  0.00    -0.508 OA
ATOM     11  H   UNL     1     206.828 208.396 275.872  1.00  0.00     0.293 HD
ENDBRANCH   6  10
TORSDOF 2
ENDMDL
MODEL 9
REMARK VINA RESULT:    -4.639     11.535     12.763
REMARK INTER + INTRA:          -5.073
REMARK INTER:                  -5.041
REMARK INTRA:                  -0.032
REMARK UNBOUND:                -0.027
REMARK SMILES O=C([O-])c1ccc(O)cc1
REMARK SMILES IDX 4 1 5 2 10 3 6 4 9 5 7 6 2 7 1 8 3 9 8 10
REMARK H PARENT 8 11
REMARK Flexibility Score: inf
ROOT
ATOM      1  C   UNL     1     213.045 203.852 285.594  1.00  0.00    -0.003 A 
ATOM      2  C   UNL     1     212.353 205.008 285.996  1.00  0.00     0.014 A 
ATOM      3  C   UNL     1     212.623 203.171 284.437  1.00  0.00     0.014 A 
ATOM      4  C   UNL     1     211.260 205.472 285.256  1.00  0.00     0.047 A 
ATOM      5  C   UNL     1     211.530 203.638 283.701  1.00  0.00     0.047 A 
ATOM      6  C   UNL     1     210.846 204.790 284.108  1.00  0.00     0.115 A 
ENDROOT
BRANCH   1   7
ATOM      7  C   UNL     1     214.201 203.363 286.378  1.00  0.00     0.071 C 
ATOM      8  O   UNL     1     215.227 202.917 285.798  1.00  0.00    -0.545 OA
ATOM      9  O   UNL     1     214.171 203.387 287.768  1.00  0.00    -0.545 OA
ENDBRANCH   1   7
BRANCH   6  10
ATOM     10  O   UNL     1     209.757 205.264 283.381  1.00  0.00    -0.508 OA
ATOM     11  H   UNL     1     209.254 204.670 282.732  1.00  0.00     0.293 HD
ENDBRANCH   6  10
TORSDOF 2
ENDMDL
