MODEL 1
REMARK VINA RESULT:    -3.559      0.000      0.000
REMARK INTER + INTRA:          -8.675
REMARK INTER:                  -6.264
REMARK INTRA:                  -2.411
REMARK UNBOUND:                -2.411
REMARK SMILES CCCCCCCCCCCCCCC(=O)[O-]
REMARK SMILES IDX 9 1 10 2 11 3 12 4 13 5 14 6 15 7 16 8 17 9 8 10 7 11 6 12
REMARK SMILES IDX 5 13 4 14 3 15 2 16 1 17
REMARK H PARENT
REMARK Flexibility Score: inf
ROOT
ATOM      1  C   UNL     1     -31.572 -44.628  27.463  1.00  0.00     0.000 C 
ENDROOT
BRANCH   1   2
ATOM      2  C   UNL     1     -32.486 -43.478  27.020  1.00  0.00     0.000 C 
BRANCH   2   3
ATOM      3  C   UNL     1     -32.762 -43.543  25.510  1.00  0.00     0.000 C 
BRANCH   3   4
ATOM      4  C   UNL     1     -31.964 -44.669  24.819  1.00  0.00     0.000 C 
BRANCH   4   5
ATOM      5  C   UNL     1     -32.781 -45.451  23.776  1.00  0.00     0.006 C 
BRANCH   5   6
ATOM      6  C   UNL     1     -32.627 -46.970  23.914  1.00  0.00     0.053 C 
BRANCH   6   7
ATOM      7  C   UNL     1     -32.362 -47.592  22.580  1.00  0.00     0.041 C 
ATOM      8  O   UNL     1     -31.488 -47.103  21.816  1.00  0.00    -0.550 OA
ATOM      9  O   UNL     1     -33.112 -48.683  22.160  1.00  0.00    -0.550 OA
ENDBRANCH   6   7
ENDBRANCH   5   6
ENDBRANCH   4   5
ENDBRANCH   3   4
ENDBRANCH   2   3
ENDBRANCH   1   2
BRANCH   1  10
ATOM     10  C   UNL     1     -32.295 -45.554  28.452  1.00  0.00     0.000 C 
BRANCH  10  11
ATOM     11  C   UNL     1     -32.885 -46.799  27.770  1.00  0.00    -0.000 C 
BRANCH  11  12
ATOM     12  C   UNL     1     -34.420 -46.844  27.850  1.00  0.00    -0.000 C 
BRANCH  12  13
ATOM     13  C   UNL     1     -35.085 -46.172  26.629  1.00  0.00    -0.000 C 
BRANCH  13  14
ATOM     14  C   UNL     1     -35.929 -44.937  26.990  1.00  0.00    -0.000 C 
BRANCH  14  15
ATOM     15  C   UNL     1     -36.250 -44.851  28.491  1.00  0.00    -0.000 C 
BRANCH  15  16
ATOM     16  C   UNL     1     -35.510 -43.696  29.186  1.00  0.00    -0.003 C 
ATOM     17  C   UNL     1     -35.109 -44.028  30.623  1.00  0.00     0.004 C 
ENDBRANCH  15  16
ENDBRANCH  14  15
ENDBRANCH  13  14
ENDBRANCH  12  13
ENDBRANCH  11  12
ENDBRANCH  10  11
ENDBRANCH   1  10
TORSDOF 13
ENDMDL
MODEL 2
REMARK VINA RESULT:    -3.404      4.883      7.344
REMARK INTER + INTRA:          -8.403
REMARK INTER:                  -6.536
REMARK INTRA:                  -1.866
REMARK UNBOUND:                -2.411
REMARK SMILES CCCCCCCCCCCCCCC(=O)[O-]
REMARK SMILES IDX 9 1 10 2 11 3 12 4 13 5 14 6 15 7 16 8 17 9 8 10 7 11 6 12
REMARK SMILES IDX 5 13 4 14 3 15 2 16 1 17
REMARK H PARENT
REMARK Flexibility Score: inf
ROOT
ATOM      1  C   UNL     1     -35.919 -45.053  28.321  1.00  0.00     0.000 C 
ENDROOT
BRANCH   1   2
ATOM      2  C   UNL     1     -35.380 -43.833  29.078  1.00  0.00     0.000 C 
BRANCH   2   3
ATOM      3  C   UNL     1     -35.180 -44.152  30.568  1.00  0.00     0.000 C 
BRANCH   3   4
ATOM      4  C   UNL     1     -35.724 -45.546  30.944  1.00  0.00     0.000 C 
BRANCH   4   5
ATOM      5  C   UNL     1     -35.305 -46.012  32.349  1.00  0.00     0.006 C 
BRANCH   5   6
ATOM      6  C   UNL     1     -35.800 -47.423  32.683  1.00  0.00     0.053 C 
BRANCH   6   7
ATOM      7  C   UNL     1     -36.027 -47.564  34.154  1.00  0.00     0.041 C 
ATOM      8  O   UNL     1     -37.126 -47.216  34.661  1.00  0.00    -0.550 OA
ATOM      9  O   UNL     1     -35.009 -48.035  34.973  1.00  0.00    -0.550 OA
ENDBRANCH   6   7
ENDBRANCH   5   6
ENDBRANCH   4   5
ENDBRANCH   3   4
ENDBRANCH   2   3
ENDBRANCH   1   2
BRANCH   1  10
ATOM     10  C   UNL     1     -35.834 -44.840  26.803  1.00  0.00     0.000 C 
BRANCH  10  11
ATOM     11  C   UNL     1     -34.512 -45.351  26.209  1.00  0.00    -0.000 C 
BRANCH  11  12
ATOM     12  C   UNL     1     -33.688 -44.231  25.550  1.00  0.00    -0.000 C 
BRANCH  12  13
ATOM     13  C   UNL     1     -32.202 -44.283  25.965  1.00  0.00    -0.000 C 
BRANCH  13  14
ATOM     14  C   UNL     1     -31.979 -44.124  27.479  1.00  0.00    -0.000 C 
BRANCH  14  15
ATOM     15  C   UNL     1     -31.407 -45.392  28.134  1.00  0.00    -0.000 C 
BRANCH  15  16
ATOM     16  C   UNL     1     -32.226 -45.845  29.354  1.00  0.00    -0.003 C 
ATOM     17  C   UNL     1     -32.962 -47.164  29.118  1.00  0.00     0.004 C 
ENDBRANCH  15  16
ENDBRANCH  14  15
ENDBRANCH  13  14
ENDBRANCH  12  13
ENDBRANCH  11  12
ENDBRANCH  10  11
ENDBRANCH   1  10
TORSDOF 13
ENDMDL
MODEL 3
REMARK VINA RESULT:    -3.395     10.313     12.036
REMARK INTER + INTRA:          -8.387
REMARK INTER:                  -6.648
REMARK INTRA:                  -1.739
REMARK UNBOUND:                -2.411
REMARK SMILES CCCCCCCCCCCCCCC(=O)[O-]
REMARK SMILES IDX 9 1 10 2 11 3 12 4 13 5 14 6 15 7 16 8 17 9 8 10 7 11 6 12
REMARK SMILES IDX 5 13 4 14 3 15 2 16 1 17
REMARK H PARENT
REMARK Flexibility Score: inf
ROOT
ATOM      1  C   UNL     1     -26.886 -51.081  31.892  1.00  0.00     0.000 C 
ENDROOT
BRANCH   1   2
ATOM      2  C   UNL     1     -25.496 -51.595  32.287  1.00  0.00     0.000 C 
BRANCH   2   3
ATOM      3  C   UNL     1     -24.809 -50.630  33.266  1.00  0.00     0.000 C 
BRANCH   3   4
ATOM      4  C   UNL     1     -25.437 -50.685  34.675  1.00  0.00     0.000 C 
BRANCH   4   5
ATOM      5  C   UNL     1     -25.470 -49.321  35.387  1.00  0.00     0.006 C 
BRANCH   5   6
ATOM      6  C   UNL     1     -26.596 -48.412  34.883  1.00  0.00     0.053 C 
BRANCH   6   7
ATOM      7  C   UNL     1     -27.930 -48.986  35.237  1.00  0.00     0.041 C 
ATOM      8  O   UNL     1     -28.822 -49.108  34.355  1.00  0.00    -0.550 OA
ATOM      9  O   UNL     1     -28.207 -49.345  36.550  1.00  0.00    -0.550 OA
ENDBRANCH   6   7
ENDBRANCH   5   6
ENDBRANCH   4   5
ENDBRANCH   3   4
ENDBRANCH   2   3
ENDBRANCH   1   2
BRANCH   1  10
ATOM     10  C   UNL     1     -27.923 -52.214  31.932  1.00  0.00     0.000 C 
BRANCH  10  11
ATOM     11  C   UNL     1     -27.371 -53.492  32.583  1.00  0.00    -0.000 C 
BRANCH  11  12
ATOM     12  C   UNL     1     -28.112 -53.861  33.881  1.00  0.00    -0.000 C 
BRANCH  12  13
ATOM     13  C   UNL     1     -28.697 -52.620  34.587  1.00  0.00    -0.000 C 
BRANCH  13  14
ATOM     14  C   UNL     1     -30.179 -52.773  34.974  1.00  0.00    -0.000 C 
BRANCH  14  15
ATOM     15  C   UNL     1     -30.905 -53.844  34.144  1.00  0.00    -0.000 C 
BRANCH  15  16
ATOM     16  C   UNL     1     -32.151 -53.291  33.432  1.00  0.00    -0.003 C 
ATOM     17  C   UNL     1     -32.414 -51.820  33.754  1.00  0.00     0.004 C 
ENDBRANCH  15  16
ENDBRANCH  14  15
ENDBRANCH  13  14
ENDBRANCH  12  13
ENDBRANCH  11  12
ENDBRANCH  10  11
ENDBRANCH   1  10
TORSDOF 13
ENDMDL
MODEL 4
REMARK VINA RESULT:    -3.368      5.737      7.783
REMARK INTER + INTRA:          -8.339
REMARK INTER:                  -6.622
REMARK INTRA:                  -1.717
REMARK UNBOUND:                -2.411
REMARK SMILES CCCCCCCCCCCCCCC(=O)[O-]
REMARK SMILES IDX 9 1 10 2 11 3 12 4 13 5 14 6 15 7 16 8 17 9 8 10 7 11 6 12
REMARK SMILES IDX 5 13 4 14 3 15 2 16 1 17
REMARK H PARENT
REMARK Flexibility Score: inf
ROOT
ATOM      1  C   UNL     1     -33.122 -50.101  26.761  1.00  0.00     0.000 C 
ENDROOT
BRANCH   1   2
ATOM      2  C   UNL     1     -32.813 -50.503  28.208  1.00  0.00     0.000 C 
BRANCH   2   3
ATOM      3  C   UNL     1     -32.538 -52.011  28.315  1.00  0.00     0.000 C 
BRANCH   3   4
ATOM      4  C   UNL     1     -33.794 -52.804  28.733  1.00  0.00     0.000 C 
BRANCH   4   5
ATOM      5  C   UNL     1     -34.459 -53.561  27.570  1.00  0.00     0.006 C 
BRANCH   5   6
ATOM      6  C   UNL     1     -35.945 -53.848  27.817  1.00  0.00     0.053 C 
BRANCH   6   7
ATOM      7  C   UNL     1     -36.105 -54.931  28.835  1.00  0.00     0.041 C 
ATOM      8  O   UNL     1     -36.977 -54.827  29.738  1.00  0.00    -0.550 OA
ATOM      9  O   UNL     1     -35.261 -56.034  28.817  1.00  0.00    -0.550 OA
ENDBRANCH   6   7
ENDBRANCH   5   6
ENDBRANCH   4   5
ENDBRANCH   3   4
ENDBRANCH   2   3
ENDBRANCH   1   2
BRANCH   1  10
ATOM     10  C   UNL     1     -32.333 -50.968  25.769  1.00  0.00     0.000 C 
BRANCH  10  11
ATOM     11  C   UNL     1     -33.165 -51.356  24.536  1.00  0.00    -0.000 C 
BRANCH  11  12
ATOM     12  C   UNL     1     -34.662 -51.051  24.714  1.00  0.00    -0.000 C 
BRANCH  12  13
ATOM     13  C   UNL     1     -35.157 -49.974  23.724  1.00  0.00    -0.000 C 
BRANCH  13  14
ATOM     14  C   UNL     1     -34.019 -49.182  23.056  1.00  0.00    -0.000 C 
BRANCH  14  15
ATOM     15  C   UNL     1     -33.934 -47.729  23.550  1.00  0.00    -0.000 C 
BRANCH  15  16
ATOM     16  C   UNL     1     -35.218 -47.272  24.260  1.00  0.00    -0.003 C 
ATOM     17  C   UNL     1     -34.952 -46.680  25.644  1.00  0.00     0.004 C 
ENDBRANCH  15  16
ENDBRANCH  14  15
ENDBRANCH  13  14
ENDBRANCH  12  13
ENDBRANCH  11  12
ENDBRANCH  10  11
ENDBRANCH   1  10
TORSDOF 13
ENDMDL
MODEL 5
REMARK VINA RESULT:    -3.362      8.115      9.733
REMARK INTER + INTRA:          -8.328
REMARK INTER:                  -6.417
REMARK INTRA:                  -1.911
REMARK UNBOUND:                -2.411
REMARK SMILES CCCCCCCCCCCCCCC(=O)[O-]
REMARK SMILES IDX 9 1 10 2 11 3 12 4 13 5 14 6 15 7 16 8 17 9 8 10 7 11 6 12
REMARK SMILES IDX 5 13 4 14 3 15 2 16 1 17
REMARK H PARENT
REMARK Flexibility Score: inf
ROOT
ATOM      1  C   UNL     1     -26.368 -51.896  27.554  1.00  0.00     0.000 C 
ENDROOT
BRANCH   1   2
ATOM      2  C   UNL     1     -26.475 -51.085  26.257  1.00  0.00     0.000 C 
BRANCH   2   3
ATOM      3  C   UNL     1     -25.562 -51.664  25.166  1.00  0.00     0.000 C 
BRANCH   3   4
ATOM      4  C   UNL     1     -25.943 -51.161  23.758  1.00  0.00     0.000 C 
BRANCH   4   5
ATOM      5  C   UNL     1     -27.174 -50.238  23.747  1.00  0.00     0.006 C 
BRANCH   5   6
ATOM      6  C   UNL     1     -26.939 -48.939  22.968  1.00  0.00     0.053 C 
BRANCH   6   7
ATOM      7  C   UNL     1     -26.203 -47.948  23.812  1.00  0.00     0.041 C 
ATOM      8  O   UNL     1     -24.943 -47.925  23.808  1.00  0.00    -0.550 OA
ATOM      9  O   UNL     1     -26.905 -47.082  24.641  1.00  0.00    -0.550 OA
ENDBRANCH   6   7
ENDBRANCH   5   6
ENDBRANCH   4   5
ENDBRANCH   3   4
ENDBRANCH   2   3
ENDBRANCH   1   2
BRANCH   1  10
ATOM     10  C   UNL     1     -25.921 -53.337  27.265  1.00  0.00     0.000 C 
BRANCH  10  11
ATOM     11  C   UNL     1     -26.876 -54.380  27.867  1.00  0.00    -0.000 C 
BRANCH  11  12
ATOM     12  C   UNL     1     -28.168 -54.541  27.048  1.00  0.00    -0.000 C 
BRANCH  12  13
ATOM     13  C   UNL     1     -27.896 -54.536  25.528  1.00  0.00    -0.000 C 
BRANCH  13  14
ATOM     14  C   UNL     1     -28.779 -53.546  24.748  1.00  0.00    -0.000 C 
BRANCH  14  15
ATOM     15  C   UNL     1     -28.722 -53.766  23.227  1.00  0.00    -0.000 C 
BRANCH  15  16
ATOM     16  C   UNL     1     -29.797 -52.965  22.476  1.00  0.00    -0.003 C 
ATOM     17  C   UNL     1     -30.623 -52.070  23.400  1.00  0.00     0.004 C 
ENDBRANCH  15  16
ENDBRANCH  14  15
ENDBRANCH  13  14
ENDBRANCH  12  13
ENDBRANCH  11  12
ENDBRANCH  10  11
ENDBRANCH   1  10
TORSDOF 13
ENDMDL
MODEL 6
REMARK VINA RESULT:    -3.359      9.817     11.964
REMARK INTER + INTRA:          -8.323
REMARK INTER:                  -6.257
REMARK INTRA:                  -2.065
REMARK UNBOUND:                -2.411
REMARK SMILES CCCCCCCCCCCCCCC(=O)[O-]
REMARK SMILES IDX 9 1 10 2 11 3 12 4 13 5 14 6 15 7 16 8 17 9 8 10 7 11 6 12
REMARK SMILES IDX 5 13 4 14 3 15 2 16 1 17
REMARK H PARENT
REMARK Flexibility Score: inf
ROOT
ATOM      1  C   UNL     1     -27.863 -50.809  30.557  1.00  0.00     0.000 C 
ENDROOT
BRANCH   1   2
ATOM      2  C   UNL     1     -26.664 -50.151  29.863  1.00  0.00     0.000 C 
BRANCH   2   3
ATOM      3  C   UNL     1     -25.818 -49.350  30.864  1.00  0.00     0.000 C 
BRANCH   3   4
ATOM      4  C   UNL     1     -24.561 -50.125  31.315  1.00  0.00     0.000 C 
BRANCH   4   5
ATOM      5  C   UNL     1     -24.736 -50.851  32.660  1.00  0.00     0.006 C 
BRANCH   5   6
ATOM      6  C   UNL     1     -25.520 -50.026  33.687  1.00  0.00     0.053 C 
BRANCH   6   7
ATOM      7  C   UNL     1     -26.734 -50.772  34.140  1.00  0.00     0.041 C 
ATOM      8  O   UNL     1     -27.880 -50.276  33.977  1.00  0.00    -0.550 OA
ATOM      9  O   UNL     1     -26.599 -51.994  34.786  1.00  0.00    -0.550 OA
ENDBRANCH   6   7
ENDBRANCH   5   6
ENDBRANCH   4   5
ENDBRANCH   3   4
ENDBRANCH   2   3
ENDBRANCH   1   2
BRANCH   1  10
ATOM     10  C   UNL     1     -27.940 -52.305  30.218  1.00  0.00     0.000 C 
BRANCH  10  11
ATOM     11  C   UNL     1     -27.271 -53.186  31.286  1.00  0.00    -0.000 C 
BRANCH  11  12
ATOM     12  C   UNL     1     -25.863 -53.647  30.874  1.00  0.00    -0.000 C 
BRANCH  12  13
ATOM     13  C   UNL     1     -25.797 -54.053  29.386  1.00  0.00    -0.000 C 
BRANCH  13  14
ATOM     14  C   UNL     1     -24.867 -53.161  28.544  1.00  0.00    -0.000 C 
BRANCH  14  15
ATOM     15  C   UNL     1     -24.958 -53.458  27.038  1.00  0.00    -0.000 C 
BRANCH  15  16
ATOM     16  C   UNL     1     -25.490 -52.261  26.234  1.00  0.00    -0.003 C 
ATOM     17  C   UNL     1     -26.919 -51.877  26.616  1.00  0.00     0.004 C 
ENDBRANCH  15  16
ENDBRANCH  14  15
ENDBRANCH  13  14
ENDBRANCH  12  13
ENDBRANCH  11  12
ENDBRANCH  10  11
ENDBRANCH   1  10
TORSDOF 13
ENDMDL
MODEL 7
REMARK VINA RESULT:    -3.355      7.769      9.761
REMARK INTER + INTRA:          -8.315
REMARK INTER:                  -6.690
REMARK INTRA:                  -1.625
REMARK UNBOUND:                -2.411
REMARK SMILES CCCCCCCCCCCCCCC(=O)[O-]
REMARK SMILES IDX 9 1 10 2 11 3 12 4 13 5 14 6 15 7 16 8 17 9 8 10 7 11 6 12
REMARK SMILES IDX 5 13 4 14 3 15 2 16 1 17
REMARK H PARENT
REMARK Flexibility Score: inf
ROOT
ATOM      1  C   UNL     1     -26.811 -48.318  24.530  1.00  0.00     0.000 C 
ENDROOT
BRANCH   1   2
ATOM      2  C   UNL     1     -25.643 -48.829  23.678  1.00  0.00     0.000 C 
BRANCH   2   3
ATOM      3  C   UNL     1     -25.179 -50.215  24.153  1.00  0.00     0.000 C 
BRANCH   3   4
ATOM      4  C   UNL     1     -26.213 -51.316  23.838  1.00  0.00     0.000 C 
BRANCH   4   5
ATOM      5  C   UNL     1     -26.809 -51.977  25.094  1.00  0.00     0.006 C 
BRANCH   5   6
ATOM      6  C   UNL     1     -26.152 -51.494  26.392  1.00  0.00     0.053 C 
BRANCH   6   7
ATOM      7  C   UNL     1     -25.666 -52.657  27.196  1.00  0.00     0.041 C 
ATOM      8  O   UNL     1     -26.277 -53.005  28.241  1.00  0.00    -0.550 OA
ATOM      9  O   UNL     1     -24.510 -53.329  26.818  1.00  0.00    -0.550 OA
ENDBRANCH   6   7
ENDBRANCH   5   6
ENDBRANCH   4   5
ENDBRANCH   3   4
ENDBRANCH   2   3
ENDBRANCH   1   2
BRANCH   1  10
ATOM     10  C   UNL     1     -27.920 -47.728  23.646  1.00  0.00     0.000 C 
BRANCH  10  11
ATOM     11  C   UNL     1     -28.177 -48.568  22.385  1.00  0.00    -0.000 C 
BRANCH  11  12
ATOM     12  C   UNL     1     -29.553 -49.256  22.404  1.00  0.00    -0.000 C 
BRANCH  12  13
ATOM     13  C   UNL     1     -29.460 -50.750  22.027  1.00  0.00    -0.000 C 
BRANCH  13  14
ATOM     14  C   UNL     1     -30.643 -51.590  22.541  1.00  0.00    -0.000 C 
BRANCH  14  15
ATOM     15  C   UNL     1     -30.199 -52.777  23.411  1.00  0.00    -0.000 C 
BRANCH  15  16
ATOM     16  C   UNL     1     -29.594 -53.921  22.582  1.00  0.00    -0.003 C 
ATOM     17  C   UNL     1     -28.382 -54.564  23.255  1.00  0.00     0.004 C 
ENDBRANCH  15  16
ENDBRANCH  14  15
ENDBRANCH  13  14
ENDBRANCH  12  13
ENDBRANCH  11  12
ENDBRANCH  10  11
ENDBRANCH   1  10
TORSDOF 13
ENDMDL
MODEL 8
REMARK VINA RESULT:    -3.347     10.536     12.270
REMARK INTER + INTRA:          -8.302
REMARK INTER:                  -6.244
REMARK INTRA:                  -2.058
REMARK UNBOUND:                -2.411
REMARK SMILES CCCCCCCCCCCCCCC(=O)[O-]
REMARK SMILES IDX 9 1 10 2 11 3 12 4 13 5 14 6 15 7 16 8 17 9 8 10 7 11 6 12
REMARK SMILES IDX 5 13 4 14 3 15 2 16 1 17
REMARK H PARENT
REMARK Flexibility Score: inf
ROOT
ATOM      1  C   UNL     1     -24.734 -50.410  30.993  1.00  0.00     0.000 C 
ENDROOT
BRANCH   1   2
ATOM      2  C   UNL     1     -25.414 -50.102  32.333  1.00  0.00     0.000 C 
BRANCH   2   3
ATOM      3  C   UNL     1     -24.735 -50.862  33.483  1.00  0.00     0.000 C 
BRANCH   3   4
ATOM      4  C   UNL     1     -25.142 -50.310  34.866  1.00  0.00     0.000 C 
BRANCH   4   5
ATOM      5  C   UNL     1     -26.123 -49.128  34.792  1.00  0.00     0.006 C 
BRANCH   5   6
ATOM      6  C   UNL     1     -27.199 -49.175  35.884  1.00  0.00     0.053 C 
BRANCH   6   7
ATOM      7  C   UNL     1     -28.337 -50.046  35.458  1.00  0.00     0.041 C 
ATOM      8  O   UNL     1     -28.776 -49.983  34.279  1.00  0.00    -0.550 OA
ATOM      9  O   UNL     1     -28.946 -50.892  36.376  1.00  0.00    -0.550 OA
ENDBRANCH   6   7
ENDBRANCH   5   6
ENDBRANCH   4   5
ENDBRANCH   3   4
ENDBRANCH   2   3
ENDBRANCH   1   2
BRANCH   1  10
ATOM     10  C   UNL     1     -24.388 -51.902  30.883  1.00  0.00     0.000 C 
BRANCH  10  11
ATOM     11  C   UNL     1     -24.380 -52.398  29.428  1.00  0.00    -0.000 C 
BRANCH  11  12
ATOM     12  C   UNL     1     -25.796 -52.531  28.841  1.00  0.00    -0.000 C 
BRANCH  12  13
ATOM     13  C   UNL     1     -26.737 -53.326  29.771  1.00  0.00    -0.000 C 
BRANCH  13  14
ATOM     14  C   UNL     1     -27.998 -52.547  30.184  1.00  0.00    -0.000 C 
BRANCH  14  15
ATOM     15  C   UNL     1     -28.093 -52.327  31.703  1.00  0.00    -0.000 C 
BRANCH  15  16
ATOM     16  C   UNL     1     -27.319 -53.388  32.501  1.00  0.00    -0.003 C 
ATOM     17  C   UNL     1     -27.680 -53.393  33.986  1.00  0.00     0.004 C 
ENDBRANCH  15  16
ENDBRANCH  14  15
ENDBRANCH  13  14
ENDBRANCH  12  13
ENDBRANCH  11  12
ENDBRANCH  10  11
ENDBRANCH   1  10
TORSDOF 13
ENDMDL
MODEL 9
REMARK VINA RESULT:    -3.344      9.345     11.275
REMARK INTER + INTRA:          -8.297
REMARK INTER:                  -7.311
REMARK INTRA:                  -0.986
REMARK UNBOUND:                -2.411
REMARK SMILES CCCCCCCCCCCCCCC(=O)[O-]
REMARK SMILES IDX 9 1 10 2 11 3 12 4 13 5 14 6 15 7 16 8 17 9 8 10 7 11 6 12
REMARK SMILES IDX 5 13 4 14 3 15 2 16 1 17
REMARK H PARENT
REMARK Flexibility Score: inf
ROOT
ATOM      1  C   UNL     1     -32.405 -52.108  33.675  1.00  0.00     0.000 C 
ENDROOT
BRANCH   1   2
ATOM      2  C   UNL     1     -31.056 -52.007  34.398  1.00  0.00     0.000 C 
BRANCH   2   3
ATOM      3  C   UNL     1     -30.158 -53.207  34.062  1.00  0.00     0.000 C 
BRANCH   3   4
ATOM      4  C   UNL     1     -28.892 -52.789  33.285  1.00  0.00     0.000 C 
BRANCH   4   5
ATOM      5  C   UNL     1     -27.606 -52.844  34.128  1.00  0.00     0.006 C 
BRANCH   5   6
ATOM      6  C   UNL     1     -27.113 -51.458  34.557  1.00  0.00     0.053 C 
BRANCH   6   7
ATOM      7  C   UNL     1     -25.675 -51.277  34.190  1.00  0.00     0.041 C 
ATOM      8  O   UNL     1     -25.232 -51.753  33.111  1.00  0.00    -0.550 OA
ATOM      9  O   UNL     1     -24.812 -50.625  35.062  1.00  0.00    -0.550 OA
ENDBRANCH   6   7
ENDBRANCH   5   6
ENDBRANCH   4   5
ENDBRANCH   3   4
ENDBRANCH   2   3
ENDBRANCH   1   2
BRANCH   1  10
ATOM     10  C   UNL     1     -32.611 -53.514  33.092  1.00  0.00     0.000 C 
BRANCH  10  11
ATOM     11  C   UNL     1     -33.354 -53.490  31.747  1.00  0.00    -0.000 C 
BRANCH  11  12
ATOM     12  C   UNL     1     -32.655 -52.604  30.702  1.00  0.00    -0.000 C 
BRANCH  12  13
ATOM     13  C   UNL     1     -33.282 -52.756  29.300  1.00  0.00    -0.000 C 
BRANCH  13  14
ATOM     14  C   UNL     1     -34.808 -52.558  29.282  1.00  0.00    -0.000 C 
BRANCH  14  15
ATOM     15  C   UNL     1     -35.517 -53.474  28.271  1.00  0.00    -0.000 C 
BRANCH  15  16
ATOM     16  C   UNL     1     -36.249 -54.644  28.949  1.00  0.00    -0.003 C 
ATOM     17  C   UNL     1     -35.301 -55.758  29.395  1.00  0.00     0.004 C 
ENDBRANCH  15  16
ENDBRANCH  14  15
ENDBRANCH  13  14
ENDBRANCH  12  13
ENDBRANCH  11  12
ENDBRANCH  10  11
ENDBRANCH   1  10
TORSDOF 13
ENDMDL
