MODEL 1
REMARK VINA RESULT:    -3.743      0.000      0.000
REMARK INTER + INTRA:          -4.514
REMARK INTER:                  -4.399
REMARK INTRA:                  -0.115
REMARK UNBOUND:                -0.115
REMARK SMILES O=C([O-])CCC(=O)[O-]
REMARK SMILES IDX 4 1 2 2 1 3 3 4 5 5 6 6 7 7 8 8
REMARK H PARENT
REMARK Flexibility Score: inf
ROOT
ATOM      1  C   UNL     1      -2.746 -34.728  53.864  1.00  0.00     0.059 C 
ENDROOT
BRANCH   1   2
ATOM      2  C   UNL     1      -2.611 -35.526  55.123  1.00  0.00     0.042 C 
ATOM      3  O   UNL     1      -1.551 -36.162  55.360  1.00  0.00    -0.550 OA
ATOM      4  O   UNL     1      -3.677 -35.608  56.010  1.00  0.00    -0.550 OA
ENDBRANCH   1   2
BRANCH   1   5
ATOM      5  C   UNL     1      -3.343 -35.586  52.748  1.00  0.00     0.059 C 
BRANCH   5   6
ATOM      6  C   UNL     1      -4.755 -35.175  52.471  1.00  0.00     0.042 C 
ATOM      7  O   UNL     1      -5.060 -34.665  51.361  1.00  0.00    -0.550 OA
ATOM      8  O   UNL     1      -5.744 -35.403  53.419  1.00  0.00    -0.550 OA
ENDBRANCH   5   6
ENDBRANCH   1   5
TORSDOF 3
ENDMDL
MODEL 2
REMARK VINA RESULT:    -3.740      0.221      3.838
REMARK INTER + INTRA:          -4.511
REMARK INTER:                  -4.389
REMARK INTRA:                  -0.122
REMARK UNBOUND:                -0.115
REMARK SMILES O=C([O-])CCC(=O)[O-]
REMARK SMILES IDX 4 1 2 2 1 3 3 4 5 5 6 6 7 7 8 8
REMARK H PARENT
REMARK Flexibility Score: inf
ROOT
ATOM      1  C   UNL     1      -3.443 -35.674  52.654  1.00  0.00     0.059 C 
ENDROOT
BRANCH   1   2
ATOM      2  C   UNL     1      -4.838 -35.165  52.466  1.00  0.00     0.042 C 
ATOM      3  O   UNL     1      -5.700 -35.331  53.368  1.00  0.00    -0.550 OA
ATOM      4  O   UNL     1      -5.198 -34.551  51.274  1.00  0.00    -0.550 OA
ENDBRANCH   1   2
BRANCH   1   5
ATOM      5  C   UNL     1      -2.682 -34.796  53.647  1.00  0.00     0.059 C 
BRANCH   5   6
ATOM      6  C   UNL     1      -2.441 -35.537  54.925  1.00  0.00     0.042 C 
ATOM      7  O   UNL     1      -1.309 -36.031  55.167  1.00  0.00    -0.550 OA
ATOM      8  O   UNL     1      -3.454 -35.638  55.870  1.00  0.00    -0.550 OA
ENDBRANCH   5   6
ENDBRANCH   1   5
TORSDOF 3
ENDMDL
MODEL 3
REMARK VINA RESULT:    -3.729      1.423      3.879
REMARK INTER + INTRA:          -4.498
REMARK INTER:                  -4.369
REMARK INTRA:                  -0.129
REMARK UNBOUND:                -0.115
REMARK SMILES O=C([O-])CCC(=O)[O-]
REMARK SMILES IDX 4 1 2 2 1 3 3 4 5 5 6 6 7 7 8 8
REMARK H PARENT
REMARK Flexibility Score: inf
ROOT
ATOM      1  C   UNL     1      -4.861 -35.071  53.597  1.00  0.00     0.059 C 
ENDROOT
BRANCH   1   2
ATOM      2  C   UNL     1      -5.016 -34.372  52.283  1.00  0.00     0.042 C 
ATOM      3  O   UNL     1      -5.161 -35.038  51.224  1.00  0.00    -0.550 OA
ATOM      4  O   UNL     1      -4.949 -32.986  52.222  1.00  0.00    -0.550 OA
ENDBRANCH   1   2
BRANCH   1   5
ATOM      5  C   UNL     1      -3.905 -34.298  54.505  1.00  0.00     0.059 C 
BRANCH   5   6
ATOM      6  C   UNL     1      -2.493 -34.738  54.277  1.00  0.00     0.042 C 
ATOM      7  O   UNL     1      -1.732 -34.067  53.533  1.00  0.00    -0.550 OA
ATOM      8  O   UNL     1      -2.004 -35.864  54.928  1.00  0.00    -0.550 OA
ENDBRANCH   5   6
ENDBRANCH   1   5
TORSDOF 3
ENDMDL
MODEL 4
REMARK VINA RESULT:    -3.724      1.294      1.592
REMARK INTER + INTRA:          -4.492
REMARK INTER:                  -4.391
REMARK INTRA:                  -0.101
REMARK UNBOUND:                -0.115
REMARK SMILES O=C([O-])CCC(=O)[O-]
REMARK SMILES IDX 4 1 2 2 1 3 3 4 5 5 6 6 7 7 8 8
REMARK H PARENT
REMARK Flexibility Score: inf
ROOT
ATOM      1  C   UNL     1      -3.783 -35.243  54.679  1.00  0.00     0.059 C 
ENDROOT
BRANCH   1   2
ATOM      2  C   UNL     1      -2.288 -35.287  54.625  1.00  0.00     0.042 C 
ATOM      3  O   UNL     1      -1.654 -36.129  55.313  1.00  0.00    -0.550 OA
ATOM      4  O   UNL     1      -1.594 -34.365  53.853  1.00  0.00    -0.550 OA
ENDBRANCH   1   2
BRANCH   1   5
ATOM      5  C   UNL     1      -4.383 -35.857  53.414  1.00  0.00     0.059 C 
BRANCH   5   6
ATOM      6  C   UNL     1      -4.731 -34.789  52.426  1.00  0.00     0.042 C 
ATOM      7  O   UNL     1      -5.130 -35.097  51.273  1.00  0.00    -0.550 OA
ATOM      8  O   UNL     1      -4.664 -33.452  52.797  1.00  0.00    -0.550 OA
ENDBRANCH   5   6
ENDBRANCH   1   5
TORSDOF 3
ENDMDL
MODEL 5
REMARK VINA RESULT:    -3.690     11.454     12.889
REMARK INTER + INTRA:          -4.452
REMARK INTER:                  -4.278
REMARK INTRA:                  -0.174
REMARK UNBOUND:                -0.115
REMARK SMILES O=C([O-])CCC(=O)[O-]
REMARK SMILES IDX 4 1 2 2 1 3 3 4 5 5 6 6 7 7 8 8
REMARK H PARENT
REMARK Flexibility Score: inf
ROOT
ATOM      1  C   UNL     1     -10.195 -33.488  42.494  1.00  0.00     0.059 C 
ENDROOT
BRANCH   1   2
ATOM      2  C   UNL     1      -9.319 -34.100  43.543  1.00  0.00     0.042 C 
ATOM      3  O   UNL     1      -9.071 -35.333  43.520  1.00  0.00    -0.550 OA
ATOM      4  O   UNL     1      -8.820 -33.315  44.574  1.00  0.00    -0.550 OA
ENDBRANCH   1   2
BRANCH   1   5
ATOM      5  C   UNL     1      -9.515 -33.550  41.126  1.00  0.00     0.059 C 
BRANCH   5   6
ATOM      6  C   UNL     1      -8.215 -32.809  41.153  1.00  0.00     0.042 C 
ATOM      7  O   UNL     1      -8.200 -31.562  41.324  1.00  0.00    -0.550 OA
ATOM      8  O   UNL     1      -7.017 -33.504  41.041  1.00  0.00    -0.550 OA
ENDBRANCH   5   6
ENDBRANCH   1   5
TORSDOF 3
ENDMDL
MODEL 6
REMARK VINA RESULT:    -3.678     11.470     13.086
REMARK INTER + INTRA:          -4.438
REMARK INTER:                  -4.264
REMARK INTRA:                  -0.175
REMARK UNBOUND:                -0.115
REMARK SMILES O=C([O-])CCC(=O)[O-]
REMARK SMILES IDX 4 1 2 2 1 3 3 4 5 5 6 6 7 7 8 8
REMARK H PARENT
REMARK Flexibility Score: inf
ROOT
ATOM      1  C   UNL     1      -9.446 -33.580  41.118  1.00  0.00     0.059 C 
ENDROOT
BRANCH   1   2
ATOM      2  C   UNL     1      -8.144 -32.845  41.186  1.00  0.00     0.042 C 
ATOM      3  O   UNL     1      -8.130 -31.593  41.311  1.00  0.00    -0.550 OA
ATOM      4  O   UNL     1      -6.948 -33.540  41.061  1.00  0.00    -0.550 OA
ENDBRANCH   1   2
BRANCH   1   5
ATOM      5  C   UNL     1     -10.177 -33.502  42.459  1.00  0.00     0.059 C 
BRANCH   5   6
ATOM      6  C   UNL     1      -9.347 -34.113  43.544  1.00  0.00     0.042 C 
ATOM      7  O   UNL     1      -9.081 -35.344  43.521  1.00  0.00    -0.550 OA
ATOM      8  O   UNL     1      -8.824 -33.314  44.552  1.00  0.00    -0.550 OA
ENDBRANCH   5   6
ENDBRANCH   1   5
TORSDOF 3
ENDMDL
MODEL 7
REMARK VINA RESULT:    -3.658      1.106      3.976
REMARK INTER + INTRA:          -4.414
REMARK INTER:                  -4.296
REMARK INTRA:                  -0.118
REMARK UNBOUND:                -0.115
REMARK SMILES O=C([O-])CCC(=O)[O-]
REMARK SMILES IDX 4 1 2 2 1 3 3 4 5 5 6 6 7 7 8 8
REMARK H PARENT
REMARK Flexibility Score: inf
ROOT
ATOM      1  C   UNL     1      -3.837 -33.627  53.557  1.00  0.00     0.059 C 
ENDROOT
BRANCH   1   2
ATOM      2  C   UNL     1      -4.685 -33.861  52.346  1.00  0.00     0.042 C 
ATOM      3  O   UNL     1      -5.343 -32.914  51.841  1.00  0.00    -0.550 OA
ATOM      4  O   UNL     1      -4.788 -35.136  51.807  1.00  0.00    -0.550 OA
ENDBRANCH   1   2
BRANCH   1   5
ATOM      5  C   UNL     1      -2.564 -34.471  53.491  1.00  0.00     0.059 C 
BRANCH   5   6
ATOM      6  C   UNL     1      -2.521 -35.445  54.626  1.00  0.00     0.042 C 
ATOM      7  O   UNL     1      -3.590 -35.883  55.126  1.00  0.00    -0.550 OA
ATOM      8  O   UNL     1      -1.300 -35.906  55.099  1.00  0.00    -0.550 OA
ENDBRANCH   5   6
ENDBRANCH   1   5
TORSDOF 3
ENDMDL
MODEL 8
REMARK VINA RESULT:    -3.615     12.660     13.377
REMARK INTER + INTRA:          -4.364
REMARK INTER:                  -4.227
REMARK INTRA:                  -0.137
REMARK UNBOUND:                -0.115
REMARK SMILES O=C([O-])CCC(=O)[O-]
REMARK SMILES IDX 4 1 2 2 1 3 3 4 5 5 6 6 7 7 8 8
REMARK H PARENT
REMARK Flexibility Score: inf
ROOT
ATOM      1  C   UNL     1      -9.593 -33.595  41.119  1.00  0.00     0.059 C 
ENDROOT
BRANCH   1   2
ATOM      2  C   UNL     1     -10.040 -33.955  42.501  1.00  0.00     0.042 C 
ATOM      3  O   UNL     1     -10.939 -33.282  43.071  1.00  0.00    -0.550 OA
ATOM      4  O   UNL     1      -9.429 -35.001  43.179  1.00  0.00    -0.550 OA
ENDBRANCH   1   2
BRANCH   1   5
ATOM      5  C   UNL     1      -8.102 -33.258  41.110  1.00  0.00     0.059 C 
BRANCH   5   6
ATOM      6  C   UNL     1      -7.855 -31.954  41.802  1.00  0.00     0.042 C 
ATOM      7  O   UNL     1      -7.352 -31.935  42.956  1.00  0.00    -0.550 OA
ATOM      8  O   UNL     1      -8.135 -30.759  41.153  1.00  0.00    -0.550 OA
ENDBRANCH   5   6
ENDBRANCH   1   5
TORSDOF 3
ENDMDL
MODEL 9
REMARK VINA RESULT:    -3.491      1.505      1.784
REMARK INTER + INTRA:          -4.218
REMARK INTER:                  -4.105
REMARK INTRA:                  -0.113
REMARK UNBOUND:                -0.115
REMARK SMILES O=C([O-])CCC(=O)[O-]
REMARK SMILES IDX 4 1 2 2 1 3 3 4 5 5 6 6 7 7 8 8
REMARK H PARENT
REMARK Flexibility Score: inf
ROOT
ATOM      1  C   UNL     1      -4.884 -35.570  53.810  1.00  0.00     0.059 C 
ENDROOT
BRANCH   1   2
ATOM      2  C   UNL     1      -3.757 -35.436  54.785  1.00  0.00     0.042 C 
ATOM      3  O   UNL     1      -2.615 -35.084  54.389  1.00  0.00    -0.550 OA
ATOM      4  O   UNL     1      -3.956 -35.748  56.123  1.00  0.00    -0.550 OA
ENDBRANCH   1   2
BRANCH   1   5
ATOM      5  C   UNL     1      -4.431 -35.157  52.409  1.00  0.00     0.059 C 
BRANCH   5   6
ATOM      6  C   UNL     1      -4.931 -33.785  52.079  1.00  0.00     0.042 C 
ATOM      7  O   UNL     1      -5.917 -33.638  51.311  1.00  0.00    -0.550 OA
ATOM      8  O   UNL     1      -4.339 -32.673  52.662  1.00  0.00    -0.550 OA
ENDBRANCH   5   6
ENDBRANCH   1   5
TORSDOF 3
ENDMDL
