MODEL 1
REMARK VINA RESULT:    -1.718      0.000      0.000
REMARK INTER + INTRA:          -1.525
REMARK INTER:                  -2.019
REMARK INTRA:                   0.494
REMARK UNBOUND:                 0.494
REMARK SMILES O=c1c(O)c(-c2ccc(O)cc2)oc2cc(O)cc(O)c12
REMARK SMILES IDX 5 1 3 2 2 3 1 4 21 5 19 6 18 7 16 8 15 9 14 10 13 11 6 12
REMARK SMILES IDX 7 13 8 14 9 15 12 16 11 17 10 18 4 20 20 22 17 24
REMARK H PARENT 10 19 4 21 20 23 17 25
REMARK Flexibility Score: inf
ROOT
ATOM      1  C   UNL     1      10.384  69.854  -0.293  1.00  0.00     0.180 A 
ATOM      2  C   UNL     1      10.160  70.344   1.008  1.00  0.00     0.208 A 
ATOM      3  C   UNL     1       9.705  69.457   1.998  1.00  0.00     0.238 A 
ATOM      4  O   UNL     1       9.512  69.882   3.170  1.00  0.00    -0.285 OA
ATOM      5  C   UNL     1       9.463  68.109   1.667  1.00  0.00     0.111 A 
ATOM      6  C   UNL     1       9.000  67.153   2.604  1.00  0.00     0.134 A 
ATOM      7  C   UNL     1       8.773  65.830   2.195  1.00  0.00     0.093 A 
ATOM      8  C   UNL     1       9.000  65.445   0.871  1.00  0.00     0.123 A 
ATOM      9  C   UNL     1       9.457  66.385  -0.059  1.00  0.00     0.094 A 
ATOM     10  C   UNL     1       9.690  67.708   0.330  1.00  0.00     0.146 A 
ATOM     11  O   UNL     1      10.130  68.578  -0.571  1.00  0.00    -0.452 OA
ENDROOT
BRANCH   1  12
ATOM     12  C   UNL     1      10.880  70.720  -1.386  1.00  0.00     0.021 A 
ATOM     13  C   UNL     1      11.213  70.149  -2.625  1.00  0.00     0.016 A 
ATOM     14  C   UNL     1      11.705  70.946  -3.663  1.00  0.00     0.047 A 
ATOM     15  C   UNL     1      11.885  72.321  -3.470  1.00  0.00     0.115 A 
ATOM     16  C   UNL     1      11.083  72.100  -1.193  1.00  0.00     0.016 A 
ATOM     17  C   UNL     1      11.576  72.893  -2.233  1.00  0.00     0.047 A 
BRANCH  15  18
ATOM     18  O   UNL     1      12.375  73.125  -4.497  1.00  0.00    -0.508 OA
ATOM     19  H   UNL     1      12.792  72.724  -5.329  1.00  0.00     0.293 HD
ENDBRANCH  15  18
ENDBRANCH   1  12
BRANCH   2  20
ATOM     20  O   UNL     1      10.360  71.696   1.298  1.00  0.00    -0.502 OA
ATOM     21  H   UNL     1       9.603  72.309   1.577  1.00  0.00     0.293 HD
ENDBRANCH   2  20
BRANCH   6  22
ATOM     22  O   UNL     1       8.764  67.506   3.933  1.00  0.00    -0.507 OA
ATOM     23  H   UNL     1       9.100  68.380   4.320  1.00  0.00     0.293 HD
ENDBRANCH   6  22
BRANCH   8  24
ATOM     24  O   UNL     1       8.767  64.126   0.491  1.00  0.00    -0.508 OA
ATOM     25  H   UNL     1       7.922  63.858  -0.001  1.00  0.00     0.293 HD
ENDBRANCH   8  24
TORSDOF 5
ENDMDL
MODEL 2
REMARK VINA RESULT:    -0.466      1.595      2.496
REMARK INTER + INTRA:          -0.054
REMARK INTER:                   0.176
REMARK INTRA:                  -0.229
REMARK UNBOUND:                 0.494
REMARK SMILES O=c1c(O)c(-c2ccc(O)cc2)oc2cc(O)cc(O)c12
REMARK SMILES IDX 5 1 3 2 2 3 1 4 21 5 19 6 18 7 16 8 15 9 14 10 13 11 6 12
REMARK SMILES IDX 7 13 8 14 9 15 12 16 11 17 10 18 4 20 20 22 17 24
REMARK H PARENT 10 19 4 21 20 23 17 25
REMARK Flexibility Score: inf
ROOT
ATOM      1  C   UNL     1      10.180  69.480  -0.865  1.00  0.00     0.180 A 
ATOM      2  C   UNL     1       8.912  68.903  -1.071  1.00  0.00     0.208 A 
ATOM      3  C   UNL     1       8.407  68.011  -0.110  1.00  0.00     0.238 A 
ATOM      4  O   UNL     1       7.268  67.497  -0.278  1.00  0.00    -0.285 OA
ATOM      5  C   UNL     1       9.184  67.697   1.024  1.00  0.00     0.111 A 
ATOM      6  C   UNL     1       8.751  66.805   2.036  1.00  0.00     0.134 A 
ATOM      7  C   UNL     1       9.587  66.536   3.130  1.00  0.00     0.093 A 
ATOM      8  C   UNL     1      10.842  67.139   3.233  1.00  0.00     0.123 A 
ATOM      9  C   UNL     1      11.276  68.021   2.236  1.00  0.00     0.094 A 
ATOM     10  C   UNL     1      10.457  68.303   1.138  1.00  0.00     0.146 A 
ATOM     11  O   UNL     1      10.889  69.148   0.210  1.00  0.00    -0.452 OA
ENDROOT
BRANCH   1  12
ATOM     12  C   UNL     1      10.771  70.442  -1.821  1.00  0.00     0.021 A 
ATOM     13  C   UNL     1      11.316  69.972  -3.027  1.00  0.00     0.016 A 
ATOM     14  C   UNL     1      11.900  70.861  -3.935  1.00  0.00     0.047 A 
ATOM     15  C   UNL     1      11.959  72.230  -3.640  1.00  0.00     0.115 A 
ATOM     16  C   UNL     1      10.852  71.815  -1.524  1.00  0.00     0.016 A 
ATOM     17  C   UNL     1      11.437  72.702  -2.433  1.00  0.00     0.047 A 
BRANCH  15  18
ATOM     18  O   UNL     1      12.539  73.125  -4.537  1.00  0.00    -0.508 OA
ATOM     19  H   UNL     1      12.369  74.122  -4.474  1.00  0.00     0.293 HD
ENDBRANCH  15  18
ENDBRANCH   1  12
BRANCH   2  20
ATOM     20  O   UNL     1       8.183  69.192  -2.228  1.00  0.00    -0.502 OA
ATOM     21  H   UNL     1       7.548  68.526  -2.650  1.00  0.00     0.293 HD
ENDBRANCH   2  20
BRANCH   6  22
ATOM     22  O   UNL     1       7.502  66.187   1.962  1.00  0.00    -0.507 OA
ATOM     23  H   UNL     1       7.200  65.514   2.656  1.00  0.00     0.293 HD
ENDBRANCH   6  22
BRANCH   8  24
ATOM     24  O   UNL     1      11.653  66.855   4.329  1.00  0.00    -0.508 OA
ATOM     25  H   UNL     1      11.721  67.489   5.117  1.00  0.00     0.293 HD
ENDBRANCH   8  24
TORSDOF 5
ENDMDL
MODEL 3
REMARK VINA RESULT:    -0.287      1.338      6.218
REMARK INTER + INTRA:           0.157
REMARK INTER:                  -0.309
REMARK INTRA:                   0.466
REMARK UNBOUND:                 0.494
REMARK SMILES O=c1c(O)c(-c2ccc(O)cc2)oc2cc(O)cc(O)c12
REMARK SMILES IDX 5 1 3 2 2 3 1 4 21 5 19 6 18 7 16 8 15 9 14 10 13 11 6 12
REMARK SMILES IDX 7 13 8 14 9 15 12 16 11 17 10 18 4 20 20 22 17 24
REMARK H PARENT 10 19 4 21 20 23 17 25
REMARK Flexibility Score: inf
ROOT
ATOM      1  C   UNL     1       9.627  68.279   0.823  1.00  0.00     0.180 A 
ATOM      2  C   UNL     1       9.538  68.880   2.094  1.00  0.00     0.208 A 
ATOM      3  C   UNL     1       9.762  70.262   2.208  1.00  0.00     0.238 A 
ATOM      4  O   UNL     1       9.675  70.813   3.339  1.00  0.00    -0.285 OA
ATOM      5  C   UNL     1      10.090  71.011   1.060  1.00  0.00     0.111 A 
ATOM      6  C   UNL     1      10.335  72.406   1.090  1.00  0.00     0.134 A 
ATOM      7  C   UNL     1      10.665  73.080  -0.096  1.00  0.00     0.093 A 
ATOM      8  C   UNL     1      10.755  72.389  -1.306  1.00  0.00     0.123 A 
ATOM      9  C   UNL     1      10.514  71.012  -1.343  1.00  0.00     0.094 A 
ATOM     10  C   UNL     1      10.182  70.322  -0.172  1.00  0.00     0.146 A 
ATOM     11  O   UNL     1       9.953  69.016  -0.235  1.00  0.00    -0.452 OA
ENDROOT
BRANCH   1  12
ATOM     12  C   UNL     1       9.386  66.833   0.619  1.00  0.00     0.021 A 
ATOM     13  C   UNL     1       9.637  66.262  -0.640  1.00  0.00     0.016 A 
ATOM     14  C   UNL     1       9.395  64.902  -0.861  1.00  0.00     0.047 A 
ATOM     15  C   UNL     1       8.885  64.101   0.169  1.00  0.00     0.115 A 
ATOM     16  C   UNL     1       8.855  66.026   1.642  1.00  0.00     0.016 A 
ATOM     17  C   UNL     1       8.614  64.668   1.417  1.00  0.00     0.047 A 
BRANCH  15  18
ATOM     18  O   UNL     1       8.640  62.746  -0.041  1.00  0.00    -0.508 OA
ATOM     19  H   UNL     1       7.995  62.228   0.545  1.00  0.00     0.293 HD
ENDBRANCH  15  18
ENDBRANCH   1  12
BRANCH   2  20
ATOM     20  O   UNL     1       9.261  68.106   3.224  1.00  0.00    -0.502 OA
ATOM     21  H   UNL     1       9.697  67.206   3.385  1.00  0.00     0.293 HD
ENDBRANCH   2  20
BRANCH   6  22
ATOM     22  O   UNL     1      10.253  73.124   2.283  1.00  0.00    -0.507 OA
ATOM     23  H   UNL     1      10.975  73.065   2.991  1.00  0.00     0.293 HD
ENDBRANCH   6  22
BRANCH   8  24
ATOM     24  O   UNL     1      11.085  73.082  -2.469  1.00  0.00    -0.508 OA
ATOM     25  H   UNL     1      11.702  72.682  -3.167  1.00  0.00     0.293 HD
ENDBRANCH   8  24
TORSDOF 5
ENDMDL
MODEL 4
REMARK VINA RESULT:    -0.254      2.380      5.066
REMARK INTER + INTRA:           0.195
REMARK INTER:                  -0.299
REMARK INTRA:                   0.494
REMARK UNBOUND:                 0.494
REMARK SMILES O=c1c(O)c(-c2ccc(O)cc2)oc2cc(O)cc(O)c12
REMARK SMILES IDX 5 1 3 2 2 3 1 4 21 5 19 6 18 7 16 8 15 9 14 10 13 11 6 12
REMARK SMILES IDX 7 13 8 14 9 15 12 16 11 17 10 18 4 20 20 22 17 24
REMARK H PARENT 10 19 4 21 20 23 17 25
REMARK Flexibility Score: inf
ROOT
ATOM      1  C   UNL     1       9.227  69.849   0.616  1.00  0.00     0.180 A 
ATOM      2  C   UNL     1       9.524  70.381  -0.653  1.00  0.00     0.208 A 
ATOM      3  C   UNL     1       9.732  69.501  -1.727  1.00  0.00     0.238 A 
ATOM      4  O   UNL     1       9.988  69.967  -2.871  1.00  0.00    -0.285 OA
ATOM      5  C   UNL     1       9.659  68.110  -1.511  1.00  0.00     0.111 A 
ATOM      6  C   UNL     1       9.860  67.155  -2.538  1.00  0.00     0.134 A 
ATOM      7  C   UNL     1       9.780  65.786  -2.241  1.00  0.00     0.093 A 
ATOM      8  C   UNL     1       9.505  65.354  -0.942  1.00  0.00     0.123 A 
ATOM      9  C   UNL     1       9.306  66.292   0.078  1.00  0.00     0.094 A 
ATOM     10  C   UNL     1       9.380  67.661  -0.199  1.00  0.00     0.146 A 
ATOM     11  O   UNL     1       9.181  68.530   0.785  1.00  0.00    -0.452 OA
ENDROOT
BRANCH   1  12
ATOM     12  C   UNL     1       8.977  70.711   1.793  1.00  0.00     0.021 A 
ATOM     13  C   UNL     1       8.560  70.129   3.001  1.00  0.00     0.016 A 
ATOM     14  C   UNL     1       8.297  70.927   4.118  1.00  0.00     0.047 A 
ATOM     15  C   UNL     1       8.432  72.319   4.036  1.00  0.00     0.115 A 
ATOM     16  C   UNL     1       9.091  72.112   1.712  1.00  0.00     0.016 A 
ATOM     17  C   UNL     1       8.826  72.907   2.831  1.00  0.00     0.047 A 
BRANCH  15  18
ATOM     18  O   UNL     1       8.172  73.125   5.143  1.00  0.00    -0.508 OA
ATOM     19  H   UNL     1       8.767  73.911   5.377  1.00  0.00     0.293 HD
ENDBRANCH  15  18
ENDBRANCH   1  12
BRANCH   2  20
ATOM     20  O   UNL     1       9.640  71.763  -0.830  1.00  0.00    -0.502 OA
ATOM     21  H   UNL     1      10.524  72.248  -0.745  1.00  0.00     0.293 HD
ENDBRANCH   2  20
BRANCH   6  22
ATOM     22  O   UNL     1      10.136  67.555  -3.846  1.00  0.00    -0.507 OA
ATOM     23  H   UNL     1      11.072  67.811  -4.139  1.00  0.00     0.293 HD
ENDBRANCH   6  22
BRANCH   8  24
ATOM     24  O   UNL     1       9.433  63.990  -0.673  1.00  0.00    -0.508 OA
ATOM     25  H   UNL     1      10.174  63.355  -0.949  1.00  0.00     0.293 HD
ENDBRANCH   8  24
TORSDOF 5
ENDMDL
MODEL 5
REMARK VINA RESULT:    -0.228      2.102      6.593
REMARK INTER + INTRA:           0.225
REMARK INTER:                  -0.231
REMARK INTRA:                   0.457
REMARK UNBOUND:                 0.494
REMARK SMILES O=c1c(O)c(-c2ccc(O)cc2)oc2cc(O)cc(O)c12
REMARK SMILES IDX 5 1 3 2 2 3 1 4 21 5 19 6 18 7 16 8 15 9 14 10 13 11 6 12
REMARK SMILES IDX 7 13 8 14 9 15 12 16 11 17 10 18 4 20 20 22 17 24
REMARK H PARENT 10 19 4 21 20 23 17 25
REMARK Flexibility Score: inf
ROOT
ATOM      1  C   UNL     1       9.424  68.235  -0.236  1.00  0.00     0.180 A 
ATOM      2  C   UNL     1       9.710  68.838  -1.475  1.00  0.00     0.208 A 
ATOM      3  C   UNL     1       9.864  70.233  -1.532  1.00  0.00     0.238 A 
ATOM      4  O   UNL     1      10.132  70.784  -2.635  1.00  0.00    -0.285 OA
ATOM      5  C   UNL     1       9.710  70.999  -0.358  1.00  0.00     0.111 A 
ATOM      6  C   UNL     1       9.845  72.409  -0.331  1.00  0.00     0.134 A 
ATOM      7  C   UNL     1       9.667  73.101   0.877  1.00  0.00     0.093 A 
ATOM      8  C   UNL     1       9.358  72.414   2.053  1.00  0.00     0.123 A 
ATOM      9  C   UNL     1       9.224  71.021   2.032  1.00  0.00     0.094 A 
ATOM     10  C   UNL     1       9.399  70.313   0.839  1.00  0.00     0.146 A 
ATOM     11  O   UNL     1       9.271  68.992   0.847  1.00  0.00    -0.452 OA
ENDROOT
BRANCH   1  12
ATOM     12  C   UNL     1       9.266  66.771  -0.091  1.00  0.00     0.021 A 
ATOM     13  C   UNL     1       8.812  66.241   1.128  1.00  0.00     0.016 A 
ATOM     14  C   UNL     1       8.677  64.859   1.294  1.00  0.00     0.047 A 
ATOM     15  C   UNL     1       9.009  63.989   0.247  1.00  0.00     0.115 A 
ATOM     16  C   UNL     1       9.617  65.889  -1.131  1.00  0.00     0.016 A 
ATOM     17  C   UNL     1       9.481  64.508  -0.962  1.00  0.00     0.047 A 
BRANCH  15  18
ATOM     18  O   UNL     1       8.878  62.610   0.400  1.00  0.00    -0.508 OA
ATOM     19  H   UNL     1       8.870  61.987  -0.399  1.00  0.00     0.293 HD
ENDBRANCH  15  18
ENDBRANCH   1  12
BRANCH   2  20
ATOM     20  O   UNL     1       9.808  68.062  -2.633  1.00  0.00    -0.502 OA
ATOM     21  H   UNL     1      10.694  67.716  -2.981  1.00  0.00     0.293 HD
ENDBRANCH   2  20
BRANCH   6  22
ATOM     22  O   UNL     1      10.153  73.124  -1.488  1.00  0.00    -0.507 OA
ATOM     23  H   UNL     1      10.231  74.133  -1.486  1.00  0.00     0.293 HD
ENDBRANCH   6  22
BRANCH   8  24
ATOM     24  O   UNL     1       9.186  73.125   3.238  1.00  0.00    -0.508 OA
ATOM     25  H   UNL     1       9.886  73.109   3.972  1.00  0.00     0.293 HD
ENDBRANCH   8  24
TORSDOF 5
ENDMDL
MODEL 6
REMARK VINA RESULT:    -0.011      1.666      2.343
REMARK INTER + INTRA:           0.480
REMARK INTER:                   0.271
REMARK INTRA:                   0.210
REMARK UNBOUND:                 0.494
REMARK SMILES O=c1c(O)c(-c2ccc(O)cc2)oc2cc(O)cc(O)c12
REMARK SMILES IDX 5 1 3 2 2 3 1 4 21 5 19 6 18 7 16 8 15 9 14 10 13 11 6 12
REMARK SMILES IDX 7 13 8 14 9 15 12 16 11 17 10 18 4 20 20 22 17 24
REMARK H PARENT 10 19 4 21 20 23 17 25
REMARK Flexibility Score: inf
ROOT
ATOM      1  C   UNL     1      10.485  70.884  -0.495  1.00  0.00     0.180 A 
ATOM      2  C   UNL     1       9.784  71.849   0.253  1.00  0.00     0.208 A 
ATOM      3  C   UNL     1       9.288  71.498   1.519  1.00  0.00     0.238 A 
ATOM      4  O   UNL     1       8.668  72.357   2.203  1.00  0.00    -0.285 OA
ATOM      5  C   UNL     1       9.483  70.189   2.004  1.00  0.00     0.111 A 
ATOM      6  C   UNL     1       9.011  69.753   3.267  1.00  0.00     0.134 A 
ATOM      7  C   UNL     1       9.238  68.429   3.675  1.00  0.00     0.093 A 
ATOM      8  C   UNL     1       9.923  67.536   2.848  1.00  0.00     0.123 A 
ATOM      9  C   UNL     1      10.391  67.961   1.600  1.00  0.00     0.094 A 
ATOM     10  C   UNL     1      10.177  69.276   1.176  1.00  0.00     0.146 A 
ATOM     11  O   UNL     1      10.636  69.655  -0.011  1.00  0.00    -0.452 OA
ENDROOT
BRANCH   1  12
ATOM     12  C   UNL     1      11.054  71.183  -1.829  1.00  0.00     0.021 A 
ATOM     13  C   UNL     1      11.642  72.437  -2.065  1.00  0.00     0.016 A 
ATOM     14  C   UNL     1      12.165  72.748  -3.323  1.00  0.00     0.047 A 
ATOM     15  C   UNL     1      12.093  71.815  -4.366  1.00  0.00     0.115 A 
ATOM     16  C   UNL     1      10.967  70.259  -2.887  1.00  0.00     0.016 A 
ATOM     17  C   UNL     1      11.491  70.574  -4.144  1.00  0.00     0.047 A 
BRANCH  15  18
ATOM     18  O   UNL     1      12.611  72.115  -5.624  1.00  0.00    -0.508 OA
ATOM     19  H   UNL     1      12.060  71.994  -6.466  1.00  0.00     0.293 HD
ENDBRANCH  15  18
ENDBRANCH   1  12
BRANCH   2  20
ATOM     20  O   UNL     1       9.561  73.125  -0.272  1.00  0.00    -0.502 OA
ATOM     21  H   UNL     1       9.499  73.949   0.313  1.00  0.00     0.293 HD
ENDBRANCH   2  20
BRANCH   6  22
ATOM     22  O   UNL     1       8.324  70.621   4.115  1.00  0.00    -0.507 OA
ATOM     23  H   UNL     1       8.633  71.573   4.267  1.00  0.00     0.293 HD
ENDBRANCH   6  22
BRANCH   8  24
ATOM     24  O   UNL     1      10.133  66.228   3.277  1.00  0.00    -0.508 OA
ATOM     25  H   UNL     1      10.556  66.026   4.176  1.00  0.00     0.293 HD
ENDBRANCH   8  24
TORSDOF 5
ENDMDL
MODEL 7
REMARK VINA RESULT:     0.061      2.278      6.286
REMARK INTER + INTRA:           0.566
REMARK INTER:                   0.115
REMARK INTRA:                   0.451
REMARK UNBOUND:                 0.494
REMARK SMILES O=c1c(O)c(-c2ccc(O)cc2)oc2cc(O)cc(O)c12
REMARK SMILES IDX 5 1 3 2 2 3 1 4 21 5 19 6 18 7 16 8 15 9 14 10 13 11 6 12
REMARK SMILES IDX 7 13 8 14 9 15 12 16 11 17 10 18 4 20 20 22 17 24
REMARK H PARENT 10 19 4 21 20 23 17 25
REMARK Flexibility Score: inf
ROOT
ATOM      1  C   UNL     1       9.383  70.589   0.498  1.00  0.00     0.180 A 
ATOM      2  C   UNL     1       8.982  69.289   0.136  1.00  0.00     0.208 A 
ATOM      3  C   UNL     1       9.373  68.781  -1.114  1.00  0.00     0.238 A 
ATOM      4  O   UNL     1       9.029  67.614  -1.445  1.00  0.00    -0.285 OA
ATOM      5  C   UNL     1      10.135  69.586  -1.985  1.00  0.00     0.111 A 
ATOM      6  C   UNL     1      10.565  69.152  -3.263  1.00  0.00     0.134 A 
ATOM      7  C   UNL     1      11.314  70.017  -4.076  1.00  0.00     0.093 A 
ATOM      8  C   UNL     1      11.640  71.302  -3.638  1.00  0.00     0.123 A 
ATOM      9  C   UNL     1      11.218  71.737  -2.376  1.00  0.00     0.094 A 
ATOM     10  C   UNL     1      10.472  70.890  -1.551  1.00  0.00     0.146 A 
ATOM     11  O   UNL     1      10.089  71.324  -0.356  1.00  0.00    -0.452 OA
ENDROOT
BRANCH   1  12
ATOM     12  C   UNL     1       9.027  71.187   1.804  1.00  0.00     0.021 A 
ATOM     13  C   UNL     1       8.652  70.350   2.869  1.00  0.00     0.016 A 
ATOM     14  C   UNL     1       8.291  70.896   4.104  1.00  0.00     0.047 A 
ATOM     15  C   UNL     1       8.286  72.284   4.286  1.00  0.00     0.115 A 
ATOM     16  C   UNL     1       9.000  72.582   1.989  1.00  0.00     0.016 A 
ATOM     17  C   UNL     1       8.638  73.124   3.226  1.00  0.00     0.047 A 
BRANCH  15  18
ATOM     18  O   UNL     1       7.927  72.839   5.514  1.00  0.00    -0.508 OA
ATOM     19  H   UNL     1       8.301  73.729   5.821  1.00  0.00     0.293 HD
ENDBRANCH  15  18
ENDBRANCH   1  12
BRANCH   2  20
ATOM     20  O   UNL     1       8.184  68.530   0.996  1.00  0.00    -0.502 OA
ATOM     21  H   UNL     1       7.946  68.840   1.930  1.00  0.00     0.293 HD
ENDBRANCH   2  20
BRANCH   6  22
ATOM     22  O   UNL     1      10.256  67.874  -3.729  1.00  0.00    -0.507 OA
ATOM     23  H   UNL     1      10.189  67.670  -4.719  1.00  0.00     0.293 HD
ENDBRANCH   6  22
BRANCH   8  24
ATOM     24  O   UNL     1      12.384  72.141  -4.464  1.00  0.00    -0.508 OA
ATOM     25  H   UNL     1      13.298  72.481  -4.189  1.00  0.00     0.293 HD
ENDBRANCH   8  24
TORSDOF 5
ENDMDL
MODEL 8
REMARK VINA RESULT:     0.155      1.169      6.450
REMARK INTER + INTRA:           0.676
REMARK INTER:                   0.103
REMARK INTRA:                   0.573
REMARK UNBOUND:                 0.494
REMARK SMILES O=c1c(O)c(-c2ccc(O)cc2)oc2cc(O)cc(O)c12
REMARK SMILES IDX 5 1 3 2 2 3 1 4 21 5 19 6 18 7 16 8 15 9 14 10 13 11 6 12
REMARK SMILES IDX 7 13 8 14 9 15 12 16 11 17 10 18 4 20 20 22 17 24
REMARK H PARENT 10 19 4 21 20 23 17 25
REMARK Flexibility Score: inf
ROOT
ATOM      1  C   UNL     1       9.748  68.088  -0.229  1.00  0.00     0.180 A 
ATOM      2  C   UNL     1       9.520  69.006   0.814  1.00  0.00     0.208 A 
ATOM      3  C   UNL     1       9.825  70.361   0.605  1.00  0.00     0.238 A 
ATOM      4  O   UNL     1       9.615  71.195   1.528  1.00  0.00    -0.285 OA
ATOM      5  C   UNL     1      10.369  70.770  -0.630  1.00  0.00     0.111 A 
ATOM      6  C   UNL     1      10.707  72.114  -0.920  1.00  0.00     0.134 A 
ATOM      7  C   UNL     1      11.253  72.440  -2.171  1.00  0.00     0.093 A 
ATOM      8  C   UNL     1      11.467  71.451  -3.134  1.00  0.00     0.123 A 
ATOM      9  C   UNL     1      11.134  70.121  -2.854  1.00  0.00     0.094 A 
ATOM     10  C   UNL     1      10.588  69.777  -1.613  1.00  0.00     0.146 A 
ATOM     11  O   UNL     1      10.276  68.509  -1.375  1.00  0.00    -0.452 OA
ENDROOT
BRANCH   1  12
ATOM     12  C   UNL     1       9.435  66.648  -0.092  1.00  0.00     0.021 A 
ATOM     13  C   UNL     1       8.972  66.155   1.139  1.00  0.00     0.016 A 
ATOM     14  C   UNL     1       8.692  64.794   1.297  1.00  0.00     0.047 A 
ATOM     15  C   UNL     1       8.887  63.907   0.230  1.00  0.00     0.115 A 
ATOM     16  C   UNL     1       9.648  65.748  -1.152  1.00  0.00     0.016 A 
ATOM     17  C   UNL     1       9.368  64.388  -0.991  1.00  0.00     0.047 A 
BRANCH  15  18
ATOM     18  O   UNL     1       8.611  62.549   0.376  1.00  0.00    -0.508 OA
ATOM     19  H   UNL     1       9.351  61.872   0.521  1.00  0.00     0.293 HD
ENDBRANCH  15  18
ENDBRANCH   1  12
BRANCH   2  20
ATOM     20  O   UNL     1       9.028  68.568   2.046  1.00  0.00    -0.502 OA
ATOM     21  H   UNL     1       9.598  68.052   2.706  1.00  0.00     0.293 HD
ENDBRANCH   2  20
BRANCH   6  22
ATOM     22  O   UNL     1      10.506  73.125   0.021  1.00  0.00    -0.507 OA
ATOM     23  H   UNL     1       9.791  73.832  -0.102  1.00  0.00     0.293 HD
ENDBRANCH   6  22
BRANCH   8  24
ATOM     24  O   UNL     1      12.011  71.801  -4.368  1.00  0.00    -0.508 OA
ATOM     25  H   UNL     1      11.435  72.177  -5.113  1.00  0.00     0.293 HD
ENDBRANCH   8  24
TORSDOF 5
ENDMDL
