MODEL 1
REMARK VINA RESULT:    -5.008      0.000      0.000
REMARK INTER + INTRA:          -6.353
REMARK INTER:                  -6.033
REMARK INTRA:                  -0.319
REMARK UNBOUND:                -0.319
REMARK SMILES O=c1c(O)c(-c2ccc(O)c(O)c2)oc2cc(O)cc(O)c12
REMARK SMILES IDX 5 1 3 2 2 3 1 4 22 5 20 6 19 7 17 8 16 9 15 10 14 11 6 12
REMARK SMILES IDX 7 13 8 14 9 15 13 16 11 17 10 18 12 20 4 22 21 24 18 26
REMARK H PARENT 10 19 12 21 4 23 21 25 18 27
REMARK Flexibility Score: inf
ROOT
ATOM      1  C   UNL     1       5.478   7.577  38.896  1.00  0.00     0.180 A 
ATOM      2  C   UNL     1       4.257   7.185  38.315  1.00  0.00     0.208 A 
ATOM      3  C   UNL     1       4.181   7.058  36.919  1.00  0.00     0.238 A 
ATOM      4  O   UNL     1       3.090   6.718  36.385  1.00  0.00    -0.285 OA
ATOM      5  C   UNL     1       5.326   7.301  36.133  1.00  0.00     0.111 A 
ATOM      6  C   UNL     1       5.334   7.192  34.721  1.00  0.00     0.134 A 
ATOM      7  C   UNL     1       6.517   7.442  34.010  1.00  0.00     0.093 A 
ATOM      8  C   UNL     1       7.689   7.799  34.681  1.00  0.00     0.123 A 
ATOM      9  C   UNL     1       7.687   7.911  36.075  1.00  0.00     0.094 A 
ATOM     10  C   UNL     1       6.518   7.666  36.802  1.00  0.00     0.146 A 
ATOM     11  O   UNL     1       6.542   7.784  38.124  1.00  0.00    -0.452 OA
ENDROOT
BRANCH   1  12
ATOM     12  C   UNL     1       5.633   7.751  40.358  1.00  0.00     0.025 A 
ATOM     13  C   UNL     1       6.247   6.740  41.113  1.00  0.00     0.016 A 
ATOM     14  C   UNL     1       6.422   6.893  42.491  1.00  0.00     0.051 A 
ATOM     15  C   UNL     1       6.003   8.062  43.131  1.00  0.00     0.157 A 
ATOM     16  C   UNL     1       5.232   8.936  41.001  1.00  0.00     0.062 A 
ATOM     17  C   UNL     1       5.409   9.092  42.383  1.00  0.00     0.158 A 
BRANCH  15  18
ATOM     18  O   UNL     1       6.189   8.185  44.508  1.00  0.00    -0.504 OA
ATOM     19  H   UNL     1       6.879   8.813  44.904  1.00  0.00     0.293 HD
ENDBRANCH  15  18
BRANCH  17  20
ATOM     20  O   UNL     1       5.001  10.267  43.014  1.00  0.00    -0.504 OA
ATOM     21  H   UNL     1       4.100  10.689  42.820  1.00  0.00     0.293 HD
ENDBRANCH  17  20
ENDBRANCH   1  12
BRANCH   2  22
ATOM     22  O   UNL     1       3.151   6.901  39.119  1.00  0.00    -0.502 OA
ATOM     23  H   UNL     1       2.795   5.961  39.239  1.00  0.00     0.293 HD
ENDBRANCH   2  22
BRANCH   6  24
ATOM     24  O   UNL     1       4.180   6.836  34.022  1.00  0.00    -0.507 OA
ATOM     25  H   UNL     1       4.222   6.304  33.161  1.00  0.00     0.293 HD
ENDBRANCH   6  24
BRANCH   8  26
ATOM     26  O   UNL     1       8.850   8.042  33.952  1.00  0.00    -0.508 OA
ATOM     27  H   UNL     1       9.127   8.982  33.692  1.00  0.00     0.293 HD
ENDBRANCH   8  26
TORSDOF 6
ENDMDL
MODEL 2
REMARK VINA RESULT:    -4.991     11.257     14.004
REMARK INTER + INTRA:          -6.332
REMARK INTER:                  -6.034
REMARK INTRA:                  -0.298
REMARK UNBOUND:                -0.319
REMARK SMILES O=c1c(O)c(-c2ccc(O)c(O)c2)oc2cc(O)cc(O)c12
REMARK SMILES IDX 5 1 3 2 2 3 1 4 22 5 20 6 19 7 17 8 16 9 15 10 14 11 6 12
REMARK SMILES IDX 7 13 8 14 9 15 13 16 11 17 10 18 12 20 4 22 21 24 18 26
REMARK H PARENT 10 19 12 21 4 23 21 25 18 27
REMARK Flexibility Score: inf
ROOT
ATOM      1  C   UNL     1       3.187  17.246  29.724  1.00  0.00     0.180 A 
ATOM      2  C   UNL     1       2.097  18.110  29.941  1.00  0.00     0.208 A 
ATOM      3  C   UNL     1       0.880  17.568  30.382  1.00  0.00     0.238 A 
ATOM      4  O   UNL     1      -0.107  18.330  30.570  1.00  0.00    -0.285 OA
ATOM      5  C   UNL     1       0.778  16.181  30.618  1.00  0.00     0.111 A 
ATOM      6  C   UNL     1      -0.411  15.557  31.066  1.00  0.00     0.134 A 
ATOM      7  C   UNL     1      -0.429  14.172  31.286  1.00  0.00     0.093 A 
ATOM      8  C   UNL     1       0.714  13.401  31.068  1.00  0.00     0.123 A 
ATOM      9  C   UNL     1       1.892  14.012  30.624  1.00  0.00     0.094 A 
ATOM     10  C   UNL     1       1.930  15.391  30.397  1.00  0.00     0.146 A 
ATOM     11  O   UNL     1       3.059  15.945  29.971  1.00  0.00    -0.452 OA
ENDROOT
BRANCH   1  12
ATOM     12  C   UNL     1       4.497  17.738  29.242  1.00  0.00     0.025 A 
ATOM     13  C   UNL     1       4.674  18.008  27.876  1.00  0.00     0.016 A 
ATOM     14  C   UNL     1       5.895  18.493  27.402  1.00  0.00     0.051 A 
ATOM     15  C   UNL     1       6.952  18.730  28.285  1.00  0.00     0.157 A 
ATOM     16  C   UNL     1       5.555  17.997  30.131  1.00  0.00     0.062 A 
ATOM     17  C   UNL     1       6.782  18.485  29.657  1.00  0.00     0.158 A 
BRANCH  15  18
ATOM     18  O   UNL     1       8.161  19.211  27.782  1.00  0.00    -0.504 OA
ATOM     19  H   UNL     1       8.205  19.792  26.953  1.00  0.00     0.293 HD
ENDBRANCH  15  18
BRANCH  17  20
ATOM     20  O   UNL     1       7.828  18.733  30.546  1.00  0.00    -0.504 OA
ATOM     21  H   UNL     1       7.814  19.527  31.175  1.00  0.00     0.293 HD
ENDBRANCH  17  20
ENDBRANCH   1  12
BRANCH   2  22
ATOM     22  O   UNL     1       2.238  19.486  29.748  1.00  0.00    -0.502 OA
ATOM     23  H   UNL     1       3.141  19.926  29.622  1.00  0.00     0.293 HD
ENDBRANCH   2  22
BRANCH   6  24
ATOM     24  O   UNL     1      -1.570  16.300  31.294  1.00  0.00    -0.507 OA
ATOM     25  H   UNL     1      -2.490  15.878  31.253  1.00  0.00     0.293 HD
ENDBRANCH   6  24
BRANCH   8  26
ATOM     26  O   UNL     1       0.671  12.027  31.295  1.00  0.00    -0.508 OA
ATOM     27  H   UNL     1       1.048  11.617  32.141  1.00  0.00     0.293 HD
ENDBRANCH   8  26
TORSDOF 6
ENDMDL
MODEL 3
REMARK VINA RESULT:    -4.966      6.787      9.562
REMARK INTER + INTRA:          -6.301
REMARK INTER:                  -6.103
REMARK INTRA:                  -0.198
REMARK UNBOUND:                -0.319
REMARK SMILES O=c1c(O)c(-c2ccc(O)c(O)c2)oc2cc(O)cc(O)c12
REMARK SMILES IDX 5 1 3 2 2 3 1 4 22 5 20 6 19 7 17 8 16 9 15 10 14 11 6 12
REMARK SMILES IDX 7 13 8 14 9 15 13 16 11 17 10 18 12 20 4 22 21 24 18 26
REMARK H PARENT 10 19 12 21 4 23 21 25 18 27
REMARK Flexibility Score: inf
ROOT
ATOM      1  C   UNL     1      -0.070  10.850  33.613  1.00  0.00     0.180 A 
ATOM      2  C   UNL     1      -1.025   9.816  33.633  1.00  0.00     0.208 A 
ATOM      3  C   UNL     1      -0.751   8.654  34.370  1.00  0.00     0.238 A 
ATOM      4  O   UNL     1      -1.594   7.716  34.387  1.00  0.00    -0.285 OA
ATOM      5  C   UNL     1       0.459   8.552  35.088  1.00  0.00     0.111 A 
ATOM      6  C   UNL     1       0.810   7.417  35.857  1.00  0.00     0.134 A 
ATOM      7  C   UNL     1       2.029   7.396  36.551  1.00  0.00     0.093 A 
ATOM      8  C   UNL     1       2.901   8.484  36.491  1.00  0.00     0.123 A 
ATOM      9  C   UNL     1       2.561   9.609  35.731  1.00  0.00     0.094 A 
ATOM     10  C   UNL     1       1.351   9.649  35.032  1.00  0.00     0.146 A 
ATOM     11  O   UNL     1       1.054  10.725  34.314  1.00  0.00    -0.452 OA
ENDROOT
BRANCH   1  12
ATOM     12  C   UNL     1      -0.277  12.098  32.845  1.00  0.00     0.025 A 
ATOM     13  C   UNL     1       0.490  12.337  31.694  1.00  0.00     0.016 A 
ATOM     14  C   UNL     1       0.296  13.498  30.942  1.00  0.00     0.051 A 
ATOM     15  C   UNL     1      -0.675  14.430  31.318  1.00  0.00     0.157 A 
ATOM     16  C   UNL     1      -1.269  13.026  33.209  1.00  0.00     0.062 A 
ATOM     17  C   UNL     1      -1.466  14.192  32.455  1.00  0.00     0.158 A 
BRANCH  15  18
ATOM     18  O   UNL     1      -0.844  15.581  30.549  1.00  0.00    -0.504 OA
ATOM     19  H   UNL     1      -0.680  15.589  29.550  1.00  0.00     0.293 HD
ENDBRANCH  15  18
BRANCH  17  20
ATOM     20  O   UNL     1      -2.447  15.111  32.827  1.00  0.00    -0.504 OA
ATOM     21  H   UNL     1      -2.282  16.110  32.784  1.00  0.00     0.293 HD
ENDBRANCH  17  20
ENDBRANCH   1  12
BRANCH   2  22
ATOM     22  O   UNL     1      -2.238   9.962  32.954  1.00  0.00    -0.502 OA
ATOM     23  H   UNL     1      -2.480   9.395  32.151  1.00  0.00     0.293 HD
ENDBRANCH   2  22
BRANCH   6  24
ATOM     24  O   UNL     1      -0.041   6.313  35.938  1.00  0.00    -0.507 OA
ATOM     25  H   UNL     1       0.277   5.421  36.299  1.00  0.00     0.293 HD
ENDBRANCH   6  24
BRANCH   8  26
ATOM     26  O   UNL     1       4.105   8.439  37.189  1.00  0.00    -0.508 OA
ATOM     27  H   UNL     1       4.206   7.896  38.039  1.00  0.00     0.293 HD
ENDBRANCH   8  26
TORSDOF 6
ENDMDL
MODEL 4
REMARK VINA RESULT:    -4.942      7.672     10.674
REMARK INTER + INTRA:          -6.273
REMARK INTER:                  -6.041
REMARK INTRA:                  -0.232
REMARK UNBOUND:                -0.319
REMARK SMILES O=c1c(O)c(-c2ccc(O)c(O)c2)oc2cc(O)cc(O)c12
REMARK SMILES IDX 5 1 3 2 2 3 1 4 22 5 20 6 19 7 17 8 16 9 15 10 14 11 6 12
REMARK SMILES IDX 7 13 8 14 9 15 13 16 11 17 10 18 12 20 4 22 21 24 18 26
REMARK H PARENT 10 19 12 21 4 23 21 25 18 27
REMARK Flexibility Score: inf
ROOT
ATOM      1  C   UNL     1      -0.638  10.930  33.267  1.00  0.00     0.180 A 
ATOM      2  C   UNL     1       0.358  10.513  34.170  1.00  0.00     0.208 A 
ATOM      3  C   UNL     1       0.222   9.268  34.803  1.00  0.00     0.238 A 
ATOM      4  O   UNL     1       1.102   8.888  35.622  1.00  0.00    -0.285 OA
ATOM      5  C   UNL     1      -0.891   8.454  34.508  1.00  0.00     0.111 A 
ATOM      6  C   UNL     1      -1.101   7.185  35.099  1.00  0.00     0.134 A 
ATOM      7  C   UNL     1      -2.230   6.431  34.747  1.00  0.00     0.093 A 
ATOM      8  C   UNL     1      -3.151   6.919  33.818  1.00  0.00     0.123 A 
ATOM      9  C   UNL     1      -2.950   8.173  33.231  1.00  0.00     0.094 A 
ATOM     10  C   UNL     1      -1.832   8.941  33.570  1.00  0.00     0.146 A 
ATOM     11  O   UNL     1      -1.667  10.129  33.002  1.00  0.00    -0.452 OA
ENDROOT
BRANCH   1  12
ATOM     12  C   UNL     1      -0.576  12.237  32.574  1.00  0.00     0.025 A 
ATOM     13  C   UNL     1       0.347  12.424  31.534  1.00  0.00     0.016 A 
ATOM     14  C   UNL     1       0.409  13.642  30.853  1.00  0.00     0.051 A 
ATOM     15  C   UNL     1      -0.459  14.685  31.189  1.00  0.00     0.157 A 
ATOM     16  C   UNL     1      -1.463  13.279  32.896  1.00  0.00     0.062 A 
ATOM     17  C   UNL     1      -1.404  14.503  32.213  1.00  0.00     0.158 A 
BRANCH  15  18
ATOM     18  O   UNL     1      -0.372  15.890  30.493  1.00  0.00    -0.504 OA
ATOM     19  H   UNL     1      -0.754  16.753  30.862  1.00  0.00     0.293 HD
ENDBRANCH  15  18
BRANCH  17  20
ATOM     20  O   UNL     1      -2.282  15.534  32.544  1.00  0.00    -0.504 OA
ATOM     21  H   UNL     1      -3.239  15.348  32.820  1.00  0.00     0.293 HD
ENDBRANCH  17  20
ENDBRANCH   1  12
BRANCH   2  22
ATOM     22  O   UNL     1       1.477  11.316  34.407  1.00  0.00    -0.502 OA
ATOM     23  H   UNL     1       1.998  11.755  33.658  1.00  0.00     0.293 HD
ENDBRANCH   2  22
BRANCH   6  24
ATOM     24  O   UNL     1      -0.199   6.669  36.031  1.00  0.00    -0.507 OA
ATOM     25  H   UNL     1      -0.365   6.738  37.028  1.00  0.00     0.293 HD
ENDBRANCH   6  24
BRANCH   8  26
ATOM     26  O   UNL     1      -4.264   6.151  33.485  1.00  0.00    -0.508 OA
ATOM     27  H   UNL     1      -4.329   5.668  32.596  1.00  0.00     0.293 HD
ENDBRANCH   8  26
TORSDOF 6
ENDMDL
MODEL 5
REMARK VINA RESULT:    -4.871      9.296     11.166
REMARK INTER + INTRA:          -6.187
REMARK INTER:                  -6.237
REMARK INTRA:                   0.049
REMARK UNBOUND:                -0.319
REMARK SMILES O=c1c(O)c(-c2ccc(O)c(O)c2)oc2cc(O)cc(O)c12
REMARK SMILES IDX 5 1 3 2 2 3 1 4 22 5 20 6 19 7 17 8 16 9 15 10 14 11 6 12
REMARK SMILES IDX 7 13 8 14 9 15 13 16 11 17 10 18 12 20 4 22 21 24 18 26
REMARK H PARENT 10 19 12 21 4 23 21 25 18 27
REMARK Flexibility Score: inf
ROOT
ATOM      1  C   UNL     1       0.108  13.575  32.232  1.00  0.00     0.180 A 
ATOM      2  C   UNL     1      -0.987  14.454  32.134  1.00  0.00     0.208 A 
ATOM      3  C   UNL     1      -0.802  15.702  31.517  1.00  0.00     0.238 A 
ATOM      4  O   UNL     1      -1.772  16.503  31.433  1.00  0.00    -0.285 OA
ATOM      5  C   UNL     1       0.463  16.039  30.993  1.00  0.00     0.111 A 
ATOM      6  C   UNL     1       0.732  17.274  30.354  1.00  0.00     0.134 A 
ATOM      7  C   UNL     1       2.016  17.532  29.850  1.00  0.00     0.093 A 
ATOM      8  C   UNL     1       3.032  16.582  29.971  1.00  0.00     0.123 A 
ATOM      9  C   UNL     1       2.773  15.361  30.604  1.00  0.00     0.094 A 
ATOM     10  C   UNL     1       1.501  15.086  31.113  1.00  0.00     0.146 A 
ATOM     11  O   UNL     1       1.283  13.922  31.713  1.00  0.00    -0.452 OA
ENDROOT
BRANCH   1  12
ATOM     12  C   UNL     1      -0.002  12.251  32.884  1.00  0.00     0.025 A 
ATOM     13  C   UNL     1       0.941  11.878  33.855  1.00  0.00     0.016 A 
ATOM     14  C   UNL     1       0.844  10.642  34.498  1.00  0.00     0.051 A 
ATOM     15  C   UNL     1      -0.204   9.767  34.194  1.00  0.00     0.157 A 
ATOM     16  C   UNL     1      -1.067  11.379  32.596  1.00  0.00     0.062 A 
ATOM     17  C   UNL     1      -1.167  10.138  33.242  1.00  0.00     0.158 A 
BRANCH  15  18
ATOM     18  O   UNL     1      -0.273   8.539  34.851  1.00  0.00    -0.504 OA
ATOM     19  H   UNL     1      -1.022   7.879  34.680  1.00  0.00     0.293 HD
ENDBRANCH  15  18
BRANCH  17  20
ATOM     20  O   UNL     1      -2.223   9.276  32.945  1.00  0.00    -0.504 OA
ATOM     21  H   UNL     1      -2.442   9.014  31.991  1.00  0.00     0.293 HD
ENDBRANCH  17  20
ENDBRANCH   1  12
BRANCH   2  22
ATOM     22  O   UNL     1      -2.242  14.076  32.617  1.00  0.00    -0.502 OA
ATOM     23  H   UNL     1      -3.098  14.266  32.111  1.00  0.00     0.293 HD
ENDBRANCH   2  22
BRANCH   6  24
ATOM     24  O   UNL     1      -0.263  18.243  30.215  1.00  0.00    -0.507 OA
ATOM     25  H   UNL     1      -0.460  18.912  30.950  1.00  0.00     0.293 HD
ENDBRANCH   6  24
BRANCH   8  26
ATOM     26  O   UNL     1       4.298  16.862  29.462  1.00  0.00    -0.508 OA
ATOM     27  H   UNL     1       4.552  17.793  29.153  1.00  0.00     0.293 HD
ENDBRANCH   8  26
TORSDOF 6
ENDMDL
MODEL 6
REMARK VINA RESULT:    -4.852      7.347     10.036
REMARK INTER + INTRA:          -6.164
REMARK INTER:                  -5.963
REMARK INTRA:                  -0.201
REMARK UNBOUND:                -0.319
REMARK SMILES O=c1c(O)c(-c2ccc(O)c(O)c2)oc2cc(O)cc(O)c12
REMARK SMILES IDX 5 1 3 2 2 3 1 4 22 5 20 6 19 7 17 8 16 9 15 10 14 11 6 12
REMARK SMILES IDX 7 13 8 14 9 15 13 16 11 17 10 18 12 20 4 22 21 24 18 26
REMARK H PARENT 10 19 12 21 4 23 21 25 18 27
REMARK Flexibility Score: inf
ROOT
ATOM      1  C   UNL     1       0.690  12.319  33.245  1.00  0.00     0.180 A 
ATOM      2  C   UNL     1      -0.181  11.221  33.116  1.00  0.00     0.208 A 
ATOM      3  C   UNL     1       0.003  10.108  33.951  1.00  0.00     0.238 A 
ATOM      4  O   UNL     1      -0.764   9.113  33.838  1.00  0.00    -0.285 OA
ATOM      5  C   UNL     1       1.035  10.120  34.912  1.00  0.00     0.111 A 
ATOM      6  C   UNL     1       1.285   9.041  35.794  1.00  0.00     0.134 A 
ATOM      7  C   UNL     1       2.327   9.133  36.728  1.00  0.00     0.093 A 
ATOM      8  C   UNL     1       3.122  10.279  36.798  1.00  0.00     0.123 A 
ATOM      9  C   UNL     1       2.881  11.348  35.928  1.00  0.00     0.094 A 
ATOM     10  C   UNL     1       1.848  11.275  34.989  1.00  0.00     0.146 A 
ATOM     11  O   UNL     1       1.644  12.301  34.172  1.00  0.00    -0.452 OA
ENDROOT
BRANCH   1  12
ATOM     12  C   UNL     1       0.573  13.521  32.388  1.00  0.00     0.025 A 
ATOM     13  C   UNL     1       1.547  13.769  31.408  1.00  0.00     0.016 A 
ATOM     14  C   UNL     1       1.446  14.885  30.575  1.00  0.00     0.051 A 
ATOM     15  C   UNL     1       0.363  15.762  30.696  1.00  0.00     0.157 A 
ATOM     16  C   UNL     1      -0.526  14.392  32.494  1.00  0.00     0.062 A 
ATOM     17  C   UNL     1      -0.631  15.513  31.657  1.00  0.00     0.158 A 
BRANCH  15  18
ATOM     18  O   UNL     1       0.290  16.869  29.852  1.00  0.00    -0.504 OA
ATOM     19  H   UNL     1       0.681  17.767  30.108  1.00  0.00     0.293 HD
ENDBRANCH  15  18
BRANCH  17  20
ATOM     20  O   UNL     1      -1.721  16.375  31.774  1.00  0.00    -0.504 OA
ATOM     21  H   UNL     1      -1.805  17.205  31.198  1.00  0.00     0.293 HD
ENDBRANCH  17  20
ENDBRANCH   1  12
BRANCH   2  22
ATOM     22  O   UNL     1      -1.227  11.254  32.190  1.00  0.00    -0.502 OA
ATOM     23  H   UNL     1      -1.082  11.489  31.217  1.00  0.00     0.293 HD
ENDBRANCH   2  22
BRANCH   6  24
ATOM     24  O   UNL     1       0.508   7.883  35.750  1.00  0.00    -0.507 OA
ATOM     25  H   UNL     1      -0.014   7.623  34.921  1.00  0.00     0.293 HD
ENDBRANCH   6  24
BRANCH   8  26
ATOM     26  O   UNL     1       4.150  10.346  37.736  1.00  0.00    -0.508 OA
ATOM     27  H   UNL     1       4.692   9.528  37.988  1.00  0.00     0.293 HD
ENDBRANCH   8  26
TORSDOF 6
ENDMDL
MODEL 7
REMARK VINA RESULT:    -4.821      6.851     10.080
REMARK INTER + INTRA:          -6.127
REMARK INTER:                  -5.825
REMARK INTRA:                  -0.302
REMARK UNBOUND:                -0.319
REMARK SMILES O=c1c(O)c(-c2ccc(O)c(O)c2)oc2cc(O)cc(O)c12
REMARK SMILES IDX 5 1 3 2 2 3 1 4 22 5 20 6 19 7 17 8 16 9 15 10 14 11 6 12
REMARK SMILES IDX 7 13 8 14 9 15 13 16 11 17 10 18 12 20 4 22 21 24 18 26
REMARK H PARENT 10 19 12 21 4 23 21 25 18 27
REMARK Flexibility Score: inf
ROOT
ATOM      1  C   UNL     1       0.764  12.433  41.990  1.00  0.00     0.180 A 
ATOM      2  C   UNL     1       0.958  13.786  41.654  1.00  0.00     0.208 A 
ATOM      3  C   UNL     1      -0.088  14.696  41.875  1.00  0.00     0.238 A 
ATOM      4  O   UNL     1       0.069  15.909  41.568  1.00  0.00    -0.285 OA
ATOM      5  C   UNL     1      -1.296  14.244  42.445  1.00  0.00     0.111 A 
ATOM      6  C   UNL     1      -2.397  15.096  42.704  1.00  0.00     0.134 A 
ATOM      7  C   UNL     1      -3.563  14.572  43.282  1.00  0.00     0.093 A 
ATOM      8  C   UNL     1      -3.649  13.217  43.607  1.00  0.00     0.123 A 
ATOM      9  C   UNL     1      -2.565  12.369  43.352  1.00  0.00     0.094 A 
ATOM     10  C   UNL     1      -1.395  12.872  42.775  1.00  0.00     0.146 A 
ATOM     11  O   UNL     1      -0.384  12.046  42.539  1.00  0.00    -0.452 OA
ENDROOT
BRANCH   1  12
ATOM     12  C   UNL     1       1.811  11.410  41.769  1.00  0.00     0.025 A 
ATOM     13  C   UNL     1       1.780  10.629  40.603  1.00  0.00     0.016 A 
ATOM     14  C   UNL     1       2.769   9.673  40.364  1.00  0.00     0.051 A 
ATOM     15  C   UNL     1       3.813   9.492  41.277  1.00  0.00     0.157 A 
ATOM     16  C   UNL     1       2.874  11.242  42.675  1.00  0.00     0.062 A 
ATOM     17  C   UNL     1       3.869  10.283  42.436  1.00  0.00     0.158 A 
BRANCH  15  18
ATOM     18  O   UNL     1       4.785   8.528  41.013  1.00  0.00    -0.504 OA
ATOM     19  H   UNL     1       5.659   8.756  40.554  1.00  0.00     0.293 HD
ENDBRANCH  15  18
BRANCH  17  20
ATOM     20  O   UNL     1       4.915  10.118  43.344  1.00  0.00    -0.504 OA
ATOM     21  H   UNL     1       5.782   9.665  43.078  1.00  0.00     0.293 HD
ENDBRANCH  17  20
ENDBRANCH   1  12
BRANCH   2  22
ATOM     22  O   UNL     1       2.181  14.217  41.136  1.00  0.00    -0.502 OA
ATOM     23  H   UNL     1       2.990  13.611  41.080  1.00  0.00     0.293 HD
ENDBRANCH   2  22
BRANCH   6  24
ATOM     24  O   UNL     1      -2.341  16.456  42.392  1.00  0.00    -0.507 OA
ATOM     25  H   UNL     1      -2.827  17.150  42.948  1.00  0.00     0.293 HD
ENDBRANCH   6  24
BRANCH   8  26
ATOM     26  O   UNL     1      -4.817  12.721  44.180  1.00  0.00    -0.508 OA
ATOM     27  H   UNL     1      -5.526  13.338  44.559  1.00  0.00     0.293 HD
ENDBRANCH   8  26
TORSDOF 6
ENDMDL
MODEL 8
REMARK VINA RESULT:    -4.768     11.651     13.573
REMARK INTER + INTRA:          -6.064
REMARK INTER:                  -5.739
REMARK INTRA:                  -0.324
REMARK UNBOUND:                -0.319
REMARK SMILES O=c1c(O)c(-c2ccc(O)c(O)c2)oc2cc(O)cc(O)c12
REMARK SMILES IDX 5 1 3 2 2 3 1 4 22 5 20 6 19 7 17 8 16 9 15 10 14 11 6 12
REMARK SMILES IDX 7 13 8 14 9 15 13 16 11 17 10 18 12 20 4 22 21 24 18 26
REMARK H PARENT 10 19 12 21 4 23 21 25 18 27
REMARK Flexibility Score: inf
ROOT
ATOM      1  C   UNL     1       1.740  16.694  30.263  1.00  0.00     0.180 A 
ATOM      2  C   UNL     1       0.708  17.623  30.032  1.00  0.00     0.208 A 
ATOM      3  C   UNL     1       0.964  18.729  29.206  1.00  0.00     0.238 A 
ATOM      4  O   UNL     1       0.051  19.574  29.000  1.00  0.00    -0.285 OA
ATOM      5  C   UNL     1       2.235  18.876  28.612  1.00  0.00     0.111 A 
ATOM      6  C   UNL     1       2.573  19.960  27.765  1.00  0.00     0.134 A 
ATOM      7  C   UNL     1       3.857  20.031  27.205  1.00  0.00     0.093 A 
ATOM      8  C   UNL     1       4.806  19.043  27.473  1.00  0.00     0.123 A 
ATOM      9  C   UNL     1       4.479  17.970  28.310  1.00  0.00     0.094 A 
ATOM     10  C   UNL     1       3.205  17.883  28.880  1.00  0.00     0.146 A 
ATOM     11  O   UNL     1       2.921  16.858  29.674  1.00  0.00    -0.452 OA
ENDROOT
BRANCH   1  12
ATOM     12  C   UNL     1       1.554  15.513  31.136  1.00  0.00     0.025 A 
ATOM     13  C   UNL     1       1.822  15.619  32.510  1.00  0.00     0.016 A 
ATOM     14  C   UNL     1       1.634  14.524  33.355  1.00  0.00     0.051 A 
ATOM     15  C   UNL     1       1.160  13.311  32.846  1.00  0.00     0.157 A 
ATOM     16  C   UNL     1       1.057  14.299  30.630  1.00  0.00     0.062 A 
ATOM     17  C   UNL     1       0.866  13.198  31.477  1.00  0.00     0.158 A 
BRANCH  15  18
ATOM     18  O   UNL     1       0.984  12.234  33.714  1.00  0.00    -0.504 OA
ATOM     19  H   UNL     1       0.685  12.359  34.673  1.00  0.00     0.293 HD
ENDBRANCH  15  18
BRANCH  17  20
ATOM     20  O   UNL     1       0.380  11.995  30.965  1.00  0.00    -0.504 OA
ATOM     21  H   UNL     1       0.937  11.417  30.346  1.00  0.00     0.293 HD
ENDBRANCH  17  20
ENDBRANCH   1  12
BRANCH   2  22
ATOM     22  O   UNL     1      -0.557  17.428  30.592  1.00  0.00    -0.502 OA
ATOM     23  H   UNL     1      -1.349  18.014  30.360  1.00  0.00     0.293 HD
ENDBRANCH   2  22
BRANCH   6  24
ATOM     24  O   UNL     1       1.645  20.962  27.477  1.00  0.00    -0.507 OA
ATOM     25  H   UNL     1       1.898  21.782  26.938  1.00  0.00     0.293 HD
ENDBRANCH   6  24
BRANCH   8  26
ATOM     26  O   UNL     1       6.074  19.136  26.904  1.00  0.00    -0.508 OA
ATOM     27  H   UNL     1       6.214  19.050  25.904  1.00  0.00     0.293 HD
ENDBRANCH   8  26
TORSDOF 6
ENDMDL
MODEL 9
REMARK VINA RESULT:    -4.725      6.893      9.920
REMARK INTER + INTRA:          -6.011
REMARK INTER:                  -5.721
REMARK INTRA:                  -0.290
REMARK UNBOUND:                -0.319
REMARK SMILES O=c1c(O)c(-c2ccc(O)c(O)c2)oc2cc(O)cc(O)c12
REMARK SMILES IDX 5 1 3 2 2 3 1 4 22 5 20 6 19 7 17 8 16 9 15 10 14 11 6 12
REMARK SMILES IDX 7 13 8 14 9 15 13 16 11 17 10 18 12 20 4 22 21 24 18 26
REMARK H PARENT 10 19 12 21 4 23 21 25 18 27
REMARK Flexibility Score: inf
ROOT
ATOM      1  C   UNL     1       0.321  11.680  42.330  1.00  0.00     0.180 A 
ATOM      2  C   UNL     1      -0.647  10.754  42.761  1.00  0.00     0.208 A 
ATOM      3  C   UNL     1      -1.906  11.228  43.162  1.00  0.00     0.238 A 
ATOM      4  O   UNL     1      -2.779  10.409  43.561  1.00  0.00    -0.285 OA
ATOM      5  C   UNL     1      -2.182  12.610  43.106  1.00  0.00     0.111 A 
ATOM      6  C   UNL     1      -3.426  13.167  43.489  1.00  0.00     0.134 A 
ATOM      7  C   UNL     1      -3.626  14.552  43.396  1.00  0.00     0.093 A 
ATOM      8  C   UNL     1      -2.610  15.388  42.928  1.00  0.00     0.123 A 
ATOM      9  C   UNL     1      -1.378  14.844  42.550  1.00  0.00     0.094 A 
ATOM     10  C   UNL     1      -1.159  13.466  42.637  1.00  0.00     0.146 A 
ATOM     11  O   UNL     1       0.021  12.975  42.276  1.00  0.00    -0.452 OA
ENDROOT
BRANCH   1  12
ATOM     12  C   UNL     1       1.678  11.262  41.909  1.00  0.00     0.025 A 
ATOM     13  C   UNL     1       2.012  11.270  40.546  1.00  0.00     0.016 A 
ATOM     14  C   UNL     1       3.292  10.899  40.128  1.00  0.00     0.051 A 
ATOM     15  C   UNL     1       4.262  10.529  41.065  1.00  0.00     0.157 A 
ATOM     16  C   UNL     1       2.661  10.910  42.851  1.00  0.00     0.062 A 
ATOM     17  C   UNL     1       3.948  10.539  42.434  1.00  0.00     0.158 A 
BRANCH  15  18
ATOM     18  O   UNL     1       5.530  10.161  40.618  1.00  0.00    -0.504 OA
ATOM     19  H   UNL     1       6.188  10.837  40.249  1.00  0.00     0.293 HD
ENDBRANCH  15  18
BRANCH  17  20
ATOM     20  O   UNL     1       4.915  10.185  43.375  1.00  0.00    -0.504 OA
ATOM     21  H   UNL     1       4.795  10.385  44.361  1.00  0.00     0.293 HD
ENDBRANCH  17  20
ENDBRANCH   1  12
BRANCH   2  22
ATOM     22  O   UNL     1      -0.366   9.386  42.761  1.00  0.00    -0.502 OA
ATOM     23  H   UNL     1      -0.834   8.736  43.379  1.00  0.00     0.293 HD
ENDBRANCH   2  22
BRANCH   6  24
ATOM     24  O   UNL     1      -4.461  12.358  43.959  1.00  0.00    -0.507 OA
ATOM     25  H   UNL     1      -4.298  11.627  44.642  1.00  0.00     0.293 HD
ENDBRANCH   6  24
BRANCH   8  26
ATOM     26  O   UNL     1      -2.834  16.761  42.844  1.00  0.00    -0.508 OA
ATOM     27  H   UNL     1      -3.125  17.199  41.978  1.00  0.00     0.293 HD
ENDBRANCH   8  26
TORSDOF 6
ENDMDL
