MODEL 1
REMARK VINA RESULT:    -4.364      0.000      0.000
REMARK INTER + INTRA:          -6.569
REMARK INTER:                  -5.895
REMARK INTRA:                  -0.674
REMARK UNBOUND:                -0.674
REMARK SMILES O=C[C@H](O)[C@@H](O)[C@H](O)CO
REMARK SMILES IDX 7 1 9 2 10 3 5 5 3 6 2 7 1 8 4 9 6 11 8 13
REMARK H PARENT 10 4 4 10 6 12 8 14
REMARK Flexibility Score: inf
ROOT
ATOM      1  C   UNL     1      31.856   9.353  27.755  1.00  0.00     0.171 C 
ENDROOT
BRANCH   1   2
ATOM      2  C   UNL     1      32.722   8.082  27.862  1.00  0.00     0.190 C 
BRANCH   2   3
ATOM      3  O   UNL     1      33.213   7.696  26.606  1.00  0.00    -0.394 OA
ATOM      4  H   UNL     1      32.465   7.802  25.962  1.00  0.00     0.210 HD
ENDBRANCH   2   3
ENDBRANCH   1   2
BRANCH   1   5
ATOM      5  C   UNL     1      30.493   9.239  28.498  1.00  0.00     0.181 C 
BRANCH   5   6
ATOM      6  C   UNL     1      29.796  10.608  28.767  1.00  0.00     0.209 C 
BRANCH   6   7
ATOM      7  C   UNL     1      28.625  10.855  27.852  1.00  0.00     0.258 C 
ATOM      8  O   UNL     1      28.795  11.056  26.658  1.00  0.00    -0.300 OA
ENDBRANCH   6   7
BRANCH   6   9
ATOM      9  O   UNL     1      30.709  11.671  28.649  1.00  0.00    -0.383 OA
ATOM     10  H   UNL     1      31.418  11.391  28.011  1.00  0.00     0.211 HD
ENDBRANCH   6   9
ENDBRANCH   5   6
BRANCH   5  11
ATOM     11  O   UNL     1      29.633   8.404  27.760  1.00  0.00    -0.387 OA
ATOM     12  H   UNL     1      30.196   7.873  27.137  1.00  0.00     0.211 HD
ENDBRANCH   5  11
ENDBRANCH   1   5
BRANCH   1  13
ATOM     13  O   UNL     1      31.615   9.596  26.391  1.00  0.00    -0.388 OA
ATOM     14  H   UNL     1      31.364  10.553  26.302  1.00  0.00     0.211 HD
ENDBRANCH   1  13
TORSDOF 8
ENDMDL
MODEL 2
REMARK VINA RESULT:    -4.142      1.044      1.510
REMARK INTER + INTRA:          -6.269
REMARK INTER:                  -5.573
REMARK INTRA:                  -0.696
REMARK UNBOUND:                -0.674
REMARK SMILES O=C[C@H](O)[C@@H](O)[C@H](O)CO
REMARK SMILES IDX 7 1 9 2 10 3 5 5 3 6 2 7 1 8 4 9 6 11 8 13
REMARK H PARENT 10 4 4 10 6 12 8 14
REMARK Flexibility Score: inf
ROOT
ATOM      1  C   UNL     1      31.450   8.154  28.487  1.00  0.00     0.171 C 
ENDROOT
BRANCH   1   2
ATOM      2  C   UNL     1      32.944   8.306  28.144  1.00  0.00     0.190 C 
BRANCH   2   3
ATOM      3  O   UNL     1      33.223   7.810  26.863  1.00  0.00    -0.394 OA
ATOM      4  H   UNL     1      33.771   8.497  26.403  1.00  0.00     0.210 HD
ENDBRANCH   2   3
ENDBRANCH   1   2
BRANCH   1   5
ATOM      5  C   UNL     1      30.534   9.162  27.734  1.00  0.00     0.181 C 
BRANCH   5   6
ATOM      6  C   UNL     1      30.007  10.332  28.621  1.00  0.00     0.209 C 
BRANCH   6   7
ATOM      7  C   UNL     1      28.819  11.034  28.013  1.00  0.00     0.258 C 
ATOM      8  O   UNL     1      28.703  11.131  26.801  1.00  0.00    -0.300 OA
ENDBRANCH   6   7
BRANCH   6   9
ATOM      9  O   UNL     1      31.022  11.273  28.871  1.00  0.00    -0.383 OA
ATOM     10  H   UNL     1      31.433  11.512  27.998  1.00  0.00     0.211 HD
ENDBRANCH   6   9
ENDBRANCH   5   6
BRANCH   5  11
ATOM     11  O   UNL     1      31.231   9.681  26.627  1.00  0.00    -0.387 OA
ATOM     12  H   UNL     1      31.298   8.956  25.951  1.00  0.00     0.211 HD
ENDBRANCH   5  11
ENDBRANCH   1   5
BRANCH   1  13
ATOM     13  O   UNL     1      31.303   8.350  29.872  1.00  0.00    -0.388 OA
ATOM     14  H   UNL     1      30.795   7.574  30.228  1.00  0.00     0.211 HD
ENDBRANCH   1  13
TORSDOF 8
ENDMDL
MODEL 3
REMARK VINA RESULT:    -3.978      2.626      4.825
REMARK INTER + INTRA:          -6.047
REMARK INTER:                  -5.364
REMARK INTRA:                  -0.683
REMARK UNBOUND:                -0.674
REMARK SMILES O=C[C@H](O)[C@@H](O)[C@H](O)CO
REMARK SMILES IDX 7 1 9 2 10 3 5 5 3 6 2 7 1 8 4 9 6 11 8 13
REMARK H PARENT 10 4 4 10 6 12 8 14
REMARK Flexibility Score: inf
ROOT
ATOM      1  C   UNL     1      28.558  12.347  30.325  1.00  0.00     0.171 C 
ENDROOT
BRANCH   1   2
ATOM      2  C   UNL     1      27.257  12.567  31.122  1.00  0.00     0.190 C 
BRANCH   2   3
ATOM      3  O   UNL     1      26.185  11.874  30.543  1.00  0.00    -0.394 OA
ATOM      4  H   UNL     1      25.354  12.294  30.886  1.00  0.00     0.210 HD
ENDBRANCH   2   3
ENDBRANCH   1   2
BRANCH   1   5
ATOM      5  C   UNL     1      28.456  11.202  29.276  1.00  0.00     0.181 C 
BRANCH   5   6
ATOM      6  C   UNL     1      29.507  11.293  28.126  1.00  0.00     0.209 C 
BRANCH   6   7
ATOM      7  C   UNL     1      29.916   9.940  27.602  1.00  0.00     0.258 C 
ATOM      8  O   UNL     1      30.897   9.366  28.051  1.00  0.00    -0.300 OA
ENDBRANCH   6   7
BRANCH   6   9
ATOM      9  O   UNL     1      30.653  11.994  28.544  1.00  0.00    -0.383 OA
ATOM     10  H   UNL     1      30.365  12.675  29.208  1.00  0.00     0.211 HD
ENDBRANCH   6   9
ENDBRANCH   5   6
BRANCH   5  11
ATOM     11  O   UNL     1      28.575   9.962  29.931  1.00  0.00    -0.387 OA
ATOM     12  H   UNL     1      27.710   9.782  30.386  1.00  0.00     0.211 HD
ENDBRANCH   5  11
ENDBRANCH   1   5
BRANCH   1  13
ATOM     13  O   UNL     1      29.578  12.037  31.242  1.00  0.00    -0.388 OA
ATOM     14  H   UNL     1      30.407  11.875  30.719  1.00  0.00     0.211 HD
ENDBRANCH   1  13
TORSDOF 8
ENDMDL
MODEL 4
REMARK VINA RESULT:    -3.931      1.624      3.986
REMARK INTER + INTRA:          -5.984
REMARK INTER:                  -5.081
REMARK INTRA:                  -0.903
REMARK UNBOUND:                -0.674
REMARK SMILES O=C[C@H](O)[C@@H](O)[C@H](O)CO
REMARK SMILES IDX 7 1 9 2 10 3 5 5 3 6 2 7 1 8 4 9 6 11 8 13
REMARK H PARENT 10 4 4 10 6 12 8 14
REMARK Flexibility Score: inf
ROOT
ATOM      1  C   UNL     1      29.871  10.480  27.820  1.00  0.00     0.171 C 
ENDROOT
BRANCH   1   2
ATOM      2  C   UNL     1      28.398  10.861  28.068  1.00  0.00     0.190 C 
BRANCH   2   3
ATOM      3  O   UNL     1      28.074  10.768  29.429  1.00  0.00    -0.394 OA
ATOM      4  H   UNL     1      28.924  10.861  29.933  1.00  0.00     0.210 HD
ENDBRANCH   2   3
ENDBRANCH   1   2
BRANCH   1   5
ATOM      5  C   UNL     1      30.228   9.041  28.294  1.00  0.00     0.181 C 
BRANCH   5   6
ATOM      6  C   UNL     1      31.597   8.515  27.765  1.00  0.00     0.209 C 
BRANCH   6   7
ATOM      7  C   UNL     1      32.670   8.517  28.823  1.00  0.00     0.258 C 
ATOM      8  O   UNL     1      32.932   9.535  29.447  1.00  0.00    -0.300 OA
ENDBRANCH   6   7
BRANCH   6   9
ATOM      9  O   UNL     1      32.035   9.268  26.661  1.00  0.00    -0.383 OA
ATOM     10  H   UNL     1      32.993   9.050  26.507  1.00  0.00     0.211 HD
ENDBRANCH   6   9
ENDBRANCH   5   6
BRANCH   5  11
ATOM     11  O   UNL     1      30.214   9.001  29.701  1.00  0.00    -0.387 OA
ATOM     12  H   UNL     1      29.263   8.979  29.988  1.00  0.00     0.211 HD
ENDBRANCH   5  11
ENDBRANCH   1   5
BRANCH   1  13
ATOM     13  O   UNL     1      30.676  11.402  28.511  1.00  0.00    -0.388 OA
ATOM     14  H   UNL     1      30.609  11.186  29.478  1.00  0.00     0.211 HD
ENDBRANCH   1  13
TORSDOF 8
ENDMDL
MODEL 5
REMARK VINA RESULT:    -3.912      1.881      3.103
REMARK INTER + INTRA:          -5.959
REMARK INTER:                  -5.048
REMARK INTRA:                  -0.911
REMARK UNBOUND:                -0.674
REMARK SMILES O=C[C@H](O)[C@@H](O)[C@H](O)CO
REMARK SMILES IDX 7 1 9 2 10 3 5 5 3 6 2 7 1 8 4 9 6 11 8 13
REMARK H PARENT 10 4 4 10 6 12 8 14
REMARK Flexibility Score: inf
ROOT
ATOM      1  C   UNL     1      29.816   9.722  28.536  1.00  0.00     0.171 C 
ENDROOT
BRANCH   1   2
ATOM      2  C   UNL     1      31.118   9.153  27.937  1.00  0.00     0.190 C 
BRANCH   2   3
ATOM      3  O   UNL     1      31.326   9.629  26.635  1.00  0.00    -0.394 OA
ATOM      4  H   UNL     1      30.429   9.776  26.237  1.00  0.00     0.210 HD
ENDBRANCH   2   3
ENDBRANCH   1   2
BRANCH   1   5
ATOM      5  C   UNL     1      29.606  11.236  28.239  1.00  0.00     0.181 C 
BRANCH   5   6
ATOM      6  C   UNL     1      28.363  11.859  28.945  1.00  0.00     0.209 C 
BRANCH   6   7
ATOM      7  C   UNL     1      28.732  12.698  30.142  1.00  0.00     0.258 C 
ATOM      8  O   UNL     1      29.273  12.195  31.115  1.00  0.00    -0.300 OA
ENDBRANCH   6   7
BRANCH   6   9
ATOM      9  O   UNL     1      27.454  10.861  29.341  1.00  0.00    -0.383 OA
ATOM     10  H   UNL     1      26.885  10.643  28.557  1.00  0.00     0.211 HD
ENDBRANCH   6   9
ENDBRANCH   5   6
BRANCH   5  11
ATOM     11  O   UNL     1      30.766  11.944  28.605  1.00  0.00    -0.387 OA
ATOM     12  H   UNL     1      31.012  12.528  27.841  1.00  0.00     0.211 HD
ENDBRANCH   5  11
ENDBRANCH   1   5
BRANCH   1  13
ATOM     13  O   UNL     1      29.863   9.532  29.928  1.00  0.00    -0.388 OA
ATOM     14  H   UNL     1      30.816   9.403  30.177  1.00  0.00     0.211 HD
ENDBRANCH   1  13
TORSDOF 8
ENDMDL
MODEL 6
REMARK VINA RESULT:    -3.789      1.395      4.185
REMARK INTER + INTRA:          -5.793
REMARK INTER:                  -5.514
REMARK INTRA:                  -0.278
REMARK UNBOUND:                -0.674
REMARK SMILES O=C[C@H](O)[C@@H](O)[C@H](O)CO
REMARK SMILES IDX 7 1 9 2 10 3 5 5 3 6 2 7 1 8 4 9 6 11 8 13
REMARK H PARENT 10 4 4 10 6 12 8 14
REMARK Flexibility Score: inf
ROOT
ATOM      1  C   UNL     1      29.251  10.441  27.663  1.00  0.00     0.171 C 
ENDROOT
BRANCH   1   2
ATOM      2  C   UNL     1      28.805  11.344  28.830  1.00  0.00     0.190 C 
BRANCH   2   3
ATOM      3  O   UNL     1      27.451  11.145  29.135  1.00  0.00    -0.394 OA
ATOM      4  H   UNL     1      27.401  10.327  29.696  1.00  0.00     0.210 HD
ENDBRANCH   2   3
ENDBRANCH   1   2
BRANCH   1   5
ATOM      5  C   UNL     1      30.658   9.809  27.871  1.00  0.00     0.181 C 
BRANCH   5   6
ATOM      6  C   UNL     1      30.644   8.465  28.663  1.00  0.00     0.209 C 
BRANCH   6   7
ATOM      7  C   UNL     1      32.000   8.096  29.209  1.00  0.00     0.258 C 
ATOM      8  O   UNL     1      33.007   8.246  28.535  1.00  0.00    -0.300 OA
ENDBRANCH   6   7
BRANCH   6   9
ATOM      9  O   UNL     1      30.166   7.412  27.862  1.00  0.00    -0.383 OA
ATOM     10  H   UNL     1      30.899   7.145  27.246  1.00  0.00     0.211 HD
ENDBRANCH   6   9
ENDBRANCH   5   6
BRANCH   5  11
ATOM     11  O   UNL     1      31.269   9.616  26.618  1.00  0.00    -0.387 OA
ATOM     12  H   UNL     1      31.844   8.810  26.688  1.00  0.00     0.211 HD
ENDBRANCH   5  11
ENDBRANCH   1   5
BRANCH   1  13
ATOM     13  O   UNL     1      29.270  11.224  26.496  1.00  0.00    -0.388 OA
ATOM     14  H   UNL     1      29.372  10.605  25.726  1.00  0.00     0.211 HD
ENDBRANCH   1  13
TORSDOF 8
ENDMDL
MODEL 7
REMARK VINA RESULT:    -3.776      1.317      1.831
REMARK INTER + INTRA:          -5.775
REMARK INTER:                  -5.494
REMARK INTRA:                  -0.281
REMARK UNBOUND:                -0.674
REMARK SMILES O=C[C@H](O)[C@@H](O)[C@H](O)CO
REMARK SMILES IDX 7 1 9 2 10 3 5 5 3 6 2 7 1 8 4 9 6 11 8 13
REMARK H PARENT 10 4 4 10 6 12 8 14
REMARK Flexibility Score: inf
ROOT
ATOM      1  C   UNL     1      31.389   9.341  27.966  1.00  0.00     0.171 C 
ENDROOT
BRANCH   1   2
ATOM      2  C   UNL     1      31.246   7.904  28.502  1.00  0.00     0.190 C 
BRANCH   2   3
ATOM      3  O   UNL     1      30.194   7.229  27.867  1.00  0.00    -0.394 OA
ATOM      4  H   UNL     1      29.569   6.937  28.581  1.00  0.00     0.210 HD
ENDBRANCH   2   3
ENDBRANCH   1   2
BRANCH   1   5
ATOM      5  C   UNL     1      30.075  10.171  28.056  1.00  0.00     0.181 C 
BRANCH   5   6
ATOM      6  C   UNL     1      30.055  11.212  29.218  1.00  0.00     0.209 C 
BRANCH   6   7
ATOM      7  C   UNL     1      28.658  11.616  29.614  1.00  0.00     0.258 C 
ATOM      8  O   UNL     1      27.690  11.221  28.982  1.00  0.00    -0.300 OA
ENDBRANCH   6   7
BRANCH   6   9
ATOM      9  O   UNL     1      30.791  12.362  28.879  1.00  0.00    -0.383 OA
ATOM     10  H   UNL     1      31.075  12.269  27.931  1.00  0.00     0.211 HD
ENDBRANCH   6   9
ENDBRANCH   5   6
BRANCH   5  11
ATOM     11  O   UNL     1      29.855  10.824  26.829  1.00  0.00    -0.387 OA
ATOM     12  H   UNL     1      29.088  11.443  26.955  1.00  0.00     0.211 HD
ENDBRANCH   5  11
ENDBRANCH   1   5
BRANCH   1  13
ATOM     13  O   UNL     1      31.787   9.261  26.620  1.00  0.00    -0.388 OA
ATOM     14  H   UNL     1      30.961   9.231  26.069  1.00  0.00     0.211 HD
ENDBRANCH   1  13
TORSDOF 8
ENDMDL
MODEL 8
REMARK VINA RESULT:    -3.593      1.611      2.127
REMARK INTER + INTRA:          -5.528
REMARK INTER:                  -5.132
REMARK INTRA:                  -0.395
REMARK UNBOUND:                -0.674
REMARK SMILES O=C[C@H](O)[C@@H](O)[C@H](O)CO
REMARK SMILES IDX 7 1 9 2 10 3 5 5 3 6 2 7 1 8 4 9 6 11 8 13
REMARK H PARENT 10 4 4 10 6 12 8 14
REMARK Flexibility Score: inf
ROOT
ATOM      1  C   UNL     1      31.785   8.485  29.686  1.00  0.00     0.171 C 
ENDROOT
BRANCH   1   2
ATOM      2  C   UNL     1      33.160   8.823  29.079  1.00  0.00     0.190 C 
BRANCH   2   3
ATOM      3  O   UNL     1      33.386   8.098  27.900  1.00  0.00    -0.394 OA
ATOM      4  H   UNL     1      34.319   7.760  27.946  1.00  0.00     0.210 HD
ENDBRANCH   2   3
ENDBRANCH   1   2
BRANCH   1   5
ATOM      5  C   UNL     1      30.611   8.609  28.670  1.00  0.00     0.181 C 
BRANCH   5   6
ATOM      6  C   UNL     1      30.652   9.904  27.801  1.00  0.00     0.209 C 
BRANCH   6   7
ATOM      7  C   UNL     1      29.290  10.522  27.613  1.00  0.00     0.258 C 
ATOM      8  O   UNL     1      28.621  10.867  28.576  1.00  0.00    -0.300 OA
ENDBRANCH   6   7
BRANCH   6   9
ATOM      9  O   UNL     1      31.223   9.649  26.541  1.00  0.00    -0.383 OA
ATOM     10  H   UNL     1      32.024   9.078  26.683  1.00  0.00     0.211 HD
ENDBRANCH   6   9
ENDBRANCH   5   6
BRANCH   5  11
ATOM     11  O   UNL     1      30.601   7.476  27.835  1.00  0.00    -0.387 OA
ATOM     12  H   UNL     1      29.998   6.805  28.251  1.00  0.00     0.211 HD
ENDBRANCH   5  11
ENDBRANCH   1   5
BRANCH   1  13
ATOM     13  O   UNL     1      31.557   9.367  30.756  1.00  0.00    -0.388 OA
ATOM     14  H   UNL     1      32.238   9.168  31.452  1.00  0.00     0.211 HD
ENDBRANCH   1  13
TORSDOF 8
ENDMDL
MODEL 9
REMARK VINA RESULT:    -3.592      1.680      2.287
REMARK INTER + INTRA:          -5.526
REMARK INTER:                  -5.275
REMARK INTRA:                  -0.251
REMARK UNBOUND:                -0.674
REMARK SMILES O=C[C@H](O)[C@@H](O)[C@H](O)CO
REMARK SMILES IDX 7 1 9 2 10 3 5 5 3 6 2 7 1 8 4 9 6 11 8 13
REMARK H PARENT 10 4 4 10 6 12 8 14
REMARK Flexibility Score: inf
ROOT
ATOM      1  C   UNL     1      32.641   8.949  28.833  1.00  0.00     0.171 C 
ENDROOT
BRANCH   1   2
ATOM      2  C   UNL     1      32.362   8.266  30.186  1.00  0.00     0.190 C 
BRANCH   2   3
ATOM      3  O   UNL     1      32.128   9.214  31.193  1.00  0.00    -0.394 OA
ATOM      4  H   UNL     1      31.735   8.724  31.962  1.00  0.00     0.210 HD
ENDBRANCH   2   3
ENDBRANCH   1   2
BRANCH   1   5
ATOM      5  C   UNL     1      31.378   9.078  27.931  1.00  0.00     0.181 C 
BRANCH   5   6
ATOM      6  C   UNL     1      30.341  10.130  28.432  1.00  0.00     0.209 C 
BRANCH   6   7
ATOM      7  C   UNL     1      29.479  10.672  27.320  1.00  0.00     0.258 C 
ATOM      8  O   UNL     1      28.461  11.300  27.568  1.00  0.00    -0.300 OA
ENDBRANCH   6   7
BRANCH   6   9
ATOM      9  O   UNL     1      30.981  11.199  29.085  1.00  0.00    -0.383 OA
ATOM     10  H   UNL     1      30.275  11.815  29.418  1.00  0.00     0.211 HD
ENDBRANCH   6   9
ENDBRANCH   5   6
BRANCH   5  11
ATOM     11  O   UNL     1      31.778   9.391  26.619  1.00  0.00    -0.387 OA
ATOM     12  H   UNL     1      31.686  10.373  26.506  1.00  0.00     0.211 HD
ENDBRANCH   5  11
ENDBRANCH   1   5
BRANCH   1  13
ATOM     13  O   UNL     1      33.609   8.185  28.157  1.00  0.00    -0.388 OA
ATOM     14  H   UNL     1      34.150   8.812  27.609  1.00  0.00     0.211 HD
ENDBRANCH   1  13
TORSDOF 8
ENDMDL
