MODEL 1
REMARK VINA RESULT:    -5.650      0.000      0.000
REMARK INTER + INTRA:          -7.210
REMARK INTER:                  -6.806
REMARK INTRA:                  -0.403
REMARK UNBOUND:                -0.403
REMARK SMILES O=c1c(O)c(-c2ccc(O)cc2O)oc2cc(O)cc(O)c12
REMARK SMILES IDX 5 1 3 2 2 3 1 4 22 5 20 6 19 7 17 8 16 9 15 10 14 11 6 12
REMARK SMILES IDX 8 13 7 14 9 15 11 16 12 17 10 18 13 20 4 22 21 24 18 26
REMARK H PARENT 10 19 13 21 4 23 21 25 18 27
REMARK Flexibility Score: inf
ROOT
ATOM      1  C   UNL     1       0.434 -15.758   0.623  1.00  0.00     0.184 A 
ATOM      2  C   UNL     1      -0.597 -15.000   0.050  1.00  0.00     0.208 A 
ATOM      3  C   UNL     1      -1.099 -15.373  -1.207  1.00  0.00     0.238 A 
ATOM      4  O   UNL     1      -1.981 -14.653  -1.743  1.00  0.00    -0.285 OA
ATOM      5  C   UNL     1      -0.581 -16.518  -1.860  1.00  0.00     0.111 A 
ATOM      6  C   UNL     1      -1.041 -17.013  -3.117  1.00  0.00     0.134 A 
ATOM      7  C   UNL     1      -0.372 -18.082  -3.726  1.00  0.00     0.093 A 
ATOM      8  C   UNL     1       0.697 -18.716  -3.095  1.00  0.00     0.123 A 
ATOM      9  C   UNL     1       1.119 -18.278  -1.838  1.00  0.00     0.094 A 
ATOM     10  C   UNL     1       0.495 -17.190  -1.223  1.00  0.00     0.146 A 
ATOM     11  O   UNL     1       0.936 -16.797  -0.033  1.00  0.00    -0.451 OA
ENDROOT
BRANCH   1  12
ATOM     12  C   UNL     1       0.985 -15.427   1.954  1.00  0.00     0.063 A 
ATOM     13  C   UNL     1       0.766 -15.496   4.377  1.00  0.00     0.047 A 
ATOM     14  C   UNL     1       0.245 -15.747   3.106  1.00  0.00     0.020 A 
ATOM     15  C   UNL     1       2.037 -14.927   4.517  1.00  0.00     0.119 A 
ATOM     16  C   UNL     1       2.782 -14.606   3.379  1.00  0.00     0.093 A 
ATOM     17  C   UNL     1       2.266 -14.843   2.098  1.00  0.00     0.130 A 
BRANCH  15  18
ATOM     18  O   UNL     1       2.568 -14.677   5.780  1.00  0.00    -0.508 OA
ATOM     19  H   UNL     1       2.771 -13.734   6.092  1.00  0.00     0.293 HD
ENDBRANCH  15  18
BRANCH  17  20
ATOM     20  O   UNL     1       3.039 -14.469   0.996  1.00  0.00    -0.507 OA
ATOM     21  H   UNL     1       3.994 -14.775   0.863  1.00  0.00     0.293 HD
ENDBRANCH  17  20
ENDBRANCH   1  12
BRANCH   2  22
ATOM     22  O   UNL     1      -1.092 -13.877   0.719  1.00  0.00    -0.502 OA
ATOM     23  H   UNL     1      -1.078 -13.797   1.729  1.00  0.00     0.293 HD
ENDBRANCH   2  22
BRANCH   6  24
ATOM     24  O   UNL     1      -2.158 -16.510  -3.793  1.00  0.00    -0.507 OA
ATOM     25  H   UNL     1      -2.131 -15.771  -4.478  1.00  0.00     0.293 HD
ENDBRANCH   6  24
BRANCH   8  26
ATOM     26  O   UNL     1       1.329 -19.787  -3.723  1.00  0.00    -0.508 OA
ATOM     27  H   UNL     1       1.594 -20.620  -3.211  1.00  0.00     0.293 HD
ENDBRANCH   8  26
TORSDOF 6
ENDMDL
MODEL 2
REMARK VINA RESULT:    -5.409      3.016      6.059
REMARK INTER + INTRA:          -6.919
REMARK INTER:                  -6.517
REMARK INTRA:                  -0.402
REMARK UNBOUND:                -0.403
REMARK SMILES O=c1c(O)c(-c2ccc(O)cc2O)oc2cc(O)cc(O)c12
REMARK SMILES IDX 5 1 3 2 2 3 1 4 22 5 20 6 19 7 17 8 16 9 15 10 14 11 6 12
REMARK SMILES IDX 8 13 7 14 9 15 11 16 12 17 10 18 13 20 4 22 21 24 18 26
REMARK H PARENT 10 19 13 21 4 23 21 25 18 27
REMARK Flexibility Score: inf
ROOT
ATOM      1  C   UNL     1      -0.922 -16.818  -0.730  1.00  0.00     0.184 A 
ATOM      2  C   UNL     1      -1.635 -15.629  -0.945  1.00  0.00     0.208 A 
ATOM      3  C   UNL     1      -2.478 -15.147   0.069  1.00  0.00     0.238 A 
ATOM      4  O   UNL     1      -3.161 -14.114  -0.154  1.00  0.00    -0.285 OA
ATOM      5  C   UNL     1      -2.574 -15.849   1.296  1.00  0.00     0.111 A 
ATOM      6  C   UNL     1      -3.366 -15.432   2.407  1.00  0.00     0.134 A 
ATOM      7  C   UNL     1      -3.482 -16.268   3.525  1.00  0.00     0.093 A 
ATOM      8  C   UNL     1      -2.783 -17.472   3.600  1.00  0.00     0.123 A 
ATOM      9  C   UNL     1      -1.959 -17.862   2.543  1.00  0.00     0.094 A 
ATOM     10  C   UNL     1      -1.853 -17.067   1.398  1.00  0.00     0.146 A 
ATOM     11  O   UNL     1      -1.069 -17.481   0.410  1.00  0.00    -0.451 OA
ENDROOT
BRANCH   1  12
ATOM     12  C   UNL     1      -0.001 -17.359  -1.752  1.00  0.00     0.063 A 
ATOM     13  C   UNL     1       0.349 -18.767  -3.706  1.00  0.00     0.047 A 
ATOM     14  C   UNL     1      -0.485 -18.282  -2.697  1.00  0.00     0.020 A 
ATOM     15  C   UNL     1       1.676 -18.332  -3.792  1.00  0.00     0.119 A 
ATOM     16  C   UNL     1       2.167 -17.414  -2.860  1.00  0.00     0.093 A 
ATOM     17  C   UNL     1       1.344 -16.928  -1.836  1.00  0.00     0.130 A 
BRANCH  15  18
ATOM     18  O   UNL     1       2.515 -18.806  -4.799  1.00  0.00    -0.508 OA
ATOM     19  H   UNL     1       2.176 -18.959  -5.742  1.00  0.00     0.293 HD
ENDBRANCH  15  18
BRANCH  17  20
ATOM     20  O   UNL     1       1.898 -16.040  -0.911  1.00  0.00    -0.507 OA
ATOM     21  H   UNL     1       2.043 -16.277   0.062  1.00  0.00     0.293 HD
ENDBRANCH  17  20
ENDBRANCH   1  12
BRANCH   2  22
ATOM     22  O   UNL     1      -1.517 -14.956  -2.165  1.00  0.00    -0.502 OA
ATOM     23  H   UNL     1      -1.786 -15.378  -3.046  1.00  0.00     0.293 HD
ENDBRANCH   2  22
BRANCH   6  24
ATOM     24  O   UNL     1      -4.034 -14.205   2.475  1.00  0.00    -0.507 OA
ATOM     25  H   UNL     1      -5.027 -14.083   2.349  1.00  0.00     0.293 HD
ENDBRANCH   6  24
BRANCH   8  26
ATOM     26  O   UNL     1      -2.909 -18.271   4.734  1.00  0.00    -0.508 OA
ATOM     27  H   UNL     1      -2.560 -19.222   4.753  1.00  0.00     0.293 HD
ENDBRANCH   8  26
TORSDOF 6
ENDMDL
MODEL 3
REMARK VINA RESULT:    -5.260      4.052      6.508
REMARK INTER + INTRA:          -6.740
REMARK INTER:                  -6.323
REMARK INTRA:                  -0.417
REMARK UNBOUND:                -0.403
REMARK SMILES O=c1c(O)c(-c2ccc(O)cc2O)oc2cc(O)cc(O)c12
REMARK SMILES IDX 5 1 3 2 2 3 1 4 22 5 20 6 19 7 17 8 16 9 15 10 14 11 6 12
REMARK SMILES IDX 8 13 7 14 9 15 11 16 12 17 10 18 13 20 4 22 21 24 18 26
REMARK H PARENT 10 19 13 21 4 23 21 25 18 27
REMARK Flexibility Score: inf
ROOT
ATOM      1  C   UNL     1      -1.508 -17.096   1.398  1.00  0.00     0.184 A 
ATOM      2  C   UNL     1      -1.481 -16.298   2.551  1.00  0.00     0.208 A 
ATOM      3  C   UNL     1      -2.108 -16.764   3.717  1.00  0.00     0.238 A 
ATOM      4  O   UNL     1      -2.133 -16.016   4.729  1.00  0.00    -0.285 OA
ATOM      5  C   UNL     1      -2.732 -18.036   3.720  1.00  0.00     0.111 A 
ATOM      6  C   UNL     1      -3.364 -18.626   4.855  1.00  0.00     0.134 A 
ATOM      7  C   UNL     1      -4.055 -19.835   4.711  1.00  0.00     0.093 A 
ATOM      8  C   UNL     1      -4.080 -20.509   3.490  1.00  0.00     0.123 A 
ATOM      9  C   UNL     1      -3.416 -19.970   2.387  1.00  0.00     0.094 A 
ATOM     10  C   UNL     1      -2.750 -18.746   2.491  1.00  0.00     0.146 A 
ATOM     11  O   UNL     1      -2.142 -18.262   1.414  1.00  0.00    -0.451 OA
ENDROOT
BRANCH   1  12
ATOM     12  C   UNL     1      -0.843 -16.668   0.149  1.00  0.00     0.063 A 
ATOM     13  C   UNL     1       1.125 -16.704  -1.283  1.00  0.00     0.047 A 
ATOM     14  C   UNL     1       0.491 -17.047  -0.088  1.00  0.00     0.020 A 
ATOM     15  C   UNL     1       0.434 -15.982  -2.264  1.00  0.00     0.119 A 
ATOM     16  C   UNL     1      -0.892 -15.602  -2.040  1.00  0.00     0.093 A 
ATOM     17  C   UNL     1      -1.535 -15.931  -0.841  1.00  0.00     0.130 A 
BRANCH  15  18
ATOM     18  O   UNL     1       1.056 -15.639  -3.462  1.00  0.00    -0.508 OA
ATOM     19  H   UNL     1       0.955 -14.715  -3.865  1.00  0.00     0.293 HD
ENDBRANCH  15  18
BRANCH  17  20
ATOM     20  O   UNL     1      -2.850 -15.494  -0.657  1.00  0.00    -0.507 OA
ATOM     21  H   UNL     1      -3.089 -14.527  -0.476  1.00  0.00     0.293 HD
ENDBRANCH  17  20
ENDBRANCH   1  12
BRANCH   2  22
ATOM     22  O   UNL     1      -0.855 -15.049   2.519  1.00  0.00    -0.502 OA
ATOM     23  H   UNL     1      -0.195 -14.790   1.795  1.00  0.00     0.293 HD
ENDBRANCH   2  22
BRANCH   6  24
ATOM     24  O   UNL     1      -3.322 -18.082   6.144  1.00  0.00    -0.507 OA
ATOM     25  H   UNL     1      -2.834 -18.491   6.925  1.00  0.00     0.293 HD
ENDBRANCH   6  24
BRANCH   8  26
ATOM     26  O   UNL     1      -4.764 -21.718   3.386  1.00  0.00    -0.508 OA
ATOM     27  H   UNL     1      -4.911 -22.315   4.192  1.00  0.00     0.293 HD
ENDBRANCH   8  26
TORSDOF 6
ENDMDL
MODEL 4
REMARK VINA RESULT:    -5.115      1.486      7.059
REMARK INTER + INTRA:          -6.565
REMARK INTER:                  -6.182
REMARK INTRA:                  -0.383
REMARK UNBOUND:                -0.403
REMARK SMILES O=c1c(O)c(-c2ccc(O)cc2O)oc2cc(O)cc(O)c12
REMARK SMILES IDX 5 1 3 2 2 3 1 4 22 5 20 6 19 7 17 8 16 9 15 10 14 11 6 12
REMARK SMILES IDX 8 13 7 14 9 15 11 16 12 17 10 18 13 20 4 22 21 24 18 26
REMARK H PARENT 10 19 13 21 4 23 21 25 18 27
REMARK Flexibility Score: inf
ROOT
ATOM      1  C   UNL     1       0.961 -15.905   1.111  1.00  0.00     0.184 A 
ATOM      2  C   UNL     1       2.260 -15.414   1.307  1.00  0.00     0.208 A 
ATOM      3  C   UNL     1       2.636 -14.972   2.586  1.00  0.00     0.238 A 
ATOM      4  O   UNL     1       3.782 -14.476   2.741  1.00  0.00    -0.285 OA
ATOM      5  C   UNL     1       1.713 -15.054   3.657  1.00  0.00     0.111 A 
ATOM      6  C   UNL     1       1.997 -14.672   5.003  1.00  0.00     0.134 A 
ATOM      7  C   UNL     1       0.970 -14.682   5.955  1.00  0.00     0.093 A 
ATOM      8  C   UNL     1      -0.312 -15.120   5.628  1.00  0.00     0.123 A 
ATOM      9  C   UNL     1      -0.587 -15.551   4.329  1.00  0.00     0.094 A 
ATOM     10  C   UNL     1       0.407 -15.518   3.348  1.00  0.00     0.146 A 
ATOM     11  O   UNL     1       0.101 -15.924   2.121  1.00  0.00    -0.451 OA
ENDROOT
BRANCH   1  12
ATOM     12  C   UNL     1       0.518 -16.406  -0.208  1.00  0.00     0.063 A 
ATOM     13  C   UNL     1       0.636 -18.117  -1.934  1.00  0.00     0.047 A 
ATOM     14  C   UNL     1       1.076 -17.592  -0.718  1.00  0.00     0.020 A 
ATOM     15  C   UNL     1      -0.372 -17.469  -2.657  1.00  0.00     0.119 A 
ATOM     16  C   UNL     1      -0.935 -16.291  -2.158  1.00  0.00     0.093 A 
ATOM     17  C   UNL     1      -0.494 -15.748  -0.945  1.00  0.00     0.130 A 
BRANCH  15  18
ATOM     18  O   UNL     1      -0.822 -17.988  -3.869  1.00  0.00    -0.508 OA
ATOM     19  H   UNL     1      -1.752 -17.789  -4.217  1.00  0.00     0.293 HD
ENDBRANCH  15  18
BRANCH  17  20
ATOM     20  O   UNL     1      -1.067 -14.549  -0.513  1.00  0.00    -0.507 OA
ATOM     21  H   UNL     1      -1.149 -13.733  -1.106  1.00  0.00     0.293 HD
ENDBRANCH  17  20
ENDBRANCH   1  12
BRANCH   2  22
ATOM     22  O   UNL     1       3.151 -15.348   0.232  1.00  0.00    -0.502 OA
ATOM     23  H   UNL     1       4.125 -15.096   0.349  1.00  0.00     0.293 HD
ENDBRANCH   2  22
BRANCH   6  24
ATOM     24  O   UNL     1       3.267 -14.304   5.459  1.00  0.00    -0.507 OA
ATOM     25  H   UNL     1       3.817 -13.548   5.082  1.00  0.00     0.293 HD
ENDBRANCH   6  24
BRANCH   8  26
ATOM     26  O   UNL     1      -1.305 -15.131   6.605  1.00  0.00    -0.508 OA
ATOM     27  H   UNL     1      -1.835 -14.298   6.832  1.00  0.00     0.293 HD
ENDBRANCH   8  26
TORSDOF 6
ENDMDL
MODEL 5
REMARK VINA RESULT:    -5.095      1.814      6.811
REMARK INTER + INTRA:          -6.541
REMARK INTER:                  -6.171
REMARK INTRA:                  -0.370
REMARK UNBOUND:                -0.403
REMARK SMILES O=c1c(O)c(-c2ccc(O)cc2O)oc2cc(O)cc(O)c12
REMARK SMILES IDX 5 1 3 2 2 3 1 4 22 5 20 6 19 7 17 8 16 9 15 10 14 11 6 12
REMARK SMILES IDX 8 13 7 14 9 15 11 16 12 17 10 18 13 20 4 22 21 24 18 26
REMARK H PARENT 10 19 13 21 4 23 21 25 18 27
REMARK Flexibility Score: inf
ROOT
ATOM      1  C   UNL     1       0.347 -17.114  -0.476  1.00  0.00     0.184 A 
ATOM      2  C   UNL     1       1.449 -16.359  -0.049  1.00  0.00     0.208 A 
ATOM      3  C   UNL     1       1.457 -15.844   1.257  1.00  0.00     0.238 A 
ATOM      4  O   UNL     1       2.420 -15.116   1.614  1.00  0.00    -0.285 OA
ATOM      5  C   UNL     1       0.372 -16.115   2.127  1.00  0.00     0.111 A 
ATOM      6  C   UNL     1       0.292 -15.678   3.483  1.00  0.00     0.134 A 
ATOM      7  C   UNL     1      -0.883 -15.900   4.212  1.00  0.00     0.093 A 
ATOM      8  C   UNL     1      -1.953 -16.600   3.658  1.00  0.00     0.123 A 
ATOM      9  C   UNL     1      -1.863 -17.084   2.352  1.00  0.00     0.094 A 
ATOM     10  C   UNL     1      -0.719 -16.845   1.587  1.00  0.00     0.146 A 
ATOM     11  O   UNL     1      -0.679 -17.311   0.344  1.00  0.00    -0.451 OA
ENDROOT
BRANCH   1  12
ATOM     12  C   UNL     1       0.294 -17.702  -1.831  1.00  0.00     0.063 A 
ATOM     13  C   UNL     1       1.147 -19.321  -3.435  1.00  0.00     0.047 A 
ATOM     14  C   UNL     1       1.210 -18.710  -2.182  1.00  0.00     0.020 A 
ATOM     15  C   UNL     1       0.165 -18.938  -4.356  1.00  0.00     0.119 A 
ATOM     16  C   UNL     1      -0.751 -17.939  -4.018  1.00  0.00     0.093 A 
ATOM     17  C   UNL     1      -0.692 -17.310  -2.768  1.00  0.00     0.130 A 
BRANCH  15  18
ATOM     18  O   UNL     1       0.090 -19.545  -5.608  1.00  0.00    -0.508 OA
ATOM     19  H   UNL     1      -0.484 -20.365  -5.765  1.00  0.00     0.293 HD
ENDBRANCH  15  18
BRANCH  17  20
ATOM     20  O   UNL     1      -1.609 -16.292  -2.498  1.00  0.00    -0.507 OA
ATOM     21  H   UNL     1      -1.417 -15.315  -2.676  1.00  0.00     0.293 HD
ENDBRANCH  17  20
ENDBRANCH   1  12
BRANCH   2  22
ATOM     22  O   UNL     1       2.507 -16.111  -0.928  1.00  0.00    -0.502 OA
ATOM     23  H   UNL     1       2.496 -16.422  -1.892  1.00  0.00     0.293 HD
ENDBRANCH   2  22
BRANCH   6  24
ATOM     24  O   UNL     1       1.339 -15.048   4.165  1.00  0.00    -0.507 OA
ATOM     25  H   UNL     1       1.624 -14.092   4.023  1.00  0.00     0.293 HD
ENDBRANCH   6  24
BRANCH   8  26
ATOM     26  O   UNL     1      -3.100 -16.817   4.418  1.00  0.00    -0.508 OA
ATOM     27  H   UNL     1      -3.354 -17.743   4.743  1.00  0.00     0.293 HD
ENDBRANCH   8  26
TORSDOF 6
ENDMDL
MODEL 6
REMARK VINA RESULT:    -4.849      4.324      5.378
REMARK INTER + INTRA:          -6.245
REMARK INTER:                  -5.832
REMARK INTRA:                  -0.413
REMARK UNBOUND:                -0.403
REMARK SMILES O=c1c(O)c(-c2ccc(O)cc2O)oc2cc(O)cc(O)c12
REMARK SMILES IDX 5 1 3 2 2 3 1 4 22 5 20 6 19 7 17 8 16 9 15 10 14 11 6 12
REMARK SMILES IDX 8 13 7 14 9 15 11 16 12 17 10 18 13 20 4 22 21 24 18 26
REMARK H PARENT 10 19 13 21 4 23 21 25 18 27
REMARK Flexibility Score: inf
ROOT
ATOM      1  C   UNL     1      -1.817 -16.781   1.609  1.00  0.00     0.184 A 
ATOM      2  C   UNL     1      -2.922 -15.945   1.394  1.00  0.00     0.208 A 
ATOM      3  C   UNL     1      -4.207 -16.422   1.698  1.00  0.00     0.238 A 
ATOM      4  O   UNL     1      -5.198 -15.689   1.446  1.00  0.00    -0.285 OA
ATOM      5  C   UNL     1      -4.364 -17.721   2.239  1.00  0.00     0.111 A 
ATOM      6  C   UNL     1      -5.615 -18.294   2.621  1.00  0.00     0.134 A 
ATOM      7  C   UNL     1      -5.665 -19.632   3.031  1.00  0.00     0.093 A 
ATOM      8  C   UNL     1      -4.505 -20.398   3.135  1.00  0.00     0.123 A 
ATOM      9  C   UNL     1      -3.269 -19.831   2.820  1.00  0.00     0.094 A 
ATOM     10  C   UNL     1      -3.191 -18.510   2.372  1.00  0.00     0.146 A 
ATOM     11  O   UNL     1      -1.998 -18.013   2.070  1.00  0.00    -0.451 OA
ENDROOT
BRANCH   1  12
ATOM     12  C   UNL     1      -0.439 -16.324   1.330  1.00  0.00     0.063 A 
ATOM     13  C   UNL     1       1.654 -15.390   2.150  1.00  0.00     0.047 A 
ATOM     14  C   UNL     1       0.331 -15.779   2.373  1.00  0.00     0.020 A 
ATOM     15  C   UNL     1       2.229 -15.546   0.884  1.00  0.00     0.119 A 
ATOM     16  C   UNL     1       1.474 -16.089  -0.159  1.00  0.00     0.093 A 
ATOM     17  C   UNL     1       0.143 -16.472   0.049  1.00  0.00     0.130 A 
BRANCH  15  18
ATOM     18  O   UNL     1       3.550 -15.167   0.653  1.00  0.00    -0.508 OA
ATOM     19  H   UNL     1       4.291 -15.405   1.302  1.00  0.00     0.293 HD
ENDBRANCH  15  18
BRANCH  17  20
ATOM     20  O   UNL     1      -0.576 -16.974  -1.039  1.00  0.00    -0.507 OA
ATOM     21  H   UNL     1      -0.592 -16.523  -1.945  1.00  0.00     0.293 HD
ENDBRANCH  17  20
ENDBRANCH   1  12
BRANCH   2  22
ATOM     22  O   UNL     1      -2.735 -14.665   0.863  1.00  0.00    -0.502 OA
ATOM     23  H   UNL     1      -3.348 -13.890   1.087  1.00  0.00     0.293 HD
ENDBRANCH   2  22
BRANCH   6  24
ATOM     24  O   UNL     1      -6.823 -17.590   2.642  1.00  0.00    -0.507 OA
ATOM     25  H   UNL     1      -7.427 -17.461   1.845  1.00  0.00     0.293 HD
ENDBRANCH   6  24
BRANCH   8  26
ATOM     26  O   UNL     1      -4.591 -21.721   3.561  1.00  0.00    -0.508 OA
ATOM     27  H   UNL     1      -4.416 -21.981   4.525  1.00  0.00     0.293 HD
ENDBRANCH   8  26
TORSDOF 6
ENDMDL
MODEL 7
REMARK VINA RESULT:    -4.660      3.830      4.670
REMARK INTER + INTRA:          -6.017
REMARK INTER:                  -5.624
REMARK INTRA:                  -0.393
REMARK UNBOUND:                -0.403
REMARK SMILES O=c1c(O)c(-c2ccc(O)cc2O)oc2cc(O)cc(O)c12
REMARK SMILES IDX 5 1 3 2 2 3 1 4 22 5 20 6 19 7 17 8 16 9 15 10 14 11 6 12
REMARK SMILES IDX 8 13 7 14 9 15 11 16 12 17 10 18 13 20 4 22 21 24 18 26
REMARK H PARENT 10 19 13 21 4 23 21 25 18 27
REMARK Flexibility Score: inf
ROOT
ATOM      1  C   UNL     1      -1.134 -16.354   2.053  1.00  0.00     0.184 A 
ATOM      2  C   UNL     1      -2.153 -15.530   1.553  1.00  0.00     0.208 A 
ATOM      3  C   UNL     1      -3.456 -16.042   1.451  1.00  0.00     0.238 A 
ATOM      4  O   UNL     1      -4.352 -15.318   0.945  1.00  0.00    -0.285 OA
ATOM      5  C   UNL     1      -3.727 -17.366   1.879  1.00  0.00     0.111 A 
ATOM      6  C   UNL     1      -5.016 -17.976   1.859  1.00  0.00     0.134 A 
ATOM      7  C   UNL     1      -5.145 -19.331   2.190  1.00  0.00     0.093 A 
ATOM      8  C   UNL     1      -4.044 -20.079   2.603  1.00  0.00     0.123 A 
ATOM      9  C   UNL     1      -2.787 -19.477   2.683  1.00  0.00     0.094 A 
ATOM     10  C   UNL     1      -2.620 -18.137   2.322  1.00  0.00     0.146 A 
ATOM     11  O   UNL     1      -1.406 -17.606   2.399  1.00  0.00    -0.451 OA
ENDROOT
BRANCH   1  12
ATOM     12  C   UNL     1       0.251 -15.860   2.205  1.00  0.00     0.063 A 
ATOM     13  C   UNL     1       2.431 -15.430   1.213  1.00  0.00     0.047 A 
ATOM     14  C   UNL     1       1.135 -15.939   1.115  1.00  0.00     0.020 A 
ATOM     15  C   UNL     1       2.862 -14.828   2.401  1.00  0.00     0.119 A 
ATOM     16  C   UNL     1       1.991 -14.743   3.491  1.00  0.00     0.093 A 
ATOM     17  C   UNL     1       0.692 -15.259   3.408  1.00  0.00     0.130 A 
BRANCH  15  18
ATOM     18  O   UNL     1       4.152 -14.312   2.508  1.00  0.00    -0.508 OA
ATOM     19  H   UNL     1       4.636 -14.279   3.398  1.00  0.00     0.293 HD
ENDBRANCH  15  18
BRANCH  17  20
ATOM     20  O   UNL     1      -0.122 -15.179   4.540  1.00  0.00    -0.507 OA
ATOM     21  H   UNL     1       0.195 -15.431   5.467  1.00  0.00     0.293 HD
ENDBRANCH  17  20
ENDBRANCH   1  12
BRANCH   2  22
ATOM     22  O   UNL     1      -1.858 -14.226   1.143  1.00  0.00    -0.502 OA
ATOM     23  H   UNL     1      -2.251 -13.412   1.598  1.00  0.00     0.293 HD
ENDBRANCH   2  22
BRANCH   6  24
ATOM     24  O   UNL     1      -6.199 -17.296   1.548  1.00  0.00    -0.507 OA
ATOM     25  H   UNL     1      -7.037 -17.316   2.107  1.00  0.00     0.293 HD
ENDBRANCH   6  24
BRANCH   8  26
ATOM     26  O   UNL     1      -4.211 -21.420   2.941  1.00  0.00    -0.508 OA
ATOM     27  H   UNL     1      -3.656 -21.857   3.668  1.00  0.00     0.293 HD
ENDBRANCH   8  26
TORSDOF 6
ENDMDL
MODEL 8
REMARK VINA RESULT:    -4.657      4.391      6.328
REMARK INTER + INTRA:          -6.013
REMARK INTER:                  -5.641
REMARK INTRA:                  -0.372
REMARK UNBOUND:                -0.403
REMARK SMILES O=c1c(O)c(-c2ccc(O)cc2O)oc2cc(O)cc(O)c12
REMARK SMILES IDX 5 1 3 2 2 3 1 4 22 5 20 6 19 7 17 8 16 9 15 10 14 11 6 12
REMARK SMILES IDX 8 13 7 14 9 15 11 16 12 17 10 18 13 20 4 22 21 24 18 26
REMARK H PARENT 10 19 13 21 4 23 21 25 18 27
REMARK Flexibility Score: inf
ROOT
ATOM      1  C   UNL     1      -2.340 -17.629   2.552  1.00  0.00     0.184 A 
ATOM      2  C   UNL     1      -1.837 -16.877   3.624  1.00  0.00     0.208 A 
ATOM      3  C   UNL     1      -0.665 -16.127   3.440  1.00  0.00     0.238 A 
ATOM      4  O   UNL     1      -0.186 -15.504   4.422  1.00  0.00    -0.285 OA
ATOM      5  C   UNL     1      -0.027 -16.118   2.175  1.00  0.00     0.111 A 
ATOM      6  C   UNL     1       1.143 -15.364   1.862  1.00  0.00     0.134 A 
ATOM      7  C   UNL     1       1.758 -15.527   0.614  1.00  0.00     0.093 A 
ATOM      8  C   UNL     1       1.209 -16.366  -0.355  1.00  0.00     0.123 A 
ATOM      9  C   UNL     1       0.031 -17.064  -0.081  1.00  0.00     0.094 A 
ATOM     10  C   UNL     1      -0.584 -16.951   1.168  1.00  0.00     0.146 A 
ATOM     11  O   UNL     1      -1.695 -17.642   1.392  1.00  0.00    -0.451 OA
ENDROOT
BRANCH   1  12
ATOM     12  C   UNL     1      -3.584 -18.418   2.681  1.00  0.00     0.063 A 
ATOM     13  C   UNL     1      -4.736 -20.358   3.594  1.00  0.00     0.047 A 
ATOM     14  C   UNL     1      -3.564 -19.621   3.409  1.00  0.00     0.020 A 
ATOM     15  C   UNL     1      -5.946 -19.900   3.059  1.00  0.00     0.119 A 
ATOM     16  C   UNL     1      -5.977 -18.705   2.336  1.00  0.00     0.093 A 
ATOM     17  C   UNL     1      -4.807 -17.963   2.135  1.00  0.00     0.130 A 
BRANCH  15  18
ATOM     18  O   UNL     1      -7.122 -20.625   3.242  1.00  0.00    -0.508 OA
ATOM     19  H   UNL     1      -7.440 -21.300   2.557  1.00  0.00     0.293 HD
ENDBRANCH  15  18
BRANCH  17  20
ATOM     20  O   UNL     1      -4.890 -16.794   1.373  1.00  0.00    -0.507 OA
ATOM     21  H   UNL     1      -5.715 -16.209   1.350  1.00  0.00     0.293 HD
ENDBRANCH  17  20
ENDBRANCH   1  12
BRANCH   2  22
ATOM     22  O   UNL     1      -2.490 -16.901   4.860  1.00  0.00    -0.502 OA
ATOM     23  H   UNL     1      -2.286 -16.234   5.594  1.00  0.00     0.293 HD
ENDBRANCH   2  22
BRANCH   6  24
ATOM     24  O   UNL     1       1.724 -14.428   2.725  1.00  0.00    -0.507 OA
ATOM     25  H   UNL     1       2.620 -14.538   3.174  1.00  0.00     0.293 HD
ENDBRANCH   6  24
BRANCH   8  26
ATOM     26  O   UNL     1       1.838 -16.492  -1.591  1.00  0.00    -0.508 OA
ATOM     27  H   UNL     1       2.375 -17.317  -1.831  1.00  0.00     0.293 HD
ENDBRANCH   8  26
TORSDOF 6
ENDMDL
MODEL 9
REMARK VINA RESULT:    -4.479      6.051      6.970
REMARK INTER + INTRA:          -5.799
REMARK INTER:                  -5.439
REMARK INTRA:                  -0.361
REMARK UNBOUND:                -0.403
REMARK SMILES O=c1c(O)c(-c2ccc(O)cc2O)oc2cc(O)cc(O)c12
REMARK SMILES IDX 5 1 3 2 2 3 1 4 22 5 20 6 19 7 17 8 16 9 15 10 14 11 6 12
REMARK SMILES IDX 8 13 7 14 9 15 11 16 12 17 10 18 13 20 4 22 21 24 18 26
REMARK H PARENT 10 19 13 21 4 23 21 25 18 27
REMARK Flexibility Score: inf
ROOT
ATOM      1  C   UNL     1      -3.478 -17.964   2.650  1.00  0.00     0.184 A 
ATOM      2  C   UNL     1      -4.585 -17.467   1.947  1.00  0.00     0.208 A 
ATOM      3  C   UNL     1      -5.826 -18.108   2.089  1.00  0.00     0.238 A 
ATOM      4  O   UNL     1      -6.800 -17.695   1.408  1.00  0.00    -0.285 OA
ATOM      5  C   UNL     1      -5.947 -19.222   2.956  1.00  0.00     0.111 A 
ATOM      6  C   UNL     1      -7.163 -19.925   3.207  1.00  0.00     0.134 A 
ATOM      7  C   UNL     1      -7.141 -21.087   3.988  1.00  0.00     0.093 A 
ATOM      8  C   UNL     1      -5.961 -21.535   4.579  1.00  0.00     0.123 A 
ATOM      9  C   UNL     1      -4.776 -20.823   4.388  1.00  0.00     0.094 A 
ATOM     10  C   UNL     1      -4.759 -19.681   3.584  1.00  0.00     0.146 A 
ATOM     11  O   UNL     1      -3.608 -19.040   3.417  1.00  0.00    -0.451 OA
ENDROOT
BRANCH   1  12
ATOM     12  C   UNL     1      -2.152 -17.315   2.559  1.00  0.00     0.063 A 
ATOM     13  C   UNL     1      -0.199 -16.745   1.223  1.00  0.00     0.047 A 
ATOM     14  C   UNL     1      -1.428 -17.394   1.356  1.00  0.00     0.020 A 
ATOM     15  C   UNL     1       0.321 -16.001   2.288  1.00  0.00     0.119 A 
ATOM     16  C   UNL     1      -0.391 -15.914   3.488  1.00  0.00     0.093 A 
ATOM     17  C   UNL     1      -1.619 -16.570   3.636  1.00  0.00     0.130 A 
BRANCH  15  18
ATOM     18  O   UNL     1       1.544 -15.344   2.165  1.00  0.00    -0.508 OA
ATOM     19  H   UNL     1       1.621 -14.453   1.689  1.00  0.00     0.293 HD
ENDBRANCH  15  18
BRANCH  17  20
ATOM     20  O   UNL     1      -2.270 -16.479   4.870  1.00  0.00    -0.507 OA
ATOM     21  H   UNL     1      -2.666 -17.280   5.345  1.00  0.00     0.293 HD
ENDBRANCH  17  20
ENDBRANCH   1  12
BRANCH   2  22
ATOM     22  O   UNL     1      -4.436 -16.364   1.102  1.00  0.00    -0.502 OA
ATOM     23  H   UNL     1      -3.528 -16.026   0.806  1.00  0.00     0.293 HD
ENDBRANCH   2  22
BRANCH   6  24
ATOM     24  O   UNL     1      -8.416 -19.512   2.739  1.00  0.00    -0.507 OA
ATOM     25  H   UNL     1      -9.092 -18.999   3.282  1.00  0.00     0.293 HD
ENDBRANCH   6  24
BRANCH   8  26
ATOM     26  O   UNL     1      -5.979 -22.687   5.363  1.00  0.00    -0.508 OA
ATOM     27  H   UNL     1      -5.246 -22.882   6.034  1.00  0.00     0.293 HD
ENDBRANCH   8  26
TORSDOF 6
ENDMDL
