MODEL 1
REMARK VINA RESULT:    -4.773      0.000      0.000
REMARK INTER + INTRA:          -5.150
REMARK INTER:                  -5.052
REMARK INTRA:                  -0.098
REMARK UNBOUND:                -0.098
REMARK SMILES C=C(C)[C@@H]1CC=C(C)C(=O)C1
REMARK SMILES IDX 8 1 7 2 6 3 5 4 4 5 11 6 9 7 10 8 2 9 1 10 3 11
REMARK H PARENT
REMARK Flexibility Score: inf
ROOT
ATOM      1  C   UNL     1      11.773 -14.455 -43.508  1.00  0.00     0.048 C 
ATOM      2  C   UNL     1      11.603 -12.992 -43.808  1.00  0.00    -0.012 C 
ATOM      3  C   UNL     1      12.589 -12.128 -43.509  1.00  0.00    -0.019 C 
ATOM      4  C   UNL     1      12.479 -10.656 -43.806  1.00  0.00     0.036 C 
ATOM      5  C   UNL     1      11.021 -10.175 -43.688  1.00  0.00     0.025 C 
ATOM      6  C   UNL     1      10.103 -11.021 -44.588  1.00  0.00     0.089 C 
ATOM      7  C   UNL     1      10.304 -12.487 -44.319  1.00  0.00     0.158 C 
ATOM      8  O   UNL     1       9.365 -13.291 -44.567  1.00  0.00    -0.295 OA
ENDROOT
BRANCH   5   9
ATOM      9  C   UNL     1      10.896  -8.691 -44.004  1.00  0.00    -0.077 C 
ATOM     10  C   UNL     1      11.714  -8.124 -44.906  1.00  0.00     0.008 C 
ATOM     11  C   UNL     1       9.867  -7.825 -43.320  1.00  0.00     0.039 C 
ENDBRANCH   5   9
TORSDOF 1
ENDMDL
MODEL 2
REMARK VINA RESULT:    -4.769      1.489      1.962
REMARK INTER + INTRA:          -5.146
REMARK INTER:                  -5.047
REMARK INTRA:                  -0.098
REMARK UNBOUND:                -0.098
REMARK SMILES C=C(C)[C@@H]1CC=C(C)C(=O)C1
REMARK SMILES IDX 8 1 7 2 6 3 5 4 4 5 11 6 9 7 10 8 2 9 1 10 3 11
REMARK H PARENT
REMARK Flexibility Score: inf
ROOT
ATOM      1  C   UNL     1       8.966 -14.312 -45.342  1.00  0.00     0.048 C 
ATOM      2  C   UNL     1       9.466 -12.899 -45.233  1.00  0.00    -0.012 C 
ATOM      3  C   UNL     1      10.698 -12.660 -44.751  1.00  0.00    -0.019 C 
ATOM      4  C   UNL     1      11.255 -11.265 -44.639  1.00  0.00     0.036 C 
ATOM      5  C   UNL     1      10.140 -10.246 -44.340  1.00  0.00     0.025 C 
ATOM      6  C   UNL     1       9.027 -10.345 -45.399  1.00  0.00     0.089 C 
ATOM      7  C   UNL     1       8.556 -11.766 -45.540  1.00  0.00     0.158 C 
ATOM      8  O   UNL     1       7.388 -11.987 -45.958  1.00  0.00    -0.295 OA
ENDROOT
BRANCH   5   9
ATOM      9  C   UNL     1      10.691  -8.830 -44.243  1.00  0.00    -0.077 C 
ATOM     10  C   UNL     1      11.897  -8.539 -44.758  1.00  0.00     0.008 C 
ATOM     11  C   UNL     1       9.910  -7.727 -43.570  1.00  0.00     0.039 C 
ENDBRANCH   5   9
TORSDOF 1
ENDMDL
MODEL 3
REMARK VINA RESULT:    -4.715      1.671      2.856
REMARK INTER + INTRA:          -5.089
REMARK INTER:                  -4.998
REMARK INTRA:                  -0.091
REMARK UNBOUND:                -0.098
REMARK SMILES C=C(C)[C@@H]1CC=C(C)C(=O)C1
REMARK SMILES IDX 8 1 7 2 6 3 5 4 4 5 11 6 9 7 10 8 2 9 1 10 3 11
REMARK H PARENT
REMARK Flexibility Score: inf
ROOT
ATOM      1  C   UNL     1       7.752 -13.386 -46.391  1.00  0.00     0.048 C 
ATOM      2  C   UNL     1       8.462 -12.261 -45.691  1.00  0.00    -0.012 C 
ATOM      3  C   UNL     1       7.966 -11.013 -45.755  1.00  0.00    -0.019 C 
ATOM      4  C   UNL     1       8.626  -9.854 -45.058  1.00  0.00     0.036 C 
ATOM      5  C   UNL     1      10.155 -10.034 -45.009  1.00  0.00     0.025 C 
ATOM      6  C   UNL     1      10.514 -11.384 -44.364  1.00  0.00     0.089 C 
ATOM      7  C   UNL     1       9.771 -12.506 -45.035  1.00  0.00     0.158 C 
ATOM      8  O   UNL     1      10.256 -13.669 -45.004  1.00  0.00    -0.295 OA
ENDROOT
BRANCH   5   9
ATOM      9  C   UNL     1      10.830  -8.876 -44.289  1.00  0.00    -0.077 C 
ATOM     10  C   UNL     1      12.078  -8.509 -44.624  1.00  0.00     0.008 C 
ATOM     11  C   UNL     1      10.127  -8.117 -43.189  1.00  0.00     0.039 C 
ENDBRANCH   5   9
TORSDOF 1
ENDMDL
MODEL 4
REMARK VINA RESULT:    -4.555      1.792      2.172
REMARK INTER + INTRA:          -4.919
REMARK INTER:                  -4.824
REMARK INTRA:                  -0.095
REMARK UNBOUND:                -0.098
REMARK SMILES C=C(C)[C@@H]1CC=C(C)C(=O)C1
REMARK SMILES IDX 8 1 7 2 6 3 5 4 4 5 11 6 9 7 10 8 2 9 1 10 3 11
REMARK H PARENT
REMARK Flexibility Score: inf
ROOT
ATOM      1  C   UNL     1      12.632 -14.695 -43.510  1.00  0.00     0.048 C 
ATOM      2  C   UNL     1      12.380 -13.214 -43.459  1.00  0.00    -0.012 C 
ATOM      3  C   UNL     1      11.284 -12.742 -42.839  1.00  0.00    -0.019 C 
ATOM      4  C   UNL     1      10.993 -11.268 -42.743  1.00  0.00     0.036 C 
ATOM      5  C   UNL     1      11.515 -10.518 -43.983  1.00  0.00     0.025 C 
ATOM      6  C   UNL     1      13.013 -10.804 -44.190  1.00  0.00     0.089 C 
ATOM      7  C   UNL     1      13.273 -12.285 -44.197  1.00  0.00     0.158 C 
ATOM      8  O   UNL     1      14.281 -12.729 -44.809  1.00  0.00    -0.295 OA
ENDROOT
BRANCH   5   9
ATOM      9  C   UNL     1      11.242  -9.024 -43.886  1.00  0.00    -0.077 C 
ATOM     10  C   UNL     1      11.601  -8.206 -44.889  1.00  0.00     0.008 C 
ATOM     11  C   UNL     1      10.570  -8.424 -42.674  1.00  0.00     0.039 C 
ENDBRANCH   5   9
TORSDOF 1
ENDMDL
MODEL 5
REMARK VINA RESULT:    -4.521      1.423      2.342
REMARK INTER + INTRA:          -4.883
REMARK INTER:                  -4.786
REMARK INTRA:                  -0.097
REMARK UNBOUND:                -0.098
REMARK SMILES C=C(C)[C@@H]1CC=C(C)C(=O)C1
REMARK SMILES IDX 8 1 7 2 6 3 5 4 4 5 11 6 9 7 10 8 2 9 1 10 3 11
REMARK H PARENT
REMARK Flexibility Score: inf
ROOT
ATOM      1  C   UNL     1       9.577 -14.565 -44.837  1.00  0.00     0.048 C 
ATOM      2  C   UNL     1       9.780 -13.094 -44.602  1.00  0.00    -0.012 C 
ATOM      3  C   UNL     1       9.224 -12.199 -45.437  1.00  0.00    -0.019 C 
ATOM      4  C   UNL     1       9.381 -10.715 -45.237  1.00  0.00     0.036 C 
ATOM      5  C   UNL     1      10.746 -10.382 -44.607  1.00  0.00     0.025 C 
ATOM      6  C   UNL     1      10.939 -11.170 -43.299  1.00  0.00     0.089 C 
ATOM      7  C   UNL     1      10.693 -12.637 -43.524  1.00  0.00     0.158 C 
ATOM      8  O   UNL     1      11.243 -13.476 -42.762  1.00  0.00    -0.295 OA
ENDROOT
BRANCH   5   9
ATOM      9  C   UNL     1      10.906  -8.885 -44.383  1.00  0.00    -0.077 C 
ATOM     10  C   UNL     1       9.894  -8.168 -43.869  1.00  0.00     0.008 C 
ATOM     11  C   UNL     1      12.190  -8.171 -44.732  1.00  0.00     0.039 C 
ENDBRANCH   5   9
TORSDOF 1
ENDMDL
MODEL 6
REMARK VINA RESULT:    -4.317     12.546     14.014
REMARK INTER + INTRA:          -4.667
REMARK INTER:                  -4.569
REMARK INTRA:                  -0.098
REMARK UNBOUND:                -0.098
REMARK SMILES C=C(C)[C@@H]1CC=C(C)C(=O)C1
REMARK SMILES IDX 8 1 7 2 6 3 5 4 4 5 11 6 9 7 10 8 2 9 1 10 3 11
REMARK H PARENT
REMARK Flexibility Score: inf
ROOT
ATOM      1  C   UNL     1       4.568 -19.602 -37.831  1.00  0.00     0.048 C 
ATOM      2  C   UNL     1       5.769 -20.381 -37.373  1.00  0.00    -0.012 C 
ATOM      3  C   UNL     1       5.963 -21.635 -37.817  1.00  0.00    -0.019 C 
ATOM      4  C   UNL     1       7.158 -22.453 -37.405  1.00  0.00     0.036 C 
ATOM      5  C   UNL     1       7.599 -22.106 -35.970  1.00  0.00     0.025 C 
ATOM      6  C   UNL     1       7.854 -20.594 -35.839  1.00  0.00     0.089 C 
ATOM      7  C   UNL     1       6.670 -19.813 -36.338  1.00  0.00     0.158 C 
ATOM      8  O   UNL     1       6.469 -18.651 -35.894  1.00  0.00    -0.295 OA
ENDROOT
BRANCH   5   9
ATOM      9  C   UNL     1       8.818 -22.915 -35.551  1.00  0.00    -0.077 C 
ATOM     10  C   UNL     1       9.693 -22.406 -34.668  1.00  0.00     0.008 C 
ATOM     11  C   UNL     1       9.078 -24.293 -36.110  1.00  0.00     0.039 C 
ENDBRANCH   5   9
TORSDOF 1
ENDMDL
MODEL 7
REMARK VINA RESULT:    -4.279      2.037      4.179
REMARK INTER + INTRA:          -4.627
REMARK INTER:                  -4.529
REMARK INTRA:                  -0.098
REMARK UNBOUND:                -0.098
REMARK SMILES C=C(C)[C@@H]1CC=C(C)C(=O)C1
REMARK SMILES IDX 8 1 7 2 6 3 5 4 4 5 11 6 9 7 10 8 2 9 1 10 3 11
REMARK H PARENT
REMARK Flexibility Score: inf
ROOT
ATOM      1  C   UNL     1       8.196 -10.613 -45.755  1.00  0.00     0.048 C 
ATOM      2  C   UNL     1       9.594 -11.047 -45.413  1.00  0.00    -0.012 C 
ATOM      3  C   UNL     1      10.002 -12.292 -45.716  1.00  0.00    -0.019 C 
ATOM      4  C   UNL     1      11.397 -12.771 -45.413  1.00  0.00     0.036 C 
ATOM      5  C   UNL     1      11.944 -12.111 -44.133  1.00  0.00     0.025 C 
ATOM      6  C   UNL     1      11.866 -10.578 -44.247  1.00  0.00     0.089 C 
ATOM      7  C   UNL     1      10.479 -10.145 -44.633  1.00  0.00     0.158 C 
ATOM      8  O   UNL     1      10.085  -8.991 -44.316  1.00  0.00    -0.295 OA
ENDROOT
BRANCH   5   9
ATOM      9  C   UNL     1      13.360 -12.576 -43.829  1.00  0.00    -0.077 C 
ATOM     10  C   UNL     1      14.311 -11.680 -43.514  1.00  0.00     0.008 C 
ATOM     11  C   UNL     1      13.735 -14.037 -43.873  1.00  0.00     0.039 C 
ENDBRANCH   5   9
TORSDOF 1
ENDMDL
MODEL 8
REMARK VINA RESULT:    -4.206      2.127      3.641
REMARK INTER + INTRA:          -4.550
REMARK INTER:                  -4.452
REMARK INTRA:                  -0.098
REMARK UNBOUND:                -0.098
REMARK SMILES C=C(C)[C@@H]1CC=C(C)C(=O)C1
REMARK SMILES IDX 8 1 7 2 6 3 5 4 4 5 11 6 9 7 10 8 2 9 1 10 3 11
REMARK H PARENT
REMARK Flexibility Score: inf
ROOT
ATOM      1  C   UNL     1      13.737 -11.886 -43.259  1.00  0.00     0.048 C 
ATOM      2  C   UNL     1      12.304 -11.867 -43.714  1.00  0.00    -0.012 C 
ATOM      3  C   UNL     1      11.593 -13.008 -43.735  1.00  0.00    -0.019 C 
ATOM      4  C   UNL     1      10.151 -13.043 -44.165  1.00  0.00     0.036 C 
ATOM      5  C   UNL     1       9.869 -11.982 -45.246  1.00  0.00     0.025 C 
ATOM      6  C   UNL     1      10.297 -10.589 -44.753  1.00  0.00     0.089 C 
ATOM      7  C   UNL     1      11.716 -10.616 -44.256  1.00  0.00     0.158 C 
ATOM      8  O   UNL     1      12.393  -9.553 -44.270  1.00  0.00    -0.295 OA
ENDROOT
BRANCH   5   9
ATOM      9  C   UNL     1       8.408 -11.997 -45.673  1.00  0.00    -0.077 C 
ATOM     10  C   UNL     1       7.797 -10.854 -46.027  1.00  0.00     0.008 C 
ATOM     11  C   UNL     1       7.612 -13.279 -45.708  1.00  0.00     0.039 C 
ENDBRANCH   5   9
TORSDOF 1
ENDMDL
MODEL 9
REMARK VINA RESULT:    -4.116      1.574      4.230
REMARK INTER + INTRA:          -4.454
REMARK INTER:                  -4.362
REMARK INTRA:                  -0.092
REMARK UNBOUND:                -0.098
REMARK SMILES C=C(C)[C@@H]1CC=C(C)C(=O)C1
REMARK SMILES IDX 8 1 7 2 6 3 5 4 4 5 11 6 9 7 10 8 2 9 1 10 3 11
REMARK H PARENT
REMARK Flexibility Score: inf
ROOT
ATOM      1  C   UNL     1      10.034  -8.124 -43.885  1.00  0.00     0.048 C 
ATOM      2  C   UNL     1      10.466  -9.556 -44.029  1.00  0.00    -0.012 C 
ATOM      3  C   UNL     1      11.639  -9.958 -43.507  1.00  0.00    -0.019 C 
ATOM      4  C   UNL     1      12.111 -11.384 -43.607  1.00  0.00     0.036 C 
ATOM      5  C   UNL     1      11.629 -12.037 -44.916  1.00  0.00     0.025 C 
ATOM      6  C   UNL     1      10.099 -11.920 -45.041  1.00  0.00     0.089 C 
ATOM      7  C   UNL     1       9.661 -10.494 -44.852  1.00  0.00     0.158 C 
ATOM      8  O   UNL     1       8.579 -10.110 -45.373  1.00  0.00    -0.295 OA
ENDROOT
BRANCH   5   9
ATOM      9  C   UNL     1      12.086 -13.485 -45.018  1.00  0.00    -0.077 C 
ATOM     10  C   UNL     1      12.110 -14.102 -46.211  1.00  0.00     0.008 C 
ATOM     11  C   UNL     1      12.517 -14.261 -43.797  1.00  0.00     0.039 C 
ENDBRANCH   5   9
TORSDOF 1
ENDMDL
