MODEL 1
REMARK VINA RESULT:    81.838      0.000      0.000
REMARK INTER + INTRA:         107.966
REMARK INTER:                 108.151
REMARK INTRA:                  -0.186
REMARK UNBOUND:                -0.186
REMARK SMILES C=C(CC[C@@H](C)[C@H]1CC[C@@]2(C)[C@H]3CC[C@@H]4C(C)(C)[C@@H](O)CC[C@]45C[C@]35CC[C@@]12C)C(C)C
REMARK SMILES IDX 4 1 3 2 2 3 1 4 30 5 31 6 32 7 5 8 6 9 7 10 8 11 28 12 9 13
REMARK SMILES IDX 10 14 27 15 29 16 11 17 12 18 26 19 25 20 13 21 23 22 24 23
REMARK SMILES IDX 14 24 15 25 22 26 16 27 21 28 19 29 17 30 18 31 20 32
REMARK H PARENT 20 33
REMARK Flexibility Score: inf
ROOT
ATOM      1  C   UNL     1     -15.302  -2.611  14.211  1.00  0.00     0.008 C 
ENDROOT
BRANCH   1   2
ATOM      2  C   UNL     1     -16.361  -1.992  15.149  1.00  0.00     0.031 C 
BRANCH   2   3
ATOM      3  C   UNL     1     -16.757  -2.896  16.304  1.00  0.00    -0.075 C 
ATOM      4  C   UNL     1     -15.797  -3.508  17.020  1.00  0.00     0.008 C 
BRANCH   3   5
ATOM      5  C   UNL     1     -18.207  -2.994  16.767  1.00  0.00     0.008 C 
ATOM      6  C   UNL     1     -18.689  -4.446  16.865  1.00  0.00     0.012 C 
ATOM      7  C   UNL     1     -19.122  -2.173  15.851  1.00  0.00     0.012 C 
ENDBRANCH   3   5
ENDBRANCH   2   3
ENDBRANCH   1   2
BRANCH   1   8
ATOM      8  C   UNL     1     -14.837  -1.661  13.061  1.00  0.00    -0.010 C 
ATOM      9  C   UNL     1     -15.138  -0.203  13.474  1.00  0.00     0.008 C 
BRANCH   8  10
ATOM     10  C   UNL     1     -13.315  -1.870  12.721  1.00  0.00    -0.002 C 
ATOM     11  C   UNL     1     -12.679  -0.608  12.100  1.00  0.00     0.005 C 
ATOM     12  C   UNL     1     -12.324  -2.266  13.875  1.00  0.00    -0.024 C 
ATOM     13  C   UNL     1     -11.239  -0.513  12.603  1.00  0.00     0.008 C 
ATOM     14  C   UNL     1     -10.916  -1.852  13.303  1.00  0.00    -0.024 C 
ATOM     15  C   UNL     1     -12.652  -1.425  15.145  1.00  0.00     0.008 C 
ATOM     16  C   UNL     1     -12.386  -3.784  14.204  1.00  0.00     0.012 C 
ATOM     17  C   UNL     1     -10.434  -2.853  12.198  1.00  0.00     0.012 C 
ATOM     18  C   UNL     1      -9.752  -1.735  14.389  1.00  0.00     0.002 C 
ATOM     19  C   UNL     1     -11.634  -1.593  16.250  1.00  0.00     0.008 C 
ATOM     20  C   UNL     1     -10.211  -1.199  15.795  1.00  0.00    -0.020 C 
ATOM     21  C   UNL     1      -8.521  -0.982  13.789  1.00  0.00     0.005 C 
ATOM     22  C   UNL     1      -9.313  -0.192  16.576  1.00  0.00    -0.020 C 
ATOM     23  C   UNL     1      -9.260  -1.665  16.934  1.00  0.00     0.015 C 
ATOM     24  C   UNL     1      -7.470  -0.541  14.796  1.00  0.00     0.005 C 
ATOM     25  C   UNL     1      -8.091   0.418  15.833  1.00  0.00     0.004 C 
ATOM     26  C   UNL     1      -9.980   0.731  17.621  1.00  0.00     0.010 C 
ATOM     27  C   UNL     1      -7.048   1.037  16.836  1.00  0.00    -0.006 C 
ATOM     28  C   UNL     1      -8.941   1.341  18.564  1.00  0.00     0.033 C 
ATOM     29  C   UNL     1      -7.783   2.017  17.808  1.00  0.00     0.120 C 
ATOM     30  C   UNL     1      -6.311  -0.059  17.649  1.00  0.00     0.014 C 
ATOM     31  C   UNL     1      -5.971   1.850  16.070  1.00  0.00     0.014 C 
BRANCH  29  32
ATOM     32  O   UNL     1      -8.287   3.122  17.095  1.00  0.00    -0.393 OA
ATOM     33  H   UNL     1      -9.277   3.047  17.098  1.00  0.00     0.210 HD
ENDBRANCH  29  32
ENDBRANCH   8  10
ENDBRANCH   1   8
TORSDOF 6
ENDMDL
MODEL 2
REMARK VINA RESULT:    82.587     11.280     13.950
REMARK INTER + INTRA:         108.955
REMARK INTER:                 108.467
REMARK INTRA:                   0.488
REMARK UNBOUND:                -0.186
REMARK SMILES C=C(CC[C@@H](C)[C@H]1CC[C@@]2(C)[C@H]3CC[C@@H]4C(C)(C)[C@@H](O)CC[C@]45C[C@]35CC[C@@]12C)C(C)C
REMARK SMILES IDX 4 1 3 2 2 3 1 4 30 5 31 6 32 7 5 8 6 9 7 10 8 11 28 12 9 13
REMARK SMILES IDX 10 14 27 15 29 16 11 17 12 18 26 19 25 20 13 21 23 22 24 23
REMARK SMILES IDX 14 24 15 25 22 26 16 27 21 28 19 29 17 30 18 31 20 32
REMARK H PARENT 20 33
REMARK Flexibility Score: inf
ROOT
ATOM      1  C   UNL     1     -15.267  -8.016  20.766  1.00  0.00     0.008 C 
ENDROOT
BRANCH   1   2
ATOM      2  C   UNL     1     -16.032  -6.676  20.815  1.00  0.00     0.031 C 
BRANCH   2   3
ATOM      3  C   UNL     1     -16.410  -6.137  19.447  1.00  0.00    -0.075 C 
ATOM      4  C   UNL     1     -17.201  -6.872  18.645  1.00  0.00     0.008 C 
BRANCH   3   5
ATOM      5  C   UNL     1     -16.044  -4.715  19.030  1.00  0.00     0.008 C 
ATOM      6  C   UNL     1     -16.777  -4.275  17.759  1.00  0.00     0.012 C 
ATOM      7  C   UNL     1     -14.526  -4.577  18.864  1.00  0.00     0.012 C 
ENDBRANCH   3   5
ENDBRANCH   2   3
ENDBRANCH   1   2
BRANCH   1   8
ATOM      8  C   UNL     1     -14.847  -8.562  22.168  1.00  0.00    -0.010 C 
ATOM      9  C   UNL     1     -15.807  -9.707  22.559  1.00  0.00     0.008 C 
BRANCH   8  10
ATOM     10  C   UNL     1     -13.345  -9.031  22.178  1.00  0.00    -0.002 C 
ATOM     11  C   UNL     1     -12.759  -9.079  23.605  1.00  0.00     0.005 C 
ATOM     12  C   UNL     1     -12.981 -10.435  21.571  1.00  0.00    -0.024 C 
ATOM     13  C   UNL     1     -11.798 -10.266  23.677  1.00  0.00     0.008 C 
ATOM     14  C   UNL     1     -11.590 -10.768  22.232  1.00  0.00    -0.024 C 
ATOM     15  C   UNL     1     -14.047 -11.480  22.018  1.00  0.00     0.008 C 
ATOM     16  C   UNL     1     -12.885 -10.395  20.020  1.00  0.00     0.012 C 
ATOM     17  C   UNL     1     -10.441  -9.911  21.599  1.00  0.00     0.012 C 
ATOM     18  C   UNL     1     -11.152 -12.300  22.150  1.00  0.00     0.002 C 
ATOM     19  C   UNL     1     -13.683 -12.900  21.646  1.00  0.00     0.008 C 
ATOM     20  C   UNL     1     -12.333 -13.333  22.258  1.00  0.00    -0.020 C 
ATOM     21  C   UNL     1      -9.966 -12.580  23.130  1.00  0.00     0.005 C 
ATOM     22  C   UNL     1     -12.153 -14.639  23.090  1.00  0.00    -0.020 C 
ATOM     23  C   UNL     1     -11.981 -14.690  21.585  1.00  0.00     0.015 C 
ATOM     24  C   UNL     1      -9.651 -14.048  23.371  1.00  0.00     0.005 C 
ATOM     25  C   UNL     1     -10.878 -14.768  23.970  1.00  0.00     0.004 C 
ATOM     26  C   UNL     1     -13.415 -15.335  23.649  1.00  0.00     0.010 C 
ATOM     27  C   UNL     1     -10.602 -16.261  24.383  1.00  0.00    -0.006 C 
ATOM     28  C   UNL     1     -13.113 -16.775  24.069  1.00  0.00     0.033 C 
ATOM     29  C   UNL     1     -11.898 -16.872  25.010  1.00  0.00     0.120 C 
ATOM     30  C   UNL     1     -10.147 -17.120  23.174  1.00  0.00     0.014 C 
ATOM     31  C   UNL     1      -9.481 -16.334  25.453  1.00  0.00     0.014 C 
BRANCH  29  32
ATOM     32  O   UNL     1     -12.206 -16.221  26.220  1.00  0.00    -0.393 OA
ATOM     33  H   UNL     1     -12.203 -15.245  26.039  1.00  0.00     0.210 HD
ENDBRANCH  29  32
ENDBRANCH   8  10
ENDBRANCH   1   8
TORSDOF 6
ENDMDL
MODEL 3
REMARK VINA RESULT:    83.941      1.755      3.755
REMARK INTER + INTRA:         110.745
REMARK INTER:                 111.059
REMARK INTRA:                  -0.314
REMARK UNBOUND:                -0.186
REMARK SMILES C=C(CC[C@@H](C)[C@H]1CC[C@@]2(C)[C@H]3CC[C@@H]4C(C)(C)[C@@H](O)CC[C@]45C[C@]35CC[C@@]12C)C(C)C
REMARK SMILES IDX 4 1 3 2 2 3 1 4 30 5 31 6 32 7 5 8 6 9 7 10 8 11 28 12 9 13
REMARK SMILES IDX 10 14 27 15 29 16 11 17 12 18 26 19 25 20 13 21 23 22 24 23
REMARK SMILES IDX 14 24 15 25 22 26 16 27 21 28 19 29 17 30 18 31 20 32
REMARK H PARENT 20 33
REMARK Flexibility Score: inf
ROOT
ATOM      1  C   UNL     1     -17.033  -3.274  16.792  1.00  0.00     0.008 C 
ENDROOT
BRANCH   1   2
ATOM      2  C   UNL     1     -17.645  -4.407  17.643  1.00  0.00     0.031 C 
BRANCH   2   3
ATOM      3  C   UNL     1     -16.649  -5.085  18.567  1.00  0.00    -0.075 C 
ATOM      4  C   UNL     1     -15.444  -4.521  18.764  1.00  0.00     0.008 C 
BRANCH   3   5
ATOM      5  C   UNL     1     -17.045  -6.302  19.398  1.00  0.00     0.008 C 
ATOM      6  C   UNL     1     -15.827  -7.070  19.923  1.00  0.00     0.012 C 
ATOM      7  C   UNL     1     -17.971  -7.223  18.596  1.00  0.00     0.012 C 
ENDBRANCH   3   5
ENDBRANCH   2   3
ENDBRANCH   1   2
BRANCH   1   8
ATOM      8  C   UNL     1     -17.707  -3.090  15.395  1.00  0.00    -0.010 C 
ATOM      9  C   UNL     1     -19.115  -2.492  15.602  1.00  0.00     0.008 C 
BRANCH   8  10
ATOM     10  C   UNL     1     -16.827  -2.198  14.443  1.00  0.00    -0.002 C 
ATOM     11  C   UNL     1     -16.581  -0.791  15.027  1.00  0.00     0.005 C 
ATOM     12  C   UNL     1     -15.391  -2.699  14.042  1.00  0.00    -0.024 C 
ATOM     13  C   UNL     1     -15.167  -0.361  14.634  1.00  0.00     0.008 C 
ATOM     14  C   UNL     1     -14.659  -1.379  13.590  1.00  0.00    -0.024 C 
ATOM     15  C   UNL     1     -14.687  -3.297  15.296  1.00  0.00     0.008 C 
ATOM     16  C   UNL     1     -15.437  -3.750  12.898  1.00  0.00     0.012 C 
ATOM     17  C   UNL     1     -15.164  -0.901  12.186  1.00  0.00     0.012 C 
ATOM     18  C   UNL     1     -13.067  -1.478  13.523  1.00  0.00     0.002 C 
ATOM     19  C   UNL     1     -13.231  -3.630  15.060  1.00  0.00     0.008 C 
ATOM     20  C   UNL     1     -12.414  -2.395  14.622  1.00  0.00    -0.020 C 
ATOM     21  C   UNL     1     -12.437  -0.051  13.424  1.00  0.00     0.005 C 
ATOM     22  C   UNL     1     -11.094  -1.952  15.322  1.00  0.00    -0.020 C 
ATOM     23  C   UNL     1     -11.029  -2.941  14.174  1.00  0.00     0.015 C 
ATOM     24  C   UNL     1     -10.936   0.018  13.654  1.00  0.00     0.005 C 
ATOM     25  C   UNL     1     -10.584  -0.506  15.062  1.00  0.00     0.004 C 
ATOM     26  C   UNL     1     -10.777  -2.523  16.722  1.00  0.00     0.010 C 
ATOM     27  C   UNL     1      -9.066  -0.345  15.443  1.00  0.00    -0.006 C 
ATOM     28  C   UNL     1      -9.301  -2.328  17.079  1.00  0.00     0.033 C 
ATOM     29  C   UNL     1      -8.839  -0.871  16.898  1.00  0.00     0.120 C 
ATOM     30  C   UNL     1      -8.141  -1.106  14.457  1.00  0.00     0.014 C 
ATOM     31  C   UNL     1      -8.651   1.149  15.411  1.00  0.00     0.014 C 
BRANCH  29  32
ATOM     32  O   UNL     1      -9.523  -0.058  17.822  1.00  0.00    -0.393 OA
ATOM     33  H   UNL     1      -9.028  -0.106  18.681  1.00  0.00     0.210 HD
ENDBRANCH  29  32
ENDBRANCH   8  10
ENDBRANCH   1   8
TORSDOF 6
ENDMDL
