MODEL 1
REMARK VINA RESULT:    -4.261      0.000      0.000
REMARK INTER + INTRA:          -4.865
REMARK INTER:                  -4.760
REMARK INTRA:                  -0.106
REMARK UNBOUND:                -0.106
REMARK SMILES COc1cc2ccc(=O)oc2cc1OC
REMARK SMILES IDX 3 1 13 2 12 3 11 4 5 5 4 6 6 7 7 8 8 9 9 10 10 11 2 12 1 13
REMARK SMILES IDX 14 14 15 15
REMARK H PARENT
REMARK Flexibility Score: inf
ROOT
ATOM      1  C   UNL     1     -50.365 -37.051 -19.625  1.00  0.00     0.161 A 
ATOM      2  C   UNL     1     -49.392 -36.223 -19.039  1.00  0.00     0.164 A 
ATOM      3  C   UNL     1     -48.276 -36.800 -18.400  1.00  0.00     0.098 A 
ATOM      4  C   UNL     1     -48.131 -38.188 -18.346  1.00  0.00     0.142 A 
ATOM      5  C   UNL     1     -49.107 -39.019 -18.934  1.00  0.00     0.022 A 
ATOM      6  C   UNL     1     -50.217 -38.451 -19.570  1.00  0.00     0.062 A 
ATOM      7  C   UNL     1     -48.933 -40.405 -18.862  1.00  0.00     0.019 A 
ATOM      8  C   UNL     1     -47.810 -40.923 -18.218  1.00  0.00     0.094 A 
ATOM      9  C   UNL     1     -46.883 -40.037 -17.658  1.00  0.00     0.336 A 
ATOM     10  O   UNL     1     -45.863 -40.484 -17.072  1.00  0.00    -0.246 OA
ATOM     11  O   UNL     1     -47.073 -38.723 -17.740  1.00  0.00    -0.423 OA
ENDROOT
BRANCH   1  12
ATOM     12  O   UNL     1     -51.464 -36.443 -20.253  1.00  0.00    -0.493 OA
ATOM     13  C   UNL     1     -52.465 -37.141 -20.985  1.00  0.00     0.278 C 
ENDBRANCH   1  12
BRANCH   2  14
ATOM     14  O   UNL     1     -49.570 -34.832 -19.112  1.00  0.00    -0.493 OA
ATOM     15  C   UNL     1     -49.255 -33.922 -18.064  1.00  0.00     0.278 C 
ENDBRANCH   2  14
TORSDOF 2
ENDMDL
MODEL 2
REMARK VINA RESULT:    -4.239      1.321      2.933
REMARK INTER + INTRA:          -4.840
REMARK INTER:                  -4.735
REMARK INTRA:                  -0.106
REMARK UNBOUND:                -0.106
REMARK SMILES COc1cc2ccc(=O)oc2cc1OC
REMARK SMILES IDX 3 1 13 2 12 3 11 4 5 5 4 6 6 7 7 8 8 9 9 10 10 11 2 12 1 13
REMARK SMILES IDX 14 14 15 15
REMARK H PARENT
REMARK Flexibility Score: inf
ROOT
ATOM      1  C   UNL     1     -49.467 -36.277 -19.150  1.00  0.00     0.161 A 
ATOM      2  C   UNL     1     -50.386 -36.991 -19.938  1.00  0.00     0.164 A 
ATOM      3  C   UNL     1     -50.296 -38.395 -20.016  1.00  0.00     0.098 A 
ATOM      4  C   UNL     1     -49.299 -39.081 -19.318  1.00  0.00     0.142 A 
ATOM      5  C   UNL     1     -48.377 -38.364 -18.528  1.00  0.00     0.022 A 
ATOM      6  C   UNL     1     -48.462 -36.969 -18.446  1.00  0.00     0.062 A 
ATOM      7  C   UNL     1     -47.391 -39.080 -17.840  1.00  0.00     0.019 A 
ATOM      8  C   UNL     1     -47.347 -40.469 -17.954  1.00  0.00     0.094 A 
ATOM      9  C   UNL     1     -48.296 -41.112 -18.756  1.00  0.00     0.336 A 
ATOM     10  O   UNL     1     -48.274 -42.365 -18.871  1.00  0.00    -0.246 OA
ATOM     11  O   UNL     1     -49.223 -40.407 -19.399  1.00  0.00    -0.423 OA
ENDROOT
BRANCH   1  12
ATOM     12  O   UNL     1     -49.585 -34.878 -19.094  1.00  0.00    -0.493 OA
ATOM     13  C   UNL     1     -49.209 -34.079 -17.979  1.00  0.00     0.278 C 
ENDBRANCH   1  12
BRANCH   2  14
ATOM     14  O   UNL     1     -51.374 -36.270 -20.627  1.00  0.00    -0.493 OA
ATOM     15  C   UNL     1     -52.656 -36.784 -20.970  1.00  0.00     0.278 C 
ENDBRANCH   2  14
TORSDOF 2
ENDMDL
MODEL 3
REMARK VINA RESULT:    -4.197      3.423      7.237
REMARK INTER + INTRA:          -4.794
REMARK INTER:                  -4.663
REMARK INTRA:                  -0.131
REMARK UNBOUND:                -0.106
REMARK SMILES COc1cc2ccc(=O)oc2cc1OC
REMARK SMILES IDX 3 1 13 2 12 3 11 4 5 5 4 6 6 7 7 8 8 9 9 10 10 11 2 12 1 13
REMARK SMILES IDX 14 14 15 15
REMARK H PARENT
REMARK Flexibility Score: inf
ROOT
ATOM      1  C   UNL     1     -50.997 -36.953 -22.468  1.00  0.00     0.161 A 
ATOM      2  C   UNL     1     -51.589 -36.585 -21.248  1.00  0.00     0.164 A 
ATOM      3  C   UNL     1     -52.986 -36.421 -21.171  1.00  0.00     0.098 A 
ATOM      4  C   UNL     1     -53.786 -36.620 -22.299  1.00  0.00     0.142 A 
ATOM      5  C   UNL     1     -53.191 -36.988 -23.523  1.00  0.00     0.022 A 
ATOM      6  C   UNL     1     -51.803 -37.154 -23.605  1.00  0.00     0.062 A 
ATOM      7  C   UNL     1     -54.019 -37.180 -24.635  1.00  0.00     0.019 A 
ATOM      8  C   UNL     1     -55.396 -37.004 -24.503  1.00  0.00     0.094 A 
ATOM      9  C   UNL     1     -55.915 -36.638 -23.257  1.00  0.00     0.336 A 
ATOM     10  O   UNL     1     -57.154 -36.474 -23.117  1.00  0.00    -0.246 OA
ATOM     11  O   UNL     1     -55.105 -36.462 -22.216  1.00  0.00    -0.423 OA
ENDROOT
BRANCH   1  12
ATOM     12  O   UNL     1     -49.602 -37.108 -22.509  1.00  0.00    -0.493 OA
ATOM     13  C   UNL     1     -48.736 -36.411 -23.398  1.00  0.00     0.278 C 
ENDBRANCH   1  12
BRANCH   2  14
ATOM     14  O   UNL     1     -50.756 -36.393 -20.134  1.00  0.00    -0.493 OA
ATOM     15  C   UNL     1     -50.602 -37.327 -19.071  1.00  0.00     0.278 C 
ENDBRANCH   2  14
TORSDOF 2
ENDMDL
MODEL 4
REMARK VINA RESULT:    -4.163      1.787      5.013
REMARK INTER + INTRA:          -4.755
REMARK INTER:                  -4.634
REMARK INTRA:                  -0.121
REMARK UNBOUND:                -0.106
REMARK SMILES COc1cc2ccc(=O)oc2cc1OC
REMARK SMILES IDX 3 1 13 2 12 3 11 4 5 5 4 6 6 7 7 8 8 9 9 10 10 11 2 12 1 13
REMARK SMILES IDX 14 14 15 15
REMARK H PARENT
REMARK Flexibility Score: inf
ROOT
ATOM      1  C   UNL     1     -49.196 -37.687 -19.049  1.00  0.00     0.161 A 
ATOM      2  C   UNL     1     -49.404 -36.310 -19.241  1.00  0.00     0.164 A 
ATOM      3  C   UNL     1     -50.242 -35.869 -20.284  1.00  0.00     0.098 A 
ATOM      4  C   UNL     1     -50.866 -36.789 -21.129  1.00  0.00     0.142 A 
ATOM      5  C   UNL     1     -50.657 -38.170 -20.937  1.00  0.00     0.022 A 
ATOM      6  C   UNL     1     -49.827 -38.615 -19.901  1.00  0.00     0.062 A 
ATOM      7  C   UNL     1     -51.297 -39.067 -21.799  1.00  0.00     0.019 A 
ATOM      8  C   UNL     1     -52.115 -38.575 -22.816  1.00  0.00     0.094 A 
ATOM      9  C   UNL     1     -52.275 -37.192 -22.945  1.00  0.00     0.336 A 
ATOM     10  O   UNL     1     -53.010 -36.728 -23.856  1.00  0.00    -0.246 OA
ATOM     11  O   UNL     1     -51.656 -36.361 -22.111  1.00  0.00    -0.423 OA
ENDROOT
BRANCH   1  12
ATOM     12  O   UNL     1     -48.356 -38.092 -18.000  1.00  0.00    -0.493 OA
ATOM     13  C   UNL     1     -47.015 -38.540 -18.165  1.00  0.00     0.278 C 
ENDBRANCH   1  12
BRANCH   2  14
ATOM     14  O   UNL     1     -48.761 -35.413 -18.373  1.00  0.00    -0.493 OA
ATOM     15  C   UNL     1     -49.253 -34.120 -18.040  1.00  0.00     0.278 C 
ENDBRANCH   2  14
TORSDOF 2
ENDMDL
MODEL 5
REMARK VINA RESULT:    -4.133      1.823      4.547
REMARK INTER + INTRA:          -4.721
REMARK INTER:                  -4.615
REMARK INTRA:                  -0.106
REMARK UNBOUND:                -0.106
REMARK SMILES COc1cc2ccc(=O)oc2cc1OC
REMARK SMILES IDX 3 1 13 2 12 3 11 4 5 5 4 6 6 7 7 8 8 9 9 10 10 11 2 12 1 13
REMARK SMILES IDX 14 14 15 15
REMARK H PARENT
REMARK Flexibility Score: inf
ROOT
ATOM      1  C   UNL     1     -49.091 -36.016 -18.812  1.00  0.00     0.161 A 
ATOM      2  C   UNL     1     -48.341 -37.204 -18.810  1.00  0.00     0.164 A 
ATOM      3  C   UNL     1     -48.754 -38.292 -19.603  1.00  0.00     0.098 A 
ATOM      4  C   UNL     1     -49.904 -38.199 -20.391  1.00  0.00     0.142 A 
ATOM      5  C   UNL     1     -50.657 -37.007 -20.393  1.00  0.00     0.022 A 
ATOM      6  C   UNL     1     -50.251 -35.922 -19.607  1.00  0.00     0.062 A 
ATOM      7  C   UNL     1     -51.804 -36.944 -21.192  1.00  0.00     0.019 A 
ATOM      8  C   UNL     1     -52.167 -38.052 -21.957  1.00  0.00     0.094 A 
ATOM      9  C   UNL     1     -51.370 -39.201 -21.906  1.00  0.00     0.336 A 
ATOM     10  O   UNL     1     -51.681 -40.211 -22.589  1.00  0.00    -0.246 OA
ATOM     11  O   UNL     1     -50.285 -39.233 -21.137  1.00  0.00    -0.423 OA
ENDROOT
BRANCH   1  12
ATOM     12  O   UNL     1     -48.652 -34.950 -18.010  1.00  0.00    -0.493 OA
ATOM     13  C   UNL     1     -49.216 -33.644 -18.020  1.00  0.00     0.278 C 
ENDBRANCH   1  12
BRANCH   2  14
ATOM     14  O   UNL     1     -47.191 -37.264 -18.007  1.00  0.00    -0.493 OA
ATOM     15  C   UNL     1     -46.804 -38.395 -17.234  1.00  0.00     0.278 C 
ENDBRANCH   2  14
TORSDOF 2
ENDMDL
MODEL 6
REMARK VINA RESULT:    -4.129      1.457      5.027
REMARK INTER + INTRA:          -4.718
REMARK INTER:                  -4.573
REMARK INTRA:                  -0.144
REMARK UNBOUND:                -0.106
REMARK SMILES COc1cc2ccc(=O)oc2cc1OC
REMARK SMILES IDX 3 1 13 2 12 3 11 4 5 5 4 6 6 7 7 8 8 9 9 10 10 11 2 12 1 13
REMARK SMILES IDX 14 14 15 15
REMARK H PARENT
REMARK Flexibility Score: inf
ROOT
ATOM      1  C   UNL     1     -47.891 -40.273 -18.430  1.00  0.00     0.161 A 
ATOM      2  C   UNL     1     -46.806 -39.444 -18.098  1.00  0.00     0.164 A 
ATOM      3  C   UNL     1     -46.970 -38.045 -18.099  1.00  0.00     0.098 A 
ATOM      4  C   UNL     1     -48.202 -37.476 -18.428  1.00  0.00     0.142 A 
ATOM      5  C   UNL     1     -49.291 -38.307 -18.761  1.00  0.00     0.022 A 
ATOM      6  C   UNL     1     -49.135 -39.699 -18.762  1.00  0.00     0.062 A 
ATOM      7  C   UNL     1     -50.513 -37.708 -19.086  1.00  0.00     0.019 A 
ATOM      8  C   UNL     1     -50.619 -36.317 -19.072  1.00  0.00     0.094 A 
ATOM      9  C   UNL     1     -49.496 -35.557 -18.731  1.00  0.00     0.336 A 
ATOM     10  O   UNL     1     -49.571 -34.300 -18.711  1.00  0.00    -0.246 OA
ATOM     11  O   UNL     1     -48.346 -36.152 -18.426  1.00  0.00    -0.423 OA
ENDROOT
BRANCH   1  12
ATOM     12  O   UNL     1     -47.693 -41.663 -18.419  1.00  0.00    -0.493 OA
ATOM     13  C   UNL     1     -47.883 -42.515 -19.542  1.00  0.00     0.278 C 
ENDBRANCH   1  12
BRANCH   2  14
ATOM     14  O   UNL     1     -45.581 -40.049 -17.772  1.00  0.00    -0.493 OA
ATOM     15  C   UNL     1     -44.495 -40.210 -18.677  1.00  0.00     0.278 C 
ENDBRANCH   2  14
TORSDOF 2
ENDMDL
MODEL 7
REMARK VINA RESULT:    -4.068      6.402      8.333
REMARK INTER + INTRA:          -4.650
REMARK INTER:                  -4.483
REMARK INTRA:                  -0.167
REMARK UNBOUND:                -0.106
REMARK SMILES COc1cc2ccc(=O)oc2cc1OC
REMARK SMILES IDX 3 1 13 2 12 3 11 4 5 5 4 6 6 7 7 8 8 9 9 10 10 11 2 12 1 13
REMARK SMILES IDX 14 14 15 15
REMARK H PARENT
REMARK Flexibility Score: inf
ROOT
ATOM      1  C   UNL     1     -42.845 -40.185 -20.238  1.00  0.00     0.161 A 
ATOM      2  C   UNL     1     -43.409 -38.956 -19.853  1.00  0.00     0.164 A 
ATOM      3  C   UNL     1     -42.616 -37.791 -19.858  1.00  0.00     0.098 A 
ATOM      4  C   UNL     1     -41.274 -37.850 -20.242  1.00  0.00     0.142 A 
ATOM      5  C   UNL     1     -40.709 -39.082 -20.628  1.00  0.00     0.022 A 
ATOM      6  C   UNL     1     -41.492 -40.243 -20.625  1.00  0.00     0.062 A 
ATOM      7  C   UNL     1     -39.362 -39.108 -21.007  1.00  0.00     0.019 A 
ATOM      8  C   UNL     1     -38.624 -37.925 -20.994  1.00  0.00     0.094 A 
ATOM      9  C   UNL     1     -39.252 -36.739 -20.600  1.00  0.00     0.336 A 
ATOM     10  O   UNL     1     -38.603 -35.661 -20.581  1.00  0.00    -0.246 OA
ATOM     11  O   UNL     1     -40.534 -36.743 -20.243  1.00  0.00    -0.423 OA
ENDROOT
BRANCH   1  12
ATOM     12  O   UNL     1     -43.664 -41.325 -20.221  1.00  0.00    -0.493 OA
ATOM     13  C   UNL     1     -43.650 -42.315 -19.198  1.00  0.00     0.278 C 
ENDBRANCH   1  12
BRANCH   2  14
ATOM     14  O   UNL     1     -44.760 -38.933 -19.472  1.00  0.00    -0.493 OA
ATOM     15  C   UNL     1     -45.219 -38.887 -18.126  1.00  0.00     0.278 C 
ENDBRANCH   2  14
TORSDOF 2
ENDMDL
MODEL 8
REMARK VINA RESULT:    -3.944      2.558      5.855
REMARK INTER + INTRA:          -4.511
REMARK INTER:                  -4.391
REMARK INTRA:                  -0.120
REMARK UNBOUND:                -0.106
REMARK SMILES COc1cc2ccc(=O)oc2cc1OC
REMARK SMILES IDX 3 1 13 2 12 3 11 4 5 5 4 6 6 7 7 8 8 9 9 10 10 11 2 12 1 13
REMARK SMILES IDX 14 14 15 15
REMARK H PARENT
REMARK Flexibility Score: inf
ROOT
ATOM      1  C   UNL     1     -50.837 -36.971 -19.843  1.00  0.00     0.161 A 
ATOM      2  C   UNL     1     -50.246 -38.233 -20.021  1.00  0.00     0.164 A 
ATOM      3  C   UNL     1     -50.603 -39.021 -21.134  1.00  0.00     0.098 A 
ATOM      4  C   UNL     1     -51.541 -38.556 -22.059  1.00  0.00     0.142 A 
ATOM      5  C   UNL     1     -52.133 -37.289 -21.880  1.00  0.00     0.022 A 
ATOM      6  C   UNL     1     -51.782 -36.502 -20.777  1.00  0.00     0.062 A 
ATOM      7  C   UNL     1     -53.068 -36.851 -22.824  1.00  0.00     0.019 A 
ATOM      8  C   UNL     1     -53.386 -37.672 -23.906  1.00  0.00     0.094 A 
ATOM      9  C   UNL     1     -52.756 -38.916 -24.019  1.00  0.00     0.336 A 
ATOM     10  O   UNL     1     -53.028 -39.671 -24.988  1.00  0.00    -0.246 OA
ATOM     11  O   UNL     1     -51.871 -39.308 -23.107  1.00  0.00    -0.423 OA
ENDROOT
BRANCH   1  12
ATOM     12  O   UNL     1     -50.458 -36.212 -18.724  1.00  0.00    -0.493 OA
ATOM     13  C   UNL     1     -49.540 -35.125 -18.757  1.00  0.00     0.278 C 
ENDBRANCH   1  12
BRANCH   2  14
ATOM     14  O   UNL     1     -49.309 -38.670 -19.072  1.00  0.00    -0.493 OA
ATOM     15  C   UNL     1     -49.038 -40.035 -18.774  1.00  0.00     0.278 C 
ENDBRANCH   2  14
TORSDOF 2
ENDMDL
MODEL 9
REMARK VINA RESULT:    -3.936      3.104      4.921
REMARK INTER + INTRA:          -4.502
REMARK INTER:                  -4.345
REMARK INTRA:                  -0.158
REMARK UNBOUND:                -0.106
REMARK SMILES COc1cc2ccc(=O)oc2cc1OC
REMARK SMILES IDX 3 1 13 2 12 3 11 4 5 5 4 6 6 7 7 8 8 9 9 10 10 11 2 12 1 13
REMARK SMILES IDX 14 14 15 15
REMARK H PARENT
REMARK Flexibility Score: inf
ROOT
ATOM      1  C   UNL     1     -51.131 -38.227 -23.379  1.00  0.00     0.161 A 
ATOM      2  C   UNL     1     -50.272 -37.176 -23.744  1.00  0.00     0.164 A 
ATOM      3  C   UNL     1     -49.691 -36.370 -22.746  1.00  0.00     0.098 A 
ATOM      4  C   UNL     1     -49.964 -36.606 -21.396  1.00  0.00     0.142 A 
ATOM      5  C   UNL     1     -50.826 -37.660 -21.030  1.00  0.00     0.022 A 
ATOM      6  C   UNL     1     -51.406 -38.466 -22.018  1.00  0.00     0.062 A 
ATOM      7  C   UNL     1     -51.079 -37.872 -19.671  1.00  0.00     0.019 A 
ATOM      8  C   UNL     1     -50.478 -37.044 -18.724  1.00  0.00     0.094 A 
ATOM      9  C   UNL     1     -49.633 -36.018 -19.162  1.00  0.00     0.336 A 
ATOM     10  O   UNL     1     -49.081 -35.259 -18.323  1.00  0.00    -0.246 OA
ATOM     11  O   UNL     1     -49.409 -35.838 -20.461  1.00  0.00    -0.423 OA
ENDROOT
BRANCH   1  12
ATOM     12  O   UNL     1     -51.693 -39.011 -24.400  1.00  0.00    -0.493 OA
ATOM     13  C   UNL     1     -53.076 -39.032 -24.734  1.00  0.00     0.278 C 
ENDBRANCH   1  12
BRANCH   2  14
ATOM     14  O   UNL     1     -50.020 -36.965 -25.110  1.00  0.00    -0.493 OA
ATOM     15  C   UNL     1     -50.647 -35.962 -25.901  1.00  0.00     0.278 C 
ENDBRANCH   2  14
TORSDOF 2
ENDMDL
