MODEL 1
REMARK VINA RESULT:    -5.796      0.000      0.000
REMARK INTER + INTRA:          -9.582
REMARK INTER:                  -8.676
REMARK INTRA:                  -0.906
REMARK UNBOUND:                -0.906
REMARK SMILES COC(=O)C1=CO[C@H](O[C@@H]2O[C@H](CO)[C@H](O)[C@@H](O)[C@@H]2O)[C@@H]2C(CO)=CC[C@@H]12
REMARK SMILES IDX 9 1 8 2 5 3 6 4 27 5 7 6 21 7 26 8 22 9 25 10 3 11 4 12 2 13
REMARK SMILES IDX 1 14 23 15 24 16 10 18 19 19 11 20 17 21 12 22 15 23 20 24
REMARK SMILES IDX 18 26 13 28 14 29 16 31
REMARK H PARENT 24 17 20 25 18 27 14 30 16 32
REMARK Flexibility Score: inf
ROOT
ATOM      1  O   UNL     1      20.256   7.231  30.913  1.00  0.00    -0.310 OA
ENDROOT
BRANCH   1   2
ATOM      2  C   UNL     1      20.629   8.599  30.950  1.00  0.00     0.316 C 
ATOM      3  C   UNL     1      23.415   8.704  30.038  1.00  0.00     0.076 C 
ATOM      4  C   UNL     1      23.114   8.886  31.345  1.00  0.00     0.202 C 
ATOM      5  C   UNL     1      22.282   8.308  29.130  1.00  0.00     0.047 C 
ATOM      6  O   UNL     1      21.775   8.806  31.807  1.00  0.00    -0.471 OA
ATOM      7  C   UNL     1      21.024   9.059  29.545  1.00  0.00     0.094 C 
ATOM      8  C   UNL     1      22.363   8.600  27.631  1.00  0.00     0.037 C 
ATOM      9  C   UNL     1      20.142   8.849  28.361  1.00  0.00    -0.039 C 
ATOM     10  C   UNL     1      20.906   8.686  27.275  1.00  0.00    -0.024 C 
BRANCH   3  11
ATOM     11  C   UNL     1      24.810   8.697  29.569  1.00  0.00     0.337 C 
ATOM     12  O   UNL     1      25.337   7.613  29.183  1.00  0.00    -0.246 OA
BRANCH  11  13
ATOM     13  O   UNL     1      25.542   9.892  29.569  1.00  0.00    -0.466 OA
ATOM     14  C   UNL     1      26.913   9.967  29.203  1.00  0.00     0.282 C 
ENDBRANCH  11  13
ENDBRANCH   3  11
BRANCH   9  15
ATOM     15  C   UNL     1      18.649   9.051  28.320  1.00  0.00     0.187 C 
BRANCH  15  16
ATOM     16  O   UNL     1      18.274   9.670  27.118  1.00  0.00    -0.392 OA
ATOM     17  H   UNL     1      17.358  10.033  27.259  1.00  0.00     0.211 HD
ENDBRANCH  15  16
ENDBRANCH   9  15
ENDBRANCH   1   2
BRANCH   1  18
ATOM     18  C   UNL     1      20.825   6.491  31.981  1.00  0.00     0.286 C 
ATOM     19  C   UNL     1      19.755   6.108  33.043  1.00  0.00     0.202 C 
ATOM     20  O   UNL     1      21.370   5.306  31.431  1.00  0.00    -0.341 OA
ATOM     21  C   UNL     1      20.128   4.792  33.782  1.00  0.00     0.179 C 
ATOM     22  C   UNL     1      22.226   4.637  32.353  1.00  0.00     0.178 C 
ATOM     23  C   UNL     1      21.654   4.622  33.815  1.00  0.00     0.177 C 
BRANCH  19  24
ATOM     24  O   UNL     1      18.475   6.001  32.471  1.00  0.00    -0.385 OA
ATOM     25  H   UNL     1      18.399   6.713  31.782  1.00  0.00     0.211 HD
ENDBRANCH  19  24
BRANCH  21  26
ATOM     26  O   UNL     1      19.617   4.798  35.090  1.00  0.00    -0.387 OA
ATOM     27  H   UNL     1      20.193   4.188  35.617  1.00  0.00     0.211 HD
ENDBRANCH  21  26
BRANCH  22  28
ATOM     28  C   UNL     1      22.487   3.224  31.804  1.00  0.00     0.191 C 
BRANCH  28  29
ATOM     29  O   UNL     1      21.387   2.389  32.050  1.00  0.00    -0.394 OA
ATOM     30  H   UNL     1      20.584   2.867  31.705  1.00  0.00     0.210 HD
ENDBRANCH  28  29
ENDBRANCH  22  28
BRANCH  23  31
ATOM     31  O   UNL     1      21.986   3.442  34.504  1.00  0.00    -0.387 OA
ATOM     32  H   UNL     1      21.717   2.686  33.919  1.00  0.00     0.211 HD
ENDBRANCH  23  31
ENDBRANCH   1  18
TORSDOF 11
ENDMDL
MODEL 2
REMARK VINA RESULT:    -5.777     11.214     14.376
REMARK INTER + INTRA:          -9.554
REMARK INTER:                  -8.291
REMARK INTRA:                  -1.263
REMARK UNBOUND:                -0.906
REMARK SMILES COC(=O)C1=CO[C@H](O[C@@H]2O[C@H](CO)[C@H](O)[C@@H](O)[C@@H]2O)[C@@H]2C(CO)=CC[C@@H]12
REMARK SMILES IDX 9 1 8 2 5 3 6 4 27 5 7 6 21 7 26 8 22 9 25 10 3 11 4 12 2 13
REMARK SMILES IDX 1 14 23 15 24 16 10 18 19 19 11 20 17 21 12 22 15 23 20 24
REMARK SMILES IDX 18 26 13 28 14 29 16 31
REMARK H PARENT 24 17 20 25 18 27 14 30 16 32
REMARK Flexibility Score: inf
ROOT
ATOM      1  O   UNL     1      27.527   2.284  19.763  1.00  0.00    -0.310 OA
ENDROOT
BRANCH   1   2
ATOM      2  C   UNL     1      28.767   2.308  20.453  1.00  0.00     0.316 C 
ATOM      3  C   UNL     1      28.264   3.715  22.977  1.00  0.00     0.076 C 
ATOM      4  C   UNL     1      28.956   4.317  21.981  1.00  0.00     0.202 C 
ATOM      5  C   UNL     1      27.657   2.374  22.665  1.00  0.00     0.047 C 
ATOM      6  O   UNL     1      29.179   3.662  20.743  1.00  0.00    -0.471 OA
ATOM      7  C   UNL     1      28.620   1.581  21.792  1.00  0.00     0.094 C 
ATOM      8  C   UNL     1      27.348   1.391  23.795  1.00  0.00     0.037 C 
ATOM      9  C   UNL     1      28.057   0.204  21.894  1.00  0.00    -0.039 C 
ATOM     10  C   UNL     1      27.424   0.080  23.066  1.00  0.00    -0.024 C 
BRANCH   3  11
ATOM     11  C   UNL     1      27.952   4.424  24.228  1.00  0.00     0.337 C 
ATOM     12  O   UNL     1      28.892   4.867  24.951  1.00  0.00    -0.246 OA
BRANCH  11  13
ATOM     13  O   UNL     1      26.613   4.587  24.611  1.00  0.00    -0.466 OA
ATOM     14  C   UNL     1      26.160   5.660  25.424  1.00  0.00     0.282 C 
ENDBRANCH  11  13
ENDBRANCH   3  11
BRANCH   9  15
ATOM     15  C   UNL     1      28.362  -0.950  20.974  1.00  0.00     0.187 C 
BRANCH  15  16
ATOM     16  O   UNL     1      27.604  -0.850  19.798  1.00  0.00    -0.392 OA
ATOM     17  H   UNL     1      28.132  -1.292  19.080  1.00  0.00     0.211 HD
ENDBRANCH  15  16
ENDBRANCH   9  15
ENDBRANCH   1   2
BRANCH   1  18
ATOM     18  C   UNL     1      27.621   2.870  18.475  1.00  0.00     0.286 C 
ATOM     19  C   UNL     1      27.177   1.877  17.363  1.00  0.00     0.202 C 
ATOM     20  O   UNL     1      26.758   3.992  18.458  1.00  0.00    -0.341 OA
ATOM     21  C   UNL     1      26.599   2.621  16.127  1.00  0.00     0.179 C 
ATOM     22  C   UNL     1      26.996   4.828  17.328  1.00  0.00     0.178 C 
ATOM     23  C   UNL     1      27.236   4.014  16.007  1.00  0.00     0.177 C 
BRANCH  19  24
ATOM     24  O   UNL     1      26.247   0.941  17.849  1.00  0.00    -0.385 OA
ATOM     25  H   UNL     1      26.757   0.247  18.343  1.00  0.00     0.211 HD
ENDBRANCH  19  24
BRANCH  21  26
ATOM     26  O   UNL     1      26.830   1.885  14.954  1.00  0.00    -0.387 OA
ATOM     27  H   UNL     1      27.720   2.164  14.621  1.00  0.00     0.211 HD
ENDBRANCH  21  26
BRANCH  22  28
ATOM     28  C   UNL     1      25.813   5.806  17.215  1.00  0.00     0.191 C 
BRANCH  28  29
ATOM     29  O   UNL     1      25.892   6.790  18.212  1.00  0.00    -0.394 OA
ATOM     30  H   UNL     1      24.963   6.944  18.535  1.00  0.00     0.210 HD
ENDBRANCH  28  29
ENDBRANCH  22  28
BRANCH  23  31
ATOM     31  O   UNL     1      26.726   4.674  14.875  1.00  0.00    -0.387 OA
ATOM     32  H   UNL     1      27.256   4.354  14.098  1.00  0.00     0.211 HD
ENDBRANCH  23  31
ENDBRANCH   1  18
TORSDOF 11
ENDMDL
MODEL 3
REMARK VINA RESULT:    -5.762     11.117     13.347
REMARK INTER + INTRA:          -9.531
REMARK INTER:                  -7.941
REMARK INTRA:                  -1.590
REMARK UNBOUND:                -0.906
REMARK SMILES COC(=O)C1=CO[C@H](O[C@@H]2O[C@H](CO)[C@H](O)[C@@H](O)[C@@H]2O)[C@@H]2C(CO)=CC[C@@H]12
REMARK SMILES IDX 9 1 8 2 5 3 6 4 27 5 7 6 21 7 26 8 22 9 25 10 3 11 4 12 2 13
REMARK SMILES IDX 1 14 23 15 24 16 10 18 19 19 11 20 17 21 12 22 15 23 20 24
REMARK SMILES IDX 18 26 13 28 14 29 16 31
REMARK H PARENT 24 17 20 25 18 27 14 30 16 32
REMARK Flexibility Score: inf
ROOT
ATOM      1  O   UNL     1      29.564   1.005  22.762  1.00  0.00    -0.310 OA
ENDROOT
BRANCH   1   2
ATOM      2  C   UNL     1      28.233   1.300  22.370  1.00  0.00     0.316 C 
ATOM      3  C   UNL     1      27.244   3.290  24.285  1.00  0.00     0.076 C 
ATOM      4  C   UNL     1      26.807   2.010  24.338  1.00  0.00     0.202 C 
ATOM      5  C   UNL     1      28.349   3.589  23.307  1.00  0.00     0.047 C 
ATOM      6  O   UNL     1      27.299   1.029  23.440  1.00  0.00    -0.471 OA
ATOM      7  C   UNL     1      28.118   2.789  22.033  1.00  0.00     0.094 C 
ATOM      8  C   UNL     1      28.540   5.011  22.777  1.00  0.00     0.037 C 
ATOM      9  C   UNL     1      29.044   3.465  21.079  1.00  0.00    -0.039 C 
ATOM     10  C   UNL     1      29.199   4.739  21.455  1.00  0.00    -0.024 C 
BRANCH   3  11
ATOM     11  C   UNL     1      26.804   4.290  25.272  1.00  0.00     0.337 C 
ATOM     12  O   UNL     1      25.584   4.619  25.331  1.00  0.00    -0.246 OA
BRANCH  11  13
ATOM     13  O   UNL     1      27.750   4.876  26.125  1.00  0.00    -0.466 OA
ATOM     14  C   UNL     1      27.774   6.264  26.425  1.00  0.00     0.282 C 
ENDBRANCH  11  13
ENDBRANCH   3  11
BRANCH   9  15
ATOM     15  C   UNL     1      29.522   2.909  19.762  1.00  0.00     0.187 C 
BRANCH  15  16
ATOM     16  O   UNL     1      30.602   2.037  19.965  1.00  0.00    -0.392 OA
ATOM     17  H   UNL     1      31.419   2.522  19.668  1.00  0.00     0.211 HD
ENDBRANCH  15  16
ENDBRANCH   9  15
ENDBRANCH   1   2
BRANCH   1  18
ATOM     18  C   UNL     1      30.038  -0.199  22.184  1.00  0.00     0.286 C 
ATOM     19  C   UNL     1      30.070  -1.357  23.222  1.00  0.00     0.202 C 
ATOM     20  O   UNL     1      29.148  -0.545  21.139  1.00  0.00    -0.341 OA
ATOM     21  C   UNL     1      29.883  -2.742  22.542  1.00  0.00     0.179 C 
ATOM     22  C   UNL     1      29.686  -1.563  20.298  1.00  0.00     0.178 C 
ATOM     23  C   UNL     1      30.416  -2.696  21.102  1.00  0.00     0.177 C 
BRANCH  19  24
ATOM     24  O   UNL     1      29.105  -1.173  24.229  1.00  0.00    -0.385 OA
ATOM     25  H   UNL     1      28.411  -0.564  23.865  1.00  0.00     0.211 HD
ENDBRANCH  19  24
BRANCH  21  26
ATOM     26  O   UNL     1      30.549  -3.743  23.268  1.00  0.00    -0.387 OA
ATOM     27  H   UNL     1      31.468  -3.788  22.902  1.00  0.00     0.211 HD
ENDBRANCH  21  26
BRANCH  22  28
ATOM     28  C   UNL     1      28.538  -2.099  19.425  1.00  0.00     0.191 C 
BRANCH  28  29
ATOM     29  O   UNL     1      29.035  -2.599  18.212  1.00  0.00    -0.394 OA
ATOM     30  H   UNL     1      30.019  -2.694  18.325  1.00  0.00     0.210 HD
ENDBRANCH  28  29
ENDBRANCH  22  28
BRANCH  23  31
ATOM     31  O   UNL     1      30.265  -3.957  20.499  1.00  0.00    -0.387 OA
ATOM     32  H   UNL     1      31.077  -4.481  20.731  1.00  0.00     0.211 HD
ENDBRANCH  23  31
ENDBRANCH   1  18
TORSDOF 11
ENDMDL
MODEL 4
REMARK VINA RESULT:    -5.657      2.244      6.832
REMARK INTER + INTRA:          -9.375
REMARK INTER:                  -8.547
REMARK INTRA:                  -0.828
REMARK UNBOUND:                -0.906
REMARK SMILES COC(=O)C1=CO[C@H](O[C@@H]2O[C@H](CO)[C@H](O)[C@@H](O)[C@@H]2O)[C@@H]2C(CO)=CC[C@@H]12
REMARK SMILES IDX 9 1 8 2 5 3 6 4 27 5 7 6 21 7 26 8 22 9 25 10 3 11 4 12 2 13
REMARK SMILES IDX 1 14 23 15 24 16 10 18 19 19 11 20 17 21 12 22 15 23 20 24
REMARK SMILES IDX 18 26 13 28 14 29 16 31
REMARK H PARENT 24 17 20 25 18 27 14 30 16 32
REMARK Flexibility Score: inf
ROOT
ATOM      1  O   UNL     1      22.961   6.047  31.005  1.00  0.00    -0.310 OA
ENDROOT
BRANCH   1   2
ATOM      2  C   UNL     1      21.943   5.580  31.876  1.00  0.00     0.316 C 
ATOM      3  C   UNL     1      23.198   3.546  33.577  1.00  0.00     0.076 C 
ATOM      4  C   UNL     1      22.341   3.185  32.593  1.00  0.00     0.202 C 
ATOM      5  C   UNL     1      23.573   5.002  33.648  1.00  0.00     0.047 C 
ATOM      6  O   UNL     1      21.751   4.154  31.741  1.00  0.00    -0.471 OA
ATOM      7  C   UNL     1      22.349   5.849  33.327  1.00  0.00     0.094 C 
ATOM      8  C   UNL     1      24.058   5.606  34.967  1.00  0.00     0.037 C 
ATOM      9  C   UNL     1      22.782   7.197  33.797  1.00  0.00    -0.039 C 
ATOM     10  C   UNL     1      23.673   7.046  34.783  1.00  0.00    -0.024 C 
BRANCH   3  11
ATOM     11  C   UNL     1      23.882   2.539  34.403  1.00  0.00     0.337 C 
ATOM     12  O   UNL     1      25.141   2.575  34.524  1.00  0.00    -0.246 OA
BRANCH  11  13
ATOM     13  O   UNL     1      23.126   1.542  35.037  1.00  0.00    -0.466 OA
ATOM     14  C   UNL     1      23.241   0.161  34.724  1.00  0.00     0.282 C 
ENDBRANCH  11  13
ENDBRANCH   3  11
BRANCH   9  15
ATOM     15  C   UNL     1      22.144   8.512  33.429  1.00  0.00     0.187 C 
BRANCH  15  16
ATOM     16  O   UNL     1      23.106   9.394  32.919  1.00  0.00    -0.392 OA
ATOM     17  H   UNL     1      23.582   9.781  33.703  1.00  0.00     0.211 HD
ENDBRANCH  15  16
ENDBRANCH   9  15
ENDBRANCH   1   2
BRANCH   1  18
ATOM     18  C   UNL     1      22.551   7.182  30.261  1.00  0.00     0.286 C 
ATOM     19  C   UNL     1      23.067   7.121  28.795  1.00  0.00     0.202 C 
ATOM     20  O   UNL     1      21.136   7.190  30.249  1.00  0.00    -0.341 OA
ATOM     21  C   UNL     1      22.121   7.880  27.823  1.00  0.00     0.179 C 
ATOM     22  C   UNL     1      20.615   8.437  29.795  1.00  0.00     0.178 C 
ATOM     23  C   UNL     1      21.404   9.016  28.568  1.00  0.00     0.177 C 
BRANCH  19  24
ATOM     24  O   UNL     1      23.244   5.793  28.366  1.00  0.00    -0.385 OA
ATOM     25  H   UNL     1      23.154   5.210  29.165  1.00  0.00     0.211 HD
ENDBRANCH  19  24
BRANCH  21  26
ATOM     26  O   UNL     1      22.843   8.400  26.737  1.00  0.00    -0.387 OA
ATOM     27  H   UNL     1      22.177   8.619  26.038  1.00  0.00     0.211 HD
ENDBRANCH  21  26
BRANCH  22  28
ATOM     28  C   UNL     1      19.119   8.236  29.496  1.00  0.00     0.191 C 
BRANCH  28  29
ATOM     29  O   UNL     1      18.712   6.945  29.869  1.00  0.00    -0.394 OA
ATOM     30  H   UNL     1      18.293   7.027  30.767  1.00  0.00     0.210 HD
ENDBRANCH  28  29
ENDBRANCH  22  28
BRANCH  23  31
ATOM     31  O   UNL     1      20.568   9.714  27.679  1.00  0.00    -0.387 OA
ATOM     32  H   UNL     1      21.154  10.073  26.961  1.00  0.00     0.211 HD
ENDBRANCH  23  31
ENDBRANCH   1  18
TORSDOF 11
ENDMDL
MODEL 5
REMARK VINA RESULT:    -5.511      2.132      5.589
REMARK INTER + INTRA:          -9.155
REMARK INTER:                  -7.702
REMARK INTRA:                  -1.453
REMARK UNBOUND:                -0.906
REMARK SMILES COC(=O)C1=CO[C@H](O[C@@H]2O[C@H](CO)[C@H](O)[C@@H](O)[C@@H]2O)[C@@H]2C(CO)=CC[C@@H]12
REMARK SMILES IDX 9 1 8 2 5 3 6 4 27 5 7 6 21 7 26 8 22 9 25 10 3 11 4 12 2 13
REMARK SMILES IDX 1 14 23 15 24 16 10 18 19 19 11 20 17 21 12 22 15 23 20 24
REMARK SMILES IDX 18 26 13 28 14 29 16 31
REMARK H PARENT 24 17 20 25 18 27 14 30 16 32
REMARK Flexibility Score: inf
ROOT
ATOM      1  O   UNL     1      22.591   7.599  31.567  1.00  0.00    -0.310 OA
ENDROOT
BRANCH   1   2
ATOM      2  C   UNL     1      21.656   8.616  31.889  1.00  0.00     0.316 C 
ATOM      3  C   UNL     1      20.223   9.217  29.400  1.00  0.00     0.076 C 
ATOM      4  C   UNL     1      21.138  10.084  29.892  1.00  0.00     0.202 C 
ATOM      5  C   UNL     1      20.095   7.894  30.108  1.00  0.00     0.047 C 
ATOM      6  O   UNL     1      21.863   9.794  31.076  1.00  0.00    -0.471 OA
ATOM      7  C   UNL     1      20.238   8.113  31.607  1.00  0.00     0.094 C 
ATOM      8  C   UNL     1      18.795   7.095  30.011  1.00  0.00     0.037 C 
ATOM      9  C   UNL     1      19.727   6.823  32.152  1.00  0.00    -0.039 C 
ATOM     10  C   UNL     1      18.846   6.306  31.288  1.00  0.00    -0.024 C 
BRANCH   3  11
ATOM     11  C   UNL     1      19.535   9.472  28.125  1.00  0.00     0.337 C 
ATOM     12  O   UNL     1      18.451  10.125  28.115  1.00  0.00    -0.246 OA
BRANCH  11  13
ATOM     13  O   UNL     1      20.085   8.974  26.935  1.00  0.00    -0.466 OA
ATOM     14  C   UNL     1      21.482   8.816  26.730  1.00  0.00     0.282 C 
ENDBRANCH  11  13
ENDBRANCH   3  11
BRANCH   9  15
ATOM     15  C   UNL     1      19.944   6.302  33.550  1.00  0.00     0.187 C 
BRANCH  15  16
ATOM     16  O   UNL     1      21.245   5.797  33.685  1.00  0.00    -0.392 OA
ATOM     17  H   UNL     1      21.776   6.500  34.148  1.00  0.00     0.211 HD
ENDBRANCH  15  16
ENDBRANCH   9  15
ENDBRANCH   1   2
BRANCH   1  18
ATOM     18  C   UNL     1      23.931   8.046  31.692  1.00  0.00     0.286 C 
ATOM     19  C   UNL     1      24.689   7.271  32.808  1.00  0.00     0.202 C 
ATOM     20  O   UNL     1      24.573   7.808  30.453  1.00  0.00    -0.341 OA
ATOM     21  C   UNL     1      26.215   7.195  32.518  1.00  0.00     0.179 C 
ATOM     22  C   UNL     1      25.823   8.487  30.363  1.00  0.00     0.178 C 
ATOM     23  C   UNL     1      26.653   8.414  31.692  1.00  0.00     0.177 C 
BRANCH  19  24
ATOM     24  O   UNL     1      24.162   5.980  32.989  1.00  0.00    -0.385 OA
ATOM     25  H   UNL     1      24.874   5.426  33.405  1.00  0.00     0.211 HD
ENDBRANCH  19  24
BRANCH  21  26
ATOM     26  O   UNL     1      26.943   7.140  33.716  1.00  0.00    -0.387 OA
ATOM     27  H   UNL     1      26.654   7.919  34.255  1.00  0.00     0.211 HD
ENDBRANCH  21  26
BRANCH  22  28
ATOM     28  C   UNL     1      26.581   7.907  29.156  1.00  0.00     0.191 C 
BRANCH  28  29
ATOM     29  O   UNL     1      27.325   8.909  28.515  1.00  0.00    -0.394 OA
ATOM     30  H   UNL     1      27.171   9.749  29.026  1.00  0.00     0.210 HD
ENDBRANCH  28  29
ENDBRANCH  22  28
BRANCH  23  31
ATOM     31  O   UNL     1      28.037   8.352  31.453  1.00  0.00    -0.387 OA
ATOM     32  H   UNL     1      28.227   8.991  30.716  1.00  0.00     0.211 HD
ENDBRANCH  23  31
ENDBRANCH   1  18
TORSDOF 11
ENDMDL
MODEL 6
REMARK VINA RESULT:    -5.491      2.837      6.878
REMARK INTER + INTRA:          -9.125
REMARK INTER:                  -7.640
REMARK INTRA:                  -1.485
REMARK UNBOUND:                -0.906
REMARK SMILES COC(=O)C1=CO[C@H](O[C@@H]2O[C@H](CO)[C@H](O)[C@@H](O)[C@@H]2O)[C@@H]2C(CO)=CC[C@@H]12
REMARK SMILES IDX 9 1 8 2 5 3 6 4 27 5 7 6 21 7 26 8 22 9 25 10 3 11 4 12 2 13
REMARK SMILES IDX 1 14 23 15 24 16 10 18 19 19 11 20 17 21 12 22 15 23 20 24
REMARK SMILES IDX 18 26 13 28 14 29 16 31
REMARK H PARENT 24 17 20 25 18 27 14 30 16 32
REMARK Flexibility Score: inf
ROOT
ATOM      1  O   UNL     1      25.128   7.885  30.268  1.00  0.00    -0.310 OA
ENDROOT
BRANCH   1   2
ATOM      2  C   UNL     1      24.259   8.913  30.716  1.00  0.00     0.316 C 
ATOM      3  C   UNL     1      22.193   9.186  28.653  1.00  0.00     0.076 C 
ATOM      4  C   UNL     1      23.159  10.125  28.784  1.00  0.00     0.202 C 
ATOM      5  C   UNL     1      22.324   7.954  29.506  1.00  0.00     0.047 C 
ATOM      6  O   UNL     1      24.184   9.991  29.756  1.00  0.00    -0.471 OA
ATOM      7  C   UNL     1      22.845   8.351  30.881  1.00  0.00     0.094 C 
ATOM      8  C   UNL     1      21.087   7.122  29.848  1.00  0.00     0.037 C 
ATOM      9  C   UNL     1      22.563   7.123  31.678  1.00  0.00    -0.039 C 
ATOM     10  C   UNL     1      21.513   6.490  31.143  1.00  0.00    -0.024 C 
BRANCH   3  11
ATOM     11  C   UNL     1      21.181   9.275  27.588  1.00  0.00     0.337 C 
ATOM     12  O   UNL     1      21.344   8.631  26.511  1.00  0.00    -0.246 OA
BRANCH  11  13
ATOM     13  O   UNL     1      20.053  10.087  27.777  1.00  0.00    -0.466 OA
ATOM     14  C   UNL     1      18.751   9.568  28.009  1.00  0.00     0.282 C 
ENDBRANCH  11  13
ENDBRANCH   3  11
BRANCH   9  15
ATOM     15  C   UNL     1      23.167   6.775  33.014  1.00  0.00     0.187 C 
BRANCH  15  16
ATOM     16  O   UNL     1      24.436   6.204  32.842  1.00  0.00    -0.392 OA
ATOM     17  H   UNL     1      25.008   6.554  33.578  1.00  0.00     0.211 HD
ENDBRANCH  15  16
ENDBRANCH   9  15
ENDBRANCH   1   2
BRANCH   1  18
ATOM     18  C   UNL     1      26.421   8.377  29.952  1.00  0.00     0.286 C 
ATOM     19  C   UNL     1      27.353   8.371  31.197  1.00  0.00     0.202 C 
ATOM     20  O   UNL     1      26.968   7.522  28.966  1.00  0.00    -0.341 OA
ATOM     21  C   UNL     1      28.846   8.205  30.793  1.00  0.00     0.179 C 
ATOM     22  C   UNL     1      28.127   8.086  28.357  1.00  0.00     0.178 C 
ATOM     23  C   UNL     1      29.078   8.786  29.391  1.00  0.00     0.177 C 
BRANCH  19  24
ATOM     24  O   UNL     1      26.982   7.373  32.115  1.00  0.00    -0.385 OA
ATOM     25  H   UNL     1      26.193   6.903  31.737  1.00  0.00     0.211 HD
ENDBRANCH  19  24
BRANCH  21  26
ATOM     26  O   UNL     1      29.682   8.844  31.722  1.00  0.00    -0.387 OA
ATOM     27  H   UNL     1      30.110   8.126  32.253  1.00  0.00     0.211 HD
ENDBRANCH  21  26
BRANCH  22  28
ATOM     28  C   UNL     1      28.829   6.968  27.567  1.00  0.00     0.191 C 
BRANCH  28  29
ATOM     29  O   UNL     1      29.114   5.879  28.405  1.00  0.00    -0.394 OA
ATOM     30  H   UNL     1      28.585   6.014  29.237  1.00  0.00     0.210 HD
ENDBRANCH  28  29
ENDBRANCH  22  28
BRANCH  23  31
ATOM     31  O   UNL     1      30.433   8.654  29.041  1.00  0.00    -0.387 OA
ATOM     32  H   UNL     1      30.647   9.416  28.440  1.00  0.00     0.211 HD
ENDBRANCH  23  31
ENDBRANCH   1  18
TORSDOF 11
ENDMDL
MODEL 7
REMARK VINA RESULT:    -5.485     10.952     13.432
REMARK INTER + INTRA:          -9.117
REMARK INTER:                  -8.382
REMARK INTRA:                  -0.735
REMARK UNBOUND:                -0.906
REMARK SMILES COC(=O)C1=CO[C@H](O[C@@H]2O[C@H](CO)[C@H](O)[C@@H](O)[C@@H]2O)[C@@H]2C(CO)=CC[C@@H]12
REMARK SMILES IDX 9 1 8 2 5 3 6 4 27 5 7 6 21 7 26 8 22 9 25 10 3 11 4 12 2 13
REMARK SMILES IDX 1 14 23 15 24 16 10 18 19 19 11 20 17 21 12 22 15 23 20 24
REMARK SMILES IDX 18 26 13 28 14 29 16 31
REMARK H PARENT 24 17 20 25 18 27 14 30 16 32
REMARK Flexibility Score: inf
ROOT
ATOM      1  O   UNL     1      29.310   1.663  21.528  1.00  0.00    -0.310 OA
ENDROOT
BRANCH   1   2
ATOM      2  C   UNL     1      28.118   2.376  21.237  1.00  0.00     0.316 C 
ATOM      3  C   UNL     1      26.724   2.705  23.798  1.00  0.00     0.076 C 
ATOM      4  C   UNL     1      26.268   1.825  22.876  1.00  0.00     0.202 C 
ATOM      5  C   UNL     1      28.037   3.378  23.500  1.00  0.00     0.047 C 
ATOM      6  O   UNL     1      26.949   1.631  21.646  1.00  0.00    -0.471 OA
ATOM      7  C   UNL     1      28.110   3.696  22.013  1.00  0.00     0.094 C 
ATOM      8  C   UNL     1      28.372   4.724  24.144  1.00  0.00     0.037 C 
ATOM      9  C   UNL     1      29.250   4.656  21.965  1.00  0.00    -0.039 C 
ATOM     10  C   UNL     1      29.328   5.295  23.137  1.00  0.00    -0.024 C 
BRANCH   3  11
ATOM     11  C   UNL     1      26.073   2.843  25.110  1.00  0.00     0.337 C 
ATOM     12  O   UNL     1      26.727   2.597  26.165  1.00  0.00    -0.246 OA
BRANCH  11  13
ATOM     13  O   UNL     1      24.728   3.234  25.172  1.00  0.00    -0.466 OA
ATOM     14  C   UNL     1      23.751   2.545  25.940  1.00  0.00     0.282 C 
ENDBRANCH  11  13
ENDBRANCH   3  11
BRANCH   9  15
ATOM     15  C   UNL     1      30.025   5.052  20.734  1.00  0.00     0.187 C 
BRANCH  15  16
ATOM     16  O   UNL     1      29.152   5.500  19.732  1.00  0.00    -0.392 OA
ATOM     17  H   UNL     1      29.476   5.109  18.876  1.00  0.00     0.211 HD
ENDBRANCH  15  16
ENDBRANCH   9  15
ENDBRANCH   1   2
BRANCH   1  18
ATOM     18  C   UNL     1      29.446   0.500  20.728  1.00  0.00     0.286 C 
ATOM     19  C   UNL     1      29.451  -0.791  21.596  1.00  0.00     0.202 C 
ATOM     20  O   UNL     1      28.336   0.458  19.851  1.00  0.00    -0.341 OA
ATOM     21  C   UNL     1      28.897  -2.012  20.809  1.00  0.00     0.179 C 
ATOM     22  C   UNL     1      28.521  -0.493  18.805  1.00  0.00     0.178 C 
ATOM     23  C   UNL     1      29.164  -1.834  19.307  1.00  0.00     0.177 C 
BRANCH  19  24
ATOM     24  O   UNL     1      28.731  -0.613  22.791  1.00  0.00    -0.385 OA
ATOM     25  H   UNL     1      29.039   0.240  23.197  1.00  0.00     0.211 HD
ENDBRANCH  19  24
BRANCH  21  26
ATOM     26  O   UNL     1      29.489  -3.202  21.263  1.00  0.00    -0.387 OA
ATOM     27  H   UNL     1      28.770  -3.718  21.708  1.00  0.00     0.211 HD
ENDBRANCH  21  26
BRANCH  22  28
ATOM     28  C   UNL     1      27.158  -0.707  18.124  1.00  0.00     0.191 C 
BRANCH  28  29
ATOM     29  O   UNL     1      26.204  -1.138  19.058  1.00  0.00    -0.394 OA
ATOM     30  H   UNL     1      26.581  -0.947  19.959  1.00  0.00     0.210 HD
ENDBRANCH  28  29
ENDBRANCH  22  28
BRANCH  23  31
ATOM     31  O   UNL     1      28.682  -2.951  18.603  1.00  0.00    -0.387 OA
ATOM     32  H   UNL     1      27.768  -3.131  18.948  1.00  0.00     0.211 HD
ENDBRANCH  23  31
ENDBRANCH   1  18
TORSDOF 11
ENDMDL
MODEL 8
REMARK VINA RESULT:    -5.462      9.743     12.225
REMARK INTER + INTRA:          -9.082
REMARK INTER:                  -8.016
REMARK INTRA:                  -1.065
REMARK UNBOUND:                -0.906
REMARK SMILES COC(=O)C1=CO[C@H](O[C@@H]2O[C@H](CO)[C@H](O)[C@@H](O)[C@@H]2O)[C@@H]2C(CO)=CC[C@@H]12
REMARK SMILES IDX 9 1 8 2 5 3 6 4 27 5 7 6 21 7 26 8 22 9 25 10 3 11 4 12 2 13
REMARK SMILES IDX 1 14 23 15 24 16 10 18 19 19 11 20 17 21 12 22 15 23 20 24
REMARK SMILES IDX 18 26 13 28 14 29 16 31
REMARK H PARENT 24 17 20 25 18 27 14 30 16 32
REMARK Flexibility Score: inf
ROOT
ATOM      1  O   UNL     1      27.667   3.110  21.942  1.00  0.00    -0.310 OA
ENDROOT
BRANCH   1   2
ATOM      2  C   UNL     1      28.520   2.938  23.062  1.00  0.00     0.316 C 
ATOM      3  C   UNL     1      29.546   5.606  23.720  1.00  0.00     0.076 C 
ATOM      4  C   UNL     1      30.348   4.689  23.132  1.00  0.00     0.202 C 
ATOM      5  C   UNL     1      28.095   5.237  23.877  1.00  0.00     0.047 C 
ATOM      6  O   UNL     1      29.859   3.405  22.778  1.00  0.00    -0.471 OA
ATOM      7  C   UNL     1      27.992   3.761  24.239  1.00  0.00     0.094 C 
ATOM      8  C   UNL     1      27.246   5.905  24.960  1.00  0.00     0.037 C 
ATOM      9  C   UNL     1      26.580   3.664  24.710  1.00  0.00    -0.039 C 
ATOM     10  C   UNL     1      26.204   4.850  25.200  1.00  0.00    -0.024 C 
BRANCH   3  11
ATOM     11  C   UNL     1      30.023   6.968  24.006  1.00  0.00     0.337 C 
ATOM     12  O   UNL     1      30.039   7.835  23.085  1.00  0.00    -0.246 OA
BRANCH  11  13
ATOM     13  O   UNL     1      30.470   7.283  25.298  1.00  0.00    -0.466 OA
ATOM     14  C   UNL     1      30.734   6.303  26.291  1.00  0.00     0.282 C 
ENDBRANCH  11  13
ENDBRANCH   3  11
BRANCH   9  15
ATOM     15  C   UNL     1      25.784   2.394  24.869  1.00  0.00     0.187 C 
BRANCH  15  16
ATOM     16  O   UNL     1      24.412   2.682  24.918  1.00  0.00    -0.392 OA
ATOM     17  H   UNL     1      23.939   1.875  24.578  1.00  0.00     0.211 HD
ENDBRANCH  15  16
ENDBRANCH   9  15
ENDBRANCH   1   2
BRANCH   1  18
ATOM     18  C   UNL     1      27.280   1.872  21.369  1.00  0.00     0.286 C 
ATOM     19  C   UNL     1      26.933   2.026  19.860  1.00  0.00     0.202 C 
ATOM     20  O   UNL     1      28.375   0.986  21.499  1.00  0.00    -0.341 OA
ATOM     21  C   UNL     1      27.200   0.712  19.074  1.00  0.00     0.179 C 
ATOM     22  C   UNL     1      28.000  -0.364  21.235  1.00  0.00     0.178 C 
ATOM     23  C   UNL     1      27.035  -0.499  20.004  1.00  0.00     0.177 C 
BRANCH  19  24
ATOM     24  O   UNL     1      27.635   3.096  19.276  1.00  0.00    -0.385 OA
ATOM     25  H   UNL     1      28.599   2.860  19.291  1.00  0.00     0.211 HD
ENDBRANCH  19  24
BRANCH  21  26
ATOM     26  O   UNL     1      26.324   0.602  17.983  1.00  0.00    -0.387 OA
ATOM     27  H   UNL     1      26.417   1.441  17.465  1.00  0.00     0.211 HD
ENDBRANCH  21  26
BRANCH  22  28
ATOM     28  C   UNL     1      29.293  -1.181  21.067  1.00  0.00     0.191 C 
BRANCH  28  29
ATOM     29  O   UNL     1      29.094  -2.507  21.482  1.00  0.00    -0.394 OA
ATOM     30  H   UNL     1      29.996  -2.887  21.664  1.00  0.00     0.210 HD
ENDBRANCH  28  29
ENDBRANCH  22  28
BRANCH  23  31
ATOM     31  O   UNL     1      27.256  -1.685  19.282  1.00  0.00    -0.387 OA
ATOM     32  H   UNL     1      27.989  -2.168  19.747  1.00  0.00     0.211 HD
ENDBRANCH  23  31
ENDBRANCH   1  18
TORSDOF 11
ENDMDL
MODEL 9
REMARK VINA RESULT:    -5.400     13.481     15.586
REMARK INTER + INTRA:          -8.989
REMARK INTER:                  -7.379
REMARK INTRA:                  -1.610
REMARK UNBOUND:                -0.906
REMARK SMILES COC(=O)C1=CO[C@H](O[C@@H]2O[C@H](CO)[C@H](O)[C@@H](O)[C@@H]2O)[C@@H]2C(CO)=CC[C@@H]12
REMARK SMILES IDX 9 1 8 2 5 3 6 4 27 5 7 6 21 7 26 8 22 9 25 10 3 11 4 12 2 13
REMARK SMILES IDX 1 14 23 15 24 16 10 18 19 19 11 20 17 21 12 22 15 23 20 24
REMARK SMILES IDX 18 26 13 28 14 29 16 31
REMARK H PARENT 24 17 20 25 18 27 14 30 16 32
REMARK Flexibility Score: inf
ROOT
ATOM      1  O   UNL     1      28.643   1.413  19.045  1.00  0.00    -0.310 OA
ENDROOT
BRANCH   1   2
ATOM      2  C   UNL     1      27.390   0.938  18.578  1.00  0.00     0.316 C 
ATOM      3  C   UNL     1      25.858   3.316  17.802  1.00  0.00     0.076 C 
ATOM      4  C   UNL     1      25.547   2.637  18.931  1.00  0.00     0.202 C 
ATOM      5  C   UNL     1      27.097   2.877  17.067  1.00  0.00     0.047 C 
ATOM      6  O   UNL     1      26.298   1.505  19.337  1.00  0.00    -0.471 OA
ATOM      7  C   UNL     1      27.197   1.359  17.119  1.00  0.00     0.094 C 
ATOM      8  C   UNL     1      27.245   3.169  15.573  1.00  0.00     0.037 C 
ATOM      9  C   UNL     1      28.219   1.087  16.068  1.00  0.00    -0.039 C 
ATOM     10  C   UNL     1      28.172   2.063  15.155  1.00  0.00    -0.024 C 
BRANCH   3  11
ATOM     11  C   UNL     1      25.139   4.543  17.425  1.00  0.00     0.337 C 
ATOM     12  O   UNL     1      25.593   5.671  17.777  1.00  0.00    -0.246 OA
BRANCH  11  13
ATOM     13  O   UNL     1      23.950   4.445  16.689  1.00  0.00    -0.466 OA
ATOM     14  C   UNL     1      23.704   3.418  15.739  1.00  0.00     0.282 C 
ENDBRANCH  11  13
ENDBRANCH   3  11
BRANCH   9  15
ATOM     15  C   UNL     1      28.995  -0.194  15.896  1.00  0.00     0.187 C 
BRANCH  15  16
ATOM     16  O   UNL     1      28.222  -1.291  16.302  1.00  0.00    -0.392 OA
ATOM     17  H   UNL     1      27.493  -1.389  15.630  1.00  0.00     0.211 HD
ENDBRANCH  15  16
ENDBRANCH   9  15
ENDBRANCH   1   2
BRANCH   1  18
ATOM     18  C   UNL     1      29.407   0.390  19.662  1.00  0.00     0.286 C 
ATOM     19  C   UNL     1      29.353   0.494  21.213  1.00  0.00     0.202 C 
ATOM     20  O   UNL     1      28.851  -0.850  19.266  1.00  0.00    -0.341 OA
ATOM     21  C   UNL     1      29.532  -0.896  21.887  1.00  0.00     0.179 C 
ATOM     22  C   UNL     1      29.713  -1.942  19.576  1.00  0.00     0.178 C 
ATOM     23  C   UNL     1      30.382  -1.808  20.990  1.00  0.00     0.177 C 
BRANCH  19  24
ATOM     24  O   UNL     1      28.159   1.097  21.648  1.00  0.00    -0.385 OA
ATOM     25  H   UNL     1      28.383   1.659  22.436  1.00  0.00     0.211 HD
ENDBRANCH  19  24
BRANCH  21  26
ATOM     26  O   UNL     1      30.140  -0.760  23.145  1.00  0.00    -0.387 OA
ATOM     27  H   UNL     1      30.704  -1.564  23.271  1.00  0.00     0.211 HD
ENDBRANCH  21  26
BRANCH  22  28
ATOM     28  C   UNL     1      28.895  -3.237  19.427  1.00  0.00     0.191 C 
BRANCH  28  29
ATOM     29  O   UNL     1      27.733  -3.001  18.677  1.00  0.00    -0.394 OA
ATOM     30  H   UNL     1      27.049  -2.655  19.312  1.00  0.00     0.210 HD
ENDBRANCH  28  29
ENDBRANCH  22  28
BRANCH  23  31
ATOM     31  O   UNL     1      30.560  -3.055  21.614  1.00  0.00    -0.387 OA
ATOM     32  H   UNL     1      29.654  -3.386  21.850  1.00  0.00     0.211 HD
ENDBRANCH  23  31
ENDBRANCH   1  18
TORSDOF 11
ENDMDL
