MODEL 1
REMARK VINA RESULT:    -4.320      0.000      0.000
REMARK INTER + INTRA:         -15.457
REMARK INTER:                 -10.887
REMARK INTRA:                  -4.569
REMARK UNBOUND:                -4.569
REMARK SMILES CCCCCCCCCCCCCCCCCCCCCCCCCCCC(=O)[O-]
REMARK SMILES IDX 15 1 16 2 17 3 18 4 19 5 20 6 21 7 22 8 23 9 24 10 25 11
REMARK SMILES IDX 26 12 27 13 28 14 29 15 30 16 14 17 13 18 12 19 11 20 10 21
REMARK SMILES IDX 9 22 8 23 7 24 6 25 5 26 4 27 3 28 2 29 1 30
REMARK H PARENT
REMARK Flexibility Score: inf
ROOT
ATOM      1  C   UNL     1       5.763  13.881  11.241  1.00  0.00     0.000 C 
ENDROOT
BRANCH   1   2
ATOM      2  C   UNL     1       6.023  12.413  10.861  1.00  0.00     0.000 C 
BRANCH   2   3
ATOM      3  C   UNL     1       6.617  11.597  12.021  1.00  0.00     0.000 C 
BRANCH   3   4
ATOM      4  C   UNL     1       8.097  11.926  12.287  1.00  0.00     0.000 C 
BRANCH   4   5
ATOM      5  C   UNL     1       9.052  10.920  11.623  1.00  0.00     0.000 C 
BRANCH   5   6
ATOM      6  C   UNL     1       9.465  11.349  10.208  1.00  0.00     0.000 C 
BRANCH   6   7
ATOM      7  C   UNL     1       9.215  10.226   9.191  1.00  0.00     0.000 C 
BRANCH   7   8
ATOM      8  C   UNL     1       7.762  10.198   8.681  1.00  0.00     0.000 C 
BRANCH   8   9
ATOM      9  C   UNL     1       6.920   9.008   9.186  1.00  0.00     0.000 C 
BRANCH   9  10
ATOM     10  C   UNL     1       7.717   7.906   9.911  1.00  0.00     0.000 C 
BRANCH  10  11
ATOM     11  C   UNL     1       7.683   6.525   9.232  1.00  0.00     0.000 C 
BRANCH  11  12
ATOM     12  C   UNL     1       8.981   5.727   9.442  1.00  0.00     0.006 C 
BRANCH  12  13
ATOM     13  C   UNL     1       9.733   6.161  10.707  1.00  0.00     0.053 C 
BRANCH  13  14
ATOM     14  C   UNL     1      10.421   5.009  11.375  1.00  0.00     0.041 C 
ATOM     15  O   UNL     1      11.347   5.218  12.203  1.00  0.00    -0.550 OA
ATOM     16  O   UNL     1      10.024   3.706  11.102  1.00  0.00    -0.550 OA
ENDBRANCH  13  14
ENDBRANCH  12  13
ENDBRANCH  11  12
ENDBRANCH  10  11
ENDBRANCH   9  10
ENDBRANCH   8   9
ENDBRANCH   7   8
ENDBRANCH   6   7
ENDBRANCH   5   6
ENDBRANCH   4   5
ENDBRANCH   3   4
ENDBRANCH   2   3
ENDBRANCH   1   2
BRANCH   1  17
ATOM     17  C   UNL     1       4.849  14.021  12.469  1.00  0.00     0.000 C 
BRANCH  17  18
ATOM     18  C   UNL     1       3.466  14.595  12.113  1.00  0.00     0.000 C 
BRANCH  18  19
ATOM     19  C   UNL     1       2.395  13.504  11.964  1.00  0.00     0.000 C 
BRANCH  19  20
ATOM     20  C   UNL     1       2.580  12.349  12.964  1.00  0.00     0.000 C 
BRANCH  20  21
ATOM     21  C   UNL     1       2.797  10.999  12.260  1.00  0.00     0.000 C 
BRANCH  21  22
ATOM     22  C   UNL     1       1.571  10.557  11.446  1.00  0.00    -0.000 C 
BRANCH  22  23
ATOM     23  C   UNL     1       1.979  10.114  10.035  1.00  0.00    -0.000 C 
BRANCH  23  24
ATOM     24  C   UNL     1       3.304  10.766   9.613  1.00  0.00    -0.000 C 
BRANCH  24  25
ATOM     25  C   UNL     1       3.205  11.457   8.236  1.00  0.00    -0.000 C 
BRANCH  25  26
ATOM     26  C   UNL     1       3.445  12.980   8.273  1.00  0.00    -0.000 C 
BRANCH  26  27
ATOM     27  C   UNL     1       2.298  13.845   7.717  1.00  0.00    -0.000 C 
BRANCH  27  28
ATOM     28  C   UNL     1       1.707  14.846   8.735  1.00  0.00    -0.000 C 
BRANCH  28  29
ATOM     29  C   UNL     1       0.308  14.458   9.246  1.00  0.00    -0.003 C 
ATOM     30  C   UNL     1      -0.093  13.035   8.869  1.00  0.00     0.004 C 
ENDBRANCH  28  29
ENDBRANCH  27  28
ENDBRANCH  26  27
ENDBRANCH  25  26
ENDBRANCH  24  25
ENDBRANCH  23  24
ENDBRANCH  22  23
ENDBRANCH  21  22
ENDBRANCH  20  21
ENDBRANCH  19  20
ENDBRANCH  18  19
ENDBRANCH  17  18
ENDBRANCH   1  17
TORSDOF 26
ENDMDL
MODEL 2
REMARK VINA RESULT:    -4.207      2.229      5.041
REMARK INTER + INTRA:         -15.170
REMARK INTER:                  -9.874
REMARK INTRA:                  -5.296
REMARK UNBOUND:                -4.569
REMARK SMILES CCCCCCCCCCCCCCCCCCCCCCCCCCCC(=O)[O-]
REMARK SMILES IDX 15 1 16 2 17 3 18 4 19 5 20 6 21 7 22 8 23 9 24 10 25 11
REMARK SMILES IDX 26 12 27 13 28 14 29 15 30 16 14 17 13 18 12 19 11 20 10 21
REMARK SMILES IDX 9 22 8 23 7 24 6 25 5 26 4 27 3 28 2 29 1 30
REMARK H PARENT
REMARK Flexibility Score: inf
ROOT
ATOM      1  C   UNL     1       4.936  11.437   8.403  1.00  0.00     0.000 C 
ENDROOT
BRANCH   1   2
ATOM      2  C   UNL     1       4.390  10.092   8.915  1.00  0.00     0.000 C 
BRANCH   2   3
ATOM      3  C   UNL     1       3.083   9.680   8.218  1.00  0.00     0.000 C 
BRANCH   3   4
ATOM      4  C   UNL     1       2.740   8.193   8.419  1.00  0.00     0.000 C 
BRANCH   4   5
ATOM      5  C   UNL     1       3.014   7.350   7.162  1.00  0.00     0.000 C 
BRANCH   5   6
ATOM      6  C   UNL     1       4.417   6.727   7.167  1.00  0.00     0.000 C 
BRANCH   6   7
ATOM      7  C   UNL     1       4.867   6.383   8.595  1.00  0.00     0.000 C 
BRANCH   7   8
ATOM      8  C   UNL     1       6.305   6.847   8.893  1.00  0.00     0.000 C 
BRANCH   8   9
ATOM      9  C   UNL     1       7.045   7.473   7.694  1.00  0.00     0.000 C 
BRANCH   9  10
ATOM     10  C   UNL     1       8.584   7.408   7.768  1.00  0.00     0.000 C 
BRANCH  10  11
ATOM     11  C   UNL     1       9.294   8.774   7.779  1.00  0.00     0.000 C 
BRANCH  11  12
ATOM     12  C   UNL     1       8.309   9.955   7.833  1.00  0.00     0.006 C 
BRANCH  12  13
ATOM     13  C   UNL     1       8.604  10.905   9.001  1.00  0.00     0.053 C 
BRANCH  13  14
ATOM     14  C   UNL     1       8.705  10.176  10.307  1.00  0.00     0.041 C 
ATOM     15  O   UNL     1       9.778  10.202  10.966  1.00  0.00    -0.550 OA
ATOM     16  O   UNL     1       7.608   9.486  10.808  1.00  0.00    -0.550 OA
ENDBRANCH  13  14
ENDBRANCH  12  13
ENDBRANCH  11  12
ENDBRANCH  10  11
ENDBRANCH   9  10
ENDBRANCH   8   9
ENDBRANCH   7   8
ENDBRANCH   6   7
ENDBRANCH   5   6
ENDBRANCH   4   5
ENDBRANCH   3   4
ENDBRANCH   2   3
ENDBRANCH   1   2
BRANCH   1  17
ATOM     17  C   UNL     1       3.854  12.297   7.730  1.00  0.00     0.000 C 
BRANCH  17  18
ATOM     18  C   UNL     1       3.460  13.519   8.579  1.00  0.00     0.000 C 
BRANCH  18  19
ATOM     19  C   UNL     1       2.141  14.158   8.116  1.00  0.00     0.000 C 
BRANCH  19  20
ATOM     20  C   UNL     1       0.975  13.879   9.081  1.00  0.00     0.000 C 
BRANCH  20  21
ATOM     21  C   UNL     1       0.205  12.601   8.710  1.00  0.00     0.000 C 
BRANCH  21  22
ATOM     22  C   UNL     1       0.387  11.484   9.748  1.00  0.00    -0.000 C 
BRANCH  22  23
ATOM     23  C   UNL     1       1.077  12.013  11.012  1.00  0.00    -0.000 C 
BRANCH  23  24
ATOM     24  C   UNL     1       2.112  11.008  11.538  1.00  0.00    -0.000 C 
BRANCH  24  25
ATOM     25  C   UNL     1       3.274  11.699  12.282  1.00  0.00    -0.000 C 
BRANCH  25  26
ATOM     26  C   UNL     1       3.282  13.236  12.156  1.00  0.00    -0.000 C 
BRANCH  26  27
ATOM     27  C   UNL     1       4.640  13.915  12.417  1.00  0.00    -0.000 C 
BRANCH  27  28
ATOM     28  C   UNL     1       5.603  13.895  11.209  1.00  0.00    -0.000 C 
BRANCH  28  29
ATOM     29  C   UNL     1       6.829  12.986  11.408  1.00  0.00    -0.003 C 
ATOM     30  C   UNL     1       6.901  12.377  12.806  1.00  0.00     0.004 C 
ENDBRANCH  28  29
ENDBRANCH  27  28
ENDBRANCH  26  27
ENDBRANCH  25  26
ENDBRANCH  24  25
ENDBRANCH  23  24
ENDBRANCH  22  23
ENDBRANCH  21  22
ENDBRANCH  20  21
ENDBRANCH  19  20
ENDBRANCH  18  19
ENDBRANCH  17  18
ENDBRANCH   1  17
TORSDOF 26
ENDMDL
MODEL 3
REMARK VINA RESULT:    -4.203      3.931      8.003
REMARK INTER + INTRA:         -15.161
REMARK INTER:                 -10.518
REMARK INTRA:                  -4.643
REMARK UNBOUND:                -4.569
REMARK SMILES CCCCCCCCCCCCCCCCCCCCCCCCCCCC(=O)[O-]
REMARK SMILES IDX 15 1 16 2 17 3 18 4 19 5 20 6 21 7 22 8 23 9 24 10 25 11
REMARK SMILES IDX 26 12 27 13 28 14 29 15 30 16 14 17 13 18 12 19 11 20 10 21
REMARK SMILES IDX 9 22 8 23 7 24 6 25 5 26 4 27 3 28 2 29 1 30
REMARK H PARENT
REMARK Flexibility Score: inf
ROOT
ATOM      1  C   UNL     1       4.124  14.802  12.231  1.00  0.00     0.000 C 
ENDROOT
BRANCH   1   2
ATOM      2  C   UNL     1       2.717  15.034  11.652  1.00  0.00     0.000 C 
BRANCH   2   3
ATOM      3  C   UNL     1       2.471  14.239  10.359  1.00  0.00     0.000 C 
BRANCH   3   4
ATOM      4  C   UNL     1       3.765  13.674   9.748  1.00  0.00     0.000 C 
BRANCH   4   5
ATOM      5  C   UNL     1       3.599  13.293   8.267  1.00  0.00     0.000 C 
BRANCH   5   6
ATOM      6  C   UNL     1       2.198  13.617   7.731  1.00  0.00     0.000 C 
BRANCH   6   7
ATOM      7  C   UNL     1       1.425  12.336   7.386  1.00  0.00     0.000 C 
BRANCH   7   8
ATOM      8  C   UNL     1       0.448  11.914   8.499  1.00  0.00     0.000 C 
BRANCH   8   9
ATOM      9  C   UNL     1       0.739  10.536   9.129  1.00  0.00     0.000 C 
BRANCH   9  10
ATOM     10  C   UNL     1       2.055  10.447   9.927  1.00  0.00     0.000 C 
BRANCH  10  11
ATOM     11  C   UNL     1       1.887  10.150  11.428  1.00  0.00     0.000 C 
BRANCH  11  12
ATOM     12  C   UNL     1       2.007  11.411  12.301  1.00  0.00     0.006 C 
BRANCH  12  13
ATOM     13  C   UNL     1       0.639  12.023  12.630  1.00  0.00     0.053 C 
BRANCH  13  14
ATOM     14  C   UNL     1       0.335  11.963  14.096  1.00  0.00     0.041 C 
ATOM     15  O   UNL     1       1.273  11.951  14.938  1.00  0.00    -0.550 OA
ATOM     16  O   UNL     1      -0.982  11.945  14.536  1.00  0.00    -0.550 OA
ENDBRANCH  13  14
ENDBRANCH  12  13
ENDBRANCH  11  12
ENDBRANCH  10  11
ENDBRANCH   9  10
ENDBRANCH   8   9
ENDBRANCH   7   8
ENDBRANCH   6   7
ENDBRANCH   5   6
ENDBRANCH   4   5
ENDBRANCH   3   4
ENDBRANCH   2   3
ENDBRANCH   1   2
BRANCH   1  17
ATOM     17  C   UNL     1       4.089  14.234  13.659  1.00  0.00     0.000 C 
BRANCH  17  18
ATOM     18  C   UNL     1       4.998  13.003  13.826  1.00  0.00     0.000 C 
BRANCH  18  19
ATOM     19  C   UNL     1       5.893  12.759  12.602  1.00  0.00     0.000 C 
BRANCH  19  20
ATOM     20  C   UNL     1       5.622  11.401  11.929  1.00  0.00     0.000 C 
BRANCH  20  21
ATOM     21  C   UNL     1       6.447  11.212  10.645  1.00  0.00     0.000 C 
BRANCH  21  22
ATOM     22  C   UNL     1       7.648  10.277  10.852  1.00  0.00    -0.000 C 
BRANCH  22  23
ATOM     23  C   UNL     1       8.939  10.914  10.322  1.00  0.00    -0.000 C 
BRANCH  23  24
ATOM     24  C   UNL     1       9.242  12.233  11.049  1.00  0.00    -0.000 C 
BRANCH  24  25
ATOM     25  C   UNL     1      10.557  12.169  11.854  1.00  0.00    -0.000 C 
BRANCH  25  26
ATOM     26  C   UNL     1      10.419  11.510  13.242  1.00  0.00    -0.000 C 
BRANCH  26  27
ATOM     27  C   UNL     1       9.067  11.730  13.948  1.00  0.00    -0.000 C 
BRANCH  27  28
ATOM     28  C   UNL     1       9.180  12.361  15.354  1.00  0.00    -0.000 C 
BRANCH  28  29
ATOM     29  C   UNL     1       8.279  11.694  16.408  1.00  0.00    -0.003 C 
ATOM     30  C   UNL     1       7.174  12.615  16.919  1.00  0.00     0.004 C 
ENDBRANCH  28  29
ENDBRANCH  27  28
ENDBRANCH  26  27
ENDBRANCH  25  26
ENDBRANCH  24  25
ENDBRANCH  23  24
ENDBRANCH  22  23
ENDBRANCH  21  22
ENDBRANCH  20  21
ENDBRANCH  19  20
ENDBRANCH  18  19
ENDBRANCH  17  18
ENDBRANCH   1  17
TORSDOF 26
ENDMDL
MODEL 4
REMARK VINA RESULT:    -4.176      3.218      4.651
REMARK INTER + INTRA:         -15.092
REMARK INTER:                 -10.552
REMARK INTRA:                  -4.541
REMARK UNBOUND:                -4.569
REMARK SMILES CCCCCCCCCCCCCCCCCCCCCCCCCCCC(=O)[O-]
REMARK SMILES IDX 15 1 16 2 17 3 18 4 19 5 20 6 21 7 22 8 23 9 24 10 25 11
REMARK SMILES IDX 26 12 27 13 28 14 29 15 30 16 14 17 13 18 12 19 11 20 10 21
REMARK SMILES IDX 9 22 8 23 7 24 6 25 5 26 4 27 3 28 2 29 1 30
REMARK H PARENT
REMARK Flexibility Score: inf
ROOT
ATOM      1  C   UNL     1       4.134  15.135  12.760  1.00  0.00     0.000 C 
ENDROOT
BRANCH   1   2
ATOM      2  C   UNL     1       4.176  13.939  11.792  1.00  0.00     0.000 C 
BRANCH   2   3
ATOM      3  C   UNL     1       5.479  13.881  10.978  1.00  0.00     0.000 C 
BRANCH   3   4
ATOM      4  C   UNL     1       6.079  12.465  10.910  1.00  0.00     0.000 C 
BRANCH   4   5
ATOM      5  C   UNL     1       7.465  12.381  11.572  1.00  0.00     0.000 C 
BRANCH   5   6
ATOM      6  C   UNL     1       7.447  11.559  12.869  1.00  0.00     0.000 C 
BRANCH   6   7
ATOM      7  C   UNL     1       6.893  12.382  14.041  1.00  0.00     0.000 C 
BRANCH   7   8
ATOM      8  C   UNL     1       6.971  11.631  15.384  1.00  0.00     0.000 C 
BRANCH   8   9
ATOM      9  C   UNL     1       7.986  12.209  16.391  1.00  0.00     0.000 C 
BRANCH   9  10
ATOM     10  C   UNL     1       9.432  11.699  16.229  1.00  0.00     0.000 C 
BRANCH  10  11
ATOM     11  C   UNL     1      10.437  12.747  15.719  1.00  0.00     0.000 C 
BRANCH  11  12
ATOM     12  C   UNL     1      10.652  12.675  14.198  1.00  0.00     0.006 C 
BRANCH  12  13
ATOM     13  C   UNL     1      11.056  11.269  13.733  1.00  0.00     0.053 C 
BRANCH  13  14
ATOM     14  C   UNL     1      10.998  11.132  12.242  1.00  0.00     0.041 C 
ATOM     15  O   UNL     1      10.910   9.992  11.714  1.00  0.00    -0.550 OA
ATOM     16  O   UNL     1      11.018  12.263  11.436  1.00  0.00    -0.550 OA
ENDBRANCH  13  14
ENDBRANCH  12  13
ENDBRANCH  11  12
ENDBRANCH  10  11
ENDBRANCH   9  10
ENDBRANCH   8   9
ENDBRANCH   7   8
ENDBRANCH   6   7
ENDBRANCH   5   6
ENDBRANCH   4   5
ENDBRANCH   3   4
ENDBRANCH   2   3
ENDBRANCH   1   2
BRANCH   1  17
ATOM     17  C   UNL     1       3.704  14.733  14.179  1.00  0.00     0.000 C 
BRANCH  17  18
ATOM     18  C   UNL     1       3.487  13.216  14.323  1.00  0.00     0.000 C 
BRANCH  18  19
ATOM     19  C   UNL     1       2.122  12.870  14.937  1.00  0.00     0.000 C 
BRANCH  19  20
ATOM     20  C   UNL     1       1.302  11.909  14.059  1.00  0.00     0.000 C 
BRANCH  20  21
ATOM     21  C   UNL     1       0.510  12.648  12.967  1.00  0.00     0.000 C 
BRANCH  21  22
ATOM     22  C   UNL     1       0.924  12.221  11.551  1.00  0.00    -0.000 C 
BRANCH  22  23
ATOM     23  C   UNL     1       0.617  10.737  11.312  1.00  0.00    -0.000 C 
BRANCH  23  24
ATOM     24  C   UNL     1       1.792  10.037  10.612  1.00  0.00    -0.000 C 
BRANCH  24  25
ATOM     25  C   UNL     1       2.836  11.039  10.076  1.00  0.00    -0.000 C 
BRANCH  25  26
ATOM     26  C   UNL     1       2.811  11.222   8.545  1.00  0.00    -0.000 C 
BRANCH  26  27
ATOM     27  C   UNL     1       3.807  12.255   7.986  1.00  0.00    -0.000 C 
BRANCH  27  28
ATOM     28  C   UNL     1       3.291  13.712   8.005  1.00  0.00    -0.000 C 
BRANCH  28  29
ATOM     29  C   UNL     1       1.767  13.828   8.183  1.00  0.00    -0.003 C 
ATOM     30  C   UNL     1       1.359  14.974   9.104  1.00  0.00     0.004 C 
ENDBRANCH  28  29
ENDBRANCH  27  28
ENDBRANCH  26  27
ENDBRANCH  25  26
ENDBRANCH  24  25
ENDBRANCH  23  24
ENDBRANCH  22  23
ENDBRANCH  21  22
ENDBRANCH  20  21
ENDBRANCH  19  20
ENDBRANCH  18  19
ENDBRANCH  17  18
ENDBRANCH   1  17
TORSDOF 26
ENDMDL
MODEL 5
REMARK VINA RESULT:    -4.158      2.327      4.349
REMARK INTER + INTRA:         -15.049
REMARK INTER:                 -10.075
REMARK INTRA:                  -4.973
REMARK UNBOUND:                -4.569
REMARK SMILES CCCCCCCCCCCCCCCCCCCCCCCCCCCC(=O)[O-]
REMARK SMILES IDX 15 1 16 2 17 3 18 4 19 5 20 6 21 7 22 8 23 9 24 10 25 11
REMARK SMILES IDX 26 12 27 13 28 14 29 15 30 16 14 17 13 18 12 19 11 20 10 21
REMARK SMILES IDX 9 22 8 23 7 24 6 25 5 26 4 27 3 28 2 29 1 30
REMARK H PARENT
REMARK Flexibility Score: inf
ROOT
ATOM      1  C   UNL     1       7.401  11.300  11.536  1.00  0.00     0.000 C 
ENDROOT
BRANCH   1   2
ATOM      2  C   UNL     1       6.994  10.210  10.529  1.00  0.00     0.000 C 
BRANCH   2   3
ATOM      3  C   UNL     1       7.379  10.567   9.084  1.00  0.00     0.000 C 
BRANCH   3   4
ATOM      4  C   UNL     1       6.994   9.471   8.074  1.00  0.00     0.000 C 
BRANCH   4   5
ATOM      5  C   UNL     1       8.209   8.658   7.596  1.00  0.00     0.000 C 
BRANCH   5   6
ATOM      6  C   UNL     1       8.003   7.145   7.758  1.00  0.00     0.000 C 
BRANCH   6   7
ATOM      7  C   UNL     1       7.244   6.823   9.054  1.00  0.00     0.000 C 
BRANCH   7   8
ATOM      8  C   UNL     1       8.171   6.738  10.281  1.00  0.00     0.000 C 
BRANCH   8   9
ATOM      9  C   UNL     1       9.620   6.310   9.970  1.00  0.00     0.000 C 
BRANCH   9  10
ATOM     10  C   UNL     1      10.697   7.366  10.288  1.00  0.00     0.000 C 
BRANCH  10  11
ATOM     11  C   UNL     1      10.156   8.708  10.814  1.00  0.00     0.000 C 
BRANCH  11  12
ATOM     12  C   UNL     1      10.813   9.921  10.134  1.00  0.00     0.006 C 
BRANCH  12  13
ATOM     13  C   UNL     1      11.550  10.822  11.134  1.00  0.00     0.053 C 
BRANCH  13  14
ATOM     14  C   UNL     1      12.660  11.591  10.486  1.00  0.00     0.041 C 
ATOM     15  O   UNL     1      13.829  11.120  10.462  1.00  0.00    -0.550 OA
ATOM     16  O   UNL     1      12.402  12.817   9.886  1.00  0.00    -0.550 OA
ENDBRANCH  13  14
ENDBRANCH  12  13
ENDBRANCH  11  12
ENDBRANCH  10  11
ENDBRANCH   9  10
ENDBRANCH   8   9
ENDBRANCH   7   8
ENDBRANCH   6   7
ENDBRANCH   5   6
ENDBRANCH   4   5
ENDBRANCH   3   4
ENDBRANCH   2   3
ENDBRANCH   1   2
BRANCH   1  17
ATOM     17  C   UNL     1       7.441  12.702  10.908  1.00  0.00     0.000 C 
BRANCH  17  18
ATOM     18  C   UNL     1       6.209  13.550  11.275  1.00  0.00     0.000 C 
BRANCH  18  19
ATOM     19  C   UNL     1       5.536  13.080  12.574  1.00  0.00     0.000 C 
BRANCH  19  20
ATOM     20  C   UNL     1       4.181  13.766  12.821  1.00  0.00     0.000 C 
BRANCH  20  21
ATOM     21  C   UNL     1       3.706  14.576  11.603  1.00  0.00     0.000 C 
BRANCH  21  22
ATOM     22  C   UNL     1       2.213  14.369  11.306  1.00  0.00    -0.000 C 
BRANCH  22  23
ATOM     23  C   UNL     1       1.779  15.182  10.079  1.00  0.00    -0.000 C 
BRANCH  23  24
ATOM     24  C   UNL     1       1.376  14.259   8.920  1.00  0.00    -0.000 C 
BRANCH  24  25
ATOM     25  C   UNL     1       2.567  13.922   7.998  1.00  0.00    -0.000 C 
BRANCH  25  26
ATOM     26  C   UNL     1       2.881  12.415   7.894  1.00  0.00    -0.000 C 
BRANCH  26  27
ATOM     27  C   UNL     1       4.003  11.907   8.820  1.00  0.00    -0.000 C 
BRANCH  27  28
ATOM     28  C   UNL     1       3.501  11.151  10.071  1.00  0.00    -0.000 C 
BRANCH  28  29
ATOM     29  C   UNL     1       2.184  10.387   9.847  1.00  0.00    -0.003 C 
ATOM     30  C   UNL     1       1.093  10.772  10.842  1.00  0.00     0.004 C 
ENDBRANCH  28  29
ENDBRANCH  27  28
ENDBRANCH  26  27
ENDBRANCH  25  26
ENDBRANCH  24  25
ENDBRANCH  23  24
ENDBRANCH  22  23
ENDBRANCH  21  22
ENDBRANCH  20  21
ENDBRANCH  19  20
ENDBRANCH  18  19
ENDBRANCH  17  18
ENDBRANCH   1  17
TORSDOF 26
ENDMDL
MODEL 6
REMARK VINA RESULT:    -4.117      3.948      7.756
REMARK INTER + INTRA:         -14.945
REMARK INTER:                 -10.689
REMARK INTRA:                  -4.257
REMARK UNBOUND:                -4.569
REMARK SMILES CCCCCCCCCCCCCCCCCCCCCCCCCCCC(=O)[O-]
REMARK SMILES IDX 15 1 16 2 17 3 18 4 19 5 20 6 21 7 22 8 23 9 24 10 25 11
REMARK SMILES IDX 26 12 27 13 28 14 29 15 30 16 14 17 13 18 12 19 11 20 10 21
REMARK SMILES IDX 9 22 8 23 7 24 6 25 5 26 4 27 3 28 2 29 1 30
REMARK H PARENT
REMARK Flexibility Score: inf
ROOT
ATOM      1  C   UNL     1       2.325  14.536  11.398  1.00  0.00     0.000 C 
ENDROOT
BRANCH   1   2
ATOM      2  C   UNL     1       1.916  15.719  10.502  1.00  0.00     0.000 C 
BRANCH   2   3
ATOM      3  C   UNL     1       1.072  15.281   9.293  1.00  0.00     0.000 C 
BRANCH   3   4
ATOM      4  C   UNL     1       1.539  13.944   8.691  1.00  0.00     0.000 C 
BRANCH   4   5
ATOM      5  C   UNL     1       2.476  14.135   7.486  1.00  0.00     0.000 C 
BRANCH   5   6
ATOM      6  C   UNL     1       3.620  13.113   7.464  1.00  0.00     0.000 C 
BRANCH   6   7
ATOM      7  C   UNL     1       3.877  12.535   8.865  1.00  0.00     0.000 C 
BRANCH   7   8
ATOM      8  C   UNL     1       4.086  11.010   8.849  1.00  0.00     0.000 C 
BRANCH   8   9
ATOM      9  C   UNL     1       2.889  10.196   8.316  1.00  0.00     0.000 C 
BRANCH   9  10
ATOM     10  C   UNL     1       1.880   9.739   9.388  1.00  0.00     0.000 C 
BRANCH  10  11
ATOM     11  C   UNL     1       2.268  10.086  10.836  1.00  0.00     0.000 C 
BRANCH  11  12
ATOM     12  C   UNL     1       1.072  10.573  11.672  1.00  0.00     0.006 C 
BRANCH  12  13
ATOM     13  C   UNL     1       0.190  11.565  10.903  1.00  0.00     0.053 C 
BRANCH  13  14
ATOM     14  C   UNL     1      -0.788  12.261  11.801  1.00  0.00     0.041 C 
ATOM     15  O   UNL     1      -0.487  12.499  13.001  1.00  0.00    -0.550 OA
ATOM     16  O   UNL     1      -2.021  12.667  11.308  1.00  0.00    -0.550 OA
ENDBRANCH  13  14
ENDBRANCH  12  13
ENDBRANCH  11  12
ENDBRANCH  10  11
ENDBRANCH   9  10
ENDBRANCH   8   9
ENDBRANCH   7   8
ENDBRANCH   6   7
ENDBRANCH   5   6
ENDBRANCH   4   5
ENDBRANCH   3   4
ENDBRANCH   2   3
ENDBRANCH   1   2
BRANCH   1  17
ATOM     17  C   UNL     1       3.530  14.863  12.295  1.00  0.00     0.000 C 
BRANCH  17  18
ATOM     18  C   UNL     1       4.743  13.961  12.006  1.00  0.00     0.000 C 
BRANCH  18  19
ATOM     19  C   UNL     1       4.544  12.524  12.511  1.00  0.00     0.000 C 
BRANCH  19  20
ATOM     20  C   UNL     1       5.775  11.633  12.270  1.00  0.00     0.000 C 
BRANCH  20  21
ATOM     21  C   UNL     1       7.095  12.397  12.473  1.00  0.00     0.000 C 
BRANCH  21  22
ATOM     22  C   UNL     1       8.042  12.262  11.271  1.00  0.00    -0.000 C 
BRANCH  22  23
ATOM     23  C   UNL     1       7.442  11.344  10.198  1.00  0.00    -0.000 C 
BRANCH  23  24
ATOM     24  C   UNL     1       8.526  10.845   9.230  1.00  0.00    -0.000 C 
BRANCH  24  25
ATOM     25  C   UNL     1       9.191   9.540   9.718  1.00  0.00    -0.000 C 
BRANCH  25  26
ATOM     26  C   UNL     1       9.298   8.442   8.640  1.00  0.00    -0.000 C 
BRANCH  26  27
ATOM     27  C   UNL     1       8.469   7.171   8.905  1.00  0.00    -0.000 C 
BRANCH  27  28
ATOM     28  C   UNL     1       7.112   7.430   9.598  1.00  0.00    -0.000 C 
BRANCH  28  29
ATOM     29  C   UNL     1       5.893   7.087   8.724  1.00  0.00    -0.003 C 
ATOM     30  C   UNL     1       6.266   6.755   7.282  1.00  0.00     0.004 C 
ENDBRANCH  28  29
ENDBRANCH  27  28
ENDBRANCH  26  27
ENDBRANCH  25  26
ENDBRANCH  24  25
ENDBRANCH  23  24
ENDBRANCH  22  23
ENDBRANCH  21  22
ENDBRANCH  20  21
ENDBRANCH  19  20
ENDBRANCH  18  19
ENDBRANCH  17  18
ENDBRANCH   1  17
TORSDOF 26
ENDMDL
MODEL 7
REMARK VINA RESULT:    -4.099      3.430      5.267
REMARK INTER + INTRA:         -14.899
REMARK INTER:                 -10.794
REMARK INTRA:                  -4.105
REMARK UNBOUND:                -4.569
REMARK SMILES CCCCCCCCCCCCCCCCCCCCCCCCCCCC(=O)[O-]
REMARK SMILES IDX 15 1 16 2 17 3 18 4 19 5 20 6 21 7 22 8 23 9 24 10 25 11
REMARK SMILES IDX 26 12 27 13 28 14 29 15 30 16 14 17 13 18 12 19 11 20 10 21
REMARK SMILES IDX 9 22 8 23 7 24 6 25 5 26 4 27 3 28 2 29 1 30
REMARK H PARENT
REMARK Flexibility Score: inf
ROOT
ATOM      1  C   UNL     1       6.582  11.287  11.467  1.00  0.00     0.000 C 
ENDROOT
BRANCH   1   2
ATOM      2  C   UNL     1       6.669  10.498  10.149  1.00  0.00     0.000 C 
BRANCH   2   3
ATOM      3  C   UNL     1       7.824  10.972   9.251  1.00  0.00     0.000 C 
BRANCH   3   4
ATOM      4  C   UNL     1       8.507   9.818   8.495  1.00  0.00     0.000 C 
BRANCH   4   5
ATOM      5  C   UNL     1      10.034   9.821   8.674  1.00  0.00     0.000 C 
BRANCH   5   6
ATOM      6  C   UNL     1      10.453   9.887  10.149  1.00  0.00     0.000 C 
BRANCH   6   7
ATOM      7  C   UNL     1      11.274  11.153  10.437  1.00  0.00     0.000 C 
BRANCH   7   8
ATOM      8  C   UNL     1      10.616  12.060  11.494  1.00  0.00     0.000 C 
BRANCH   8   9
ATOM      9  C   UNL     1      10.065  11.321  12.730  1.00  0.00     0.000 C 
BRANCH   9  10
ATOM     10  C   UNL     1      10.533  11.880  14.089  1.00  0.00     0.000 C 
BRANCH  10  11
ATOM     11  C   UNL     1       9.401  12.257  15.061  1.00  0.00     0.000 C 
BRANCH  11  12
ATOM     12  C   UNL     1       9.334  11.327  16.285  1.00  0.00     0.006 C 
BRANCH  12  13
ATOM     13  C   UNL     1       8.330  11.820  17.336  1.00  0.00     0.053 C 
BRANCH  13  14
ATOM     14  C   UNL     1       8.970  12.726  18.343  1.00  0.00     0.041 C 
ATOM     15  O   UNL     1      10.173  12.553  18.677  1.00  0.00    -0.550 OA
ATOM     16  O   UNL     1       8.248  13.775  18.897  1.00  0.00    -0.550 OA
ENDBRANCH  13  14
ENDBRANCH  12  13
ENDBRANCH  11  12
ENDBRANCH  10  11
ENDBRANCH   9  10
ENDBRANCH   8   9
ENDBRANCH   7   8
ENDBRANCH   6   7
ENDBRANCH   5   6
ENDBRANCH   4   5
ENDBRANCH   3   4
ENDBRANCH   2   3
ENDBRANCH   1   2
BRANCH   1  17
ATOM     17  C   UNL     1       7.044  12.745  11.316  1.00  0.00     0.000 C 
BRANCH  17  18
ATOM     18  C   UNL     1       5.869  13.720  11.124  1.00  0.00     0.000 C 
BRANCH  18  19
ATOM     19  C   UNL     1       4.941  13.774  12.347  1.00  0.00     0.000 C 
BRANCH  19  20
ATOM     20  C   UNL     1       3.768  14.753  12.159  1.00  0.00     0.000 C 
BRANCH  20  21
ATOM     21  C   UNL     1       2.448  14.193  12.715  1.00  0.00     0.000 C 
BRANCH  21  22
ATOM     22  C   UNL     1       2.451  12.659  12.802  1.00  0.00    -0.000 C 
BRANCH  22  23
ATOM     23  C   UNL     1       1.325  12.057  11.950  1.00  0.00    -0.000 C 
BRANCH  23  24
ATOM     24  C   UNL     1       1.803  10.794  11.218  1.00  0.00    -0.000 C 
BRANCH  24  25
ATOM     25  C   UNL     1       3.075  11.048  10.381  1.00  0.00    -0.000 C 
BRANCH  25  26
ATOM     26  C   UNL     1       2.805  11.625   8.977  1.00  0.00    -0.000 C 
BRANCH  26  27
ATOM     27  C   UNL     1       3.435  13.002   8.694  1.00  0.00    -0.000 C 
BRANCH  27  28
ATOM     28  C   UNL     1       2.439  14.061   8.168  1.00  0.00    -0.000 C 
BRANCH  28  29
ATOM     29  C   UNL     1       1.393  14.500   9.208  1.00  0.00    -0.003 C 
ATOM     30  C   UNL     1       1.166  16.009   9.227  1.00  0.00     0.004 C 
ENDBRANCH  28  29
ENDBRANCH  27  28
ENDBRANCH  26  27
ENDBRANCH  25  26
ENDBRANCH  24  25
ENDBRANCH  23  24
ENDBRANCH  22  23
ENDBRANCH  21  22
ENDBRANCH  20  21
ENDBRANCH  19  20
ENDBRANCH  18  19
ENDBRANCH  17  18
ENDBRANCH   1  17
TORSDOF 26
ENDMDL
MODEL 8
REMARK VINA RESULT:    -4.097      3.541      7.821
REMARK INTER + INTRA:         -14.894
REMARK INTER:                 -10.549
REMARK INTRA:                  -4.345
REMARK UNBOUND:                -4.569
REMARK SMILES CCCCCCCCCCCCCCCCCCCCCCCCCCCC(=O)[O-]
REMARK SMILES IDX 15 1 16 2 17 3 18 4 19 5 20 6 21 7 22 8 23 9 24 10 25 11
REMARK SMILES IDX 26 12 27 13 28 14 29 15 30 16 14 17 13 18 12 19 11 20 10 21
REMARK SMILES IDX 9 22 8 23 7 24 6 25 5 26 4 27 3 28 2 29 1 30
REMARK H PARENT
REMARK Flexibility Score: inf
ROOT
ATOM      1  C   UNL     1       5.219  13.861  11.802  1.00  0.00     0.000 C 
ENDROOT
BRANCH   1   2
ATOM      2  C   UNL     1       4.082  13.456  10.848  1.00  0.00     0.000 C 
BRANCH   2   3
ATOM      3  C   UNL     1       2.907  14.447  10.873  1.00  0.00     0.000 C 
BRANCH   3   4
ATOM      4  C   UNL     1       1.724  13.996   9.999  1.00  0.00     0.000 C 
BRANCH   4   5
ATOM      5  C   UNL     1       1.696  14.705   8.634  1.00  0.00     0.000 C 
BRANCH   5   6
ATOM      6  C   UNL     1       2.199  13.807   7.495  1.00  0.00     0.000 C 
BRANCH   6   7
ATOM      7  C   UNL     1       2.496  12.386   7.998  1.00  0.00     0.000 C 
BRANCH   7   8
ATOM      8  C   UNL     1       1.448  11.359   7.530  1.00  0.00     0.000 C 
BRANCH   8   9
ATOM      9  C   UNL     1       0.842  10.493   8.654  1.00  0.00     0.000 C 
BRANCH   9  10
ATOM     10  C   UNL     1       1.716  10.357   9.917  1.00  0.00     0.000 C 
BRANCH  10  11
ATOM     11  C   UNL     1       0.964  10.524  11.249  1.00  0.00     0.000 C 
BRANCH  11  12
ATOM     12  C   UNL     1       1.891  10.928  12.409  1.00  0.00     0.006 C 
BRANCH  12  13
ATOM     13  C   UNL     1       1.119  11.185  13.709  1.00  0.00     0.053 C 
BRANCH  13  14
ATOM     14  C   UNL     1       1.528  12.472  14.360  1.00  0.00     0.041 C 
ATOM     15  O   UNL     1       1.421  13.560  13.735  1.00  0.00    -0.550 OA
ATOM     16  O   UNL     1       2.005  12.473  15.665  1.00  0.00    -0.550 OA
ENDBRANCH  13  14
ENDBRANCH  12  13
ENDBRANCH  11  12
ENDBRANCH  10  11
ENDBRANCH   9  10
ENDBRANCH   8   9
ENDBRANCH   7   8
ENDBRANCH   6   7
ENDBRANCH   5   6
ENDBRANCH   4   5
ENDBRANCH   3   4
ENDBRANCH   2   3
ENDBRANCH   1   2
BRANCH   1  17
ATOM     17  C   UNL     1       5.214  13.048  13.107  1.00  0.00     0.000 C 
BRANCH  17  18
ATOM     18  C   UNL     1       6.267  11.925  13.108  1.00  0.00     0.000 C 
BRANCH  18  19
ATOM     19  C   UNL     1       7.603  12.369  12.494  1.00  0.00     0.000 C 
BRANCH  19  20
ATOM     20  C   UNL     1       8.073  11.441  11.360  1.00  0.00     0.000 C 
BRANCH  20  21
ATOM     21  C   UNL     1       6.964  10.482  10.895  1.00  0.00     0.000 C 
BRANCH  21  22
ATOM     22  C   UNL     1       6.780  10.492   9.370  1.00  0.00    -0.000 C 
BRANCH  22  23
ATOM     23  C   UNL     1       5.303  10.319   8.993  1.00  0.00    -0.000 C 
BRANCH  23  24
ATOM     24  C   UNL     1       5.065   8.967   8.303  1.00  0.00    -0.000 C 
BRANCH  24  25
ATOM     25  C   UNL     1       6.369   8.160   8.130  1.00  0.00    -0.000 C 
BRANCH  25  26
ATOM     26  C   UNL     1       6.414   6.848   8.940  1.00  0.00    -0.000 C 
BRANCH  26  27
ATOM     27  C   UNL     1       7.448   6.810  10.082  1.00  0.00    -0.000 C 
BRANCH  27  28
ATOM     28  C   UNL     1       8.757   6.069   9.728  1.00  0.00    -0.000 C 
BRANCH  28  29
ATOM     29  C   UNL     1       9.973   6.999   9.571  1.00  0.00    -0.003 C 
ATOM     30  C   UNL     1       9.871   8.265  10.416  1.00  0.00     0.004 C 
ENDBRANCH  28  29
ENDBRANCH  27  28
ENDBRANCH  26  27
ENDBRANCH  25  26
ENDBRANCH  24  25
ENDBRANCH  23  24
ENDBRANCH  22  23
ENDBRANCH  21  22
ENDBRANCH  20  21
ENDBRANCH  19  20
ENDBRANCH  18  19
ENDBRANCH  17  18
ENDBRANCH   1  17
TORSDOF 26
ENDMDL
MODEL 9
REMARK VINA RESULT:    -4.064      2.400      4.147
REMARK INTER + INTRA:         -14.809
REMARK INTER:                 -10.343
REMARK INTRA:                  -4.466
REMARK UNBOUND:                -4.569
REMARK SMILES CCCCCCCCCCCCCCCCCCCCCCCCCCCC(=O)[O-]
REMARK SMILES IDX 15 1 16 2 17 3 18 4 19 5 20 6 21 7 22 8 23 9 24 10 25 11
REMARK SMILES IDX 26 12 27 13 28 14 29 15 30 16 14 17 13 18 12 19 11 20 10 21
REMARK SMILES IDX 9 22 8 23 7 24 6 25 5 26 4 27 3 28 2 29 1 30
REMARK H PARENT
REMARK Flexibility Score: inf
ROOT
ATOM      1  C   UNL     1       4.641  11.653   9.879  1.00  0.00     0.000 C 
ENDROOT
BRANCH   1   2
ATOM      2  C   UNL     1       5.084  11.628  11.353  1.00  0.00     0.000 C 
BRANCH   2   3
ATOM      3  C   UNL     1       6.113  12.722  11.681  1.00  0.00     0.000 C 
BRANCH   3   4
ATOM      4  C   UNL     1       7.025  12.351  12.864  1.00  0.00     0.000 C 
BRANCH   4   5
ATOM      5  C   UNL     1       8.396  11.824  12.407  1.00  0.00     0.000 C 
BRANCH   5   6
ATOM      6  C   UNL     1       8.809  12.374  11.035  1.00  0.00     0.000 C 
BRANCH   6   7
ATOM      7  C   UNL     1       9.343  11.256  10.126  1.00  0.00     0.000 C 
BRANCH   7   8
ATOM      8  C   UNL     1       8.218  10.420   9.488  1.00  0.00     0.000 C 
BRANCH   8   9
ATOM      9  C   UNL     1       7.745   9.219  10.332  1.00  0.00     0.000 C 
BRANCH   9  10
ATOM     10  C   UNL     1       8.545   7.918  10.123  1.00  0.00     0.000 C 
BRANCH  10  11
ATOM     11  C   UNL     1       7.780   6.792   9.404  1.00  0.00     0.000 C 
BRANCH  11  12
ATOM     12  C   UNL     1       7.636   7.042   7.893  1.00  0.00     0.006 C 
BRANCH  12  13
ATOM     13  C   UNL     1       6.217   6.751   7.387  1.00  0.00     0.053 C 
BRANCH  13  14
ATOM     14  C   UNL     1       5.205   7.677   7.990  1.00  0.00     0.041 C 
ATOM     15  O   UNL     1       5.339   8.925   7.874  1.00  0.00    -0.550 OA
ATOM     16  O   UNL     1       4.101   7.164   8.660  1.00  0.00    -0.550 OA
ENDBRANCH  13  14
ENDBRANCH  12  13
ENDBRANCH  11  12
ENDBRANCH  10  11
ENDBRANCH   9  10
ENDBRANCH   8   9
ENDBRANCH   7   8
ENDBRANCH   6   7
ENDBRANCH   5   6
ENDBRANCH   4   5
ENDBRANCH   3   4
ENDBRANCH   2   3
ENDBRANCH   1   2
BRANCH   1  17
ATOM     17  C   UNL     1       4.188  13.049   9.422  1.00  0.00     0.000 C 
BRANCH  17  18
ATOM     18  C   UNL     1       3.711  13.065   7.958  1.00  0.00     0.000 C 
BRANCH  18  19
ATOM     19  C   UNL     1       2.532  14.023   7.732  1.00  0.00     0.000 C 
BRANCH  19  20
ATOM     20  C   UNL     1       1.769  14.342   9.030  1.00  0.00     0.000 C 
BRANCH  20  21
ATOM     21  C   UNL     1       0.329  13.803   9.006  1.00  0.00     0.000 C 
BRANCH  21  22
ATOM     22  C   UNL     1       0.272  12.293   8.729  1.00  0.00    -0.000 C 
BRANCH  22  23
ATOM     23  C   UNL     1       0.580  11.489   9.999  1.00  0.00    -0.000 C 
BRANCH  23  24
ATOM     24  C   UNL     1      -0.217  12.024  11.199  1.00  0.00    -0.000 C 
BRANCH  24  25
ATOM     25  C   UNL     1       0.299  11.465  12.541  1.00  0.00    -0.000 C 
BRANCH  25  26
ATOM     26  C   UNL     1       1.829  11.551  12.718  1.00  0.00    -0.000 C 
BRANCH  26  27
ATOM     27  C   UNL     1       2.346  12.841  13.383  1.00  0.00    -0.000 C 
BRANCH  27  28
ATOM     28  C   UNL     1       2.344  14.078  12.458  1.00  0.00    -0.000 C 
BRANCH  28  29
ATOM     29  C   UNL     1       3.566  14.995  12.644  1.00  0.00    -0.003 C 
ATOM     30  C   UNL     1       4.125  14.965  14.064  1.00  0.00     0.004 C 
ENDBRANCH  28  29
ENDBRANCH  27  28
ENDBRANCH  26  27
ENDBRANCH  25  26
ENDBRANCH  24  25
ENDBRANCH  23  24
ENDBRANCH  22  23
ENDBRANCH  21  22
ENDBRANCH  20  21
ENDBRANCH  19  20
ENDBRANCH  18  19
ENDBRANCH  17  18
ENDBRANCH   1  17
TORSDOF 26
ENDMDL
