MODEL 1
REMARK VINA RESULT:    -6.259      0.000      0.000
REMARK INTER + INTRA:          -7.650
REMARK INTER:                  -7.357
REMARK INTRA:                  -0.293
REMARK UNBOUND:                -0.293
REMARK SMILES O=c1cc(-c2ccc(O)c(O)c2)oc2cc(O)cc(O)c12
REMARK SMILES IDX 4 1 3 2 2 3 1 4 21 5 19 6 18 7 16 8 15 9 14 10 13 11 5 12
REMARK SMILES IDX 6 13 7 14 8 15 12 16 10 17 9 18 11 20 20 22 17 24
REMARK H PARENT 9 19 11 21 20 23 17 25
REMARK Flexibility Score: inf
ROOT
ATOM      1  C   UNL     1      62.794  -8.105  -4.458  1.00  0.00     0.138 A 
ATOM      2  C   UNL     1      63.532  -8.820  -3.504  1.00  0.00     0.100 A 
ATOM      3  C   UNL     1      63.408  -8.495  -2.152  1.00  0.00     0.197 A 
ATOM      4  O   UNL     1      64.125  -9.117  -1.326  1.00  0.00    -0.289 OA
ATOM      5  C   UNL     1      62.513  -7.474  -1.751  1.00  0.00     0.107 A 
ATOM      6  C   UNL     1      62.279  -7.082  -0.399  1.00  0.00     0.134 A 
ATOM      7  C   UNL     1      61.442  -5.990  -0.134  1.00  0.00     0.093 A 
ATOM      8  C   UNL     1      60.787  -5.315  -1.167  1.00  0.00     0.123 A 
ATOM      9  C   UNL     1      60.970  -5.722  -2.485  1.00  0.00     0.094 A 
ATOM     10  C   UNL     1      61.825  -6.785  -2.786  1.00  0.00     0.146 A 
ATOM     11  O   UNL     1      61.984  -7.130  -4.060  1.00  0.00    -0.456 OA
ENDROOT
BRANCH   1  12
ATOM     12  C   UNL     1      62.885  -8.410  -5.909  1.00  0.00     0.021 A 
ATOM     13  C   UNL     1      62.864  -9.731  -6.390  1.00  0.00     0.016 A 
ATOM     14  C   UNL     1      62.962  -9.986  -7.759  1.00  0.00     0.051 A 
ATOM     15  C   UNL     1      63.090  -8.937  -8.676  1.00  0.00     0.157 A 
ATOM     16  C   UNL     1      63.028  -7.357  -6.829  1.00  0.00     0.062 A 
ATOM     17  C   UNL     1      63.126  -7.605  -8.203  1.00  0.00     0.158 A 
BRANCH  15  18
ATOM     18  O   UNL     1      63.179  -9.262 -10.031  1.00  0.00    -0.504 OA
ATOM     19  H   UNL     1      62.389  -9.284 -10.659  1.00  0.00     0.293 HD
ENDBRANCH  15  18
BRANCH  17  20
ATOM     20  O   UNL     1      63.256  -6.506  -9.057  1.00  0.00    -0.504 OA
ATOM     21  H   UNL     1      62.671  -6.347  -9.864  1.00  0.00     0.293 HD
ENDBRANCH  17  20
ENDBRANCH   1  12
BRANCH   6  22
ATOM     22  O   UNL     1      62.818  -7.736   0.712  1.00  0.00    -0.507 OA
ATOM     23  H   UNL     1      62.337  -8.427   1.268  1.00  0.00     0.293 HD
ENDBRANCH   6  22
BRANCH   8  24
ATOM     24  O   UNL     1      59.945  -4.240  -0.890  1.00  0.00    -0.508 OA
ATOM     25  H   UNL     1      59.177  -3.996  -1.503  1.00  0.00     0.293 HD
ENDBRANCH   8  24
TORSDOF 5
ENDMDL
MODEL 2
REMARK VINA RESULT:    -5.923      1.343      1.666
REMARK INTER + INTRA:          -7.255
REMARK INTER:                  -6.979
REMARK INTRA:                  -0.276
REMARK UNBOUND:                -0.293
REMARK SMILES O=c1cc(-c2ccc(O)c(O)c2)oc2cc(O)cc(O)c12
REMARK SMILES IDX 4 1 3 2 2 3 1 4 21 5 19 6 18 7 16 8 15 9 14 10 13 11 5 12
REMARK SMILES IDX 6 13 7 14 8 15 12 16 10 17 9 18 11 20 20 22 17 24
REMARK H PARENT 9 19 11 21 20 23 17 25
REMARK Flexibility Score: inf
ROOT
ATOM      1  C   UNL     1      62.176  -8.428  -4.409  1.00  0.00     0.138 A 
ATOM      2  C   UNL     1      63.009  -9.096  -3.500  1.00  0.00     0.100 A 
ATOM      3  C   UNL     1      63.085  -8.651  -2.179  1.00  0.00     0.197 A 
ATOM      4  O   UNL     1      63.882  -9.235  -1.402  1.00  0.00    -0.289 OA
ATOM      5  C   UNL     1      62.294  -7.554  -1.759  1.00  0.00     0.107 A 
ATOM      6  C   UNL     1      62.263  -7.035  -0.429  1.00  0.00     0.134 A 
ATOM      7  C   UNL     1      61.515  -5.883  -0.157  1.00  0.00     0.093 A 
ATOM      8  C   UNL     1      60.751  -5.266  -1.151  1.00  0.00     0.123 A 
ATOM      9  C   UNL     1      60.736  -5.794  -2.439  1.00  0.00     0.094 A 
ATOM     10  C   UNL     1      61.499  -6.922  -2.752  1.00  0.00     0.146 A 
ATOM     11  O   UNL     1      61.468  -7.382  -3.998  1.00  0.00    -0.456 OA
ENDROOT
BRANCH   1  12
ATOM     12  C   UNL     1      62.055  -8.861  -5.825  1.00  0.00     0.021 A 
ATOM     13  C   UNL     1      63.149  -8.821  -6.707  1.00  0.00     0.016 A 
ATOM     14  C   UNL     1      63.002  -9.224  -8.035  1.00  0.00     0.051 A 
ATOM     15  C   UNL     1      61.766  -9.667  -8.516  1.00  0.00     0.157 A 
ATOM     16  C   UNL     1      60.810  -9.292  -6.312  1.00  0.00     0.062 A 
ATOM     17  C   UNL     1      60.654  -9.699  -7.642  1.00  0.00     0.158 A 
BRANCH  15  18
ATOM     18  O   UNL     1      61.687 -10.059  -9.854  1.00  0.00    -0.504 OA
ATOM     19  H   UNL     1      60.829 -10.088 -10.384  1.00  0.00     0.293 HD
ENDBRANCH  15  18
BRANCH  17  20
ATOM     20  O   UNL     1      59.387 -10.125  -8.050  1.00  0.00    -0.504 OA
ATOM     21  H   UNL     1      58.524  -9.812  -7.630  1.00  0.00     0.293 HD
ENDBRANCH  17  20
ENDBRANCH   1  12
BRANCH   6  22
ATOM     22  O   UNL     1      62.923  -7.618   0.656  1.00  0.00    -0.507 OA
ATOM     23  H   UNL     1      62.756  -8.550   1.003  1.00  0.00     0.293 HD
ENDBRANCH   6  22
BRANCH   8  24
ATOM     24  O   UNL     1      59.998  -4.129  -0.865  1.00  0.00    -0.508 OA
ATOM     25  H   UNL     1      60.385  -3.198  -0.964  1.00  0.00     0.293 HD
ENDBRANCH   8  24
TORSDOF 5
ENDMDL
MODEL 3
REMARK VINA RESULT:    -5.613      2.945      5.356
REMARK INTER + INTRA:          -6.890
REMARK INTER:                  -6.611
REMARK INTRA:                  -0.279
REMARK UNBOUND:                -0.293
REMARK SMILES O=c1cc(-c2ccc(O)c(O)c2)oc2cc(O)cc(O)c12
REMARK SMILES IDX 4 1 3 2 2 3 1 4 21 5 19 6 18 7 16 8 15 9 14 10 13 11 5 12
REMARK SMILES IDX 6 13 7 14 8 15 12 16 10 17 9 18 11 20 20 22 17 24
REMARK H PARENT 9 19 11 21 20 23 17 25
REMARK Flexibility Score: inf
ROOT
ATOM      1  C   UNL     1      61.857  -6.719  -0.209  1.00  0.00     0.138 A 
ATOM      2  C   UNL     1      61.473  -5.387  -0.415  1.00  0.00     0.100 A 
ATOM      3  C   UNL     1      61.143  -4.587   0.680  1.00  0.00     0.197 A 
ATOM      4  O   UNL     1      60.750  -3.413   0.459  1.00  0.00    -0.289 OA
ATOM      5  C   UNL     1      61.235  -5.115   1.991  1.00  0.00     0.107 A 
ATOM      6  C   UNL     1      60.957  -4.382   3.185  1.00  0.00     0.134 A 
ATOM      7  C   UNL     1      60.986  -5.041   4.420  1.00  0.00     0.093 A 
ATOM      8  C   UNL     1      61.340  -6.390   4.510  1.00  0.00     0.123 A 
ATOM      9  C   UNL     1      61.660  -7.099   3.357  1.00  0.00     0.094 A 
ATOM     10  C   UNL     1      61.607  -6.481   2.105  1.00  0.00     0.146 A 
ATOM     11  O   UNL     1      61.904  -7.201   1.028  1.00  0.00    -0.456 OA
ENDROOT
BRANCH   1  12
ATOM     12  C   UNL     1      62.221  -7.615  -1.338  1.00  0.00     0.021 A 
ATOM     13  C   UNL     1      63.305  -8.505  -1.255  1.00  0.00     0.016 A 
ATOM     14  C   UNL     1      63.630  -9.327  -2.336  1.00  0.00     0.051 A 
ATOM     15  C   UNL     1      62.890  -9.274  -3.522  1.00  0.00     0.157 A 
ATOM     16  C   UNL     1      61.486  -7.552  -2.534  1.00  0.00     0.062 A 
ATOM     17  C   UNL     1      61.805  -8.373  -3.623  1.00  0.00     0.158 A 
BRANCH  15  18
ATOM     18  O   UNL     1      63.265 -10.125  -4.563  1.00  0.00    -0.504 OA
ATOM     19  H   UNL     1      63.070 -11.116  -4.581  1.00  0.00     0.293 HD
ENDBRANCH  15  18
BRANCH  17  20
ATOM     20  O   UNL     1      61.023  -8.260  -4.775  1.00  0.00    -0.504 OA
ATOM     21  H   UNL     1      61.328  -7.802  -5.621  1.00  0.00     0.293 HD
ENDBRANCH  17  20
ENDBRANCH   1  12
BRANCH   6  22
ATOM     22  O   UNL     1      60.672  -3.014   3.216  1.00  0.00    -0.507 OA
ATOM     23  H   UNL     1      60.686  -2.400   2.416  1.00  0.00     0.293 HD
ENDBRANCH   6  22
BRANCH   8  24
ATOM     24  O   UNL     1      61.381  -7.031   5.746  1.00  0.00    -0.508 OA
ATOM     25  H   UNL     1      61.506  -8.033   5.820  1.00  0.00     0.293 HD
ENDBRANCH   8  24
TORSDOF 5
ENDMDL
MODEL 4
REMARK VINA RESULT:    -5.291      3.582      8.518
REMARK INTER + INTRA:          -6.511
REMARK INTER:                  -6.193
REMARK INTRA:                  -0.318
REMARK UNBOUND:                -0.293
REMARK SMILES O=c1cc(-c2ccc(O)c(O)c2)oc2cc(O)cc(O)c12
REMARK SMILES IDX 4 1 3 2 2 3 1 4 21 5 19 6 18 7 16 8 15 9 14 10 13 11 5 12
REMARK SMILES IDX 6 13 7 14 8 15 12 16 10 17 9 18 11 20 20 22 17 24
REMARK H PARENT 9 19 11 21 20 23 17 25
REMARK Flexibility Score: inf
ROOT
ATOM      1  C   UNL     1      62.645  -8.361   1.565  1.00  0.00     0.138 A 
ATOM      2  C   UNL     1      63.446  -9.269   0.859  1.00  0.00     0.100 A 
ATOM      3  C   UNL     1      63.438  -9.257  -0.537  1.00  0.00     0.197 A 
ATOM      4  O   UNL     1      64.125 -10.120  -1.141  1.00  0.00    -0.289 OA
ATOM      5  C   UNL     1      62.649  -8.305  -1.228  1.00  0.00     0.107 A 
ATOM      6  C   UNL     1      62.588  -8.176  -2.649  1.00  0.00     0.134 A 
ATOM      7  C   UNL     1      61.694  -7.261  -3.219  1.00  0.00     0.093 A 
ATOM      8  C   UNL     1      60.904  -6.431  -2.422  1.00  0.00     0.123 A 
ATOM      9  C   UNL     1      60.993  -6.515  -1.035  1.00  0.00     0.094 A 
ATOM     10  C   UNL     1      61.848  -7.441  -0.434  1.00  0.00     0.146 A 
ATOM     11  O   UNL     1      61.889  -7.499   0.893  1.00  0.00    -0.456 OA
ENDROOT
BRANCH   1  12
ATOM     12  C   UNL     1      62.618  -8.328   3.050  1.00  0.00     0.021 A 
ATOM     13  C   UNL     1      63.444  -9.161   3.824  1.00  0.00     0.016 A 
ATOM     14  C   UNL     1      63.389  -9.115   5.217  1.00  0.00     0.051 A 
ATOM     15  C   UNL     1      62.507  -8.248   5.870  1.00  0.00     0.157 A 
ATOM     16  C   UNL     1      61.722  -7.467   3.706  1.00  0.00     0.062 A 
ATOM     17  C   UNL     1      61.660  -7.413   5.103  1.00  0.00     0.158 A 
BRANCH  15  18
ATOM     18  O   UNL     1      62.504  -8.248   7.266  1.00  0.00    -0.504 OA
ATOM     19  H   UNL     1      61.670  -8.328   7.829  1.00  0.00     0.293 HD
ENDBRANCH  15  18
BRANCH  17  20
ATOM     20  O   UNL     1      60.752  -6.525   5.683  1.00  0.00    -0.504 OA
ATOM     21  H   UNL     1      59.828  -6.787   5.996  1.00  0.00     0.293 HD
ENDBRANCH  17  20
ENDBRANCH   1  12
BRANCH   6  22
ATOM     22  O   UNL     1      63.390  -8.898  -3.536  1.00  0.00    -0.507 OA
ATOM     23  H   UNL     1      63.767  -8.540  -4.401  1.00  0.00     0.293 HD
ENDBRANCH   6  22
BRANCH   8  24
ATOM     24  O   UNL     1      60.030  -5.513  -3.000  1.00  0.00    -0.508 OA
ATOM     25  H   UNL     1      59.080  -5.402  -2.667  1.00  0.00     0.293 HD
ENDBRANCH   8  24
TORSDOF 5
ENDMDL
MODEL 5
REMARK VINA RESULT:    -5.170      1.492      7.107
REMARK INTER + INTRA:          -6.370
REMARK INTER:                  -6.106
REMARK INTRA:                  -0.264
REMARK UNBOUND:                -0.293
REMARK SMILES O=c1cc(-c2ccc(O)c(O)c2)oc2cc(O)cc(O)c12
REMARK SMILES IDX 4 1 3 2 2 3 1 4 21 5 19 6 18 7 16 8 15 9 14 10 13 11 5 12
REMARK SMILES IDX 6 13 7 14 8 15 12 16 10 17 9 18 11 20 20 22 17 24
REMARK H PARENT 9 19 11 21 20 23 17 25
REMARK Flexibility Score: inf
ROOT
ATOM      1  C   UNL     1      61.651  -7.449  -3.866  1.00  0.00     0.138 A 
ATOM      2  C   UNL     1      60.969  -8.622  -4.218  1.00  0.00     0.100 A 
ATOM      3  C   UNL     1      61.051  -9.102  -5.527  1.00  0.00     0.197 A 
ATOM      4  O   UNL     1      60.383 -10.125  -5.826  1.00  0.00    -0.289 OA
ATOM      5  C   UNL     1      61.852  -8.423  -6.477  1.00  0.00     0.107 A 
ATOM      6  C   UNL     1      62.039  -8.839  -7.830  1.00  0.00     0.134 A 
ATOM      7  C   UNL     1      62.776  -8.030  -8.703  1.00  0.00     0.093 A 
ATOM      8  C   UNL     1      63.381  -6.851  -8.259  1.00  0.00     0.123 A 
ATOM      9  C   UNL     1      63.245  -6.463  -6.930  1.00  0.00     0.094 A 
ATOM     10  C   UNL     1      62.488  -7.229  -6.040  1.00  0.00     0.146 A 
ATOM     11  O   UNL     1      62.370  -6.812  -4.784  1.00  0.00    -0.456 OA
ENDROOT
BRANCH   1  12
ATOM     12  C   UNL     1      61.600  -6.895  -2.489  1.00  0.00     0.021 A 
ATOM     13  C   UNL     1      60.960  -5.677  -2.204  1.00  0.00     0.016 A 
ATOM     14  C   UNL     1      60.937  -5.177  -0.901  1.00  0.00     0.051 A 
ATOM     15  C   UNL     1      61.557  -5.872   0.143  1.00  0.00     0.157 A 
ATOM     16  C   UNL     1      62.235  -7.586  -1.443  1.00  0.00     0.062 A 
ATOM     17  C   UNL     1      62.217  -7.092  -0.133  1.00  0.00     0.158 A 
BRANCH  15  18
ATOM     18  O   UNL     1      61.495  -5.318   1.423  1.00  0.00    -0.504 OA
ATOM     19  H   UNL     1      62.107  -5.582   2.182  1.00  0.00     0.293 HD
ENDBRANCH  15  18
BRANCH  17  20
ATOM     20  O   UNL     1      62.861  -7.840   0.856  1.00  0.00    -0.504 OA
ATOM     21  H   UNL     1      63.430  -8.653   0.668  1.00  0.00     0.293 HD
ENDBRANCH  17  20
ENDBRANCH   1  12
BRANCH   6  22
ATOM     22  O   UNL     1      61.548 -10.036  -8.357  1.00  0.00    -0.507 OA
ATOM     23  H   UNL     1      62.055 -10.648  -8.978  1.00  0.00     0.293 HD
ENDBRANCH   6  22
BRANCH   8  24
ATOM     24  O   UNL     1      64.125  -6.062  -9.134  1.00  0.00    -0.508 OA
ATOM     25  H   UNL     1      64.983  -6.399  -9.552  1.00  0.00     0.293 HD
ENDBRANCH   8  24
TORSDOF 5
ENDMDL
MODEL 6
REMARK VINA RESULT:    -5.031      2.574      4.340
REMARK INTER + INTRA:          -6.206
REMARK INTER:                  -5.942
REMARK INTRA:                  -0.264
REMARK UNBOUND:                -0.293
REMARK SMILES O=c1cc(-c2ccc(O)c(O)c2)oc2cc(O)cc(O)c12
REMARK SMILES IDX 4 1 3 2 2 3 1 4 21 5 19 6 18 7 16 8 15 9 14 10 13 11 5 12
REMARK SMILES IDX 6 13 7 14 8 15 12 16 10 17 9 18 11 20 20 22 17 24
REMARK H PARENT 9 19 11 21 20 23 17 25
REMARK Flexibility Score: inf
ROOT
ATOM      1  C   UNL     1      62.081  -7.122  -0.580  1.00  0.00     0.138 A 
ATOM      2  C   UNL     1      62.333  -8.205   0.274  1.00  0.00     0.100 A 
ATOM      3  C   UNL     1      62.172  -8.048   1.651  1.00  0.00     0.197 A 
ATOM      4  O   UNL     1      62.459  -9.021   2.396  1.00  0.00    -0.289 OA
ATOM      5  C   UNL     1      61.721  -6.810   2.172  1.00  0.00     0.107 A 
ATOM      6  C   UNL     1      61.488  -6.546   3.555  1.00  0.00     0.134 A 
ATOM      7  C   UNL     1      61.137  -5.251   3.959  1.00  0.00     0.093 A 
ATOM      8  C   UNL     1      60.955  -4.228   3.025  1.00  0.00     0.123 A 
ATOM      9  C   UNL     1      61.132  -4.489   1.670  1.00  0.00     0.094 A 
ATOM     10  C   UNL     1      61.515  -5.761   1.236  1.00  0.00     0.146 A 
ATOM     11  O   UNL     1      61.690  -5.962  -0.066  1.00  0.00    -0.456 OA
ENDROOT
BRANCH   1  12
ATOM     12  C   UNL     1      62.234  -7.234  -2.054  1.00  0.00     0.021 A 
ATOM     13  C   UNL     1      63.225  -6.523  -2.752  1.00  0.00     0.016 A 
ATOM     14  C   UNL     1      63.338  -6.640  -4.138  1.00  0.00     0.051 A 
ATOM     15  C   UNL     1      62.463  -7.459  -4.860  1.00  0.00     0.157 A 
ATOM     16  C   UNL     1      61.346  -8.045  -2.781  1.00  0.00     0.062 A 
ATOM     17  C   UNL     1      61.451  -8.170  -4.172  1.00  0.00     0.158 A 
BRANCH  15  18
ATOM     18  O   UNL     1      62.631  -7.535  -6.243  1.00  0.00    -0.504 OA
ATOM     19  H   UNL     1      63.516  -7.404  -6.713  1.00  0.00     0.293 HD
ENDBRANCH  15  18
BRANCH  17  20
ATOM     20  O   UNL     1      60.539  -9.002  -4.824  1.00  0.00    -0.504 OA
ATOM     21  H   UNL     1      59.996  -8.724  -5.628  1.00  0.00     0.293 HD
ENDBRANCH  17  20
ENDBRANCH   1  12
BRANCH   6  22
ATOM     22  O   UNL     1      61.563  -7.512   4.562  1.00  0.00    -0.507 OA
ATOM     23  H   UNL     1      62.408  -7.786   5.041  1.00  0.00     0.293 HD
ENDBRANCH   6  22
BRANCH   8  24
ATOM     24  O   UNL     1      60.590  -2.948   3.437  1.00  0.00    -0.508 OA
ATOM     25  H   UNL     1      60.972  -2.120   2.996  1.00  0.00     0.293 HD
ENDBRANCH   8  24
TORSDOF 5
ENDMDL
MODEL 7
REMARK VINA RESULT:    -4.976      2.027      3.958
REMARK INTER + INTRA:          -6.142
REMARK INTER:                  -5.877
REMARK INTRA:                  -0.265
REMARK UNBOUND:                -0.293
REMARK SMILES O=c1cc(-c2ccc(O)c(O)c2)oc2cc(O)cc(O)c12
REMARK SMILES IDX 4 1 3 2 2 3 1 4 21 5 19 6 18 7 16 8 15 9 14 10 13 11 5 12
REMARK SMILES IDX 6 13 7 14 8 15 12 16 10 17 9 18 11 20 20 22 17 24
REMARK H PARENT 9 19 11 21 20 23 17 25
REMARK Flexibility Score: inf
ROOT
ATOM      1  C   UNL     1      61.664  -6.723  -1.926  1.00  0.00     0.138 A 
ATOM      2  C   UNL     1      61.131  -5.430  -1.841  1.00  0.00     0.100 A 
ATOM      3  C   UNL     1      60.909  -4.856  -0.588  1.00  0.00     0.197 A 
ATOM      4  O   UNL     1      60.378  -3.717  -0.543  1.00  0.00    -0.289 OA
ATOM      5  C   UNL     1      61.257  -5.570   0.585  1.00  0.00     0.107 A 
ATOM      6  C   UNL     1      61.108  -5.072   1.915  1.00  0.00     0.134 A 
ATOM      7  C   UNL     1      61.396  -5.909   3.000  1.00  0.00     0.093 A 
ATOM      8  C   UNL     1      61.882  -7.204   2.803  1.00  0.00     0.123 A 
ATOM      9  C   UNL     1      62.078  -7.681   1.510  1.00  0.00     0.094 A 
ATOM     10  C   UNL     1      61.767  -6.884   0.406  1.00  0.00     0.146 A 
ATOM     11  O   UNL     1      61.953  -7.384  -0.811  1.00  0.00    -0.456 OA
ENDROOT
BRANCH   1  12
ATOM     12  C   UNL     1      61.923  -7.380  -3.233  1.00  0.00     0.021 A 
ATOM     13  C   UNL     1      61.308  -8.594  -3.586  1.00  0.00     0.016 A 
ATOM     14  C   UNL     1      61.579  -9.193  -4.817  1.00  0.00     0.051 A 
ATOM     15  C   UNL     1      62.472  -8.604  -5.718  1.00  0.00     0.157 A 
ATOM     16  C   UNL     1      62.831  -6.796  -4.132  1.00  0.00     0.062 A 
ATOM     17  C   UNL     1      63.109  -7.389  -5.370  1.00  0.00     0.158 A 
BRANCH  15  18
ATOM     18  O   UNL     1      62.696  -9.252  -6.934  1.00  0.00    -0.504 OA
ATOM     19  H   UNL     1      62.629  -8.802  -7.835  1.00  0.00     0.293 HD
ENDBRANCH  15  18
BRANCH  17  20
ATOM     20  O   UNL     1      64.015  -6.744  -6.214  1.00  0.00    -0.504 OA
ATOM     21  H   UNL     1      64.956  -6.496  -5.948  1.00  0.00     0.293 HD
ENDBRANCH  17  20
ENDBRANCH   1  12
BRANCH   6  22
ATOM     22  O   UNL     1      60.707  -3.769   2.224  1.00  0.00    -0.507 OA
ATOM     23  H   UNL     1      60.408  -3.080   1.551  1.00  0.00     0.293 HD
ENDBRANCH   6  22
BRANCH   8  24
ATOM     24  O   UNL     1      62.180  -8.023   3.890  1.00  0.00    -0.508 OA
ATOM     25  H   UNL     1      62.582  -7.649   4.742  1.00  0.00     0.293 HD
ENDBRANCH   8  24
TORSDOF 5
ENDMDL
MODEL 8
REMARK VINA RESULT:    -4.846     14.653     16.678
REMARK INTER + INTRA:          -5.989
REMARK INTER:                  -5.726
REMARK INTRA:                  -0.263
REMARK UNBOUND:                -0.293
REMARK SMILES O=c1cc(-c2ccc(O)c(O)c2)oc2cc(O)cc(O)c12
REMARK SMILES IDX 4 1 3 2 2 3 1 4 21 5 19 6 18 7 16 8 15 9 14 10 13 11 5 12
REMARK SMILES IDX 6 13 7 14 8 15 12 16 10 17 9 18 11 20 20 22 17 24
REMARK H PARENT 9 19 11 21 20 23 17 25
REMARK Flexibility Score: inf
ROOT
ATOM      1  C   UNL     1      47.357  -8.788  -4.611  1.00  0.00     0.138 A 
ATOM      2  C   UNL     1      48.011  -9.439  -5.665  1.00  0.00     0.100 A 
ATOM      3  C   UNL     1      47.739  -9.065  -6.982  1.00  0.00     0.197 A 
ATOM      4  O   UNL     1      48.300  -9.705  -7.908  1.00  0.00    -0.289 OA
ATOM      5  C   UNL     1      46.834  -8.007  -7.241  1.00  0.00     0.107 A 
ATOM      6  C   UNL     1      46.506  -7.517  -8.541  1.00  0.00     0.134 A 
ATOM      7  C   UNL     1      45.520  -6.531  -8.676  1.00  0.00     0.093 A 
ATOM      8  C   UNL     1      44.893  -5.977  -7.557  1.00  0.00     0.123 A 
ATOM      9  C   UNL     1      45.243  -6.414  -6.283  1.00  0.00     0.094 A 
ATOM     10  C   UNL     1      46.197  -7.421  -6.114  1.00  0.00     0.146 A 
ATOM     11  O   UNL     1      46.488  -7.820  -4.881  1.00  0.00    -0.456 OA
ENDROOT
BRANCH   1  12
ATOM     12  C   UNL     1      47.610  -9.144  -3.191  1.00  0.00     0.021 A 
ATOM     13  C   UNL     1      46.649  -9.813  -2.412  1.00  0.00     0.016 A 
ATOM     14  C   UNL     1      46.912 -10.125  -1.078  1.00  0.00     0.051 A 
ATOM     15  C   UNL     1      48.130  -9.772  -0.487  1.00  0.00     0.157 A 
ATOM     16  C   UNL     1      48.828  -8.776  -2.593  1.00  0.00     0.062 A 
ATOM     17  C   UNL     1      49.100  -9.086  -1.255  1.00  0.00     0.158 A 
BRANCH  15  18
ATOM     18  O   UNL     1      48.331 -10.116   0.851  1.00  0.00    -0.504 OA
ATOM     19  H   UNL     1      49.188  -9.943   1.356  1.00  0.00     0.293 HD
ENDBRANCH  15  18
BRANCH  17  20
ATOM     20  O   UNL     1      50.337  -8.697  -0.734  1.00  0.00    -0.504 OA
ATOM     21  H   UNL     1      51.223  -8.896  -1.175  1.00  0.00     0.293 HD
ENDBRANCH  17  20
ENDBRANCH   1  12
BRANCH   6  22
ATOM     22  O   UNL     1      47.126  -7.941  -9.719  1.00  0.00    -0.507 OA
ATOM     23  H   UNL     1      47.250  -7.376 -10.546  1.00  0.00     0.293 HD
ENDBRANCH   6  22
BRANCH   8  24
ATOM     24  O   UNL     1      43.926  -4.986  -7.703  1.00  0.00    -0.508 OA
ATOM     25  H   UNL     1      43.436  -4.601  -6.905  1.00  0.00     0.293 HD
ENDBRANCH   8  24
TORSDOF 5
ENDMDL
MODEL 9
REMARK VINA RESULT:    -4.816      1.455      2.859
REMARK INTER + INTRA:          -5.954
REMARK INTER:                  -5.670
REMARK INTRA:                  -0.284
REMARK UNBOUND:                -0.293
REMARK SMILES O=c1cc(-c2ccc(O)c(O)c2)oc2cc(O)cc(O)c12
REMARK SMILES IDX 4 1 3 2 2 3 1 4 21 5 19 6 18 7 16 8 15 9 14 10 13 11 5 12
REMARK SMILES IDX 6 13 7 14 8 15 12 16 10 17 9 18 11 20 20 22 17 24
REMARK H PARENT 9 19 11 21 20 23 17 25
REMARK Flexibility Score: inf
ROOT
ATOM      1  C   UNL     1      62.413  -7.931  -3.601  1.00  0.00     0.138 A 
ATOM      2  C   UNL     1      61.857  -6.680  -3.299  1.00  0.00     0.100 A 
ATOM      3  C   UNL     1      61.668  -6.313  -1.966  1.00  0.00     0.197 A 
ATOM      4  O   UNL     1      61.117  -5.208  -1.728  1.00  0.00    -0.289 OA
ATOM      5  C   UNL     1      62.072  -7.191  -0.930  1.00  0.00     0.107 A 
ATOM      6  C   UNL     1      61.960  -6.908   0.466  1.00  0.00     0.134 A 
ATOM      7  C   UNL     1      62.302  -7.896   1.397  1.00  0.00     0.093 A 
ATOM      8  C   UNL     1      62.806  -9.133   0.987  1.00  0.00     0.123 A 
ATOM      9  C   UNL     1      62.966  -9.398  -0.370  1.00  0.00     0.094 A 
ATOM     10  C   UNL     1      62.601  -8.448  -1.327  1.00  0.00     0.146 A 
ATOM     11  O   UNL     1      62.754  -8.750  -2.612  1.00  0.00    -0.456 OA
ENDROOT
BRANCH   1  12
ATOM     12  C   UNL     1      62.639  -8.371  -5.002  1.00  0.00     0.021 A 
ATOM     13  C   UNL     1      62.557  -9.724  -5.375  1.00  0.00     0.016 A 
ATOM     14  C   UNL     1      62.785 -10.109  -6.697  1.00  0.00     0.051 A 
ATOM     15  C   UNL     1      63.107  -9.160  -7.673  1.00  0.00     0.157 A 
ATOM     16  C   UNL     1      62.977  -7.420  -5.979  1.00  0.00     0.062 A 
ATOM     17  C   UNL     1      63.206  -7.797  -7.308  1.00  0.00     0.158 A 
BRANCH  15  18
ATOM     18  O   UNL     1      63.319  -9.610  -8.977  1.00  0.00    -0.504 OA
ATOM     19  H   UNL     1      63.184 -10.566  -9.273  1.00  0.00     0.293 HD
ENDBRANCH  15  18
BRANCH  17  20
ATOM     20  O   UNL     1      63.528  -6.793  -8.225  1.00  0.00    -0.504 OA
ATOM     21  H   UNL     1      62.957  -6.553  -9.022  1.00  0.00     0.293 HD
ENDBRANCH  17  20
ENDBRANCH   1  12
BRANCH   6  22
ATOM     22  O   UNL     1      61.544  -5.680   0.986  1.00  0.00    -0.507 OA
ATOM     23  H   UNL     1      60.821  -5.097   0.591  1.00  0.00     0.293 HD
ENDBRANCH   6  22
BRANCH   8  24
ATOM     24  O   UNL     1      63.158 -10.102   1.923  1.00  0.00    -0.508 OA
ATOM     25  H   UNL     1      64.125 -10.355   2.087  1.00  0.00     0.293 HD
ENDBRANCH   8  24
TORSDOF 5
ENDMDL
