MODEL 1
REMARK VINA RESULT:    -5.763      0.000      0.000
REMARK INTER + INTRA:          -5.763
REMARK INTER:                  -5.763
REMARK INTRA:                   0.000
REMARK UNBOUND:                 0.000
REMARK SMILES CC1=CC[C@@]2(C)CCCC(C)(C)[C@@]23C[C@@H]13
REMARK SMILES IDX 1 1 2 2 3 3 4 4 5 5 7 6 8 7 9 8 10 9 13 10 15 11 14 12 11 13
REMARK SMILES IDX 12 14 6 15
REMARK H PARENT
REMARK Flexibility Score: inf
ROOT
ATOM      1  C   UNL     1      10.074   9.720  30.750  1.00  0.00     0.039 C 
ATOM      2  C   UNL     1       9.794   8.332  30.248  1.00  0.00    -0.074 C 
ATOM      3  C   UNL     1       9.303   7.412  31.104  1.00  0.00    -0.027 C 
ATOM      4  C   UNL     1       8.961   6.011  30.666  1.00  0.00     0.034 C 
ATOM      5  C   UNL     1       9.939   5.491  29.569  1.00  0.00    -0.022 C 
ATOM      6  C   UNL     1       9.412   4.134  29.000  1.00  0.00     0.008 C 
ATOM      7  C   UNL     1       9.681   3.917  27.496  1.00  0.00     0.001 C 
ATOM      8  C   UNL     1      11.012   4.526  27.036  1.00  0.00     0.007 C 
ATOM      9  C   UNL     1      11.027   6.085  27.160  1.00  0.00    -0.029 C 
ATOM     10  C   UNL     1      10.110   6.524  28.385  1.00  0.00    -0.012 C 
ATOM     11  C   UNL     1      10.090   8.004  28.794  1.00  0.00     0.022 C 
ATOM     12  C   UNL     1       8.890   7.427  28.050  1.00  0.00     0.017 C 
ATOM     13  C   UNL     1      10.570   6.665  25.795  1.00  0.00     0.012 C 
ATOM     14  C   UNL     1      12.486   6.559  27.374  1.00  0.00     0.012 C 
ATOM     15  C   UNL     1      11.303   5.256  30.280  1.00  0.00     0.012 C 
ENDROOT
TORSDOF 0
ENDMDL
MODEL 2
REMARK VINA RESULT:    -5.312      4.314      7.194
REMARK INTER + INTRA:          -5.312
REMARK INTER:                  -5.312
REMARK INTRA:                   0.000
REMARK UNBOUND:                 0.000
REMARK SMILES CC1=CC[C@@]2(C)CCCC(C)(C)[C@@]23C[C@@H]13
REMARK SMILES IDX 1 1 2 2 3 3 4 4 5 5 7 6 8 7 9 8 10 9 13 10 15 11 14 12 11 13
REMARK SMILES IDX 12 14 6 15
REMARK H PARENT
REMARK Flexibility Score: inf
ROOT
ATOM      1  C   UNL     1      17.501   9.726  25.805  1.00  0.00     0.039 C 
ATOM      2  C   UNL     1      16.372   9.320  24.900  1.00  0.00    -0.074 C 
ATOM      3  C   UNL     1      16.074  10.094  23.836  1.00  0.00    -0.027 C 
ATOM      4  C   UNL     1      14.981   9.734  22.862  1.00  0.00     0.034 C 
ATOM      5  C   UNL     1      13.784   9.029  23.569  1.00  0.00    -0.022 C 
ATOM      6  C   UNL     1      12.790   8.486  22.492  1.00  0.00     0.008 C 
ATOM      7  C   UNL     1      12.099   7.156  22.865  1.00  0.00     0.001 C 
ATOM      8  C   UNL     1      11.813   7.035  24.367  1.00  0.00     0.007 C 
ATOM      9  C   UNL     1      13.123   6.986  25.220  1.00  0.00    -0.029 C 
ATOM     10  C   UNL     1      14.255   7.838  24.495  1.00  0.00    -0.012 C 
ATOM     11  C   UNL     1      15.589   8.059  25.223  1.00  0.00     0.022 C 
ATOM     12  C   UNL     1      15.535   7.069  24.064  1.00  0.00     0.017 C 
ATOM     13  C   UNL     1      13.493   5.491  25.418  1.00  0.00     0.012 C 
ATOM     14  C   UNL     1      12.829   7.557  26.628  1.00  0.00     0.012 C 
ATOM     15  C   UNL     1      13.076  10.124  24.417  1.00  0.00     0.012 C 
ENDROOT
TORSDOF 0
ENDMDL
MODEL 3
REMARK VINA RESULT:    -5.156     12.086     14.660
REMARK INTER + INTRA:          -5.156
REMARK INTER:                  -5.156
REMARK INTRA:                   0.000
REMARK UNBOUND:                 0.000
REMARK SMILES CC1=CC[C@@]2(C)CCCC(C)(C)[C@@]23C[C@@H]13
REMARK SMILES IDX 1 1 2 2 3 3 4 4 5 5 7 6 8 7 9 8 10 9 13 10 15 11 14 12 11 13
REMARK SMILES IDX 12 14 6 15
REMARK H PARENT
REMARK Flexibility Score: inf
ROOT
ATOM      1  C   UNL     1       6.902   8.625  18.380  1.00  0.00     0.039 C 
ATOM      2  C   UNL     1       6.188   8.357  17.085  1.00  0.00    -0.074 C 
ATOM      3  C   UNL     1       4.849   8.518  17.028  1.00  0.00    -0.027 C 
ATOM      4  C   UNL     1       4.069   8.306  15.757  1.00  0.00     0.034 C 
ATOM      5  C   UNL     1       4.669   7.155  14.894  1.00  0.00    -0.022 C 
ATOM      6  C   UNL     1       3.962   7.125  13.500  1.00  0.00     0.008 C 
ATOM      7  C   UNL     1       4.875   6.724  12.322  1.00  0.00     0.001 C 
ATOM      8  C   UNL     1       5.933   5.685  12.716  1.00  0.00     0.007 C 
ATOM      9  C   UNL     1       6.954   6.245  13.760  1.00  0.00    -0.029 C 
ATOM     10  C   UNL     1       6.228   7.316  14.686  1.00  0.00    -0.012 C 
ATOM     11  C   UNL     1       6.995   7.893  15.884  1.00  0.00     0.022 C 
ATOM     12  C   UNL     1       6.792   8.764  14.649  1.00  0.00     0.017 C 
ATOM     13  C   UNL     1       8.162   6.816  12.969  1.00  0.00     0.012 C 
ATOM     14  C   UNL     1       7.500   5.071  14.609  1.00  0.00     0.012 C 
ATOM     15  C   UNL     1       4.360   5.834  15.656  1.00  0.00     0.012 C 
ENDROOT
TORSDOF 0
ENDMDL
MODEL 4
REMARK VINA RESULT:    -5.093     10.737     13.046
REMARK INTER + INTRA:          -5.093
REMARK INTER:                  -5.093
REMARK INTRA:                   0.000
REMARK UNBOUND:                 0.000
REMARK SMILES CC1=CC[C@@]2(C)CCCC(C)(C)[C@@]23C[C@@H]13
REMARK SMILES IDX 1 1 2 2 3 3 4 4 5 5 7 6 8 7 9 8 10 9 13 10 15 11 14 12 11 13
REMARK SMILES IDX 12 14 6 15
REMARK H PARENT
REMARK Flexibility Score: inf
ROOT
ATOM      1  C   UNL     1       0.805   9.396  16.009  1.00  0.00     0.039 C 
ATOM      2  C   UNL     1       1.820   8.870  16.984  1.00  0.00    -0.074 C 
ATOM      3  C   UNL     1       1.515   8.845  18.298  1.00  0.00    -0.027 C 
ATOM      4  C   UNL     1       2.465   8.298  19.332  1.00  0.00     0.034 C 
ATOM      5  C   UNL     1       3.952   8.593  18.967  1.00  0.00    -0.022 C 
ATOM      6  C   UNL     1       4.892   7.821  19.948  1.00  0.00     0.008 C 
ATOM      7  C   UNL     1       6.203   7.307  19.314  1.00  0.00     0.001 C 
ATOM      8  C   UNL     1       6.753   8.251  18.237  1.00  0.00     0.007 C 
ATOM      9  C   UNL     1       5.800   8.363  17.001  1.00  0.00    -0.029 C 
ATOM     10  C   UNL     1       4.293   8.181  17.480  1.00  0.00    -0.012 C 
ATOM     11  C   UNL     1       3.167   8.402  16.460  1.00  0.00     0.022 C 
ATOM     12  C   UNL     1       3.514   6.977  16.881  1.00  0.00     0.017 C 
ATOM     13  C   UNL     1       6.260   7.305  15.963  1.00  0.00     0.012 C 
ATOM     14  C   UNL     1       5.998   9.747  16.337  1.00  0.00     0.012 C 
ATOM     15  C   UNL     1       4.150  10.124  19.162  1.00  0.00     0.012 C 
ENDROOT
TORSDOF 0
ENDMDL
MODEL 5
REMARK VINA RESULT:    -5.032      5.068      7.182
REMARK INTER + INTRA:          -5.032
REMARK INTER:                  -5.032
REMARK INTRA:                   0.000
REMARK UNBOUND:                 0.000
REMARK SMILES CC1=CC[C@@]2(C)CCCC(C)(C)[C@@]23C[C@@H]13
REMARK SMILES IDX 1 1 2 2 3 3 4 4 5 5 7 6 8 7 9 8 10 9 13 10 15 11 14 12 11 13
REMARK SMILES IDX 12 14 6 15
REMARK H PARENT
REMARK Flexibility Score: inf
ROOT
ATOM      1  C   UNL     1      15.894   7.522  23.885  1.00  0.00     0.039 C 
ATOM      2  C   UNL     1      14.524   8.139  23.874  1.00  0.00    -0.074 C 
ATOM      3  C   UNL     1      13.962   8.509  25.044  1.00  0.00    -0.027 C 
ATOM      4  C   UNL     1      12.609   9.168  25.109  1.00  0.00     0.034 C 
ATOM      5  C   UNL     1      11.644   8.622  24.014  1.00  0.00    -0.022 C 
ATOM      6  C   UNL     1      10.342   9.487  23.987  1.00  0.00     0.008 C 
ATOM      7  C   UNL     1       9.724   9.679  22.586  1.00  0.00     0.001 C 
ATOM      8  C   UNL     1       9.898   8.449  21.685  1.00  0.00     0.007 C 
ATOM      9  C   UNL     1      11.400   8.163  21.356  1.00  0.00    -0.029 C 
ATOM     10  C   UNL     1      12.306   8.628  22.579  1.00  0.00    -0.012 C 
ATOM     11  C   UNL     1      13.807   8.308  22.545  1.00  0.00     0.022 C 
ATOM     12  C   UNL     1      13.351   9.740  22.286  1.00  0.00     0.017 C 
ATOM     13  C   UNL     1      11.730   8.884  20.021  1.00  0.00     0.012 C 
ATOM     14  C   UNL     1      11.577   6.647  21.092  1.00  0.00     0.012 C 
ATOM     15  C   UNL     1      11.287   7.167  24.437  1.00  0.00     0.012 C 
ENDROOT
TORSDOF 0
ENDMDL
MODEL 6
REMARK VINA RESULT:    -5.000     10.685     12.838
REMARK INTER + INTRA:          -5.000
REMARK INTER:                  -5.000
REMARK INTRA:                   0.000
REMARK UNBOUND:                 0.000
REMARK SMILES CC1=CC[C@@]2(C)CCCC(C)(C)[C@@]23C[C@@H]13
REMARK SMILES IDX 1 1 2 2 3 3 4 4 5 5 7 6 8 7 9 8 10 9 13 10 15 11 14 12 11 13
REMARK SMILES IDX 12 14 6 15
REMARK H PARENT
REMARK Flexibility Score: inf
ROOT
ATOM      1  C   UNL     1       5.325   7.545  21.641  1.00  0.00     0.039 C 
ATOM      2  C   UNL     1       4.489   8.241  20.605  1.00  0.00    -0.074 C 
ATOM      3  C   UNL     1       3.439   8.990  21.004  1.00  0.00    -0.027 C 
ATOM      4  C   UNL     1       2.578   9.748  20.027  1.00  0.00     0.034 C 
ATOM      5  C   UNL     1       2.416   8.981  18.680  1.00  0.00    -0.022 C 
ATOM      6  C   UNL     1       1.704   9.903  17.637  1.00  0.00     0.008 C 
ATOM      7  C   UNL     1       2.182   9.718  16.181  1.00  0.00     0.001 C 
ATOM      8  C   UNL     1       2.554   8.265  15.857  1.00  0.00     0.007 C 
ATOM      9  C   UNL     1       3.786   7.770  16.682  1.00  0.00    -0.029 C 
ATOM     10  C   UNL     1       3.804   8.503  18.095  1.00  0.00    -0.012 C 
ATOM     11  C   UNL     1       4.842   8.064  19.138  1.00  0.00     0.022 C 
ATOM     12  C   UNL     1       5.045   9.386  18.404  1.00  0.00     0.017 C 
ATOM     13  C   UNL     1       5.054   8.029  15.825  1.00  0.00     0.012 C 
ATOM     14  C   UNL     1       3.685   6.235  16.866  1.00  0.00     0.012 C 
ATOM     15  C   UNL     1       1.508   7.755  18.986  1.00  0.00     0.012 C 
ENDROOT
TORSDOF 0
ENDMDL
MODEL 7
REMARK VINA RESULT:    -4.982     13.335     15.527
REMARK INTER + INTRA:          -4.982
REMARK INTER:                  -4.982
REMARK INTRA:                   0.000
REMARK UNBOUND:                 0.000
REMARK SMILES CC1=CC[C@@]2(C)CCCC(C)(C)[C@@]23C[C@@H]13
REMARK SMILES IDX 1 1 2 2 3 3 4 4 5 5 7 6 8 7 9 8 10 9 13 10 15 11 14 12 11 13
REMARK SMILES IDX 12 14 6 15
REMARK H PARENT
REMARK Flexibility Score: inf
ROOT
ATOM      1  C   UNL     1       4.695   9.570  16.120  1.00  0.00     0.039 C 
ATOM      2  C   UNL     1       5.385   8.365  15.546  1.00  0.00    -0.074 C 
ATOM      3  C   UNL     1       6.053   7.536  16.375  1.00  0.00    -0.027 C 
ATOM      4  C   UNL     1       6.737   6.288  15.879  1.00  0.00     0.034 C 
ATOM      5  C   UNL     1       7.338   6.482  14.454  1.00  0.00    -0.022 C 
ATOM      6  C   UNL     1       7.837   5.106  13.906  1.00  0.00     0.008 C 
ATOM      7  C   UNL     1       7.661   4.916  12.384  1.00  0.00     0.001 C 
ATOM      8  C   UNL     1       7.851   6.219  11.597  1.00  0.00     0.007 C 
ATOM      9  C   UNL     1       6.753   7.281  11.933  1.00  0.00    -0.029 C 
ATOM     10  C   UNL     1       6.290   7.099  13.445  1.00  0.00    -0.012 C 
ATOM     11  C   UNL     1       5.324   8.130  14.046  1.00  0.00     0.022 C 
ATOM     12  C   UNL     1       4.793   6.749  13.675  1.00  0.00     0.017 C 
ATOM     13  C   UNL     1       5.608   7.109  10.900  1.00  0.00     0.012 C 
ATOM     14  C   UNL     1       7.339   8.697  11.710  1.00  0.00     0.012 C 
ATOM     15  C   UNL     1       8.553   7.440  14.623  1.00  0.00     0.012 C 
ENDROOT
TORSDOF 0
ENDMDL
MODEL 8
REMARK VINA RESULT:    -4.940     11.118     13.548
REMARK INTER + INTRA:          -4.940
REMARK INTER:                  -4.940
REMARK INTRA:                   0.000
REMARK UNBOUND:                 0.000
REMARK SMILES CC1=CC[C@@]2(C)CCCC(C)(C)[C@@]23C[C@@H]13
REMARK SMILES IDX 1 1 2 2 3 3 4 4 5 5 7 6 8 7 9 8 10 9 13 10 15 11 14 12 11 13
REMARK SMILES IDX 12 14 6 15
REMARK H PARENT
REMARK Flexibility Score: inf
ROOT
ATOM      1  C   UNL     1       7.069   7.855  19.764  1.00  0.00     0.039 C 
ATOM      2  C   UNL     1       6.018   7.953  18.694  1.00  0.00    -0.074 C 
ATOM      3  C   UNL     1       4.719   8.021  19.056  1.00  0.00    -0.027 C 
ATOM      4  C   UNL     1       3.612   8.159  18.043  1.00  0.00     0.034 C 
ATOM      5  C   UNL     1       3.930   7.389  16.726  1.00  0.00    -0.022 C 
ATOM      6  C   UNL     1       2.861   7.745  15.642  1.00  0.00     0.008 C 
ATOM      7  C   UNL     1       3.403   7.808  14.198  1.00  0.00     0.001 C 
ATOM      8  C   UNL     1       4.514   6.783  13.935  1.00  0.00     0.007 C 
ATOM      9  C   UNL     1       5.794   7.063  14.788  1.00  0.00    -0.029 C 
ATOM     10  C   UNL     1       5.371   7.728  16.171  1.00  0.00    -0.012 C 
ATOM     11  C   UNL     1       6.451   7.955  17.238  1.00  0.00     0.022 C 
ATOM     12  C   UNL     1       5.923   9.153  16.455  1.00  0.00     0.017 C 
ATOM     13  C   UNL     1       6.741   7.946  13.931  1.00  0.00     0.012 C 
ATOM     14  C   UNL     1       6.539   5.727  15.031  1.00  0.00     0.012 C 
ATOM     15  C   UNL     1       3.827   5.876  17.073  1.00  0.00     0.012 C 
ENDROOT
TORSDOF 0
ENDMDL
MODEL 9
REMARK VINA RESULT:    -4.821      8.621     11.193
REMARK INTER + INTRA:          -4.821
REMARK INTER:                  -4.821
REMARK INTRA:                   0.000
REMARK UNBOUND:                 0.000
REMARK SMILES CC1=CC[C@@]2(C)CCCC(C)(C)[C@@]23C[C@@H]13
REMARK SMILES IDX 1 1 2 2 3 3 4 4 5 5 7 6 8 7 9 8 10 9 13 10 15 11 14 12 11 13
REMARK SMILES IDX 12 14 6 15
REMARK H PARENT
REMARK Flexibility Score: inf
ROOT
ATOM      1  C   UNL     1       1.504   8.235  18.784  1.00  0.00     0.039 C 
ATOM      2  C   UNL     1       2.904   8.762  18.928  1.00  0.00    -0.074 C 
ATOM      3  C   UNL     1       3.512   9.310  17.855  1.00  0.00    -0.027 C 
ATOM      4  C   UNL     1       4.899   9.894  17.931  1.00  0.00     0.034 C 
ATOM      5  C   UNL     1       5.808   9.103  18.919  1.00  0.00    -0.022 C 
ATOM      6  C   UNL     1       7.152   9.875  19.123  1.00  0.00     0.008 C 
ATOM      7  C   UNL     1       7.747   9.771  20.544  1.00  0.00     0.001 C 
ATOM      8  C   UNL     1       7.487   8.407  21.198  1.00  0.00     0.007 C 
ATOM      9  C   UNL     1       5.965   8.149  21.449  1.00  0.00    -0.029 C 
ATOM     10  C   UNL     1       5.114   8.881  20.321  1.00  0.00    -0.012 C 
ATOM     11  C   UNL     1       3.598   8.644  20.275  1.00  0.00     0.022 C 
ATOM     12  C   UNL     1       4.121   9.976  20.801  1.00  0.00     0.017 C 
ATOM     13  C   UNL     1       5.643   8.629  22.889  1.00  0.00     0.012 C 
ATOM     14  C   UNL     1       5.704   6.622  21.424  1.00  0.00     0.012 C 
ATOM     15  C   UNL     1       6.099   7.734  18.238  1.00  0.00     0.012 C 
ENDROOT
TORSDOF 0
ENDMDL
