MODEL 1
REMARK VINA RESULT:    -3.858      0.000      0.000
REMARK INTER + INTRA:          -7.535
REMARK INTER:                  -6.226
REMARK INTRA:                  -1.309
REMARK UNBOUND:                -1.309
REMARK SMILES CCCCCCCCCCCCO
REMARK SMILES IDX 7 1 6 2 5 3 4 4 3 5 2 6 1 7 8 8 9 9 10 10 11 11 12 12 13 13
REMARK H PARENT 13 14
REMARK Flexibility Score: inf
ROOT
ATOM      1  C   UNL     1     176.600 176.134 183.258  1.00  0.00     0.000 C 
ENDROOT
BRANCH   1   2
ATOM      2  C   UNL     1     176.700 174.888 182.364  1.00  0.00    -0.000 C 
BRANCH   2   3
ATOM      3  C   UNL     1     175.322 174.298 182.017  1.00  0.00    -0.000 C 
BRANCH   3   4
ATOM      4  C   UNL     1     174.194 174.888 182.879  1.00  0.00    -0.000 C 
BRANCH   4   5
ATOM      5  C   UNL     1     173.182 175.700 182.051  1.00  0.00    -0.000 C 
BRANCH   5   6
ATOM      6  C   UNL     1     173.254 177.206 182.347  1.00  0.00    -0.003 C 
ATOM      7  C   UNL     1     171.886 177.818 182.650  1.00  0.00     0.004 C 
ENDBRANCH   5   6
ENDBRANCH   4   5
ENDBRANCH   3   4
ENDBRANCH   2   3
ENDBRANCH   1   2
BRANCH   1   8
ATOM      8  C   UNL     1     176.941 177.433 182.505  1.00  0.00     0.000 C 
BRANCH   8   9
ATOM      9  C   UNL     1     177.263 177.190 181.021  1.00  0.00     0.000 C 
BRANCH   9  10
ATOM     10  C   UNL     1     176.169 177.729 180.083  1.00  0.00     0.002 C 
BRANCH  10  11
ATOM     11  C   UNL     1     175.589 176.640 179.164  1.00  0.00     0.028 C 
BRANCH  11  12
ATOM     12  C   UNL     1     176.534 176.227 178.025  1.00  0.00     0.156 C 
BRANCH  12  13
ATOM     13  O   UNL     1     177.261 175.078 178.363  1.00  0.00    -0.396 OA
ATOM     14  H   UNL     1     177.178 174.454 177.595  1.00  0.00     0.210 HD
ENDBRANCH  12  13
ENDBRANCH  11  12
ENDBRANCH  10  11
ENDBRANCH   9  10
ENDBRANCH   8   9
ENDBRANCH   1   8
TORSDOF 11
ENDMDL
MODEL 2
REMARK VINA RESULT:    -3.739      1.558      3.166
REMARK INTER + INTRA:          -7.343
REMARK INTER:                  -5.822
REMARK INTRA:                  -1.521
REMARK UNBOUND:                -1.309
REMARK SMILES CCCCCCCCCCCCO
REMARK SMILES IDX 7 1 6 2 5 3 4 4 3 5 2 6 1 7 8 8 9 9 10 10 11 11 12 12 13 13
REMARK H PARENT 13 14
REMARK Flexibility Score: inf
ROOT
ATOM      1  C   UNL     1     177.364 177.071 181.538  1.00  0.00     0.000 C 
ENDROOT
BRANCH   1   2
ATOM      2  C   UNL     1     176.629 177.773 180.385  1.00  0.00    -0.000 C 
BRANCH   2   3
ATOM      3  C   UNL     1     176.182 176.792 179.286  1.00  0.00    -0.000 C 
BRANCH   3   4
ATOM      4  C   UNL     1     174.879 176.059 179.645  1.00  0.00    -0.000 C 
BRANCH   4   5
ATOM      5  C   UNL     1     173.769 177.020 180.107  1.00  0.00    -0.000 C 
BRANCH   5   6
ATOM      6  C   UNL     1     172.930 176.439 181.257  1.00  0.00    -0.003 C 
ATOM      7  C   UNL     1     172.898 177.348 182.486  1.00  0.00     0.004 C 
ENDBRANCH   5   6
ENDBRANCH   4   5
ENDBRANCH   3   4
ENDBRANCH   2   3
ENDBRANCH   1   2
BRANCH   1   8
ATOM      8  C   UNL     1     176.522 177.009 182.826  1.00  0.00     0.000 C 
BRANCH   8   9
ATOM      9  C   UNL     1     176.103 175.576 183.193  1.00  0.00     0.000 C 
BRANCH   9  10
ATOM     10  C   UNL     1     176.913 174.512 182.432  1.00  0.00     0.002 C 
BRANCH  10  11
ATOM     11  C   UNL     1     176.040 173.344 181.941  1.00  0.00     0.028 C 
BRANCH  11  12
ATOM     12  C   UNL     1     176.447 172.809 180.559  1.00  0.00     0.156 C 
BRANCH  12  13
ATOM     13  O   UNL     1     177.502 171.893 180.662  1.00  0.00    -0.396 OA
ATOM     14  H   UNL     1     177.859 171.765 179.744  1.00  0.00     0.210 HD
ENDBRANCH  12  13
ENDBRANCH  11  12
ENDBRANCH  10  11
ENDBRANCH   9  10
ENDBRANCH   8   9
ENDBRANCH   1   8
TORSDOF 11
ENDMDL
MODEL 3
REMARK VINA RESULT:    -3.689      2.954      5.419
REMARK INTER + INTRA:          -7.262
REMARK INTER:                  -5.991
REMARK INTRA:                  -1.272
REMARK UNBOUND:                -1.309
REMARK SMILES CCCCCCCCCCCCO
REMARK SMILES IDX 7 1 6 2 5 3 4 4 3 5 2 6 1 7 8 8 9 9 10 10 11 11 12 12 13 13
REMARK H PARENT 13 14
REMARK Flexibility Score: inf
ROOT
ATOM      1  C   UNL     1     173.925 175.854 180.343  1.00  0.00     0.000 C 
ENDROOT
BRANCH   1   2
ATOM      2  C   UNL     1     174.554 177.202 179.954  1.00  0.00    -0.000 C 
BRANCH   2   3
ATOM      3  C   UNL     1     176.009 177.056 179.472  1.00  0.00    -0.000 C 
BRANCH   3   4
ATOM      4  C   UNL     1     176.945 176.530 180.572  1.00  0.00    -0.000 C 
BRANCH   4   5
ATOM      5  C   UNL     1     177.082 177.511 181.749  1.00  0.00    -0.000 C 
BRANCH   5   6
ATOM      6  C   UNL     1     176.773 176.853 183.103  1.00  0.00    -0.003 C 
ATOM      7  C   UNL     1     176.536 175.347 182.990  1.00  0.00     0.004 C 
ENDBRANCH   5   6
ENDBRANCH   4   5
ENDBRANCH   3   4
ENDBRANCH   2   3
ENDBRANCH   1   2
BRANCH   1   8
ATOM      8  C   UNL     1     173.107 175.936 181.645  1.00  0.00     0.000 C 
BRANCH   8   9
ATOM      9  C   UNL     1     173.352 177.242 182.418  1.00  0.00     0.000 C 
BRANCH   9  10
ATOM     10  C   UNL     1     172.055 178.026 182.679  1.00  0.00     0.002 C 
BRANCH  10  11
ATOM     11  C   UNL     1     170.811 177.316 182.118  1.00  0.00     0.028 C 
BRANCH  11  12
ATOM     12  C   UNL     1     169.812 176.875 183.200  1.00  0.00     0.156 C 
BRANCH  12  13
ATOM     13  O   UNL     1     169.835 177.749 184.295  1.00  0.00    -0.396 OA
ATOM     14  H   UNL     1     170.727 177.649 184.721  1.00  0.00     0.210 HD
ENDBRANCH  12  13
ENDBRANCH  11  12
ENDBRANCH  10  11
ENDBRANCH   9  10
ENDBRANCH   8   9
ENDBRANCH   1   8
TORSDOF 11
ENDMDL
MODEL 4
REMARK VINA RESULT:    -3.679      1.277      2.577
REMARK INTER + INTRA:          -7.247
REMARK INTER:                  -6.319
REMARK INTRA:                  -0.927
REMARK UNBOUND:                -1.309
REMARK SMILES CCCCCCCCCCCCO
REMARK SMILES IDX 7 1 6 2 5 3 4 4 3 5 2 6 1 7 8 8 9 9 10 10 11 11 12 12 13 13
REMARK H PARENT 13 14
REMARK Flexibility Score: inf
ROOT
ATOM      1  C   UNL     1     174.688 175.692 182.783  1.00  0.00     0.000 C 
ENDROOT
BRANCH   1   2
ATOM      2  C   UNL     1     173.825 176.948 182.577  1.00  0.00    -0.000 C 
BRANCH   2   3
ATOM      3  C   UNL     1     172.900 176.834 181.352  1.00  0.00    -0.000 C 
BRANCH   3   4
ATOM      4  C   UNL     1     171.572 177.585 181.544  1.00  0.00    -0.000 C 
BRANCH   4   5
ATOM      5  C   UNL     1     171.209 177.772 183.028  1.00  0.00    -0.000 C 
BRANCH   5   6
ATOM      6  C   UNL     1     169.916 177.037 183.414  1.00  0.00    -0.003 C 
ATOM      7  C   UNL     1     170.088 175.518 183.459  1.00  0.00     0.004 C 
ENDBRANCH   5   6
ENDBRANCH   4   5
ENDBRANCH   3   4
ENDBRANCH   2   3
ENDBRANCH   1   2
BRANCH   1   8
ATOM      8  C   UNL     1     176.184 176.021 182.940  1.00  0.00     0.000 C 
BRANCH   8   9
ATOM      9  C   UNL     1     176.569 177.360 182.290  1.00  0.00     0.000 C 
BRANCH   9  10
ATOM     10  C   UNL     1     177.315 177.176 180.957  1.00  0.00     0.002 C 
BRANCH  10  11
ATOM     11  C   UNL     1     176.362 177.086 179.753  1.00  0.00     0.028 C 
BRANCH  11  12
ATOM     12  C   UNL     1     176.137 175.651 179.251  1.00  0.00     0.156 C 
BRANCH  12  13
ATOM     13  O   UNL     1     177.241 175.192 178.520  1.00  0.00    -0.396 OA
ATOM     14  H   UNL     1     177.656 175.990 178.101  1.00  0.00     0.210 HD
ENDBRANCH  12  13
ENDBRANCH  11  12
ENDBRANCH  10  11
ENDBRANCH   9  10
ENDBRANCH   8   9
ENDBRANCH   1   8
TORSDOF 11
ENDMDL
MODEL 5
REMARK VINA RESULT:    -3.676      1.547      3.867
REMARK INTER + INTRA:          -7.242
REMARK INTER:                  -5.996
REMARK INTRA:                  -1.246
REMARK UNBOUND:                -1.309
REMARK SMILES CCCCCCCCCCCCO
REMARK SMILES IDX 7 1 6 2 5 3 4 4 3 5 2 6 1 7 8 8 9 9 10 10 11 11 12 12 13 13
REMARK H PARENT 13 14
REMARK Flexibility Score: inf
ROOT
ATOM      1  C   UNL     1     174.200 175.117 182.599  1.00  0.00     0.000 C 
ENDROOT
BRANCH   1   2
ATOM      2  C   UNL     1     174.109 176.648 182.493  1.00  0.00    -0.000 C 
BRANCH   2   3
ATOM      3  C   UNL     1     173.562 177.113 181.132  1.00  0.00    -0.000 C 
BRANCH   3   4
ATOM      4  C   UNL     1     174.310 176.479 179.948  1.00  0.00    -0.000 C 
BRANCH   4   5
ATOM      5  C   UNL     1     175.137 177.506 179.154  1.00  0.00    -0.000 C 
BRANCH   5   6
ATOM      6  C   UNL     1     176.650 177.288 179.309  1.00  0.00    -0.003 C 
ATOM      7  C   UNL     1     177.258 178.125 180.434  1.00  0.00     0.004 C 
ENDBRANCH   5   6
ENDBRANCH   4   5
ENDBRANCH   3   4
ENDBRANCH   2   3
ENDBRANCH   1   2
BRANCH   1   8
ATOM      8  C   UNL     1     175.492 174.647 183.293  1.00  0.00     0.000 C 
BRANCH   8   9
ATOM      9  C   UNL     1     176.756 175.253 182.662  1.00  0.00     0.000 C 
BRANCH   9  10
ATOM     10  C   UNL     1     177.236 174.467 181.430  1.00  0.00     0.002 C 
BRANCH  10  11
ATOM     11  C   UNL     1     177.269 172.948 181.672  1.00  0.00     0.028 C 
BRANCH  11  12
ATOM     12  C   UNL     1     176.446 172.143 180.655  1.00  0.00     0.156 C 
BRANCH  12  13
ATOM     13  O   UNL     1     176.547 172.698 179.371  1.00  0.00    -0.396 OA
ATOM     14  H   UNL     1     177.157 172.110 178.855  1.00  0.00     0.210 HD
ENDBRANCH  12  13
ENDBRANCH  11  12
ENDBRANCH  10  11
ENDBRANCH   9  10
ENDBRANCH   8   9
ENDBRANCH   1   8
TORSDOF 11
ENDMDL
MODEL 6
REMARK VINA RESULT:    -3.666      1.515      4.004
REMARK INTER + INTRA:          -7.226
REMARK INTER:                  -5.862
REMARK INTRA:                  -1.364
REMARK UNBOUND:                -1.309
REMARK SMILES CCCCCCCCCCCCO
REMARK SMILES IDX 7 1 6 2 5 3 4 4 3 5 2 6 1 7 8 8 9 9 10 10 11 11 12 12 13 13
REMARK H PARENT 13 14
REMARK Flexibility Score: inf
ROOT
ATOM      1  C   UNL     1     175.080 176.994 182.924  1.00  0.00     0.000 C 
ENDROOT
BRANCH   1   2
ATOM      2  C   UNL     1     176.557 176.698 182.618  1.00  0.00    -0.000 C 
BRANCH   2   3
ATOM      3  C   UNL     1     177.265 177.880 181.930  1.00  0.00    -0.000 C 
BRANCH   3   4
ATOM      4  C   UNL     1     177.233 177.774 180.396  1.00  0.00    -0.000 C 
BRANCH   4   5
ATOM      5  C   UNL     1     176.885 176.357 179.910  1.00  0.00    -0.000 C 
BRANCH   5   6
ATOM      6  C   UNL     1     175.839 176.362 178.784  1.00  0.00    -0.003 C 
ATOM      7  C   UNL     1     174.678 177.318 179.057  1.00  0.00     0.004 C 
ENDBRANCH   5   6
ENDBRANCH   4   5
ENDBRANCH   3   4
ENDBRANCH   2   3
ENDBRANCH   1   2
BRANCH   1   8
ATOM      8  C   UNL     1     174.140 175.872 182.448  1.00  0.00     0.000 C 
BRANCH   8   9
ATOM      9  C   UNL     1     174.592 174.480 182.919  1.00  0.00     0.000 C 
BRANCH   9  10
ATOM     10  C   UNL     1     174.941 173.544 181.749  1.00  0.00     0.002 C 
BRANCH  10  11
ATOM     11  C   UNL     1     176.393 173.039 181.808  1.00  0.00     0.028 C 
BRANCH  11  12
ATOM     12  C   UNL     1     176.773 172.116 180.640  1.00  0.00     0.156 C 
BRANCH  12  13
ATOM     13  O   UNL     1     176.504 172.725 179.407  1.00  0.00    -0.396 OA
ATOM     14  H   UNL     1     176.287 173.675 179.600  1.00  0.00     0.210 HD
ENDBRANCH  12  13
ENDBRANCH  11  12
ENDBRANCH  10  11
ENDBRANCH   9  10
ENDBRANCH   8   9
ENDBRANCH   1   8
TORSDOF 11
ENDMDL
MODEL 7
REMARK VINA RESULT:    -3.665      2.569      4.656
REMARK INTER + INTRA:          -7.225
REMARK INTER:                  -5.951
REMARK INTRA:                  -1.274
REMARK UNBOUND:                -1.309
REMARK SMILES CCCCCCCCCCCCO
REMARK SMILES IDX 7 1 6 2 5 3 4 4 3 5 2 6 1 7 8 8 9 9 10 10 11 11 12 12 13 13
REMARK H PARENT 13 14
REMARK Flexibility Score: inf
ROOT
ATOM      1  C   UNL     1     174.794 174.827 182.750  1.00  0.00     0.000 C 
ENDROOT
BRANCH   1   2
ATOM      2  C   UNL     1     175.890 175.792 183.230  1.00  0.00    -0.000 C 
BRANCH   2   3
ATOM      3  C   UNL     1     176.995 176.001 182.178  1.00  0.00    -0.000 C 
BRANCH   3   4
ATOM      4  C   UNL     1     177.023 177.436 181.629  1.00  0.00    -0.000 C 
BRANCH   4   5
ATOM      5  C   UNL     1     176.944 177.482 180.093  1.00  0.00    -0.000 C 
BRANCH   5   6
ATOM      6  C   UNL     1     175.496 177.456 179.578  1.00  0.00    -0.003 C 
ATOM      7  C   UNL     1     175.139 176.145 178.877  1.00  0.00     0.004 C 
ENDBRANCH   5   6
ENDBRANCH   4   5
ENDBRANCH   3   4
ENDBRANCH   2   3
ENDBRANCH   1   2
BRANCH   1   8
ATOM      8  C   UNL     1     173.567 175.560 182.179  1.00  0.00     0.000 C 
BRANCH   8   9
ATOM      9  C   UNL     1     173.513 177.039 182.595  1.00  0.00     0.000 C 
BRANCH   9  10
ATOM     10  C   UNL     1     172.212 177.730 182.154  1.00  0.00     0.002 C 
BRANCH  10  11
ATOM     11  C   UNL     1     171.594 177.084 180.901  1.00  0.00     0.028 C 
BRANCH  11  12
ATOM     12  C   UNL     1     170.062 177.180 180.850  1.00  0.00     0.156 C 
BRANCH  12  13
ATOM     13  O   UNL     1     169.646 178.125 179.901  1.00  0.00    -0.396 OA
ATOM     14  H   UNL     1     169.199 177.619 179.174  1.00  0.00     0.210 HD
ENDBRANCH  12  13
ENDBRANCH  11  12
ENDBRANCH  10  11
ENDBRANCH   9  10
ENDBRANCH   8   9
ENDBRANCH   1   8
TORSDOF 11
ENDMDL
MODEL 8
REMARK VINA RESULT:    -3.638      2.674      4.395
REMARK INTER + INTRA:          -7.180
REMARK INTER:                  -5.791
REMARK INTRA:                  -1.389
REMARK UNBOUND:                -1.309
REMARK SMILES CCCCCCCCCCCCO
REMARK SMILES IDX 7 1 6 2 5 3 4 4 3 5 2 6 1 7 8 8 9 9 10 10 11 11 12 12 13 13
REMARK H PARENT 13 14
REMARK Flexibility Score: inf
ROOT
ATOM      1  C   UNL     1     175.989 176.277 179.653  1.00  0.00     0.000 C 
ENDROOT
BRANCH   1   2
ATOM      2  C   UNL     1     176.978 176.169 180.825  1.00  0.00    -0.000 C 
BRANCH   2   3
ATOM      3  C   UNL     1     176.733 177.240 181.904  1.00  0.00    -0.000 C 
BRANCH   3   4
ATOM      4  C   UNL     1     176.248 176.638 183.233  1.00  0.00    -0.000 C 
BRANCH   4   5
ATOM      5  C   UNL     1     176.185 175.101 183.196  1.00  0.00    -0.000 C 
BRANCH   5   6
ATOM      6  C   UNL     1     174.742 174.571 183.182  1.00  0.00    -0.003 C 
ATOM      7  C   UNL     1     174.471 173.620 182.017  1.00  0.00     0.004 C 
ENDBRANCH   5   6
ENDBRANCH   4   5
ENDBRANCH   3   4
ENDBRANCH   2   3
ENDBRANCH   1   2
BRANCH   1   8
ATOM      8  C   UNL     1     174.920 177.362 179.878  1.00  0.00     0.000 C 
BRANCH   8   9
ATOM      9  C   UNL     1     173.527 176.773 180.151  1.00  0.00     0.000 C 
BRANCH   9  10
ATOM     10  C   UNL     1     172.950 177.224 181.504  1.00  0.00     0.002 C 
BRANCH  10  11
ATOM     11  C   UNL     1     171.436 177.495 181.442  1.00  0.00     0.028 C 
BRANCH  11  12
ATOM     12  C   UNL     1     170.903 177.687 180.014  1.00  0.00     0.156 C 
BRANCH  12  13
ATOM     13  O   UNL     1     169.531 177.972 180.021  1.00  0.00    -0.396 OA
ATOM     14  H   UNL     1     169.212 177.811 180.947  1.00  0.00     0.210 HD
ENDBRANCH  12  13
ENDBRANCH  11  12
ENDBRANCH  10  11
ENDBRANCH   9  10
ENDBRANCH   8   9
ENDBRANCH   1   8
TORSDOF 11
ENDMDL
MODEL 9
REMARK VINA RESULT:    -3.552      1.094      2.894
REMARK INTER + INTRA:          -7.041
REMARK INTER:                  -5.830
REMARK INTRA:                  -1.211
REMARK UNBOUND:                -1.309
REMARK SMILES CCCCCCCCCCCCO
REMARK SMILES IDX 7 1 6 2 5 3 4 4 3 5 2 6 1 7 8 8 9 9 10 10 11 11 12 12 13 13
REMARK H PARENT 13 14
REMARK Flexibility Score: inf
ROOT
ATOM      1  C   UNL     1     175.833 176.486 183.250  1.00  0.00     0.000 C 
ENDROOT
BRANCH   1   2
ATOM      2  C   UNL     1     174.375 176.781 182.862  1.00  0.00    -0.000 C 
BRANCH   2   3
ATOM      3  C   UNL     1     173.734 175.633 182.061  1.00  0.00    -0.000 C 
BRANCH   3   4
ATOM      4  C   UNL     1     174.182 174.248 182.554  1.00  0.00    -0.000 C 
BRANCH   4   5
ATOM      5  C   UNL     1     174.809 173.397 181.435  1.00  0.00    -0.000 C 
BRANCH   5   6
ATOM      6  C   UNL     1     176.345 173.383 181.497  1.00  0.00    -0.003 C 
ATOM      7  C   UNL     1     176.919 171.976 181.662  1.00  0.00     0.004 C 
ENDBRANCH   5   6
ENDBRANCH   4   5
ENDBRANCH   3   4
ENDBRANCH   2   3
ENDBRANCH   1   2
BRANCH   1   8
ATOM      8  C   UNL     1     176.827 177.473 182.613  1.00  0.00     0.000 C 
BRANCH   8   9
ATOM      9  C   UNL     1     177.342 176.995 181.245  1.00  0.00     0.000 C 
BRANCH   9  10
ATOM     10  C   UNL     1     176.663 177.721 180.071  1.00  0.00     0.002 C 
BRANCH  10  11
ATOM     11  C   UNL     1     175.805 176.778 179.210  1.00  0.00     0.028 C 
BRANCH  11  12
ATOM     12  C   UNL     1     176.562 176.175 178.016  1.00  0.00     0.156 C 
BRANCH  12  13
ATOM     13  O   UNL     1     177.267 175.024 178.394  1.00  0.00    -0.396 OA
ATOM     14  H   UNL     1     178.055 175.332 178.913  1.00  0.00     0.210 HD
ENDBRANCH  12  13
ENDBRANCH  11  12
ENDBRANCH  10  11
ENDBRANCH   9  10
ENDBRANCH   8   9
ENDBRANCH   1   8
TORSDOF 11
ENDMDL
