MODEL 1
REMARK VINA RESULT:    -6.210      0.000      0.000
REMARK INTER + INTRA:         -10.288
REMARK INTER:                  -9.477
REMARK INTRA:                  -0.811
REMARK UNBOUND:                -0.811
REMARK SMILES CC(=O)CCC=C(C)CCC=C(C)CCC=C(C)C
REMARK SMILES IDX 10 1 11 2 12 3 13 4 14 5 15 6 16 7 18 8 17 9 19 10 9 11 7 12
REMARK SMILES IDX 6 13 8 14 5 15 4 16 2 17 3 18 1 19
REMARK H PARENT
REMARK Flexibility Score: inf
ROOT
ATOM      1  C   UNL     1      72.245  62.420  25.682  1.00  0.00     0.032 C 
ENDROOT
BRANCH   1   2
ATOM      2  C   UNL     1      71.276  62.420  26.837  1.00  0.00    -0.028 C 
ATOM      3  C   UNL     1      71.543  61.903  28.058  1.00  0.00    -0.077 C 
ATOM      4  C   UNL     1      72.891  61.310  28.396  1.00  0.00     0.039 C 
BRANCH   3   5
ATOM      5  C   UNL     1      70.472  61.947  29.124  1.00  0.00     0.034 C 
BRANCH   5   6
ATOM      6  C   UNL     1      69.671  60.640  29.144  1.00  0.00     0.032 C 
BRANCH   6   7
ATOM      7  C   UNL     1      68.352  60.806  28.432  1.00  0.00    -0.028 C 
ATOM      8  C   UNL     1      69.211  59.849  26.282  1.00  0.00     0.039 C 
ATOM      9  C   UNL     1      68.138  60.477  27.137  1.00  0.00    -0.080 C 
ATOM     10  C   UNL     1      66.784  60.709  26.519  1.00  0.00     0.039 C 
ENDBRANCH   6   7
ENDBRANCH   5   6
ENDBRANCH   3   5
ENDBRANCH   1   2
BRANCH   1  11
ATOM     11  C   UNL     1      71.722  63.283  24.528  1.00  0.00     0.034 C 
BRANCH  11  12
ATOM     12  C   UNL     1      71.599  62.463  23.264  1.00  0.00    -0.077 C 
ATOM     13  C   UNL     1      71.508  63.104  22.076  1.00  0.00    -0.028 C 
ATOM     14  C   UNL     1      71.590  60.955  23.359  1.00  0.00     0.039 C 
BRANCH  13  15
ATOM     15  C   UNL     1      71.279  62.420  20.749  1.00  0.00     0.035 C 
BRANCH  15  16
ATOM     16  C   UNL     1      72.540  62.461  19.876  1.00  0.00     0.079 C 
BRANCH  16  17
ATOM     17  C   UNL     1      73.177  63.827  19.889  1.00  0.00     0.130 C 
ATOM     18  O   UNL     1      72.468  64.822  19.875  1.00  0.00    -0.300 OA
ATOM     19  C   UNL     1      74.668  63.990  19.912  1.00  0.00     0.087 C 
ENDBRANCH  16  17
ENDBRANCH  15  16
ENDBRANCH  13  15
ENDBRANCH  11  12
ENDBRANCH   1  11
TORSDOF 9
ENDMDL
MODEL 2
REMARK VINA RESULT:    -6.152      2.862      8.391
REMARK INTER + INTRA:         -10.200
REMARK INTER:                  -9.346
REMARK INTRA:                  -0.854
REMARK UNBOUND:                -0.811
REMARK SMILES CC(=O)CCC=C(C)CCC=C(C)CCC=C(C)C
REMARK SMILES IDX 10 1 11 2 12 3 13 4 14 5 15 6 16 7 18 8 17 9 19 10 9 11 7 12
REMARK SMILES IDX 6 13 8 14 5 15 4 16 2 17 3 18 1 19
REMARK H PARENT
REMARK Flexibility Score: inf
ROOT
ATOM      1  C   UNL     1      71.325  62.456  23.578  1.00  0.00     0.032 C 
ENDROOT
BRANCH   1   2
ATOM      2  C   UNL     1      71.943  63.619  22.844  1.00  0.00    -0.028 C 
ATOM      3  C   UNL     1      72.160  63.651  21.510  1.00  0.00    -0.077 C 
ATOM      4  C   UNL     1      71.744  62.514  20.606  1.00  0.00     0.039 C 
BRANCH   3   5
ATOM      5  C   UNL     1      72.811  64.873  20.901  1.00  0.00     0.034 C 
BRANCH   5   6
ATOM      6  C   UNL     1      74.319  64.655  20.727  1.00  0.00     0.032 C 
BRANCH   6   7
ATOM      7  C   UNL     1      75.097  65.437  21.755  1.00  0.00    -0.028 C 
ATOM      8  C   UNL     1      77.294  65.064  20.609  1.00  0.00     0.039 C 
ATOM      9  C   UNL     1      76.439  65.608  21.728  1.00  0.00    -0.080 C 
ATOM     10  C   UNL     1      77.118  66.390  22.823  1.00  0.00     0.039 C 
ENDBRANCH   6   7
ENDBRANCH   5   6
ENDBRANCH   3   5
ENDBRANCH   1   2
BRANCH   1  11
ATOM     11  C   UNL     1      71.629  62.533  25.079  1.00  0.00     0.034 C 
BRANCH  11  12
ATOM     12  C   UNL     1      71.065  61.328  25.797  1.00  0.00    -0.077 C 
ATOM     13  C   UNL     1      71.014  61.338  27.150  1.00  0.00    -0.028 C 
ATOM     14  C   UNL     1      70.568  60.152  24.990  1.00  0.00     0.039 C 
BRANCH  13  15
ATOM     15  C   UNL     1      70.574  60.170  27.999  1.00  0.00     0.035 C 
BRANCH  15  16
ATOM     16  C   UNL     1      69.321  60.514  28.814  1.00  0.00     0.079 C 
BRANCH  16  17
ATOM     17  C   UNL     1      68.216  61.041  27.933  1.00  0.00     0.130 C 
ATOM     18  O   UNL     1      67.864  62.205  28.043  1.00  0.00    -0.300 OA
ATOM     19  C   UNL     1      67.535  60.161  26.927  1.00  0.00     0.087 C 
ENDBRANCH  16  17
ENDBRANCH  15  16
ENDBRANCH  13  15
ENDBRANCH  11  12
ENDBRANCH   1  11
TORSDOF 9
ENDMDL
MODEL 3
REMARK VINA RESULT:    -5.845      1.485      2.128
REMARK INTER + INTRA:          -9.731
REMARK INTER:                  -8.749
REMARK INTRA:                  -0.982
REMARK UNBOUND:                -0.811
REMARK SMILES CC(=O)CCC=C(C)CCC=C(C)CCC=C(C)C
REMARK SMILES IDX 10 1 11 2 12 3 13 4 14 5 15 6 16 7 18 8 17 9 19 10 9 11 7 12
REMARK SMILES IDX 6 13 8 14 5 15 4 16 2 17 3 18 1 19
REMARK H PARENT
REMARK Flexibility Score: inf
ROOT
ATOM      1  C   UNL     1      71.789  63.176  24.706  1.00  0.00     0.032 C 
ENDROOT
BRANCH   1   2
ATOM      2  C   UNL     1      71.799  62.391  25.993  1.00  0.00    -0.028 C 
ATOM      3  C   UNL     1      71.487  62.906  27.204  1.00  0.00    -0.077 C 
ATOM      4  C   UNL     1      71.039  64.340  27.369  1.00  0.00     0.039 C 
BRANCH   3   5
ATOM      5  C   UNL     1      71.558  62.014  28.423  1.00  0.00     0.034 C 
BRANCH   5   6
ATOM      6  C   UNL     1      71.033  60.610  28.099  1.00  0.00     0.032 C 
BRANCH   6   7
ATOM      7  C   UNL     1      69.540  60.631  27.887  1.00  0.00    -0.028 C 
ATOM      8  C   UNL     1      69.690  59.611  25.603  1.00  0.00     0.039 C 
ATOM      9  C   UNL     1      68.925  60.207  26.759  1.00  0.00    -0.080 C 
ATOM     10  C   UNL     1      67.424  60.296  26.645  1.00  0.00     0.039 C 
ENDBRANCH   6   7
ENDBRANCH   5   6
ENDBRANCH   3   5
ENDBRANCH   1   2
BRANCH   1  11
ATOM     11  C   UNL     1      71.418  62.277  23.520  1.00  0.00     0.034 C 
BRANCH  11  12
ATOM     12  C   UNL     1      71.804  62.934  22.214  1.00  0.00    -0.077 C 
ATOM     13  C   UNL     1      72.566  64.052  22.246  1.00  0.00    -0.028 C 
ATOM     14  C   UNL     1      71.339  62.323  20.914  1.00  0.00     0.039 C 
BRANCH  13  15
ATOM     15  C   UNL     1      72.939  64.868  21.032  1.00  0.00     0.035 C 
BRANCH  15  16
ATOM     16  C   UNL     1      74.130  64.249  20.289  1.00  0.00     0.079 C 
BRANCH  16  17
ATOM     17  C   UNL     1      75.442  64.798  20.790  1.00  0.00     0.130 C 
ATOM     18  O   UNL     1      76.482  64.452  20.252  1.00  0.00    -0.300 OA
ATOM     19  C   UNL     1      75.495  65.757  21.942  1.00  0.00     0.087 C 
ENDBRANCH  16  17
ENDBRANCH  15  16
ENDBRANCH  13  15
ENDBRANCH  11  12
ENDBRANCH   1  11
TORSDOF 9
ENDMDL
MODEL 4
REMARK VINA RESULT:    -5.576      2.179      6.892
REMARK INTER + INTRA:          -9.320
REMARK INTER:                  -8.407
REMARK INTRA:                  -0.912
REMARK UNBOUND:                -0.811
REMARK SMILES CC(=O)CCC=C(C)CCC=C(C)CCC=C(C)C
REMARK SMILES IDX 10 1 11 2 12 3 13 4 14 5 15 6 16 7 18 8 17 9 19 10 9 11 7 12
REMARK SMILES IDX 6 13 8 14 5 15 4 16 2 17 3 18 1 19
REMARK H PARENT
REMARK Flexibility Score: inf
ROOT
ATOM      1  C   UNL     1      73.143  62.068  27.901  1.00  0.00     0.032 C 
ENDROOT
BRANCH   1   2
ATOM      2  C   UNL     1      72.483  62.004  26.546  1.00  0.00    -0.028 C 
ATOM      3  C   UNL     1      71.549  62.880  26.111  1.00  0.00    -0.077 C 
ATOM      4  C   UNL     1      71.111  64.061  26.945  1.00  0.00     0.039 C 
BRANCH   3   5
ATOM      5  C   UNL     1      70.949  62.689  24.736  1.00  0.00     0.034 C 
BRANCH   5   6
ATOM      6  C   UNL     1      71.782  63.416  23.674  1.00  0.00     0.032 C 
BRANCH   6   7
ATOM      7  C   UNL     1      71.617  62.766  22.323  1.00  0.00    -0.028 C 
ATOM      8  C   UNL     1      73.029  64.473  21.152  1.00  0.00     0.039 C 
ATOM      9  C   UNL     1      72.152  63.245  21.176  1.00  0.00    -0.080 C 
ATOM     10  C   UNL     1      71.902  62.526  19.875  1.00  0.00     0.039 C 
ENDBRANCH   6   7
ENDBRANCH   5   6
ENDBRANCH   3   5
ENDBRANCH   1   2
BRANCH   1  11
ATOM     11  C   UNL     1      72.768  60.846  28.749  1.00  0.00     0.034 C 
BRANCH  11  12
ATOM     12  C   UNL     1      71.296  60.532  28.606  1.00  0.00    -0.077 C 
ATOM     13  C   UNL     1      70.390  61.420  29.078  1.00  0.00    -0.028 C 
ATOM     14  C   UNL     1      70.877  59.244  27.937  1.00  0.00     0.039 C 
BRANCH  13  15
ATOM     15  C   UNL     1      68.897  61.192  29.096  1.00  0.00     0.035 C 
BRANCH  15  16
ATOM     16  C   UNL     1      68.218  61.855  27.892  1.00  0.00     0.079 C 
BRANCH  16  17
ATOM     17  C   UNL     1      67.994  60.872  26.771  1.00  0.00     0.130 C 
ATOM     18  O   UNL     1      68.837  60.758  25.894  1.00  0.00    -0.300 OA
ATOM     19  C   UNL     1      66.752  60.033  26.707  1.00  0.00     0.087 C 
ENDBRANCH  16  17
ENDBRANCH  15  16
ENDBRANCH  13  15
ENDBRANCH  11  12
ENDBRANCH   1  11
TORSDOF 9
ENDMDL
MODEL 5
REMARK VINA RESULT:    -5.334      2.799      4.303
REMARK INTER + INTRA:          -8.952
REMARK INTER:                  -8.021
REMARK INTRA:                  -0.931
REMARK UNBOUND:                -0.811
REMARK SMILES CC(=O)CCC=C(C)CCC=C(C)CCC=C(C)C
REMARK SMILES IDX 10 1 11 2 12 3 13 4 14 5 15 6 16 7 18 8 17 9 19 10 9 11 7 12
REMARK SMILES IDX 6 13 8 14 5 15 4 16 2 17 3 18 1 19
REMARK H PARENT
REMARK Flexibility Score: inf
ROOT
ATOM      1  C   UNL     1      72.257  64.326  23.122  1.00  0.00     0.032 C 
ENDROOT
BRANCH   1   2
ATOM      2  C   UNL     1      71.760  62.910  23.269  1.00  0.00    -0.028 C 
ATOM      3  C   UNL     1      71.518  62.306  24.455  1.00  0.00    -0.077 C 
ATOM      4  C   UNL     1      71.680  63.033  25.769  1.00  0.00     0.039 C 
BRANCH   3   5
ATOM      5  C   UNL     1      71.041  60.871  24.463  1.00  0.00     0.034 C 
BRANCH   5   6
ATOM      6  C   UNL     1      70.638  60.441  25.879  1.00  0.00     0.032 C 
BRANCH   6   7
ATOM      7  C   UNL     1      69.174  60.081  25.935  1.00  0.00    -0.028 C 
ATOM      8  C   UNL     1      68.668  61.756  27.728  1.00  0.00     0.039 C 
ATOM      9  C   UNL     1      68.282  60.648  26.780  1.00  0.00    -0.080 C 
ATOM     10  C   UNL     1      66.845  60.193  26.767  1.00  0.00     0.039 C 
ENDBRANCH   6   7
ENDBRANCH   5   6
ENDBRANCH   3   5
ENDBRANCH   1   2
BRANCH   1  11
ATOM     11  C   UNL     1      72.338  64.726  21.644  1.00  0.00     0.034 C 
BRANCH  11  12
ATOM     12  C   UNL     1      73.771  64.685  21.161  1.00  0.00    -0.077 C 
ATOM     13  C   UNL     1      74.715  65.358  21.859  1.00  0.00    -0.028 C 
ATOM     14  C   UNL     1      74.110  63.891  19.921  1.00  0.00     0.039 C 
BRANCH  13  15
ATOM     15  C   UNL     1      76.159  65.490  21.438  1.00  0.00     0.035 C 
BRANCH  15  16
ATOM     16  C   UNL     1      76.947  66.368  22.418  1.00  0.00     0.079 C 
BRANCH  16  17
ATOM     17  C   UNL     1      77.457  67.621  21.753  1.00  0.00     0.130 C 
ATOM     18  O   UNL     1      78.125  67.532  20.735  1.00  0.00    -0.300 OA
ATOM     19  C   UNL     1      77.164  68.978  22.322  1.00  0.00     0.087 C 
ENDBRANCH  16  17
ENDBRANCH  15  16
ENDBRANCH  13  15
ENDBRANCH  11  12
ENDBRANCH   1  11
TORSDOF 9
ENDMDL
MODEL 6
REMARK VINA RESULT:    -5.084      2.432      7.880
REMARK INTER + INTRA:          -8.570
REMARK INTER:                  -7.629
REMARK INTRA:                  -0.941
REMARK UNBOUND:                -0.811
REMARK SMILES CC(=O)CCC=C(C)CCC=C(C)CCC=C(C)C
REMARK SMILES IDX 10 1 11 2 12 3 13 4 14 5 15 6 16 7 18 8 17 9 19 10 9 11 7 12
REMARK SMILES IDX 6 13 8 14 5 15 4 16 2 17 3 18 1 19
REMARK H PARENT
REMARK Flexibility Score: inf
ROOT
ATOM      1  C   UNL     1      71.378  60.930  24.417  1.00  0.00     0.032 C 
ENDROOT
BRANCH   1   2
ATOM      2  C   UNL     1      71.524  61.110  22.927  1.00  0.00    -0.028 C 
ATOM      3  C   UNL     1      71.665  62.307  22.313  1.00  0.00    -0.077 C 
ATOM      4  C   UNL     1      71.742  63.599  23.092  1.00  0.00     0.039 C 
BRANCH   3   5
ATOM      5  C   UNL     1      71.779  62.349  20.806  1.00  0.00     0.034 C 
BRANCH   5   6
ATOM      6  C   UNL     1      72.268  63.725  20.337  1.00  0.00     0.032 C 
BRANCH   6   7
ATOM      7  C   UNL     1      73.703  63.657  19.875  1.00  0.00    -0.028 C 
ATOM      8  C   UNL     1      74.515  65.235  21.644  1.00  0.00     0.039 C 
ATOM      9  C   UNL     1      74.719  64.350  20.439  1.00  0.00    -0.080 C 
ATOM     10  C   UNL     1      76.113  64.225  19.879  1.00  0.00     0.039 C 
ENDBRANCH   6   7
ENDBRANCH   5   6
ENDBRANCH   3   5
ENDBRANCH   1   2
BRANCH   1  11
ATOM     11  C   UNL     1      70.282  59.906  24.739  1.00  0.00     0.034 C 
BRANCH  11  12
ATOM     12  C   UNL     1      69.721  60.146  26.122  1.00  0.00    -0.077 C 
ATOM     13  C   UNL     1      70.515  59.923  27.196  1.00  0.00    -0.028 C 
ATOM     14  C   UNL     1      68.300  60.635  26.269  1.00  0.00     0.039 C 
BRANCH  13  15
ATOM     15  C   UNL     1      70.059  60.021  28.632  1.00  0.00     0.035 C 
BRANCH  15  16
ATOM     16  C   UNL     1      70.295  61.428  29.197  1.00  0.00     0.079 C 
BRANCH  16  17
ATOM     17  C   UNL     1      71.469  62.101  28.533  1.00  0.00     0.130 C 
ATOM     18  O   UNL     1      72.601  61.711  28.776  1.00  0.00    -0.300 OA
ATOM     19  C   UNL     1      71.276  63.245  27.582  1.00  0.00     0.087 C 
ENDBRANCH  16  17
ENDBRANCH  15  16
ENDBRANCH  13  15
ENDBRANCH  11  12
ENDBRANCH   1  11
TORSDOF 9
ENDMDL
MODEL 7
REMARK VINA RESULT:    -5.019      2.628      6.434
REMARK INTER + INTRA:          -8.471
REMARK INTER:                  -7.117
REMARK INTRA:                  -1.353
REMARK UNBOUND:                -0.811
REMARK SMILES CC(=O)CCC=C(C)CCC=C(C)CCC=C(C)C
REMARK SMILES IDX 10 1 11 2 12 3 13 4 14 5 15 6 16 7 18 8 17 9 19 10 9 11 7 12
REMARK SMILES IDX 6 13 8 14 5 15 4 16 2 17 3 18 1 19
REMARK H PARENT
REMARK Flexibility Score: inf
ROOT
ATOM      1  C   UNL     1      68.039  60.511  27.588  1.00  0.00     0.032 C 
ENDROOT
BRANCH   1   2
ATOM      2  C   UNL     1      68.755  60.396  26.266  1.00  0.00    -0.028 C 
ATOM      3  C   UNL     1      69.921  59.734  26.086  1.00  0.00    -0.077 C 
ATOM      4  C   UNL     1      70.600  58.991  27.213  1.00  0.00     0.039 C 
BRANCH   3   5
ATOM      5  C   UNL     1      70.548  59.714  24.710  1.00  0.00     0.034 C 
BRANCH   5   6
ATOM      6  C   UNL     1      71.082  61.101  24.336  1.00  0.00     0.032 C 
BRANCH   6   7
ATOM      7  C   UNL     1      71.356  61.191  22.855  1.00  0.00    -0.028 C 
ATOM      8  C   UNL     1      71.749  63.664  22.915  1.00  0.00     0.039 C 
ATOM      9  C   UNL     1      71.633  62.341  22.199  1.00  0.00    -0.080 C 
ATOM     10  C   UNL     1      71.867  62.318  20.710  1.00  0.00     0.039 C 
ENDBRANCH   6   7
ENDBRANCH   5   6
ENDBRANCH   3   5
ENDBRANCH   1   2
BRANCH   1  11
ATOM     11  C   UNL     1      68.239  61.904  28.198  1.00  0.00     0.034 C 
BRANCH  11  12
ATOM     12  C   UNL     1      69.702  62.148  28.494  1.00  0.00    -0.077 C 
ATOM     13  C   UNL     1      70.458  62.786  27.570  1.00  0.00    -0.028 C 
ATOM     14  C   UNL     1      70.277  61.683  29.812  1.00  0.00     0.039 C 
BRANCH  13  15
ATOM     15  C   UNL     1      71.947  63.006  27.686  1.00  0.00     0.035 C 
BRANCH  15  16
ATOM     16  C   UNL     1      72.727  61.742  27.304  1.00  0.00     0.079 C 
BRANCH  16  17
ATOM     17  C   UNL     1      73.721  61.360  28.371  1.00  0.00     0.130 C 
ATOM     18  O   UNL     1      74.158  62.220  29.121  1.00  0.00    -0.300 OA
ATOM     19  C   UNL     1      74.188  59.943  28.529  1.00  0.00     0.087 C 
ENDBRANCH  16  17
ENDBRANCH  15  16
ENDBRANCH  13  15
ENDBRANCH  11  12
ENDBRANCH   1  11
TORSDOF 9
ENDMDL
MODEL 8
REMARK VINA RESULT:    -4.963      1.281      2.972
REMARK INTER + INTRA:          -8.385
REMARK INTER:                  -6.991
REMARK INTRA:                  -1.393
REMARK UNBOUND:                -0.811
REMARK SMILES CC(=O)CCC=C(C)CCC=C(C)CCC=C(C)C
REMARK SMILES IDX 10 1 11 2 12 3 13 4 14 5 15 6 16 7 18 8 17 9 19 10 9 11 7 12
REMARK SMILES IDX 6 13 8 14 5 15 4 16 2 17 3 18 1 19
REMARK H PARENT
REMARK Flexibility Score: inf
ROOT
ATOM      1  C   UNL     1      70.279  60.267  24.355  1.00  0.00     0.032 C 
ENDROOT
BRANCH   1   2
ATOM      2  C   UNL     1      70.431  60.021  25.835  1.00  0.00    -0.028 C 
ATOM      3  C   UNL     1      69.453  60.224  26.747  1.00  0.00    -0.077 C 
ATOM      4  C   UNL     1      68.069  60.678  26.345  1.00  0.00     0.039 C 
BRANCH   3   5
ATOM      5  C   UNL     1      69.745  59.959  28.207  1.00  0.00     0.034 C 
BRANCH   5   6
ATOM      6  C   UNL     1      70.898  60.842  28.699  1.00  0.00     0.032 C 
BRANCH   6   7
ATOM      7  C   UNL     1      70.640  62.293  28.376  1.00  0.00    -0.028 C 
ATOM      8  C   UNL     1      72.593  62.457  26.814  1.00  0.00     0.039 C 
ATOM      9  C   UNL     1      71.409  63.037  27.549  1.00  0.00    -0.080 C 
ATOM     10  C   UNL     1      71.072  64.488  27.316  1.00  0.00     0.039 C 
ENDBRANCH   6   7
ENDBRANCH   5   6
ENDBRANCH   3   5
ENDBRANCH   1   2
BRANCH   1  11
ATOM     11  C   UNL     1      71.636  60.567  23.708  1.00  0.00     0.034 C 
BRANCH  11  12
ATOM     12  C   UNL     1      71.558  61.824  22.870  1.00  0.00    -0.077 C 
ATOM     13  C   UNL     1      71.594  61.712  21.522  1.00  0.00    -0.028 C 
ATOM     14  C   UNL     1      71.435  63.164  23.557  1.00  0.00     0.039 C 
BRANCH  13  15
ATOM     15  C   UNL     1      71.629  62.882  20.567  1.00  0.00     0.035 C 
BRANCH  15  16
ATOM     16  C   UNL     1      72.993  62.995  19.875  1.00  0.00     0.079 C 
BRANCH  16  17
ATOM     17  C   UNL     1      73.796  64.149  20.420  1.00  0.00     0.130 C 
ATOM     18  O   UNL     1      74.955  64.295  20.064  1.00  0.00    -0.300 OA
ATOM     19  C   UNL     1      73.201  65.119  21.397  1.00  0.00     0.087 C 
ENDBRANCH  16  17
ENDBRANCH  15  16
ENDBRANCH  13  15
ENDBRANCH  11  12
ENDBRANCH   1  11
TORSDOF 9
ENDMDL
MODEL 9
REMARK VINA RESULT:    -4.463     10.454     13.735
REMARK INTER + INTRA:          -7.622
REMARK INTER:                  -5.409
REMARK INTRA:                  -2.213
REMARK UNBOUND:                -0.811
REMARK SMILES CC(=O)CCC=C(C)CCC=C(C)CCC=C(C)C
REMARK SMILES IDX 10 1 11 2 12 3 13 4 14 5 15 6 16 7 18 8 17 9 19 10 9 11 7 12
REMARK SMILES IDX 6 13 8 14 5 15 4 16 2 17 3 18 1 19
REMARK H PARENT
REMARK Flexibility Score: inf
ROOT
ATOM      1  C   UNL     1      74.047  73.156  19.875  1.00  0.00     0.032 C 
ENDROOT
BRANCH   1   2
ATOM      2  C   UNL     1      75.433  72.621  20.131  1.00  0.00    -0.028 C 
ATOM      3  C   UNL     1      75.778  71.882  21.210  1.00  0.00    -0.077 C 
ATOM      4  C   UNL     1      74.766  71.475  22.256  1.00  0.00     0.039 C 
BRANCH   3   5
ATOM      5  C   UNL     1      77.212  71.425  21.358  1.00  0.00     0.034 C 
BRANCH   5   6
ATOM      6  C   UNL     1      77.914  72.196  22.482  1.00  0.00     0.032 C 
BRANCH   6   7
ATOM      7  C   UNL     1      78.106  73.644  22.103  1.00  0.00    -0.028 C 
ATOM      8  C   UNL     1      76.385  74.464  23.729  1.00  0.00     0.039 C 
ATOM      9  C   UNL     1      77.407  74.671  22.638  1.00  0.00    -0.080 C 
ATOM     10  C   UNL     1      77.665  76.079  22.166  1.00  0.00     0.039 C 
ENDBRANCH   6   7
ENDBRANCH   5   6
ENDBRANCH   3   5
ENDBRANCH   1   2
BRANCH   1  11
ATOM     11  C   UNL     1      74.024  74.686  19.979  1.00  0.00     0.034 C 
BRANCH  11  12
ATOM     12  C   UNL     1      73.451  75.119  21.310  1.00  0.00    -0.077 C 
ATOM     13  C   UNL     1      72.556  74.313  21.929  1.00  0.00    -0.028 C 
ATOM     14  C   UNL     1      73.895  76.430  21.915  1.00  0.00     0.039 C 
BRANCH  13  15
ATOM     15  C   UNL     1      71.828  74.664  23.204  1.00  0.00     0.035 C 
BRANCH  15  16
ATOM     16  C   UNL     1      70.614  73.752  23.421  1.00  0.00     0.079 C 
BRANCH  16  17
ATOM     17  C   UNL     1      71.013  72.432  24.030  1.00  0.00     0.130 C 
ATOM     18  O   UNL     1      71.208  71.469  23.304  1.00  0.00    -0.300 OA
ATOM     19  C   UNL     1      71.172  72.276  25.513  1.00  0.00     0.087 C 
ENDBRANCH  16  17
ENDBRANCH  15  16
ENDBRANCH  13  15
ENDBRANCH  11  12
ENDBRANCH   1  11
TORSDOF 9
ENDMDL
