MODEL 1
REMARK VINA RESULT:    -2.495      0.000      0.000
REMARK INTER + INTRA:          -2.910
REMARK INTER:                  -2.860
REMARK INTRA:                  -0.051
REMARK UNBOUND:                -0.051
REMARK SMILES O=C([O-])c1cc(O)c(O)c(O)c1
REMARK SMILES IDX 4 1 5 2 12 3 6 4 10 5 8 6 2 7 1 8 3 9 7 10 11 12 9 14
REMARK H PARENT 7 11 11 13 9 15
REMARK Flexibility Score: inf
ROOT
ATOM      1  C   UNL     1       5.675   7.008  13.143  1.00  0.00     0.005 A 
ATOM      2  C   UNL     1       6.539   6.508  12.154  1.00  0.00     0.060 A 
ATOM      3  C   UNL     1       6.198   7.833  14.152  1.00  0.00     0.060 A 
ATOM      4  C   UNL     1       7.902   6.823  12.171  1.00  0.00     0.162 A 
ATOM      5  C   UNL     1       7.563   8.154  14.177  1.00  0.00     0.162 A 
ATOM      6  C   UNL     1       8.420   7.648  13.184  1.00  0.00     0.200 A 
ENDROOT
BRANCH   1   7
ATOM      7  C   UNL     1       4.233   6.674  13.124  1.00  0.00     0.072 C 
ATOM      8  O   UNL     1       3.386   7.463  13.621  1.00  0.00    -0.545 OA
ATOM      9  O   UNL     1       3.793   5.485  12.557  1.00  0.00    -0.545 OA
ENDBRANCH   1   7
BRANCH   4  10
ATOM     10  O   UNL     1       8.727   6.305  11.172  1.00  0.00    -0.504 OA
ATOM     11  H   UNL     1       8.455   6.303  10.196  1.00  0.00     0.293 HD
ENDBRANCH   4  10
BRANCH   5  12
ATOM     12  O   UNL     1       8.070   8.973  15.184  1.00  0.00    -0.504 OA
ATOM     13  H   UNL     1       8.985   9.403  15.110  1.00  0.00     0.293 HD
ENDBRANCH   5  12
BRANCH   6  14
ATOM     14  O   UNL     1       9.780   7.957  13.193  1.00  0.00    -0.502 OA
ATOM     15  H   UNL     1      10.119   8.901  13.337  1.00  0.00     0.293 HD
ENDBRANCH   6  14
TORSDOF 4
ENDMDL
MODEL 2
REMARK VINA RESULT:    -2.449      0.047      2.430
REMARK INTER + INTRA:          -2.858
REMARK INTER:                  -2.807
REMARK INTRA:                  -0.050
REMARK UNBOUND:                -0.051
REMARK SMILES O=C([O-])c1cc(O)c(O)c(O)c1
REMARK SMILES IDX 4 1 5 2 12 3 6 4 10 5 8 6 2 7 1 8 3 9 7 10 11 12 9 14
REMARK H PARENT 7 11 11 13 9 15
REMARK Flexibility Score: inf
ROOT
ATOM      1  C   UNL     1       5.681   7.041  13.166  1.00  0.00     0.005 A 
ATOM      2  C   UNL     1       6.223   7.862  14.171  1.00  0.00     0.060 A 
ATOM      3  C   UNL     1       6.532   6.525  12.175  1.00  0.00     0.060 A 
ATOM      4  C   UNL     1       7.588   8.165  14.186  1.00  0.00     0.162 A 
ATOM      5  C   UNL     1       7.902   6.824  12.183  1.00  0.00     0.162 A 
ATOM      6  C   UNL     1       8.434   7.647  13.191  1.00  0.00     0.200 A 
ENDROOT
BRANCH   1   7
ATOM      7  C   UNL     1       4.236   6.722  13.151  1.00  0.00     0.072 C 
ATOM      8  O   UNL     1       3.393   7.547  13.592  1.00  0.00    -0.545 OA
ATOM      9  O   UNL     1       3.789   5.506  12.647  1.00  0.00    -0.545 OA
ENDBRANCH   1   7
BRANCH   4  10
ATOM     10  O   UNL     1       8.086   8.984  15.200  1.00  0.00    -0.504 OA
ATOM     11  H   UNL     1       7.776   9.941  15.321  1.00  0.00     0.293 HD
ENDBRANCH   4  10
BRANCH   5  12
ATOM     12  O   UNL     1       8.736   6.306  11.193  1.00  0.00    -0.504 OA
ATOM     13  H   UNL     1       8.716   5.325  10.942  1.00  0.00     0.293 HD
ENDBRANCH   5  12
BRANCH   6  14
ATOM     14  O   UNL     1       9.795   7.953  13.215  1.00  0.00    -0.502 OA
ATOM     15  H   UNL     1      10.237   8.387  14.016  1.00  0.00     0.293 HD
ENDBRANCH   6  14
TORSDOF 4
ENDMDL
MODEL 3
REMARK VINA RESULT:    -2.433      1.573      4.343
REMARK INTER + INTRA:          -2.840
REMARK INTER:                  -2.795
REMARK INTRA:                  -0.045
REMARK UNBOUND:                -0.051
REMARK SMILES O=C([O-])c1cc(O)c(O)c(O)c1
REMARK SMILES IDX 4 1 5 2 12 3 6 4 10 5 8 6 2 7 1 8 3 9 7 10 11 12 9 14
REMARK H PARENT 7 11 11 13 9 15
REMARK Flexibility Score: inf
ROOT
ATOM      1  C   UNL     1       7.525   7.918  13.487  1.00  0.00     0.005 A 
ATOM      2  C   UNL     1       7.043   6.640  13.816  1.00  0.00     0.060 A 
ATOM      3  C   UNL     1       6.801   8.708  12.580  1.00  0.00     0.060 A 
ATOM      4  C   UNL     1       5.860   6.156  13.249  1.00  0.00     0.162 A 
ATOM      5  C   UNL     1       5.614   8.230  12.006  1.00  0.00     0.162 A 
ATOM      6  C   UNL     1       5.140   6.950  12.340  1.00  0.00     0.200 A 
ENDROOT
BRANCH   1   7
ATOM      7  C   UNL     1       8.777   8.430  14.088  1.00  0.00     0.072 C 
ATOM      8  O   UNL     1       8.760   9.023  15.199  1.00  0.00    -0.545 OA
ATOM      9  O   UNL     1       9.992   8.262  13.434  1.00  0.00    -0.545 OA
ENDBRANCH   1   7
BRANCH   4  10
ATOM     10  O   UNL     1       5.415   4.881  13.601  1.00  0.00    -0.504 OA
ATOM     11  H   UNL     1       4.439   4.616  13.547  1.00  0.00     0.293 HD
ENDBRANCH   4  10
BRANCH   5  12
ATOM     12  O   UNL     1       4.904   9.023  11.106  1.00  0.00    -0.504 OA
ATOM     13  H   UNL     1       4.166   8.640  10.527  1.00  0.00     0.293 HD
ENDBRANCH   5  12
BRANCH   6  14
ATOM     14  O   UNL     1       3.960   6.459  11.780  1.00  0.00    -0.502 OA
ATOM     15  H   UNL     1       3.807   5.470  11.624  1.00  0.00     0.293 HD
ENDBRANCH   6  14
TORSDOF 4
ENDMDL
MODEL 4
REMARK VINA RESULT:    -2.388      1.579      4.373
REMARK INTER + INTRA:          -2.788
REMARK INTER:                  -2.744
REMARK INTRA:                  -0.045
REMARK UNBOUND:                -0.051
REMARK SMILES O=C([O-])c1cc(O)c(O)c(O)c1
REMARK SMILES IDX 4 1 5 2 12 3 6 4 10 5 8 6 2 7 1 8 3 9 7 10 11 12 9 14
REMARK H PARENT 7 11 11 13 9 15
REMARK Flexibility Score: inf
ROOT
ATOM      1  C   UNL     1       7.540   7.905  13.516  1.00  0.00     0.005 A 
ATOM      2  C   UNL     1       6.831   8.688  12.588  1.00  0.00     0.060 A 
ATOM      3  C   UNL     1       7.052   6.631  13.847  1.00  0.00     0.060 A 
ATOM      4  C   UNL     1       5.656   8.208  12.001  1.00  0.00     0.162 A 
ATOM      5  C   UNL     1       5.875   6.143  13.263  1.00  0.00     0.162 A 
ATOM      6  C   UNL     1       5.172   6.933  12.336  1.00  0.00     0.200 A 
ENDROOT
BRANCH   1   7
ATOM      7  C   UNL     1       8.783   8.414  14.137  1.00  0.00     0.072 C 
ATOM      8  O   UNL     1       8.749   9.000  15.252  1.00  0.00    -0.545 OA
ATOM      9  O   UNL     1      10.008   8.250  13.500  1.00  0.00    -0.545 OA
ENDBRANCH   1   7
BRANCH   4  10
ATOM     10  O   UNL     1       4.982   9.016  11.084  1.00  0.00    -0.504 OA
ATOM     11  H   UNL     1       5.219   9.028  10.099  1.00  0.00     0.293 HD
ENDBRANCH   4  10
BRANCH   5  12
ATOM     12  O   UNL     1       5.400   4.876  13.600  1.00  0.00    -0.504 OA
ATOM     13  H   UNL     1       4.879   4.714  14.453  1.00  0.00     0.293 HD
ENDBRANCH   5  12
BRANCH   6  14
ATOM     14  O   UNL     1       3.999   6.462  11.745  1.00  0.00    -0.502 OA
ATOM     15  H   UNL     1       3.443   7.033  11.120  1.00  0.00     0.293 HD
ENDBRANCH   6  14
TORSDOF 4
ENDMDL
MODEL 5
REMARK VINA RESULT:    -0.456      1.964      2.458
REMARK INTER + INTRA:          -0.573
REMARK INTER:                  -0.526
REMARK INTRA:                  -0.047
REMARK UNBOUND:                -0.051
REMARK SMILES O=C([O-])c1cc(O)c(O)c(O)c1
REMARK SMILES IDX 4 1 5 2 12 3 6 4 10 5 8 6 2 7 1 8 3 9 7 10 11 12 9 14
REMARK H PARENT 7 11 11 13 9 15
REMARK Flexibility Score: inf
ROOT
ATOM      1  C   UNL     1       4.653   6.293  12.510  1.00  0.00     0.005 A 
ATOM      2  C   UNL     1       4.639   7.478  11.755  1.00  0.00     0.060 A 
ATOM      3  C   UNL     1       5.738   6.043  13.367  1.00  0.00     0.060 A 
ATOM      4  C   UNL     1       5.686   8.399  11.852  1.00  0.00     0.162 A 
ATOM      5  C   UNL     1       6.793   6.961  13.470  1.00  0.00     0.162 A 
ATOM      6  C   UNL     1       6.769   8.144  12.711  1.00  0.00     0.200 A 
ENDROOT
BRANCH   1   7
ATOM      7  C   UNL     1       3.544   5.318  12.407  1.00  0.00     0.072 C 
ATOM      8  O   UNL     1       3.181   4.878  11.284  1.00  0.00    -0.545 OA
ATOM      9  O   UNL     1       2.887   4.875  13.548  1.00  0.00    -0.545 OA
ENDBRANCH   1   7
BRANCH   4  10
ATOM     10  O   UNL     1       5.634   9.564  11.085  1.00  0.00    -0.504 OA
ATOM     11  H   UNL     1       5.016   9.657  10.288  1.00  0.00     0.293 HD
ENDBRANCH   4  10
BRANCH   5  12
ATOM     12  O   UNL     1       7.864   6.702  14.324  1.00  0.00    -0.504 OA
ATOM     13  H   UNL     1       8.697   7.278  14.320  1.00  0.00     0.293 HD
ENDBRANCH   5  12
BRANCH   6  14
ATOM     14  O   UNL     1       7.810   9.069  12.801  1.00  0.00    -0.502 OA
ATOM     15  H   UNL     1       8.783   8.797  12.722  1.00  0.00     0.293 HD
ENDBRANCH   6  14
TORSDOF 4
ENDMDL
