MODEL 1
REMARK VINA RESULT:    -4.919      0.000      0.000
REMARK INTER + INTRA:          -6.494
REMARK INTER:                  -6.931
REMARK INTRA:                   0.438
REMARK UNBOUND:                 0.438
REMARK SMILES CC1=CCC(=C(C)C)C(=O)CC(C)=CCC1
REMARK SMILES IDX 12 1 14 2 13 3 15 4 16 5 2 6 1 7 3 8 11 10 9 11 10 12 5 13
REMARK SMILES IDX 6 14 7 15 8 16 4 17
REMARK H PARENT
REMARK Flexibility Score: 60.00
ROOT
ATOM      1  C   UNL     1     -11.631 -16.938  32.082  1.00  0.00    -0.070 C 
ATOM      2  C   UNL     1     -11.650 -18.280  32.266  1.00  0.00    -0.027 C 
ATOM      3  C   UNL     1     -10.773 -16.122  33.018  1.00  0.00     0.039 C 
ENDROOT
BRANCH   2   4
ATOM      4  C   UNL     1     -12.513 -19.271  31.521  1.00  0.00     0.032 C 
BRANCH   4   5
ATOM      5  C   UNL     1     -11.874 -19.735  30.197  1.00  0.00     0.034 C 
BRANCH   5   6
ATOM      6  C   UNL     1     -12.858 -19.704  29.044  1.00  0.00    -0.077 C 
ATOM      7  C   UNL     1     -13.997 -20.693  29.050  1.00  0.00     0.039 C 
ATOM      8  C   UNL     1     -12.790 -18.822  28.022  1.00  0.00    -0.023 CG0
ATOM      9  G   UNL     1     -11.751 -17.739  27.859  1.00  0.00     0.000 G0
ENDBRANCH   5   6
ENDBRANCH   4   5
ENDBRANCH   2   4
BRANCH   1  10
ATOM     10  C   UNL     1     -12.469 -16.215  31.041  1.00  0.00     0.111 C 
BRANCH  10  11
ATOM     11  C   UNL     1     -11.707 -16.018  29.754  1.00  0.00     0.163 C 
ATOM     12  O   UNL     1     -10.546 -15.530  29.820  1.00  0.00    -0.294 OA
BRANCH  11  13
ATOM     13  C   UNL     1     -12.267 -16.432  28.430  1.00  0.00    -0.002 C 
ATOM     14  C   UNL     1     -13.247 -15.710  27.807  1.00  0.00    -0.069 C 
ATOM     15  C   UNL     1     -13.783 -16.116  26.450  1.00  0.00     0.039 C 
ATOM     16  C   UNL     1     -13.869 -14.494  28.455  1.00  0.00     0.039 C 
BRANCH  13  17
ATOM     17  C   UNL     1     -11.755 -17.734  27.841  1.00  0.00     0.066 CG0
ATOM     18  G   UNL     1     -12.795 -18.816  28.009  1.00  0.00     0.000 G0
ENDBRANCH  13  17
ENDBRANCH  11  13
ENDBRANCH  10  11
ENDBRANCH   1  10
TORSDOF 0
ENDMDL
MODEL 2
REMARK VINA RESULT:    -4.824      1.657      3.403
REMARK INTER + INTRA:          -6.360
REMARK INTER:                  -7.071
REMARK INTRA:                   0.711
REMARK UNBOUND:                 0.438
REMARK SMILES CC1=CCC(=C(C)C)C(=O)CC(C)=CCC1
REMARK SMILES IDX 12 1 14 2 13 3 15 4 16 5 2 6 1 7 3 8 11 10 9 11 10 12 5 13
REMARK SMILES IDX 6 14 7 15 8 16 4 17
REMARK H PARENT
REMARK Flexibility Score: 60.00
ROOT
ATOM      1  C   UNL     1     -12.807 -19.347  29.428  1.00  0.00    -0.070 C 
ATOM      2  C   UNL     1     -13.243 -19.541  30.696  1.00  0.00    -0.027 C 
ATOM      3  C   UNL     1     -13.744 -19.724  28.306  1.00  0.00     0.039 C 
ENDROOT
BRANCH   2   4
ATOM      4  C   UNL     1     -12.440 -19.336  31.959  1.00  0.00     0.032 C 
BRANCH   4   5
ATOM      5  C   UNL     1     -11.972 -17.878  32.132  1.00  0.00     0.034 C 
BRANCH   5   6
ATOM      6  C   UNL     1     -13.089 -16.884  31.880  1.00  0.00    -0.077 C 
ATOM      7  C   UNL     1     -14.285 -16.904  32.799  1.00  0.00     0.039 C 
ATOM      8  C   UNL     1     -13.062 -15.959  30.894  1.00  0.00    -0.023 CG0
ATOM      9  G   UNL     1     -11.942 -15.760  29.901  1.00  0.00     0.000 G0
ENDBRANCH   5   6
ENDBRANCH   4   5
ENDBRANCH   2   4
BRANCH   1  10
ATOM     10  C   UNL     1     -11.417 -18.840  29.081  1.00  0.00     0.111 C 
BRANCH  10  11
ATOM     11  C   UNL     1     -11.476 -17.619  28.198  1.00  0.00     0.163 C 
ATOM     12  O   UNL     1     -10.869 -17.656  27.092  1.00  0.00    -0.294 OA
BRANCH  11  13
ATOM     13  C   UNL     1     -12.269 -16.407  28.574  1.00  0.00    -0.002 C 
ATOM     14  C   UNL     1     -13.211 -15.877  27.736  1.00  0.00    -0.069 C 
ATOM     15  C   UNL     1     -14.035 -14.673  28.139  1.00  0.00     0.039 C 
ATOM     16  C   UNL     1     -13.452 -16.442  26.355  1.00  0.00     0.039 C 
BRANCH  13  17
ATOM     17  C   UNL     1     -11.930 -15.743  29.896  1.00  0.00     0.066 CG0
ATOM     18  G   UNL     1     -13.048 -15.972  30.885  1.00  0.00     0.000 G0
ENDBRANCH  13  17
ENDBRANCH  11  13
ENDBRANCH  10  11
ENDBRANCH   1  10
TORSDOF 0
ENDMDL
MODEL 3
REMARK VINA RESULT:    -4.574      2.237      2.989
REMARK INTER + INTRA:          -6.009
REMARK INTER:                  -6.743
REMARK INTRA:                   0.734
REMARK UNBOUND:                 0.438
REMARK SMILES CC1=CCC(=C(C)C)C(=O)CC(C)=CCC1
REMARK SMILES IDX 12 1 14 2 13 3 15 4 16 5 2 6 1 7 3 8 11 10 9 11 10 12 5 13
REMARK SMILES IDX 6 14 7 15 8 16 4 17
REMARK H PARENT
REMARK Flexibility Score: 60.00
ROOT
ATOM      1  C   UNL     1     -13.534 -15.622  31.521  1.00  0.00    -0.070 C 
ATOM      2  C   UNL     1     -12.700 -15.751  32.581  1.00  0.00    -0.027 C 
ATOM      3  C   UNL     1     -14.621 -14.577  31.615  1.00  0.00     0.039 C 
ENDROOT
BRANCH   2   4
ATOM      4  C   UNL     1     -11.619 -16.792  32.745  1.00  0.00     0.032 C 
BRANCH   4   5
ATOM      5  C   UNL     1     -10.413 -16.545  31.818  1.00  0.00     0.034 C 
BRANCH   5   6
ATOM      6  C   UNL     1     -10.214 -17.673  30.824  1.00  0.00    -0.077 C 
ATOM      7  C   UNL     1      -9.982 -19.064  31.357  1.00  0.00     0.039 C 
ATOM      8  C   UNL     1     -10.261 -17.507  29.482  1.00  0.00    -0.023 CG0
ATOM      9  G   UNL     1     -10.517 -16.205  28.762  1.00  0.00     0.000 G0
ENDBRANCH   5   6
ENDBRANCH   4   5
ENDBRANCH   2   4
BRANCH   1  10
ATOM     10  C   UNL     1     -13.476 -16.506  30.287  1.00  0.00     0.111 C 
BRANCH  10  11
ATOM     11  C   UNL     1     -13.027 -15.734  29.071  1.00  0.00     0.163 C 
ATOM     12  O   UNL     1     -13.574 -14.622  28.838  1.00  0.00    -0.294 OA
BRANCH  11  13
ATOM     13  C   UNL     1     -11.928 -16.226  28.182  1.00  0.00    -0.002 C 
ATOM     14  C   UNL     1     -12.182 -16.726  26.935  1.00  0.00    -0.069 C 
ATOM     15  C   UNL     1     -11.061 -17.186  26.028  1.00  0.00     0.039 C 
ATOM     16  C   UNL     1     -13.592 -16.878  26.414  1.00  0.00     0.039 C 
BRANCH  13  17
ATOM     17  C   UNL     1     -10.522 -16.216  28.754  1.00  0.00     0.066 CG0
ATOM     18  G   UNL     1     -10.257 -17.512  29.482  1.00  0.00     0.000 G0
ENDBRANCH  13  17
ENDBRANCH  11  13
ENDBRANCH  10  11
ENDBRANCH   1  10
TORSDOF 0
ENDMDL
MODEL 4
REMARK VINA RESULT:    -4.441      1.612      3.585
REMARK INTER + INTRA:          -5.821
REMARK INTER:                  -7.544
REMARK INTRA:                   1.723
REMARK UNBOUND:                 0.438
REMARK SMILES CC1=CCC(=C(C)C)C(=O)CC(C)=CCC1
REMARK SMILES IDX 12 1 14 2 13 3 15 4 16 5 2 6 1 7 3 8 11 10 9 11 10 12 5 13
REMARK SMILES IDX 6 14 7 15 8 16 4 17
REMARK H PARENT
REMARK Flexibility Score: 60.00
ROOT
ATOM      1  C   UNL     1     -12.222 -19.790  30.417  1.00  0.00    -0.070 C 
ATOM      2  C   UNL     1     -13.249 -19.877  29.538  1.00  0.00    -0.027 C 
ATOM      3  C   UNL     1     -12.322 -20.606  31.683  1.00  0.00     0.039 C 
ENDROOT
BRANCH   2   4
ATOM      4  C   UNL     1     -13.408 -19.074  28.268  1.00  0.00     0.032 C 
BRANCH   4   5
ATOM      5  C   UNL     1     -12.280 -18.042  28.075  1.00  0.00     0.034 C 
BRANCH   5   6
ATOM      6  C   UNL     1     -12.817 -16.644  27.835  1.00  0.00    -0.077 C 
ATOM      7  C   UNL     1     -13.841 -16.450  26.745  1.00  0.00     0.039 C 
ATOM      8  C   UNL     1     -12.452 -15.564  28.561  1.00  0.00    -0.023 CG0
ATOM      9  G   UNL     1     -11.473 -15.564  29.711  1.00  0.00     0.000 G0
ENDBRANCH   5   6
ENDBRANCH   4   5
ENDBRANCH   2   4
BRANCH   1  10
ATOM     10  C   UNL     1     -11.023 -18.876  30.229  1.00  0.00     0.111 C 
BRANCH  10  11
ATOM     11  C   UNL     1     -11.090 -17.677  31.143  1.00  0.00     0.163 C 
ATOM     12  O   UNL     1     -10.365 -17.675  32.174  1.00  0.00    -0.294 OA
BRANCH  11  13
ATOM     13  C   UNL     1     -11.943 -16.488  30.828  1.00  0.00    -0.002 C 
ATOM     14  C   UNL     1     -13.139 -16.276  31.456  1.00  0.00    -0.069 C 
ATOM     15  C   UNL     1     -13.978 -15.052  31.159  1.00  0.00     0.039 C 
ATOM     16  C   UNL     1     -13.700 -17.268  32.449  1.00  0.00     0.039 C 
BRANCH  13  17
ATOM     17  C   UNL     1     -11.460 -15.565  29.725  1.00  0.00     0.066 CG0
ATOM     18  G   UNL     1     -12.441 -15.581  28.577  1.00  0.00     0.000 G0
ENDBRANCH  13  17
ENDBRANCH  11  13
ENDBRANCH  10  11
ENDBRANCH   1  10
TORSDOF 0
ENDMDL
MODEL 5
REMARK VINA RESULT:    -4.349      1.307      3.585
REMARK INTER + INTRA:          -5.691
REMARK INTER:                  -6.799
REMARK INTRA:                   1.108
REMARK UNBOUND:                 0.438
REMARK SMILES CC1=CCC(=C(C)C)C(=O)CC(C)=CCC1
REMARK SMILES IDX 12 1 14 2 13 3 15 4 16 5 2 6 1 7 3 8 11 10 9 11 10 12 5 13
REMARK SMILES IDX 6 14 7 15 8 16 4 17
REMARK H PARENT
REMARK Flexibility Score: 60.00
ROOT
ATOM      1  C   UNL     1     -13.099 -16.035  31.485  1.00  0.00    -0.070 C 
ATOM      2  C   UNL     1     -13.933 -15.424  30.611  1.00  0.00    -0.027 C 
ATOM      3  C   UNL     1     -13.707 -16.597  32.748  1.00  0.00     0.039 C 
ENDROOT
BRANCH   2   4
ATOM      4  C   UNL     1     -13.530 -14.703  29.346  1.00  0.00     0.032 C 
BRANCH   4   5
ATOM      5  C   UNL     1     -12.300 -15.337  28.670  1.00  0.00     0.034 C 
BRANCH   5   6
ATOM      6  C   UNL     1     -12.683 -16.443  27.705  1.00  0.00    -0.077 C 
ATOM      7  C   UNL     1     -13.726 -16.147  26.657  1.00  0.00     0.039 C 
ATOM      8  C   UNL     1     -12.122 -17.673  27.713  1.00  0.00    -0.023 CG0
ATOM      9  G   UNL     1     -11.042 -18.145  28.656  1.00  0.00     0.000 G0
ENDBRANCH   5   6
ENDBRANCH   4   5
ENDBRANCH   2   4
BRANCH   1  10
ATOM     10  C   UNL     1     -11.594 -16.123  31.298  1.00  0.00     0.111 C 
BRANCH  10  11
ATOM     11  C   UNL     1     -11.135 -17.552  31.152  1.00  0.00     0.163 C 
ATOM     12  O   UNL     1     -10.371 -18.024  32.038  1.00  0.00    -0.294 OA
BRANCH  11  13
ATOM     13  C   UNL     1     -11.601 -18.423  30.029  1.00  0.00    -0.002 C 
ATOM     14  C   UNL     1     -12.458 -19.469  30.239  1.00  0.00    -0.069 C 
ATOM     15  C   UNL     1     -12.954 -20.323  29.092  1.00  0.00     0.039 C 
ATOM     16  C   UNL     1     -12.923 -19.846  31.627  1.00  0.00     0.039 C 
BRANCH  13  17
ATOM     17  C   UNL     1     -11.023 -18.145  28.654  1.00  0.00     0.066 CG0
ATOM     18  G   UNL     1     -12.115 -17.669  27.726  1.00  0.00     0.000 G0
ENDBRANCH  13  17
ENDBRANCH  11  13
ENDBRANCH  10  11
ENDBRANCH   1  10
TORSDOF 0
ENDMDL
MODEL 6
REMARK VINA RESULT:    -4.279      2.101      3.741
REMARK INTER + INTRA:          -5.593
REMARK INTER:                  -7.412
REMARK INTRA:                   1.819
REMARK UNBOUND:                 0.438
REMARK SMILES CC1=CCC(=C(C)C)C(=O)CC(C)=CCC1
REMARK SMILES IDX 12 1 14 2 13 3 15 4 16 5 2 6 1 7 3 8 11 10 9 11 10 12 5 13
REMARK SMILES IDX 6 14 7 15 8 16 4 17
REMARK H PARENT
REMARK Flexibility Score: 60.00
ROOT
ATOM      1  C   UNL     1     -11.524 -17.297  27.956  1.00  0.00    -0.070 C 
ATOM      2  C   UNL     1     -10.394 -17.469  28.684  1.00  0.00    -0.027 C 
ATOM      3  C   UNL     1     -11.386 -17.290  26.452  1.00  0.00     0.039 C 
ENDROOT
BRANCH   2   4
ATOM      4  C   UNL     1     -10.283 -17.405  30.189  1.00  0.00     0.032 C 
BRANCH   4   5
ATOM      5  C   UNL     1     -10.508 -18.774  30.858  1.00  0.00     0.034 C 
BRANCH   5   6
ATOM      6  C   UNL     1     -11.932 -18.944  31.350  1.00  0.00    -0.077 C 
ATOM      7  C   UNL     1     -12.487 -20.342  31.465  1.00  0.00     0.039 C 
ATOM      8  C   UNL     1     -12.726 -17.914  31.721  1.00  0.00    -0.023 CG0
ATOM      9  G   UNL     1     -12.340 -16.455  31.711  1.00  0.00     0.000 G0
ENDBRANCH   5   6
ENDBRANCH   4   5
ENDBRANCH   2   4
BRANCH   1  10
ATOM     10  C   UNL     1     -12.893 -17.048  28.566  1.00  0.00     0.111 C 
BRANCH  10  11
ATOM     11  C   UNL     1     -12.938 -15.739  29.314  1.00  0.00     0.163 C 
ATOM     12  O   UNL     1     -12.753 -14.675  28.661  1.00  0.00    -0.294 OA
BRANCH  11  13
ATOM     13  C   UNL     1     -13.245 -15.672  30.776  1.00  0.00    -0.002 C 
ATOM     14  C   UNL     1     -14.258 -14.893  31.263  1.00  0.00    -0.069 C 
ATOM     15  C   UNL     1     -14.586 -14.860  32.740  1.00  0.00     0.039 C 
ATOM     16  C   UNL     1     -15.077 -14.001  30.358  1.00  0.00     0.039 C 
BRANCH  13  17
ATOM     17  C   UNL     1     -12.333 -16.448  31.709  1.00  0.00     0.066 CG0
ATOM     18  G   UNL     1     -12.733 -17.904  31.721  1.00  0.00     0.000 G0
ENDBRANCH  13  17
ENDBRANCH  11  13
ENDBRANCH  10  11
ENDBRANCH   1  10
TORSDOF 0
ENDMDL
MODEL 7
REMARK VINA RESULT:    -4.153      2.069      4.764
REMARK INTER + INTRA:          -5.415
REMARK INTER:                  -6.553
REMARK INTRA:                   1.138
REMARK UNBOUND:                 0.438
REMARK SMILES CC1=CCC(=C(C)C)C(=O)CC(C)=CCC1
REMARK SMILES IDX 12 1 14 2 13 3 15 4 16 5 2 6 1 7 3 8 11 10 9 11 10 12 5 13
REMARK SMILES IDX 6 14 7 15 8 16 4 17
REMARK H PARENT
REMARK Flexibility Score: 60.00
ROOT
ATOM      1  C   UNL     1     -12.251 -19.070  29.543  1.00  0.00    -0.070 C 
ATOM      2  C   UNL     1     -11.639 -18.189  28.716  1.00  0.00    -0.027 C 
ATOM      3  C   UNL     1     -13.403 -19.866  28.980  1.00  0.00     0.039 C 
ENDROOT
BRANCH   2   4
ATOM      4  C   UNL     1     -10.544 -17.220  29.095  1.00  0.00     0.032 C 
BRANCH   4   5
ATOM      5  C   UNL     1     -11.065 -15.782  29.283  1.00  0.00     0.034 C 
BRANCH   5   6
ATOM      6  C   UNL     1     -12.579 -15.723  29.337  1.00  0.00    -0.077 C 
ATOM      7  C   UNL     1     -13.344 -15.764  28.038  1.00  0.00     0.039 C 
ATOM      8  C   UNL     1     -13.287 -15.666  30.488  1.00  0.00    -0.023 CG0
ATOM      9  G   UNL     1     -12.706 -15.654  31.882  1.00  0.00     0.000 G0
ENDBRANCH   5   6
ENDBRANCH   4   5
ENDBRANCH   2   4
BRANCH   1  10
ATOM     10  C   UNL     1     -11.887 -19.248  31.008  1.00  0.00     0.111 C 
BRANCH  10  11
ATOM     11  C   UNL     1     -12.552 -18.209  31.876  1.00  0.00     0.163 C 
ATOM     12  O   UNL     1     -13.664 -18.495  32.398  1.00  0.00    -0.294 OA
BRANCH  11  13
ATOM     13  C   UNL     1     -11.908 -16.891  32.169  1.00  0.00    -0.002 C 
ATOM     14  C   UNL     1     -10.657 -16.808  32.717  1.00  0.00    -0.069 C 
ATOM     15  C   UNL     1      -9.997 -15.471  32.976  1.00  0.00     0.039 C 
ATOM     16  C   UNL     1      -9.887 -18.044  33.123  1.00  0.00     0.039 C 
BRANCH  13  17
ATOM     17  C   UNL     1     -12.733 -15.645  31.904  1.00  0.00     0.066 CG0
ATOM     18  G   UNL     1     -13.276 -15.681  30.496  1.00  0.00     0.000 G0
ENDBRANCH  13  17
ENDBRANCH  11  13
ENDBRANCH  10  11
ENDBRANCH   1  10
TORSDOF 0
ENDMDL
MODEL 8
REMARK VINA RESULT:    -4.088      1.744      4.070
REMARK INTER + INTRA:          -5.323
REMARK INTER:                  -7.258
REMARK INTRA:                   1.935
REMARK UNBOUND:                 0.438
REMARK SMILES CC1=CCC(=C(C)C)C(=O)CC(C)=CCC1
REMARK SMILES IDX 12 1 14 2 13 3 15 4 16 5 2 6 1 7 3 8 11 10 9 11 10 12 5 13
REMARK SMILES IDX 6 14 7 15 8 16 4 17
REMARK H PARENT
REMARK Flexibility Score: 60.00
ROOT
ATOM      1  C   UNL     1     -12.784 -15.413  29.516  1.00  0.00    -0.070 C 
ATOM      2  C   UNL     1     -13.623 -15.375  30.578  1.00  0.00    -0.027 C 
ATOM      3  C   UNL     1     -13.368 -15.106  28.158  1.00  0.00     0.039 C 
ENDROOT
BRANCH   2   4
ATOM      4  C   UNL     1     -13.281 -15.749  32.001  1.00  0.00     0.032 C 
BRANCH   4   5
ATOM      5  C   UNL     1     -12.620 -17.137  32.106  1.00  0.00     0.034 C 
BRANCH   5   6
ATOM      6  C   UNL     1     -11.123 -17.043  32.328  1.00  0.00    -0.077 C 
ATOM      7  C   UNL     1     -10.608 -16.020  33.309  1.00  0.00     0.039 C 
ATOM      8  C   UNL     1     -10.222 -17.845  31.717  1.00  0.00    -0.023 CG0
ATOM      9  G   UNL     1     -10.543 -18.947  30.735  1.00  0.00     0.000 G0
ENDBRANCH   5   6
ENDBRANCH   4   5
ENDBRANCH   2   4
BRANCH   1  10
ATOM     10  C   UNL     1     -11.320 -15.810  29.608  1.00  0.00     0.111 C 
BRANCH  10  11
ATOM     11  C   UNL     1     -11.064 -17.147  28.958  1.00  0.00     0.163 C 
ATOM     12  O   UNL     1     -10.469 -17.162  27.846  1.00  0.00    -0.294 OA
BRANCH  11  13
ATOM     13  C   UNL     1     -11.446 -18.435  29.617  1.00  0.00    -0.002 C 
ATOM     14  C   UNL     1     -12.600 -19.093  29.293  1.00  0.00    -0.069 C 
ATOM     15  C   UNL     1     -12.961 -20.414  29.938  1.00  0.00     0.039 C 
ATOM     16  C   UNL     1     -13.589 -18.520  28.303  1.00  0.00     0.039 C 
BRANCH  13  17
ATOM     17  C   UNL     1     -10.535 -18.942  30.720  1.00  0.00     0.066 CG0
ATOM     18  G   UNL     1     -10.248 -17.830  31.699  1.00  0.00     0.000 G0
ENDBRANCH  13  17
ENDBRANCH  11  13
ENDBRANCH  10  11
ENDBRANCH   1  10
TORSDOF 0
ENDMDL
MODEL 9
REMARK VINA RESULT:    -4.086      1.597      4.310
REMARK INTER + INTRA:          -5.321
REMARK INTER:                  -6.220
REMARK INTRA:                   0.899
REMARK UNBOUND:                 0.438
REMARK SMILES CC1=CCC(=C(C)C)C(=O)CC(C)=CCC1
REMARK SMILES IDX 12 1 14 2 13 3 15 4 16 5 2 6 1 7 3 8 11 10 9 11 10 12 5 13
REMARK SMILES IDX 6 14 7 15 8 16 4 17
REMARK H PARENT
REMARK Flexibility Score: 60.00
ROOT
ATOM      1  C   UNL     1     -14.102 -14.539  28.567  1.00  0.00    -0.070 C 
ATOM      2  C   UNL     1     -14.424 -14.944  27.315  1.00  0.00    -0.027 C 
ATOM      3  C   UNL     1     -15.041 -13.572  29.247  1.00  0.00     0.039 C 
ENDROOT
BRANCH   2   4
ATOM      4  C   UNL     1     -13.583 -15.817  26.414  1.00  0.00     0.032 C 
BRANCH   4   5
ATOM      5  C   UNL     1     -13.517 -17.279  26.899  1.00  0.00     0.034 C 
BRANCH   5   6
ATOM      6  C   UNL     1     -12.117 -17.681  27.318  1.00  0.00    -0.077 C 
ATOM      7  C   UNL     1     -11.011 -17.593  26.296  1.00  0.00     0.039 C 
ATOM      8  C   UNL     1     -11.795 -18.089  28.566  1.00  0.00    -0.023 CG0
ATOM      9  G   UNL     1     -12.750 -18.207  29.730  1.00  0.00     0.000 G0
ENDBRANCH   5   6
ENDBRANCH   4   5
ENDBRANCH   2   4
BRANCH   1  10
ATOM     10  C   UNL     1     -12.827 -14.948  29.287  1.00  0.00     0.111 C 
BRANCH  10  11
ATOM     11  C   UNL     1     -13.123 -15.776  30.513  1.00  0.00     0.163 C 
ATOM     12  O   UNL     1     -13.981 -15.342  31.329  1.00  0.00    -0.294 OA
BRANCH  11  13
ATOM     13  C   UNL     1     -12.473 -17.103  30.748  1.00  0.00    -0.002 C 
ATOM     14  C   UNL     1     -11.609 -17.305  31.789  1.00  0.00    -0.069 C 
ATOM     15  C   UNL     1     -10.984 -18.660  32.042  1.00  0.00     0.039 C 
ATOM     16  C   UNL     1     -11.206 -16.180  32.714  1.00  0.00     0.039 C 
BRANCH  13  17
ATOM     17  C   UNL     1     -12.755 -18.199  29.736  1.00  0.00     0.066 CG0
ATOM     18  G   UNL     1     -11.792 -18.086  28.579  1.00  0.00     0.000 G0
ENDBRANCH  13  17
ENDBRANCH  11  13
ENDBRANCH  10  11
ENDBRANCH   1  10
TORSDOF 0
ENDMDL
