MODEL 1
REMARK VINA RESULT:    -7.505      0.000      0.000
REMARK INTER + INTRA:         -11.125
REMARK INTER:                 -10.137
REMARK INTRA:                  -0.988
REMARK UNBOUND:                -0.988
REMARK SMILES CC[C@H](CC[C@@H](C)[C@@H]1CC[C@@H]2[C@@H]3CC(=O)C4=CC(=O)CC[C@@]4(C)[C@@H]3CC[C@]21C)C(C)C
REMARK SMILES IDX 4 1 3 2 2 3 1 4 29 5 30 6 31 7 5 8 6 9 7 10 8 11 9 12 27 13
REMARK SMILES IDX 10 14 11 15 26 16 28 17 12 18 25 19 24 20 13 21 22 22 14 23
REMARK SMILES IDX 16 24 21 25 23 26 15 27 17 28 20 29 18 30 19 31
REMARK H PARENT
REMARK Flexibility Score: inf
ROOT
ATOM      1  C   UNL     1       4.632  22.831  39.088  1.00  0.00     0.004 C 
ENDROOT
BRANCH   1   2
ATOM      2  C   UNL     1       3.484  23.857  38.853  1.00  0.00    -0.009 C 
BRANCH   2   3
ATOM      3  C   UNL     1       2.505  23.382  37.744  1.00  0.00     0.000 C 
ATOM      4  C   UNL     1       2.241  21.876  37.781  1.00  0.00     0.004 C 
ENDBRANCH   2   3
BRANCH   2   5
ATOM      5  C   UNL     1       2.766  24.359  40.153  1.00  0.00    -0.014 C 
ATOM      6  C   UNL     1       3.692  24.597  41.355  1.00  0.00     0.007 C 
ATOM      7  C   UNL     1       1.919  25.615  39.891  1.00  0.00     0.007 C 
ENDBRANCH   2   5
ENDBRANCH   1   2
BRANCH   1   8
ATOM      8  C   UNL     1       6.074  23.361  38.855  1.00  0.00     0.004 C 
BRANCH   8   9
ATOM      9  C   UNL     1       7.138  22.628  39.726  1.00  0.00    -0.011 C 
ATOM     10  C   UNL     1       6.453  21.752  40.786  1.00  0.00     0.008 C 
BRANCH   9  11
ATOM     11  C   UNL     1       8.276  21.852  38.972  1.00  0.00    -0.002 C 
ATOM     12  C   UNL     1       8.284  20.319  39.246  1.00  0.00     0.005 C 
ATOM     13  C   UNL     1       9.777  22.293  39.048  1.00  0.00    -0.026 C 
ATOM     14  C   UNL     1       9.747  19.859  39.156  1.00  0.00     0.005 C 
ATOM     15  C   UNL     1      10.443  21.028  38.483  1.00  0.00    -0.001 C 
ATOM     16  C   UNL     1      10.170  23.458  38.102  1.00  0.00     0.007 C 
ATOM     17  C   UNL     1      10.189  22.618  40.507  1.00  0.00     0.012 C 
ATOM     18  C   UNL     1      11.983  21.030  38.323  1.00  0.00     0.004 C 
ATOM     19  C   UNL     1      11.705  23.623  38.019  1.00  0.00     0.005 C 
ATOM     20  C   UNL     1      12.473  22.327  37.594  1.00  0.00     0.003 C 
ATOM     21  C   UNL     1      12.835  20.669  39.551  1.00  0.00     0.085 C 
ATOM     22  C   UNL     1      14.065  22.495  37.557  1.00  0.00    -0.000 C 
ATOM     23  C   UNL     1      14.231  20.402  39.083  1.00  0.00     0.159 C 
ATOM     24  C   UNL     1      14.783  21.194  37.955  1.00  0.00     0.005 C 
ATOM     25  C   UNL     1      14.474  22.906  36.107  1.00  0.00     0.020 C 
ATOM     26  C   UNL     1      14.568  23.578  38.551  1.00  0.00     0.017 C 
ATOM     27  O   UNL     1      14.926  19.525  39.666  1.00  0.00    -0.295 OA
ATOM     28  C   UNL     1      15.963  20.843  37.408  1.00  0.00     0.055 C 
ATOM     29  C   UNL     1      15.989  22.927  35.884  1.00  0.00     0.081 C 
ATOM     30  C   UNL     1      16.606  21.647  36.356  1.00  0.00     0.156 C 
ATOM     31  O   UNL     1      17.712  21.278  35.882  1.00  0.00    -0.295 OA
ENDBRANCH   9  11
ENDBRANCH   8   9
ENDBRANCH   1   8
TORSDOF 6
ENDMDL
MODEL 2
REMARK VINA RESULT:    -7.291     13.192     15.767
REMARK INTER + INTRA:         -10.836
REMARK INTER:                  -8.584
REMARK INTRA:                  -2.252
REMARK UNBOUND:                -0.988
REMARK SMILES CC[C@H](CC[C@@H](C)[C@@H]1CC[C@@H]2[C@@H]3CC(=O)C4=CC(=O)CC[C@@]4(C)[C@@H]3CC[C@]21C)C(C)C
REMARK SMILES IDX 4 1 3 2 2 3 1 4 29 5 30 6 31 7 5 8 6 9 7 10 8 11 9 12 27 13
REMARK SMILES IDX 10 14 11 15 26 16 28 17 12 18 25 19 24 20 13 21 22 22 14 23
REMARK SMILES IDX 16 24 21 25 23 26 15 27 17 28 20 29 18 30 19 31
REMARK H PARENT
REMARK Flexibility Score: inf
ROOT
ATOM      1  C   UNL     1       7.377   9.003  47.395  1.00  0.00     0.004 C 
ENDROOT
BRANCH   1   2
ATOM      2  C   UNL     1       8.608   8.581  46.540  1.00  0.00    -0.009 C 
BRANCH   2   3
ATOM      3  C   UNL     1       9.361   7.376  47.168  1.00  0.00     0.000 C 
ATOM      4  C   UNL     1       9.000   7.143  48.636  1.00  0.00     0.004 C 
ENDBRANCH   2   3
BRANCH   2   5
ATOM      5  C   UNL     1       8.326   8.415  45.007  1.00  0.00    -0.014 C 
ATOM      6  C   UNL     1       6.904   8.794  44.564  1.00  0.00     0.007 C 
ATOM      7  C   UNL     1       9.356   9.169  44.149  1.00  0.00     0.007 C 
ENDBRANCH   2   5
ENDBRANCH   1   2
BRANCH   1   8
ATOM      8  C   UNL     1       7.397  10.456  47.944  1.00  0.00     0.004 C 
BRANCH   8   9
ATOM      9  C   UNL     1       8.347  11.395  47.142  1.00  0.00    -0.011 C 
ATOM     10  C   UNL     1       7.533  12.404  46.317  1.00  0.00     0.008 C 
BRANCH   9  11
ATOM     11  C   UNL     1       9.510  12.091  47.935  1.00  0.00    -0.002 C 
ATOM     12  C   UNL     1       9.714  13.592  47.571  1.00  0.00     0.005 C 
ATOM     13  C   UNL     1      10.951  11.482  48.004  1.00  0.00    -0.026 C 
ATOM     14  C   UNL     1      11.210  13.892  47.748  1.00  0.00     0.005 C 
ATOM     15  C   UNL     1      11.717  12.702  48.542  1.00  0.00    -0.001 C 
ATOM     16  C   UNL     1      11.140  10.349  49.046  1.00  0.00     0.007 C 
ATOM     17  C   UNL     1      11.427  11.015  46.604  1.00  0.00     0.012 C 
ATOM     18  C   UNL     1      13.232  12.542  48.823  1.00  0.00     0.004 C 
ATOM     19  C   UNL     1      12.636  10.022  49.259  1.00  0.00     0.005 C 
ATOM     20  C   UNL     1      13.516  11.251  49.664  1.00  0.00     0.003 C 
ATOM     21  C   UNL     1      14.205  12.721  47.646  1.00  0.00     0.085 C 
ATOM     22  C   UNL     1      15.071  10.912  49.835  1.00  0.00    -0.000 C 
ATOM     23  C   UNL     1      15.585  12.864  48.205  1.00  0.00     0.159 C 
ATOM     24  C   UNL     1      15.961  12.095  49.418  1.00  0.00     0.005 C 
ATOM     25  C   UNL     1      15.326  10.558  51.336  1.00  0.00     0.020 C 
ATOM     26  C   UNL     1      15.516   9.714  48.952  1.00  0.00     0.017 C 
ATOM     27  O   UNL     1      16.416  13.617  47.626  1.00  0.00    -0.295 OA
ATOM     28  C   UNL     1      17.131  12.350  50.034  1.00  0.00     0.055 C 
ATOM     29  C   UNL     1      16.809  10.386  51.677  1.00  0.00     0.081 C 
ATOM     30  C   UNL     1      17.601  11.554  51.179  1.00  0.00     0.156 C 
ATOM     31  O   UNL     1      18.706  11.831  51.715  1.00  0.00    -0.295 OA
ENDBRANCH   9  11
ENDBRANCH   8   9
ENDBRANCH   1   8
TORSDOF 6
ENDMDL
MODEL 3
REMARK VINA RESULT:    -7.260     13.234     15.175
REMARK INTER + INTRA:         -10.794
REMARK INTER:                  -9.923
REMARK INTRA:                  -0.870
REMARK UNBOUND:                -0.988
REMARK SMILES CC[C@H](CC[C@@H](C)[C@@H]1CC[C@@H]2[C@@H]3CC(=O)C4=CC(=O)CC[C@@]4(C)[C@@H]3CC[C@]21C)C(C)C
REMARK SMILES IDX 4 1 3 2 2 3 1 4 29 5 30 6 31 7 5 8 6 9 7 10 8 11 9 12 27 13
REMARK SMILES IDX 10 14 11 15 26 16 28 17 12 18 25 19 24 20 13 21 22 22 14 23
REMARK SMILES IDX 16 24 21 25 23 26 15 27 17 28 20 29 18 30 19 31
REMARK H PARENT
REMARK Flexibility Score: inf
ROOT
ATOM      1  C   UNL     1       4.689  10.984  47.145  1.00  0.00     0.004 C 
ENDROOT
BRANCH   1   2
ATOM      2  C   UNL     1       3.367  10.314  47.620  1.00  0.00    -0.009 C 
BRANCH   2   3
ATOM      3  C   UNL     1       2.204  11.339  47.723  1.00  0.00     0.000 C 
ATOM      4  C   UNL     1       1.838  11.687  49.167  1.00  0.00     0.004 C 
ENDBRANCH   2   3
BRANCH   2   5
ATOM      5  C   UNL     1       2.978   8.999  46.861  1.00  0.00    -0.014 C 
ATOM      6  C   UNL     1       1.550   8.496  47.123  1.00  0.00     0.007 C 
ATOM      7  C   UNL     1       3.218   9.118  45.346  1.00  0.00     0.007 C 
ENDBRANCH   2   5
ENDBRANCH   1   2
BRANCH   1   8
ATOM      8  C   UNL     1       6.000  10.240  47.519  1.00  0.00     0.004 C 
BRANCH   8   9
ATOM      9  C   UNL     1       7.259  10.839  46.823  1.00  0.00    -0.011 C 
ATOM     10  C   UNL     1       6.844  11.768  45.671  1.00  0.00     0.008 C 
BRANCH   9  11
ATOM     11  C   UNL     1       8.346  11.500  47.744  1.00  0.00    -0.002 C 
ATOM     12  C   UNL     1       8.316  13.057  47.741  1.00  0.00     0.005 C 
ATOM     13  C   UNL     1       9.861  11.115  47.653  1.00  0.00    -0.026 C 
ATOM     14  C   UNL     1       9.760  13.530  47.967  1.00  0.00     0.005 C 
ATOM     15  C   UNL     1      10.468  12.278  48.454  1.00  0.00    -0.001 C 
ATOM     16  C   UNL     1      10.257   9.814  48.397  1.00  0.00     0.007 C 
ATOM     17  C   UNL     1      10.334  11.060  46.178  1.00  0.00     0.012 C 
ATOM     18  C   UNL     1      12.001  12.287  48.673  1.00  0.00     0.004 C 
ATOM     19  C   UNL     1      11.792   9.674  48.512  1.00  0.00     0.005 C 
ATOM     20  C   UNL     1      12.505  10.894  49.185  1.00  0.00     0.003 C 
ATOM     21  C   UNL     1      12.884  12.876  47.560  1.00  0.00     0.085 C 
ATOM     22  C   UNL     1      14.099  10.761  49.254  1.00  0.00    -0.000 C 
ATOM     23  C   UNL     1      14.254  13.092  48.122  1.00  0.00     0.159 C 
ATOM     24  C   UNL     1      14.790  12.129  49.116  1.00  0.00     0.005 C 
ATOM     25  C   UNL     1      14.470  10.114  50.627  1.00  0.00     0.020 C 
ATOM     26  C   UNL     1      14.670   9.880  48.109  1.00  0.00     0.017 C 
ATOM     27  O   UNL     1      14.941  14.073  47.727  1.00  0.00    -0.295 OA
ATOM     28  C   UNL     1      15.939  12.407  49.763  1.00  0.00     0.055 C 
ATOM     29  C   UNL     1      15.976  10.092  50.902  1.00  0.00     0.081 C 
ATOM     30  C   UNL     1      16.569  11.449  50.684  1.00  0.00     0.156 C 
ATOM     31  O   UNL     1      17.646  11.757  51.258  1.00  0.00    -0.295 OA
ENDBRANCH   9  11
ENDBRANCH   8   9
ENDBRANCH   1   8
TORSDOF 6
ENDMDL
MODEL 4
REMARK VINA RESULT:    -7.178     14.050     18.007
REMARK INTER + INTRA:         -10.684
REMARK INTER:                  -9.556
REMARK INTRA:                  -1.127
REMARK UNBOUND:                -0.988
REMARK SMILES CC[C@H](CC[C@@H](C)[C@@H]1CC[C@@H]2[C@@H]3CC(=O)C4=CC(=O)CC[C@@]4(C)[C@@H]3CC[C@]21C)C(C)C
REMARK SMILES IDX 4 1 3 2 2 3 1 4 29 5 30 6 31 7 5 8 6 9 7 10 8 11 9 12 27 13
REMARK SMILES IDX 10 14 11 15 26 16 28 17 12 18 25 19 24 20 13 21 22 22 14 23
REMARK SMILES IDX 16 24 21 25 23 26 15 27 17 28 20 29 18 30 19 31
REMARK H PARENT
REMARK Flexibility Score: inf
ROOT
ATOM      1  C   UNL     1      16.962  12.788  50.381  1.00  0.00     0.004 C 
ENDROOT
BRANCH   1   2
ATOM      2  C   UNL     1      18.427  13.247  50.642  1.00  0.00    -0.009 C 
BRANCH   2   3
ATOM      3  C   UNL     1      18.638  14.742  50.276  1.00  0.00     0.000 C 
ATOM      4  C   UNL     1      17.327  15.519  50.149  1.00  0.00     0.004 C 
ENDBRANCH   2   3
BRANCH   2   5
ATOM      5  C   UNL     1      19.005  12.857  52.047  1.00  0.00    -0.014 C 
ATOM      6  C   UNL     1      18.966  13.978  53.098  1.00  0.00     0.007 C 
ATOM      7  C   UNL     1      18.338  11.591  52.611  1.00  0.00     0.007 C 
ENDBRANCH   2   5
ENDBRANCH   1   2
BRANCH   1   8
ATOM      8  C   UNL     1      16.687  12.154  48.991  1.00  0.00     0.004 C 
BRANCH   8   9
ATOM      9  C   UNL     1      15.951  10.784  49.082  1.00  0.00    -0.011 C 
ATOM     10  C   UNL     1      16.786   9.780  49.891  1.00  0.00     0.008 C 
BRANCH   9  11
ATOM     11  C   UNL     1      14.449  10.802  49.543  1.00  0.00    -0.002 C 
ATOM     12  C   UNL     1      14.151   9.883  50.764  1.00  0.00     0.005 C 
ATOM     13  C   UNL     1      13.268  10.558  48.544  1.00  0.00    -0.026 C 
ATOM     14  C   UNL     1      12.705   9.389  50.607  1.00  0.00     0.005 C 
ATOM     15  C   UNL     1      12.131  10.314  49.549  1.00  0.00    -0.001 C 
ATOM     16  C   UNL     1      12.853  11.791  47.699  1.00  0.00     0.007 C 
ATOM     17  C   UNL     1      13.559   9.345  47.623  1.00  0.00     0.012 C 
ATOM     18  C   UNL     1      10.709  10.067  48.989  1.00  0.00     0.004 C 
ATOM     19  C   UNL     1      11.508  11.551  46.976  1.00  0.00     0.005 C 
ATOM     20  C   UNL     1      10.327  11.148  47.921  1.00  0.00     0.003 C 
ATOM     21  C   UNL     1      10.343   8.637  48.556  1.00  0.00     0.085 C 
ATOM     22  C   UNL     1       8.951  10.855  47.156  1.00  0.00    -0.000 C 
ATOM     23  C   UNL     1       8.858   8.571  48.385  1.00  0.00     0.159 C 
ATOM     24  C   UNL     1       8.135   9.755  47.856  1.00  0.00     0.005 C 
ATOM     25  C   UNL     1       8.129  12.183  47.117  1.00  0.00     0.020 C 
ATOM     26  C   UNL     1       9.176  10.357  45.702  1.00  0.00     0.017 C 
ATOM     27  O   UNL     1       8.246   7.505  48.669  1.00  0.00    -0.295 OA
ATOM     28  C   UNL     1       6.789   9.774  47.868  1.00  0.00     0.055 C 
ATOM     29  C   UNL     1       6.709  12.004  46.571  1.00  0.00     0.081 C 
ATOM     30  C   UNL     1       6.018  10.875  47.268  1.00  0.00     0.156 C 
ATOM     31  O   UNL     1       4.760  10.841  47.301  1.00  0.00    -0.295 OA
ENDBRANCH   9  11
ENDBRANCH   8   9
ENDBRANCH   1   8
TORSDOF 6
ENDMDL
MODEL 5
REMARK VINA RESULT:    -7.058     13.527     15.745
REMARK INTER + INTRA:         -10.522
REMARK INTER:                  -9.426
REMARK INTRA:                  -1.095
REMARK UNBOUND:                -0.988
REMARK SMILES CC[C@H](CC[C@@H](C)[C@@H]1CC[C@@H]2[C@@H]3CC(=O)C4=CC(=O)CC[C@@]4(C)[C@@H]3CC[C@]21C)C(C)C
REMARK SMILES IDX 4 1 3 2 2 3 1 4 29 5 30 6 31 7 5 8 6 9 7 10 8 11 9 12 27 13
REMARK SMILES IDX 10 14 11 15 26 16 28 17 12 18 25 19 24 20 13 21 22 22 14 23
REMARK SMILES IDX 16 24 21 25 23 26 15 27 17 28 20 29 18 30 19 31
REMARK H PARENT
REMARK Flexibility Score: inf
ROOT
ATOM      1  C   UNL     1       7.149   9.839  45.723  1.00  0.00     0.004 C 
ENDROOT
BRANCH   1   2
ATOM      2  C   UNL     1       6.214  10.611  46.699  1.00  0.00    -0.009 C 
BRANCH   2   3
ATOM      3  C   UNL     1       6.161  12.128  46.369  1.00  0.00     0.000 C 
ATOM      4  C   UNL     1       6.667  12.454  44.962  1.00  0.00     0.004 C 
ENDBRANCH   2   3
BRANCH   2   5
ATOM      5  C   UNL     1       4.802   9.966  46.916  1.00  0.00    -0.014 C 
ATOM      6  C   UNL     1       3.737  10.913  47.490  1.00  0.00     0.007 C 
ATOM      7  C   UNL     1       4.271   9.301  45.635  1.00  0.00     0.007 C 
ENDBRANCH   2   5
ENDBRANCH   1   2
BRANCH   1   8
ATOM      8  C   UNL     1       8.531   9.420  46.295  1.00  0.00     0.004 C 
BRANCH   8   9
ATOM      9  C   UNL     1       8.548   9.349  47.851  1.00  0.00    -0.011 C 
ATOM     10  C   UNL     1       8.709   7.895  48.321  1.00  0.00     0.008 C 
BRANCH   9  11
ATOM     11  C   UNL     1       9.527  10.319  48.605  1.00  0.00    -0.002 C 
ATOM     12  C   UNL     1       9.296  11.826  48.285  1.00  0.00     0.005 C 
ATOM     13  C   UNL     1      11.080  10.123  48.576  1.00  0.00    -0.026 C 
ATOM     14  C   UNL     1      10.664  12.518  48.393  1.00  0.00     0.005 C 
ATOM     15  C   UNL     1      11.520  11.494  49.116  1.00  0.00    -0.001 C 
ATOM     16  C   UNL     1      11.630   9.063  49.565  1.00  0.00     0.007 C 
ATOM     17  C   UNL     1      11.578   9.831  47.138  1.00  0.00     0.012 C 
ATOM     18  C   UNL     1      13.036  11.745  49.311  1.00  0.00     0.004 C 
ATOM     19  C   UNL     1      13.169   9.149  49.687  1.00  0.00     0.005 C 
ATOM     20  C   UNL     1      13.708  10.563  50.089  1.00  0.00     0.003 C 
ATOM     21  C   UNL     1      13.851  12.205  48.091  1.00  0.00     0.085 C 
ATOM     22  C   UNL     1      15.305  10.655  50.166  1.00  0.00    -0.000 C 
ATOM     23  C   UNL     1      15.173  12.706  48.581  1.00  0.00     0.159 C 
ATOM     24  C   UNL     1      15.815  12.043  49.744  1.00  0.00     0.005 C 
ATOM     25  C   UNL     1      15.735  10.354  51.637  1.00  0.00     0.020 C 
ATOM     26  C   UNL     1      16.001   9.641  49.217  1.00  0.00     0.017 C 
ATOM     27  O   UNL     1      15.733  13.667  47.987  1.00  0.00    -0.295 OA
ATOM     28  C   UNL     1      16.908  12.594  50.306  1.00  0.00     0.055 C 
ATOM     29  C   UNL     1      17.228  10.584  51.893  1.00  0.00     0.081 C 
ATOM     30  C   UNL     1      17.643  11.933  51.396  1.00  0.00     0.156 C 
ATOM     31  O   UNL     1      18.663  12.488  51.882  1.00  0.00    -0.295 OA
ENDBRANCH   9  11
ENDBRANCH   8   9
ENDBRANCH   1   8
TORSDOF 6
ENDMDL
MODEL 6
REMARK VINA RESULT:    -6.974      2.428      3.292
REMARK INTER + INTRA:         -10.408
REMARK INTER:                  -8.095
REMARK INTRA:                  -2.313
REMARK UNBOUND:                -0.988
REMARK SMILES CC[C@H](CC[C@@H](C)[C@@H]1CC[C@@H]2[C@@H]3CC(=O)C4=CC(=O)CC[C@@]4(C)[C@@H]3CC[C@]21C)C(C)C
REMARK SMILES IDX 4 1 3 2 2 3 1 4 29 5 30 6 31 7 5 8 6 9 7 10 8 11 9 12 27 13
REMARK SMILES IDX 10 14 11 15 26 16 28 17 12 18 25 19 24 20 13 21 22 22 14 23
REMARK SMILES IDX 16 24 21 25 23 26 15 27 17 28 20 29 18 30 19 31
REMARK H PARENT
REMARK Flexibility Score: inf
ROOT
ATOM      1  C   UNL     1       7.624  24.060  39.575  1.00  0.00     0.004 C 
ENDROOT
BRANCH   1   2
ATOM      2  C   UNL     1       8.766  24.479  40.548  1.00  0.00    -0.009 C 
BRANCH   2   3
ATOM      3  C   UNL     1       9.614  25.647  39.974  1.00  0.00     0.000 C 
ATOM      4  C   UNL     1       9.430  25.838  38.467  1.00  0.00     0.004 C 
ENDBRANCH   2   3
BRANCH   2   5
ATOM      5  C   UNL     1       8.323  24.697  42.036  1.00  0.00    -0.014 C 
ATOM      6  C   UNL     1       6.823  24.494  42.303  1.00  0.00     0.007 C 
ATOM      7  C   UNL     1       9.146  23.840  43.011  1.00  0.00     0.007 C 
ENDBRANCH   2   5
ENDBRANCH   1   2
BRANCH   1   8
ATOM      8  C   UNL     1       7.587  22.559  39.178  1.00  0.00     0.004 C 
BRANCH   8   9
ATOM      9  C   UNL     1       8.549  21.681  40.033  1.00  0.00    -0.011 C 
ATOM     10  C   UNL     1       7.751  20.676  40.878  1.00  0.00     0.008 C 
BRANCH   9  11
ATOM     11  C   UNL     1       9.751  20.995  39.289  1.00  0.00    -0.002 C 
ATOM     12  C   UNL     1      10.072  19.558  39.798  1.00  0.00     0.005 C 
ATOM     13  C   UNL     1      11.141  21.698  39.128  1.00  0.00    -0.026 C 
ATOM     14  C   UNL     1      11.584  19.352  39.620  1.00  0.00     0.005 C 
ATOM     15  C   UNL     1      11.988  20.489  38.699  1.00  0.00    -0.001 C 
ATOM     16  C   UNL     1      11.229  22.729  37.974  1.00  0.00     0.007 C 
ATOM     17  C   UNL     1      11.599  22.339  40.463  1.00  0.00     0.012 C 
ATOM     18  C   UNL     1      13.483  20.731  38.372  1.00  0.00     0.004 C 
ATOM     19  C   UNL     1      12.692  23.143  37.697  1.00  0.00     0.005 C 
ATOM     20  C   UNL     1      13.657  21.946  37.399  1.00  0.00     0.003 C 
ATOM     21  C   UNL     1      14.483  20.745  39.540  1.00  0.00     0.085 C 
ATOM     22  C   UNL     1      15.180  22.380  37.161  1.00  0.00    -0.000 C 
ATOM     23  C   UNL     1      15.863  20.647  38.968  1.00  0.00     0.159 C 
ATOM     24  C   UNL     1      16.162  21.314  37.676  1.00  0.00     0.005 C 
ATOM     25  C   UNL     1      15.386  22.596  35.627  1.00  0.00     0.020 C 
ATOM     26  C   UNL     1      15.545  23.691  37.910  1.00  0.00     0.017 C 
ATOM     27  O   UNL     1      16.755  20.021  39.601  1.00  0.00    -0.295 OA
ATOM     28  C   UNL     1      17.339  21.084  37.064  1.00  0.00     0.055 C 
ATOM     29  C   UNL     1      16.847  22.842  35.238  1.00  0.00     0.081 C 
ATOM     30  C   UNL     1      17.732  21.792  35.834  1.00  0.00     0.156 C 
ATOM     31  O   UNL     1      18.847  21.544  35.305  1.00  0.00    -0.295 OA
ENDBRANCH   9  11
ENDBRANCH   8   9
ENDBRANCH   1   8
TORSDOF 6
ENDMDL
MODEL 7
REMARK VINA RESULT:    -6.915      1.213      2.158
REMARK INTER + INTRA:         -10.328
REMARK INTER:                  -9.572
REMARK INTRA:                  -0.755
REMARK UNBOUND:                -0.988
REMARK SMILES CC[C@H](CC[C@@H](C)[C@@H]1CC[C@@H]2[C@@H]3CC(=O)C4=CC(=O)CC[C@@]4(C)[C@@H]3CC[C@]21C)C(C)C
REMARK SMILES IDX 4 1 3 2 2 3 1 4 29 5 30 6 31 7 5 8 6 9 7 10 8 11 9 12 27 13
REMARK SMILES IDX 10 14 11 15 26 16 28 17 12 18 25 19 24 20 13 21 22 22 14 23
REMARK SMILES IDX 16 24 21 25 23 26 15 27 17 28 20 29 18 30 19 31
REMARK H PARENT
REMARK Flexibility Score: inf
ROOT
ATOM      1  C   UNL     1       6.284  23.158  40.616  1.00  0.00     0.004 C 
ENDROOT
BRANCH   1   2
ATOM      2  C   UNL     1       5.272  22.129  40.033  1.00  0.00    -0.009 C 
BRANCH   2   3
ATOM      3  C   UNL     1       4.744  21.157  41.125  1.00  0.00     0.000 C 
ATOM      4  C   UNL     1       4.962  21.678  42.547  1.00  0.00     0.004 C 
ENDBRANCH   2   3
BRANCH   2   5
ATOM      5  C   UNL     1       4.140  22.744  39.139  1.00  0.00    -0.014 C 
ATOM      6  C   UNL     1       2.899  21.854  38.961  1.00  0.00     0.007 C 
ATOM      7  C   UNL     1       3.715  24.138  39.629  1.00  0.00     0.007 C 
ENDBRANCH   2   5
ENDBRANCH   1   2
BRANCH   1   8
ATOM      8  C   UNL     1       7.782  22.889  40.304  1.00  0.00     0.004 C 
BRANCH   8   9
ATOM      9  C   UNL     1       8.122  23.026  38.790  1.00  0.00    -0.011 C 
ATOM     10  C   UNL     1       8.294  24.505  38.410  1.00  0.00     0.008 C 
BRANCH   9  11
ATOM     11  C   UNL     1       9.291  22.138  38.230  1.00  0.00    -0.002 C 
ATOM     12  C   UNL     1       9.286  20.675  38.764  1.00  0.00     0.005 C 
ATOM     13  C   UNL     1      10.787  22.597  38.292  1.00  0.00    -0.026 C 
ATOM     14  C   UNL     1      10.751  20.217  38.817  1.00  0.00     0.005 C 
ATOM     15  C   UNL     1      11.476  21.257  37.983  1.00  0.00    -0.001 C 
ATOM     16  C   UNL     1      11.221  23.583  37.177  1.00  0.00     0.007 C 
ATOM     17  C   UNL     1      11.137  23.170  39.689  1.00  0.00     0.012 C 
ATOM     18  C   UNL     1      13.022  21.241  37.890  1.00  0.00     0.004 C 
ATOM     19  C   UNL     1      12.758  23.742  37.132  1.00  0.00     0.005 C 
ATOM     20  C   UNL     1      13.543  22.397  36.969  1.00  0.00     0.003 C 
ATOM     21  C   UNL     1      13.820  21.104  39.197  1.00  0.00     0.085 C 
ATOM     22  C   UNL     1      15.136  22.567  36.972  1.00  0.00    -0.000 C 
ATOM     23  C   UNL     1      15.235  20.769  38.841  1.00  0.00     0.159 C 
ATOM     24  C   UNL     1      15.835  21.359  37.618  1.00  0.00     0.005 C 
ATOM     25  C   UNL     1      15.606  22.724  35.491  1.00  0.00     0.020 C 
ATOM     26  C   UNL     1      15.596  23.808  37.784  1.00  0.00     0.017 C 
ATOM     27  O   UNL     1      15.903  20.011  39.596  1.00  0.00    -0.295 OA
ATOM     28  C   UNL     1      17.037  20.927  37.190  1.00  0.00     0.055 C 
ATOM     29  C   UNL     1      17.130  22.716  35.332  1.00  0.00     0.081 C 
ATOM     30  C   UNL     1      17.724  21.541  36.044  1.00  0.00     0.156 C 
ATOM     31  O   UNL     1      18.850  21.103  35.688  1.00  0.00    -0.295 OA
ENDBRANCH   9  11
ENDBRANCH   8   9
ENDBRANCH   1   8
TORSDOF 6
ENDMDL
MODEL 8
REMARK VINA RESULT:    -6.894      2.756      3.998
REMARK INTER + INTRA:         -10.300
REMARK INTER:                  -8.748
REMARK INTRA:                  -1.552
REMARK UNBOUND:                -0.988
REMARK SMILES CC[C@H](CC[C@@H](C)[C@@H]1CC[C@@H]2[C@@H]3CC(=O)C4=CC(=O)CC[C@@]4(C)[C@@H]3CC[C@]21C)C(C)C
REMARK SMILES IDX 4 1 3 2 2 3 1 4 29 5 30 6 31 7 5 8 6 9 7 10 8 11 9 12 27 13
REMARK SMILES IDX 10 14 11 15 26 16 28 17 12 18 25 19 24 20 13 21 22 22 14 23
REMARK SMILES IDX 16 24 21 25 23 26 15 27 17 28 20 29 18 30 19 31
REMARK H PARENT
REMARK Flexibility Score: inf
ROOT
ATOM      1  C   UNL     1       8.293  24.380  40.883  1.00  0.00     0.004 C 
ENDROOT
BRANCH   1   2
ATOM      2  C   UNL     1       8.787  23.613  42.145  1.00  0.00    -0.009 C 
BRANCH   2   3
ATOM      3  C   UNL     1       9.188  22.150  41.810  1.00  0.00     0.000 C 
ATOM      4  C   UNL     1      10.615  21.805  42.241  1.00  0.00     0.004 C 
ENDBRANCH   2   3
BRANCH   2   5
ATOM      5  C   UNL     1       9.851  24.373  43.010  1.00  0.00    -0.014 C 
ATOM      6  C   UNL     1      10.542  25.549  42.302  1.00  0.00     0.007 C 
ATOM      7  C   UNL     1       9.268  24.844  44.353  1.00  0.00     0.007 C 
ENDBRANCH   2   5
ENDBRANCH   1   2
BRANCH   1   8
ATOM      8  C   UNL     1       7.902  23.501  39.663  1.00  0.00     0.004 C 
BRANCH   8   9
ATOM      9  C   UNL     1       8.639  23.914  38.355  1.00  0.00    -0.011 C 
ATOM     10  C   UNL     1       9.203  25.338  38.483  1.00  0.00     0.008 C 
BRANCH   9  11
ATOM     11  C   UNL     1       9.704  22.913  37.780  1.00  0.00    -0.002 C 
ATOM     12  C   UNL     1       9.507  21.441  38.249  1.00  0.00     0.005 C 
ATOM     13  C   UNL     1      11.243  23.180  37.890  1.00  0.00    -0.026 C 
ATOM     14  C   UNL     1      10.903  20.803  38.310  1.00  0.00     0.005 C 
ATOM     15  C   UNL     1      11.770  21.780  37.536  1.00  0.00    -0.001 C 
ATOM     16  C   UNL     1      11.822  24.150  36.829  1.00  0.00     0.007 C 
ATOM     17  C   UNL     1      11.626  23.648  39.318  1.00  0.00     0.012 C 
ATOM     18  C   UNL     1      13.304  21.577  37.473  1.00  0.00     0.004 C 
ATOM     19  C   UNL     1      13.368  24.120  36.820  1.00  0.00     0.005 C 
ATOM     20  C   UNL     1      13.986  22.696  36.615  1.00  0.00     0.003 C 
ATOM     21  C   UNL     1      14.047  21.288  38.788  1.00  0.00     0.085 C 
ATOM     22  C   UNL     1      15.587  22.668  36.656  1.00  0.00    -0.000 C 
ATOM     23  C   UNL     1      15.418  20.796  38.447  1.00  0.00     0.159 C 
ATOM     24  C   UNL     1      16.116  21.357  37.263  1.00  0.00     0.005 C 
ATOM     25  C   UNL     1      16.110  22.827  35.193  1.00  0.00     0.020 C 
ATOM     26  C   UNL     1      16.176  23.808  37.530  1.00  0.00     0.017 C 
ATOM     27  O   UNL     1      15.969  19.931  39.180  1.00  0.00    -0.295 OA
ATOM     28  C   UNL     1      17.266  20.798  36.839  1.00  0.00     0.055 C 
ATOM     29  C   UNL     1      17.624  22.637  35.064  1.00  0.00     0.081 C 
ATOM     30  C   UNL     1      18.053  21.369  35.735  1.00  0.00     0.156 C 
ATOM     31  O   UNL     1      19.124  20.811  35.382  1.00  0.00    -0.295 OA
ENDBRANCH   9  11
ENDBRANCH   8   9
ENDBRANCH   1   8
TORSDOF 6
ENDMDL
MODEL 9
REMARK VINA RESULT:    -6.721      3.139      9.139
REMARK INTER + INTRA:         -10.067
REMARK INTER:                  -7.788
REMARK INTRA:                  -2.279
REMARK UNBOUND:                -0.988
REMARK SMILES CC[C@H](CC[C@@H](C)[C@@H]1CC[C@@H]2[C@@H]3CC(=O)C4=CC(=O)CC[C@@]4(C)[C@@H]3CC[C@]21C)C(C)C
REMARK SMILES IDX 4 1 3 2 2 3 1 4 29 5 30 6 31 7 5 8 6 9 7 10 8 11 9 12 27 13
REMARK SMILES IDX 10 14 11 15 26 16 28 17 12 18 25 19 24 20 13 21 22 22 14 23
REMARK SMILES IDX 16 24 21 25 23 26 15 27 17 28 20 29 18 30 19 31
REMARK H PARENT
REMARK Flexibility Score: inf
ROOT
ATOM      1  C   UNL     1      16.971  19.285  39.275  1.00  0.00     0.004 C 
ENDROOT
BRANCH   1   2
ATOM      2  C   UNL     1      15.778  19.365  40.272  1.00  0.00    -0.009 C 
BRANCH   2   3
ATOM      3  C   UNL     1      15.232  17.956  40.633  1.00  0.00     0.000 C 
ATOM      4  C   UNL     1      14.216  17.428  39.618  1.00  0.00     0.004 C 
ENDBRANCH   2   3
BRANCH   2   5
ATOM      5  C   UNL     1      16.015  20.285  41.519  1.00  0.00    -0.014 C 
ATOM      6  C   UNL     1      16.914  21.505  41.264  1.00  0.00     0.007 C 
ATOM      7  C   UNL     1      14.692  20.738  42.159  1.00  0.00     0.007 C 
ENDBRANCH   2   5
ENDBRANCH   1   2
BRANCH   1   8
ATOM      8  C   UNL     1      16.656  19.682  37.807  1.00  0.00     0.004 C 
BRANCH   8   9
ATOM      9  C   UNL     1      16.341  21.198  37.641  1.00  0.00    -0.011 C 
ATOM     10  C   UNL     1      17.449  21.891  36.833  1.00  0.00     0.008 C 
BRANCH   9  11
ATOM     11  C   UNL     1      14.910  21.585  37.122  1.00  0.00    -0.002 C 
ATOM     12  C   UNL     1      14.914  22.674  36.009  1.00  0.00     0.005 C 
ATOM     13  C   UNL     1      13.753  21.993  38.095  1.00  0.00    -0.026 C 
ATOM     14  C   UNL     1      13.613  23.476  36.166  1.00  0.00     0.005 C 
ATOM     15  C   UNL     1      12.772  22.605  37.082  1.00  0.00    -0.001 C 
ATOM     16  C   UNL     1      13.010  20.810  38.769  1.00  0.00     0.007 C 
ATOM     17  C   UNL     1      14.253  22.998  39.165  1.00  0.00     0.012 C 
ATOM     18  C   UNL     1      11.410  23.120  37.611  1.00  0.00     0.004 C 
ATOM     19  C   UNL     1      11.711  21.281  39.462  1.00  0.00     0.005 C 
ATOM     20  C   UNL     1      10.720  22.051  38.526  1.00  0.00     0.003 C 
ATOM     21  C   UNL     1      11.356  24.540  38.196  1.00  0.00     0.085 C 
ATOM     22  C   UNL     1       9.400  22.577  39.264  1.00  0.00    -0.000 C 
ATOM     23  C   UNL     1       9.918  24.937  38.316  1.00  0.00     0.159 C 
ATOM     24  C   UNL     1       8.908  23.907  38.669  1.00  0.00     0.005 C 
ATOM     25  C   UNL     1       8.294  21.484  39.111  1.00  0.00     0.020 C 
ATOM     26  C   UNL     1       9.637  22.849  40.775  1.00  0.00     0.017 C 
ATOM     27  O   UNL     1       9.587  26.140  38.136  1.00  0.00    -0.295 OA
ATOM     28  C   UNL     1       7.597  24.208  38.602  1.00  0.00     0.055 C 
ATOM     29  C   UNL     1       6.921  21.934  39.618  1.00  0.00     0.081 C 
ATOM     30  C   UNL     1       6.556  23.262  39.034  1.00  0.00     0.156 C 
ATOM     31  O   UNL     1       5.344  23.596  38.956  1.00  0.00    -0.295 OA
ENDBRANCH   9  11
ENDBRANCH   8   9
ENDBRANCH   1   8
TORSDOF 6
ENDMDL
