MODEL 1
REMARK VINA RESULT:    -3.753      0.000      0.000
REMARK INTER + INTRA:          -4.439
REMARK INTER:                  -4.411
REMARK INTRA:                  -0.028
REMARK UNBOUND:                -0.028
REMARK SMILES CCCCC(=O)[O-]
REMARK SMILES IDX 4 1 5 2 6 3 7 4 3 5 2 6 1 7
REMARK H PARENT
REMARK Flexibility Score: inf
ROOT
ATOM      1  C   UNL     1      27.735  12.966  32.603  1.00  0.00     0.053 C 
ENDROOT
BRANCH   1   2
ATOM      2  C   UNL     1      28.256  12.297  31.370  1.00  0.00     0.041 C 
ATOM      3  O   UNL     1      29.108  12.877  30.646  1.00  0.00    -0.550 OA
ATOM      4  O   UNL     1      27.838  11.012  31.048  1.00  0.00    -0.550 OA
ENDBRANCH   1   2
BRANCH   1   5
ATOM      5  C   UNL     1      28.262  12.264  33.857  1.00  0.00     0.006 C 
BRANCH   5   6
ATOM      6  C   UNL     1      27.604  12.832  35.121  1.00  0.00    -0.003 C 
ATOM      7  C   UNL     1      27.426  14.344  35.017  1.00  0.00     0.004 C 
ENDBRANCH   5   6
ENDBRANCH   1   5
TORSDOF 3
ENDMDL
MODEL 2
REMARK VINA RESULT:    -3.714      4.006      4.819
REMARK INTER + INTRA:          -4.393
REMARK INTER:                  -4.312
REMARK INTRA:                  -0.080
REMARK UNBOUND:                -0.028
REMARK SMILES CCCCC(=O)[O-]
REMARK SMILES IDX 4 1 5 2 6 3 7 4 3 5 2 6 1 7
REMARK H PARENT
REMARK Flexibility Score: inf
ROOT
ATOM      1  C   UNL     1      25.010  11.226  35.815  1.00  0.00     0.053 C 
ENDROOT
BRANCH   1   2
ATOM      2  C   UNL     1      26.086  11.394  34.789  1.00  0.00     0.041 C 
ATOM      3  O   UNL     1      27.187  10.796  34.921  1.00  0.00    -0.550 OA
ATOM      4  O   UNL     1      25.855  12.172  33.661  1.00  0.00    -0.550 OA
ENDBRANCH   1   2
BRANCH   1   5
ATOM      5  C   UNL     1      24.110  12.464  35.856  1.00  0.00     0.006 C 
BRANCH   5   6
ATOM      6  C   UNL     1      22.662  12.102  35.503  1.00  0.00    -0.003 C 
ATOM      7  C   UNL     1      22.390  10.620  35.747  1.00  0.00     0.004 C 
ENDBRANCH   5   6
ENDBRANCH   1   5
TORSDOF 3
ENDMDL
MODEL 3
REMARK VINA RESULT:    -3.667      3.879      4.512
REMARK INTER + INTRA:          -4.337
REMARK INTER:                  -4.232
REMARK INTRA:                  -0.105
REMARK UNBOUND:                -0.028
REMARK SMILES CCCCC(=O)[O-]
REMARK SMILES IDX 4 1 5 2 6 3 7 4 3 5 2 6 1 7
REMARK H PARENT
REMARK Flexibility Score: inf
ROOT
ATOM      1  C   UNL     1      25.850  11.504  34.541  1.00  0.00     0.053 C 
ENDROOT
BRANCH   1   2
ATOM      2  C   UNL     1      24.919  11.505  35.713  1.00  0.00     0.041 C 
ATOM      3  O   UNL     1      24.576  10.420  36.251  1.00  0.00    -0.550 OA
ATOM      4  O   UNL     1      24.471  12.709  36.242  1.00  0.00    -0.550 OA
ENDBRANCH   1   2
BRANCH   1   5
ATOM      5  C   UNL     1      27.267  11.881  34.982  1.00  0.00     0.006 C 
BRANCH   5   6
ATOM      6  C   UNL     1      27.739  13.160  34.279  1.00  0.00    -0.003 C 
ATOM      7  C   UNL     1      27.406  14.397  35.109  1.00  0.00     0.004 C 
ENDBRANCH   5   6
ENDBRANCH   1   5
TORSDOF 3
ENDMDL
MODEL 4
REMARK VINA RESULT:    -3.655      3.254      3.759
REMARK INTER + INTRA:          -4.324
REMARK INTER:                  -4.293
REMARK INTRA:                  -0.031
REMARK UNBOUND:                -0.028
REMARK SMILES CCCCC(=O)[O-]
REMARK SMILES IDX 4 1 5 2 6 3 7 4 3 5 2 6 1 7
REMARK H PARENT
REMARK Flexibility Score: inf
ROOT
ATOM      1  C   UNL     1      26.996  11.072  34.805  1.00  0.00     0.053 C 
ENDROOT
BRANCH   1   2
ATOM      2  C   UNL     1      27.855  12.215  34.366  1.00  0.00     0.041 C 
ATOM      3  O   UNL     1      28.461  12.166  33.263  1.00  0.00    -0.550 OA
ATOM      4  O   UNL     1      27.947  13.357  35.153  1.00  0.00    -0.550 OA
ENDBRANCH   1   2
BRANCH   1   5
ATOM      5  C   UNL     1      25.514  11.425  34.652  1.00  0.00     0.006 C 
BRANCH   5   6
ATOM      6  C   UNL     1      24.728  11.056  35.916  1.00  0.00    -0.003 C 
ATOM      7  C   UNL     1      23.239  10.910  35.615  1.00  0.00     0.004 C 
ENDBRANCH   5   6
ENDBRANCH   1   5
TORSDOF 3
ENDMDL
MODEL 5
REMARK VINA RESULT:    -3.596      3.811      4.435
REMARK INTER + INTRA:          -4.254
REMARK INTER:                  -4.164
REMARK INTRA:                  -0.090
REMARK UNBOUND:                -0.028
REMARK SMILES CCCCC(=O)[O-]
REMARK SMILES IDX 4 1 5 2 6 3 7 4 3 5 2 6 1 7
REMARK H PARENT
REMARK Flexibility Score: inf
ROOT
ATOM      1  C   UNL     1      25.661  11.455  34.363  1.00  0.00     0.053 C 
ENDROOT
BRANCH   1   2
ATOM      2  C   UNL     1      24.838  11.590  35.605  1.00  0.00     0.041 C 
ATOM      3  O   UNL     1      24.957  12.607  36.338  1.00  0.00    -0.550 OA
ATOM      4  O   UNL     1      23.902  10.614  35.928  1.00  0.00    -0.550 OA
ENDBRANCH   1   2
BRANCH   1   5
ATOM      5  C   UNL     1      27.119  11.150  34.716  1.00  0.00     0.006 C 
BRANCH   5   6
ATOM      6  C   UNL     1      28.078  12.004  33.876  1.00  0.00    -0.003 C 
ATOM      7  C   UNL     1      27.483  13.380  33.592  1.00  0.00     0.004 C 
ENDBRANCH   5   6
ENDBRANCH   1   5
TORSDOF 3
ENDMDL
MODEL 6
REMARK VINA RESULT:    -3.524      3.226      4.208
REMARK INTER + INTRA:          -4.169
REMARK INTER:                  -4.066
REMARK INTRA:                  -0.103
REMARK UNBOUND:                -0.028
REMARK SMILES CCCCC(=O)[O-]
REMARK SMILES IDX 4 1 5 2 6 3 7 4 3 5 2 6 1 7
REMARK H PARENT
REMARK Flexibility Score: inf
ROOT
ATOM      1  C   UNL     1      26.754  11.157  34.857  1.00  0.00     0.053 C 
ENDROOT
BRANCH   1   2
ATOM      2  C   UNL     1      25.378  11.627  35.212  1.00  0.00     0.041 C 
ATOM      3  O   UNL     1      24.382  11.225  34.554  1.00  0.00    -0.550 OA
ATOM      4  O   UNL     1      25.191  12.469  36.301  1.00  0.00    -0.550 OA
ENDBRANCH   1   2
BRANCH   1   5
ATOM      5  C   UNL     1      27.740  12.328  34.866  1.00  0.00     0.006 C 
BRANCH   5   6
ATOM      6  C   UNL     1      27.520  13.241  33.653  1.00  0.00    -0.003 C 
ATOM      7  C   UNL     1      28.014  12.580  32.370  1.00  0.00     0.004 C 
ENDBRANCH   5   6
ENDBRANCH   1   5
TORSDOF 3
ENDMDL
MODEL 7
REMARK VINA RESULT:    -3.452      1.585      2.076
REMARK INTER + INTRA:          -4.085
REMARK INTER:                  -3.969
REMARK INTRA:                  -0.117
REMARK UNBOUND:                -0.028
REMARK SMILES CCCCC(=O)[O-]
REMARK SMILES IDX 4 1 5 2 6 3 7 4 3 5 2 6 1 7
REMARK H PARENT
REMARK Flexibility Score: inf
ROOT
ATOM      1  C   UNL     1      26.454  11.146  34.051  1.00  0.00     0.053 C 
ENDROOT
BRANCH   1   2
ATOM      2  C   UNL     1      26.842  11.742  32.735  1.00  0.00     0.041 C 
ATOM      3  O   UNL     1      27.863  11.325  32.126  1.00  0.00    -0.550 OA
ATOM      4  O   UNL     1      26.048  12.725  32.156  1.00  0.00    -0.550 OA
ENDBRANCH   1   2
BRANCH   1   5
ATOM      5  C   UNL     1      26.327  12.237  35.117  1.00  0.00     0.006 C 
BRANCH   5   6
ATOM      6  C   UNL     1      27.622  13.050  35.229  1.00  0.00    -0.003 C 
ATOM      7  C   UNL     1      27.348  14.544  35.078  1.00  0.00     0.004 C 
ENDBRANCH   5   6
ENDBRANCH   1   5
TORSDOF 3
ENDMDL
MODEL 8
REMARK VINA RESULT:    -3.430      4.331      5.311
REMARK INTER + INTRA:          -4.060
REMARK INTER:                  -4.043
REMARK INTRA:                  -0.016
REMARK UNBOUND:                -0.028
REMARK SMILES CCCCC(=O)[O-]
REMARK SMILES IDX 4 1 5 2 6 3 7 4 3 5 2 6 1 7
REMARK H PARENT
REMARK Flexibility Score: inf
ROOT
ATOM      1  C   UNL     1      24.895  11.259  35.854  1.00  0.00     0.053 C 
ENDROOT
BRANCH   1   2
ATOM      2  C   UNL     1      23.453  11.531  35.562  1.00  0.00     0.041 C 
ATOM      3  O   UNL     1      22.565  10.730  35.955  1.00  0.00    -0.550 OA
ATOM      4  O   UNL     1      23.086  12.697  34.900  1.00  0.00    -0.550 OA
ENDBRANCH   1   2
BRANCH   1   5
ATOM      5  C   UNL     1      25.734  11.386  34.579  1.00  0.00     0.006 C 
BRANCH   5   6
ATOM      6  C   UNL     1      27.198  11.014  34.846  1.00  0.00    -0.003 C 
ATOM      7  C   UNL     1      28.145  11.884  34.024  1.00  0.00     0.004 C 
ENDBRANCH   5   6
ENDBRANCH   1   5
TORSDOF 3
ENDMDL
MODEL 9
REMARK VINA RESULT:    -3.366      1.935      2.396
REMARK INTER + INTRA:          -3.983
REMARK INTER:                  -3.882
REMARK INTRA:                  -0.101
REMARK UNBOUND:                -0.028
REMARK SMILES CCCCC(=O)[O-]
REMARK SMILES IDX 4 1 5 2 6 3 7 4 3 5 2 6 1 7
REMARK H PARENT
REMARK Flexibility Score: inf
ROOT
ATOM      1  C   UNL     1      27.316  13.744  34.039  1.00  0.00     0.053 C 
ENDROOT
BRANCH   1   2
ATOM      2  C   UNL     1      27.242  12.994  32.746  1.00  0.00     0.041 C 
ATOM      3  O   UNL     1      28.266  12.426  32.284  1.00  0.00    -0.550 OA
ATOM      4  O   UNL     1      26.029  12.881  32.077  1.00  0.00    -0.550 OA
ENDBRANCH   1   2
BRANCH   1   5
ATOM      5  C   UNL     1      27.112  12.794  35.222  1.00  0.00     0.006 C 
BRANCH   5   6
ATOM      6  C   UNL     1      25.637  12.748  35.642  1.00  0.00    -0.003 C 
ATOM      7  C   UNL     1      25.096  11.322  35.595  1.00  0.00     0.004 C 
ENDBRANCH   5   6
ENDBRANCH   1   5
TORSDOF 3
ENDMDL
