MODEL 1
REMARK VINA RESULT:    -3.964      0.000      0.000
REMARK INTER + INTRA:          -5.345
REMARK INTER:                  -5.817
REMARK INTRA:                   0.472
REMARK UNBOUND:                 0.472
REMARK SMILES C=C1CC=CC(C)(C)CC=C(C)CCC1
REMARK SMILES IDX 2 1 1 2 15 3 14 4 13 5 11 6 12 7 10 8 3 10 4 11 5 12 6 13
REMARK SMILES IDX 7 14 8 15 9 16
REMARK H PARENT
REMARK Flexibility Score: 60.00
ROOT
ATOM      1  C   UNL     1       5.005  -2.958  18.355  1.00  0.00    -0.074 C 
ATOM      2  C   UNL     1       6.334  -2.780  18.440  1.00  0.00     0.008 C 
ENDROOT
BRANCH   1   3
ATOM      3  C   UNL     1       4.353  -4.107  19.093  1.00  0.00     0.031 C 
BRANCH   3   4
ATOM      4  C   UNL     1       3.220  -3.647  20.029  1.00  0.00     0.009 C 
BRANCH   4   5
ATOM      5  C   UNL     1       1.803  -4.088  19.600  1.00  0.00     0.030 C 
BRANCH   5   6
ATOM      6  C   UNL     1       0.852  -2.944  19.260  1.00  0.00    -0.077 C 
ATOM      7  C   UNL     1      -0.021  -2.340  20.336  1.00  0.00     0.039 C 
ATOM      8  C   UNL     1       0.667  -2.497  17.995  1.00  0.00    -0.027 CG0
ATOM      9  G   UNL     1       1.155  -3.177  16.734  1.00  0.00     0.000 G0
ENDBRANCH   5   6
ENDBRANCH   4   5
ENDBRANCH   3   4
ENDBRANCH   1   3
BRANCH   1  10
ATOM     10  C   UNL     1       4.145  -1.977  17.585  1.00  0.00     0.057 C 
BRANCH  10  11
ATOM     11  C   UNL     1       4.154  -2.291  16.112  1.00  0.00    -0.026 C 
ATOM     12  C   UNL     1       3.101  -2.372  15.271  1.00  0.00    -0.024 C 
BRANCH  12  13
ATOM     13  C   UNL     1       1.594  -2.243  15.548  1.00  0.00    -0.014 C 
ATOM     14  C   UNL     1       0.879  -2.759  14.270  1.00  0.00     0.016 C 
ATOM     15  C   UNL     1       1.142  -0.770  15.722  1.00  0.00     0.016 C 
BRANCH  13  16
ATOM     16  C   UNL     1       1.152  -3.179  16.721  1.00  0.00     0.038 CG0
ATOM     17  G   UNL     1       0.675  -2.505  17.990  1.00  0.00     0.000 G0
ENDBRANCH  13  16
ENDBRANCH  12  13
ENDBRANCH  10  11
ENDBRANCH   1  10
TORSDOF 0
ENDMDL
MODEL 2
REMARK VINA RESULT:    -3.843      1.145      1.804
REMARK INTER + INTRA:          -5.168
REMARK INTER:                  -5.783
REMARK INTRA:                   0.615
REMARK UNBOUND:                 0.472
REMARK SMILES C=C1CC=CC(C)(C)CC=C(C)CCC1
REMARK SMILES IDX 2 1 1 2 15 3 14 4 13 5 11 6 12 7 10 8 3 10 4 11 5 12 6 13
REMARK SMILES IDX 7 14 8 15 9 16
REMARK H PARENT
REMARK Flexibility Score: 60.00
ROOT
ATOM      1  C   UNL     1       4.814  -2.262  16.072  1.00  0.00    -0.074 C 
ATOM      2  C   UNL     1       6.127  -2.406  15.825  1.00  0.00     0.008 C 
ENDROOT
BRANCH   1   3
ATOM      3  C   UNL     1       4.337  -2.053  17.493  1.00  0.00     0.031 C 
BRANCH   3   4
ATOM      4  C   UNL     1       4.166  -3.374  18.264  1.00  0.00     0.009 C 
BRANCH   4   5
ATOM      5  C   UNL     1       2.797  -4.065  18.076  1.00  0.00     0.030 C 
BRANCH   5   6
ATOM      6  C   UNL     1       1.591  -3.203  18.436  1.00  0.00    -0.077 C 
ATOM      7  C   UNL     1       1.070  -3.183  19.855  1.00  0.00     0.039 C 
ATOM      8  C   UNL     1       0.879  -2.516  17.510  1.00  0.00    -0.027 CG0
ATOM      9  G   UNL     1       0.994  -2.670  16.009  1.00  0.00     0.000 G0
ENDBRANCH   5   6
ENDBRANCH   4   5
ENDBRANCH   3   4
ENDBRANCH   1   3
BRANCH   1  10
ATOM     10  C   UNL     1       3.815  -2.237  14.934  1.00  0.00     0.057 C 
BRANCH  10  11
ATOM     11  C   UNL     1       3.182  -0.876  14.801  1.00  0.00    -0.026 C 
ATOM     12  C   UNL     1       1.875  -0.552  14.905  1.00  0.00    -0.024 C 
BRANCH  12  13
ATOM     13  C   UNL     1       0.642  -1.446  15.114  1.00  0.00    -0.014 C 
ATOM     14  C   UNL     1       0.272  -1.999  13.712  1.00  0.00     0.016 C 
ATOM     15  C   UNL     1      -0.598  -0.651  15.597  1.00  0.00     0.016 C 
BRANCH  13  16
ATOM     16  C   UNL     1       0.983  -2.682  16.011  1.00  0.00     0.038 CG0
ATOM     17  G   UNL     1       0.859  -2.496  17.508  1.00  0.00     0.000 G0
ENDBRANCH  13  16
ENDBRANCH  12  13
ENDBRANCH  10  11
ENDBRANCH   1  10
TORSDOF 0
ENDMDL
MODEL 3
REMARK VINA RESULT:    -3.805      1.516      2.077
REMARK INTER + INTRA:          -5.112
REMARK INTER:                  -5.578
REMARK INTRA:                   0.466
REMARK UNBOUND:                 0.472
REMARK SMILES C=C1CC=CC(C)(C)CC=C(C)CCC1
REMARK SMILES IDX 2 1 1 2 15 3 14 4 13 5 11 6 12 7 10 8 3 10 4 11 5 12 6 13
REMARK SMILES IDX 7 14 8 15 9 16
REMARK H PARENT
REMARK Flexibility Score: 60.00
ROOT
ATOM      1  C   UNL     1       5.238  -3.868  19.992  1.00  0.00    -0.074 C 
ATOM      2  C   UNL     1       5.757  -3.092  20.958  1.00  0.00     0.008 C 
ENDROOT
BRANCH   1   3
ATOM      3  C   UNL     1       4.617  -5.200  20.352  1.00  0.00     0.031 C 
BRANCH   3   4
ATOM      4  C   UNL     1       3.323  -5.050  21.173  1.00  0.00     0.009 C 
BRANCH   4   5
ATOM      5  C   UNL     1       2.331  -3.993  20.638  1.00  0.00     0.030 C 
BRANCH   5   6
ATOM      6  C   UNL     1       1.216  -4.550  19.760  1.00  0.00    -0.077 C 
ATOM      7  C   UNL     1       0.091  -5.347  20.378  1.00  0.00     0.039 C 
ATOM      8  C   UNL     1       1.231  -4.456  18.408  1.00  0.00    -0.027 CG0
ATOM      9  G   UNL     1       2.410  -4.026  17.562  1.00  0.00     0.000 G0
ENDBRANCH   5   6
ENDBRANCH   4   5
ENDBRANCH   3   4
ENDBRANCH   1   3
BRANCH   1  10
ATOM     10  C   UNL     1       5.206  -3.390  18.555  1.00  0.00     0.057 C 
BRANCH  10  11
ATOM     11  C   UNL     1       4.577  -2.025  18.453  1.00  0.00    -0.026 C 
ATOM     12  C   UNL     1       3.417  -1.686  17.851  1.00  0.00    -0.024 C 
BRANCH  12  13
ATOM     13  C   UNL     1       2.430  -2.541  17.039  1.00  0.00    -0.014 C 
ATOM     14  C   UNL     1       2.988  -2.578  15.592  1.00  0.00     0.016 C 
ATOM     15  C   UNL     1       1.025  -1.896  16.936  1.00  0.00     0.016 C 
BRANCH  13  16
ATOM     16  C   UNL     1       2.407  -4.019  17.552  1.00  0.00     0.038 CG0
ATOM     17  G   UNL     1       1.231  -4.425  18.414  1.00  0.00     0.000 G0
ENDBRANCH  13  16
ENDBRANCH  12  13
ENDBRANCH  10  11
ENDBRANCH   1  10
TORSDOF 0
ENDMDL
MODEL 4
REMARK VINA RESULT:    -3.750      2.912      6.197
REMARK INTER + INTRA:          -5.032
REMARK INTER:                  -5.359
REMARK INTRA:                   0.327
REMARK UNBOUND:                 0.472
REMARK SMILES C=C1CC=CC(C)(C)CC=C(C)CCC1
REMARK SMILES IDX 2 1 1 2 15 3 14 4 13 5 11 6 12 7 10 8 3 10 4 11 5 12 6 13
REMARK SMILES IDX 7 14 8 15 9 16
REMARK H PARENT
REMARK Flexibility Score: 60.00
ROOT
ATOM      1  C   UNL     1       0.405  -5.244  20.241  1.00  0.00    -0.074 C 
ATOM      2  C   UNL     1      -0.296  -6.384  20.126  1.00  0.00     0.008 C 
ENDROOT
BRANCH   1   3
ATOM      3  C   UNL     1       0.470  -4.282  19.075  1.00  0.00     0.031 C 
BRANCH   3   4
ATOM      4  C   UNL     1       1.714  -3.376  19.118  1.00  0.00     0.009 C 
BRANCH   4   5
ATOM      5  C   UNL     1       2.957  -3.941  18.394  1.00  0.00     0.030 C 
BRANCH   5   6
ATOM      6  C   UNL     1       4.292  -3.413  18.909  1.00  0.00    -0.077 C 
ATOM      7  C   UNL     1       4.995  -2.291  18.180  1.00  0.00     0.039 C 
ATOM      8  C   UNL     1       4.950  -3.977  19.951  1.00  0.00    -0.027 CG0
ATOM      9  G   UNL     1       4.620  -5.307  20.594  1.00  0.00     0.000 G0
ENDBRANCH   5   6
ENDBRANCH   4   5
ENDBRANCH   3   4
ENDBRANCH   1   3
BRANCH   1  10
ATOM     10  C   UNL     1       1.071  -4.879  21.552  1.00  0.00     0.057 C 
BRANCH  10  11
ATOM     11  C   UNL     1       1.762  -6.073  22.157  1.00  0.00    -0.026 C 
ATOM     12  C   UNL     1       3.077  -6.229  22.419  1.00  0.00    -0.024 C 
BRANCH  12  13
ATOM     13  C   UNL     1       4.267  -5.300  22.128  1.00  0.00    -0.014 C 
ATOM     14  C   UNL     1       5.479  -5.911  22.881  1.00  0.00     0.016 C 
ATOM     15  C   UNL     1       4.074  -3.879  22.716  1.00  0.00     0.016 C 
BRANCH  13  16
ATOM     16  C   UNL     1       4.632  -5.306  20.606  1.00  0.00     0.038 CG0
ATOM     17  G   UNL     1       4.939  -3.967  19.972  1.00  0.00     0.000 G0
ENDBRANCH  13  16
ENDBRANCH  12  13
ENDBRANCH  10  11
ENDBRANCH   1  10
TORSDOF 0
ENDMDL
MODEL 5
REMARK VINA RESULT:    -3.689      2.193      4.647
REMARK INTER + INTRA:          -4.942
REMARK INTER:                  -5.461
REMARK INTRA:                   0.520
REMARK UNBOUND:                 0.472
REMARK SMILES C=C1CC=CC(C)(C)CC=C(C)CCC1
REMARK SMILES IDX 2 1 1 2 15 3 14 4 13 5 11 6 12 7 10 8 3 10 4 11 5 12 6 13
REMARK SMILES IDX 7 14 8 15 9 16
REMARK H PARENT
REMARK Flexibility Score: 60.00
ROOT
ATOM      1  C   UNL     1       1.357  -2.515  17.421  1.00  0.00    -0.074 C 
ATOM      2  C   UNL     1       0.902  -1.830  16.358  1.00  0.00     0.008 C 
ENDROOT
BRANCH   1   3
ATOM      3  C   UNL     1       0.464  -2.705  18.628  1.00  0.00     0.031 C 
BRANCH   3   4
ATOM      4  C   UNL     1       0.526  -4.135  19.196  1.00  0.00     0.009 C 
BRANCH   4   5
ATOM      5  C   UNL     1       0.358  -4.234  20.728  1.00  0.00     0.030 C 
BRANCH   5   6
ATOM      6  C   UNL     1       1.364  -5.146  21.424  1.00  0.00    -0.077 C 
ATOM      7  C   UNL     1       0.884  -6.342  22.212  1.00  0.00     0.039 C 
ATOM      8  C   UNL     1       2.692  -4.877  21.462  1.00  0.00    -0.027 CG0
ATOM      9  G   UNL     1       3.345  -3.573  21.058  1.00  0.00     0.000 G0
ENDBRANCH   5   6
ENDBRANCH   4   5
ENDBRANCH   3   4
ENDBRANCH   1   3
BRANCH   1  10
ATOM     10  C   UNL     1       2.727  -3.161  17.392  1.00  0.00     0.057 C 
BRANCH  10  11
ATOM     11  C   UNL     1       3.766  -2.250  17.992  1.00  0.00    -0.026 C 
ATOM     12  C   UNL     1       4.536  -2.467  19.079  1.00  0.00    -0.024 C 
BRANCH  12  13
ATOM     13  C   UNL     1       4.554  -3.644  20.067  1.00  0.00    -0.014 C 
ATOM     14  C   UNL     1       5.842  -3.472  20.915  1.00  0.00     0.016 C 
ATOM     15  C   UNL     1       4.692  -5.017  19.359  1.00  0.00     0.016 C 
BRANCH  13  16
ATOM     16  C   UNL     1       3.347  -3.568  21.060  1.00  0.00     0.038 CG0
ATOM     17  G   UNL     1       2.706  -4.880  21.459  1.00  0.00     0.000 G0
ENDBRANCH  13  16
ENDBRANCH  12  13
ENDBRANCH  10  11
ENDBRANCH   1  10
TORSDOF 0
ENDMDL
MODEL 6
REMARK VINA RESULT:    -3.682      1.982      4.867
REMARK INTER + INTRA:          -4.932
REMARK INTER:                  -5.358
REMARK INTRA:                   0.426
REMARK UNBOUND:                 0.472
REMARK SMILES C=C1CC=CC(C)(C)CC=C(C)CCC1
REMARK SMILES IDX 2 1 1 2 15 3 14 4 13 5 11 6 12 7 10 8 3 10 4 11 5 12 6 13
REMARK SMILES IDX 7 14 8 15 9 16
REMARK H PARENT
REMARK Flexibility Score: 60.00
ROOT
ATOM      1  C   UNL     1       1.849  -2.066  16.943  1.00  0.00    -0.074 C 
ATOM      2  C   UNL     1       1.051  -1.361  16.124  1.00  0.00     0.008 C 
ENDROOT
BRANCH   1   3
ATOM      3  C   UNL     1       3.214  -2.509  16.462  1.00  0.00     0.031 C 
BRANCH   3   4
ATOM      4  C   UNL     1       4.325  -2.245  17.496  1.00  0.00     0.009 C 
BRANCH   4   5
ATOM      5  C   UNL     1       4.634  -3.431  18.436  1.00  0.00     0.030 C 
BRANCH   5   6
ATOM      6  C   UNL     1       4.715  -3.069  19.915  1.00  0.00    -0.077 C 
ATOM      7  C   UNL     1       5.824  -2.173  20.417  1.00  0.00     0.039 C 
ATOM      8  C   UNL     1       3.888  -3.603  20.847  1.00  0.00    -0.027 CG0
ATOM      9  G   UNL     1       2.953  -4.774  20.635  1.00  0.00     0.000 G0
ENDBRANCH   5   6
ENDBRANCH   4   5
ENDBRANCH   3   4
ENDBRANCH   1   3
BRANCH   1  10
ATOM     10  C   UNL     1       1.424  -2.361  18.367  1.00  0.00     0.057 C 
BRANCH  10  11
ATOM     11  C   UNL     1       0.694  -3.675  18.452  1.00  0.00    -0.026 C 
ATOM     12  C   UNL     1       0.672  -4.550  19.480  1.00  0.00    -0.024 C 
BRANCH  12  13
ATOM     13  C   UNL     1       1.415  -4.525  20.825  1.00  0.00    -0.014 C 
ATOM     14  C   UNL     1       0.864  -5.724  21.641  1.00  0.00     0.016 C 
ATOM     15  C   UNL     1       1.096  -3.260  21.661  1.00  0.00     0.016 C 
BRANCH  13  16
ATOM     16  C   UNL     1       2.947  -4.779  20.630  1.00  0.00     0.038 CG0
ATOM     17  G   UNL     1       3.868  -3.596  20.840  1.00  0.00     0.000 G0
ENDBRANCH  13  16
ENDBRANCH  12  13
ENDBRANCH  10  11
ENDBRANCH   1  10
TORSDOF 0
ENDMDL
MODEL 7
REMARK VINA RESULT:    -3.627      1.457      3.708
REMARK INTER + INTRA:          -4.852
REMARK INTER:                  -5.233
REMARK INTRA:                   0.381
REMARK UNBOUND:                 0.472
REMARK SMILES C=C1CC=CC(C)(C)CC=C(C)CCC1
REMARK SMILES IDX 2 1 1 2 15 3 14 4 13 5 11 6 12 7 10 8 3 10 4 11 5 12 6 13
REMARK SMILES IDX 7 14 8 15 9 16
REMARK H PARENT
REMARK Flexibility Score: 60.00
ROOT
ATOM      1  C   UNL     1       0.281  -2.711  18.897  1.00  0.00    -0.074 C 
ATOM      2  C   UNL     1      -0.344  -2.148  19.944  1.00  0.00     0.008 C 
ENDROOT
BRANCH   1   3
ATOM      3  C   UNL     1       0.724  -4.156  18.977  1.00  0.00     0.031 C 
BRANCH   3   4
ATOM      4  C   UNL     1       1.948  -4.354  19.890  1.00  0.00     0.009 C 
BRANCH   4   5
ATOM      5  C   UNL     1       2.995  -3.219  19.830  1.00  0.00     0.030 C 
BRANCH   5   6
ATOM      6  C   UNL     1       4.238  -3.539  19.007  1.00  0.00    -0.077 C 
ATOM      7  C   UNL     1       5.274  -4.500  19.543  1.00  0.00     0.039 C 
ATOM      8  C   UNL     1       4.524  -2.915  17.839  1.00  0.00    -0.027 CG0
ATOM      9  G   UNL     1       3.830  -1.685  17.297  1.00  0.00     0.000 G0
ENDBRANCH   5   6
ENDBRANCH   4   5
ENDBRANCH   3   4
ENDBRANCH   1   3
BRANCH   1  10
ATOM     10  C   UNL     1       0.481  -1.936  17.612  1.00  0.00     0.057 C 
BRANCH  10  11
ATOM     11  C   UNL     1       0.934  -2.843  16.498  1.00  0.00    -0.026 C 
ATOM     12  C   UNL     1       2.085  -2.787  15.794  1.00  0.00    -0.024 C 
BRANCH  12  13
ATOM     13  C   UNL     1       3.237  -1.771  15.850  1.00  0.00    -0.014 C 
ATOM     14  C   UNL     1       2.602  -0.388  15.544  1.00  0.00     0.016 C 
ATOM     15  C   UNL     1       4.296  -2.006  14.742  1.00  0.00     0.016 C 
BRANCH  13  16
ATOM     16  C   UNL     1       3.843  -1.680  17.289  1.00  0.00     0.038 CG0
ATOM     17  G   UNL     1       4.528  -2.920  17.822  1.00  0.00     0.000 G0
ENDBRANCH  13  16
ENDBRANCH  12  13
ENDBRANCH  10  11
ENDBRANCH   1  10
TORSDOF 0
ENDMDL
MODEL 8
REMARK VINA RESULT:    -3.626      0.901      3.769
REMARK INTER + INTRA:          -4.850
REMARK INTER:                  -5.389
REMARK INTRA:                   0.539
REMARK UNBOUND:                 0.472
REMARK SMILES C=C1CC=CC(C)(C)CC=C(C)CCC1
REMARK SMILES IDX 2 1 1 2 15 3 14 4 13 5 11 6 12 7 10 8 3 10 4 11 5 12 6 13
REMARK SMILES IDX 7 14 8 15 9 16
REMARK H PARENT
REMARK Flexibility Score: 60.00
ROOT
ATOM      1  C   UNL     1       5.012  -2.662  18.192  1.00  0.00    -0.074 C 
ATOM      2  C   UNL     1       5.417  -1.775  19.117  1.00  0.00     0.008 C 
ENDROOT
BRANCH   1   3
ATOM      3  C   UNL     1       5.526  -2.552  16.773  1.00  0.00     0.031 C 
BRANCH   3   4
ATOM      4  C   UNL     1       4.407  -2.263  15.755  1.00  0.00     0.009 C 
BRANCH   4   5
ATOM      5  C   UNL     1       3.154  -1.578  16.343  1.00  0.00     0.030 C 
BRANCH   5   6
ATOM      6  C   UNL     1       1.835  -2.274  16.024  1.00  0.00    -0.077 C 
ATOM      7  C   UNL     1       1.400  -2.450  14.587  1.00  0.00     0.039 C 
ATOM      8  C   UNL     1       0.960  -2.663  16.982  1.00  0.00    -0.027 CG0
ATOM      9  G   UNL     1       1.016  -2.275  18.444  1.00  0.00     0.000 G0
ENDBRANCH   5   6
ENDBRANCH   4   5
ENDBRANCH   3   4
ENDBRANCH   1   3
BRANCH   1  10
ATOM     10  C   UNL     1       4.102  -3.811  18.574  1.00  0.00     0.057 C 
BRANCH  10  11
ATOM     11  C   UNL     1       3.548  -3.623  19.962  1.00  0.00    -0.026 C 
ATOM     12  C   UNL     1       2.255  -3.512  20.334  1.00  0.00    -0.024 C 
BRANCH  12  13
ATOM     13  C   UNL     1       0.975  -3.472  19.485  1.00  0.00    -0.014 C 
ATOM     14  C   UNL     1      -0.184  -3.166  20.472  1.00  0.00     0.016 C 
ATOM     15  C   UNL     1       0.637  -4.844  18.847  1.00  0.00     0.016 C 
BRANCH  13  16
ATOM     16  C   UNL     1       1.014  -2.293  18.456  1.00  0.00     0.038 CG0
ATOM     17  G   UNL     1       0.964  -2.664  16.990  1.00  0.00     0.000 G0
ENDBRANCH  13  16
ENDBRANCH  12  13
ENDBRANCH  10  11
ENDBRANCH   1  10
TORSDOF 0
ENDMDL
MODEL 9
REMARK VINA RESULT:    -3.579      3.490      5.087
REMARK INTER + INTRA:          -4.782
REMARK INTER:                  -5.314
REMARK INTRA:                   0.533
REMARK UNBOUND:                 0.472
REMARK SMILES C=C1CC=CC(C)(C)CC=C(C)CCC1
REMARK SMILES IDX 2 1 1 2 15 3 14 4 13 5 11 6 12 7 10 8 3 10 4 11 5 12 6 13
REMARK SMILES IDX 7 14 8 15 9 16
REMARK H PARENT
REMARK Flexibility Score: 60.00
ROOT
ATOM      1  C   UNL     1       2.903  -1.541  12.520  1.00  0.00    -0.074 C 
ATOM      2  C   UNL     1       2.464  -0.418  11.930  1.00  0.00     0.008 C 
ENDROOT
BRANCH   1   3
ATOM      3  C   UNL     1       3.744  -1.449  13.775  1.00  0.00     0.031 C 
BRANCH   3   4
ATOM      4  C   UNL     1       2.966  -0.872  14.972  1.00  0.00     0.009 C 
BRANCH   4   5
ATOM      5  C   UNL     1       1.911  -1.822  15.581  1.00  0.00     0.030 C 
BRANCH   5   6
ATOM      6  C   UNL     1       0.466  -1.479  15.234  1.00  0.00    -0.077 C 
ATOM      7  C   UNL     1      -0.246  -0.367  15.970  1.00  0.00     0.039 C 
ATOM      8  C   UNL     1      -0.268  -2.201  14.353  1.00  0.00    -0.027 CG0
ATOM      9  G   UNL     1       0.113  -3.547  13.775  1.00  0.00     0.000 G0
ENDBRANCH   5   6
ENDBRANCH   4   5
ENDBRANCH   3   4
ENDBRANCH   1   3
BRANCH   1  10
ATOM     10  C   UNL     1       2.506  -2.900  11.982  1.00  0.00     0.057 C 
BRANCH  10  11
ATOM     11  C   UNL     1       1.339  -2.786  11.036  1.00  0.00    -0.026 C 
ATOM     12  C   UNL     1       0.067  -3.194  11.230  1.00  0.00    -0.024 C 
BRANCH  12  13
ATOM     13  C   UNL     1      -0.567  -3.946  12.411  1.00  0.00    -0.014 C 
ATOM     14  C   UNL     1      -0.259  -5.449  12.177  1.00  0.00     0.016 C 
ATOM     15  C   UNL     1      -2.113  -3.829  12.434  1.00  0.00     0.016 C 
BRANCH  13  16
ATOM     16  C   UNL     1       0.113  -3.552  13.765  1.00  0.00     0.038 CG0
ATOM     17  G   UNL     1      -0.246  -2.200  14.342  1.00  0.00     0.000 G0
ENDBRANCH  13  16
ENDBRANCH  12  13
ENDBRANCH  10  11
ENDBRANCH   1  10
TORSDOF 0
ENDMDL
