MODEL 1
REMARK VINA RESULT:    -4.770      0.000      0.000
REMARK INTER + INTRA:         -11.845
REMARK INTER:                  -8.954
REMARK INTRA:                  -2.891
REMARK UNBOUND:                -2.891
REMARK SMILES CCCCCCCCC=CCCCCCCCC(=O)[O-]
REMARK SMILES IDX 10 1 9 2 11 3 12 4 13 5 14 6 15 7 16 8 17 9 18 10 19 11
REMARK SMILES IDX 20 12 8 13 7 14 6 15 5 16 4 17 3 18 2 19 1 20
REMARK H PARENT
REMARK Flexibility Score: inf
ROOT
ATOM      1  C   UNL     1      10.576  -7.176 -12.582  1.00  0.00    -0.031 C 
ATOM      2  C   UNL     1       9.973  -8.330 -12.243  1.00  0.00    -0.031 C 
ENDROOT
BRANCH   1   3
ATOM      3  C   UNL     1      11.907  -7.075 -13.288  1.00  0.00     0.027 C 
BRANCH   3   4
ATOM      4  C   UNL     1      12.883  -6.137 -12.555  1.00  0.00     0.004 C 
BRANCH   4   5
ATOM      5  C   UNL     1      14.281  -6.737 -12.312  1.00  0.00     0.000 C 
BRANCH   5   6
ATOM      6  C   UNL     1      14.954  -6.184 -11.044  1.00  0.00     0.000 C 
BRANCH   6   7
ATOM      7  C   UNL     1      15.678  -7.276 -10.239  1.00  0.00     0.000 C 
BRANCH   7   8
ATOM      8  C   UNL     1      15.817  -8.595 -11.018  1.00  0.00     0.006 C 
BRANCH   8   9
ATOM      9  C   UNL     1      17.274  -9.070 -11.098  1.00  0.00     0.053 C 
BRANCH   9  10
ATOM     10  C   UNL     1      18.170  -8.015 -11.674  1.00  0.00     0.041 C 
ATOM     11  O   UNL     1      19.137  -7.570 -11.002  1.00  0.00    -0.550 OA
ATOM     12  O   UNL     1      17.958  -7.550 -12.966  1.00  0.00    -0.550 OA
ENDBRANCH   9  10
ENDBRANCH   8   9
ENDBRANCH   7   8
ENDBRANCH   6   7
ENDBRANCH   5   6
ENDBRANCH   4   5
ENDBRANCH   3   4
ENDBRANCH   1   3
BRANCH   2  13
ATOM     13  C   UNL     1      10.576  -9.701 -12.420  1.00  0.00     0.027 C 
BRANCH  13  14
ATOM     14  C   UNL     1      10.995 -10.329 -11.080  1.00  0.00     0.004 C 
BRANCH  14  15
ATOM     15  C   UNL     1      12.367  -9.855 -10.555  1.00  0.00     0.000 C 
BRANCH  15  16
ATOM     16  C   UNL     1      12.333  -9.155  -9.182  1.00  0.00     0.000 C 
BRANCH  16  17
ATOM     17  C   UNL     1      12.034  -7.645  -9.227  1.00  0.00    -0.000 C 
BRANCH  17  18
ATOM     18  C   UNL     1      10.620  -7.246  -8.756  1.00  0.00    -0.000 C 
BRANCH  18  19
ATOM     19  C   UNL     1       9.768  -8.406  -8.214  1.00  0.00    -0.003 C 
ATOM     20  C   UNL     1       9.550  -8.330  -6.703  1.00  0.00     0.004 C 
ENDBRANCH  18  19
ENDBRANCH  17  18
ENDBRANCH  16  17
ENDBRANCH  15  16
ENDBRANCH  14  15
ENDBRANCH  13  14
ENDBRANCH   2  13
TORSDOF 15
ENDMDL
MODEL 2
REMARK VINA RESULT:    -4.611      1.391      2.660
REMARK INTER + INTRA:         -11.545
REMARK INTER:                  -9.713
REMARK INTRA:                  -1.832
REMARK UNBOUND:                -2.891
REMARK SMILES CCCCCCCCC=CCCCCCCCC(=O)[O-]
REMARK SMILES IDX 10 1 9 2 11 3 12 4 13 5 14 6 15 7 16 8 17 9 18 10 19 11
REMARK SMILES IDX 20 12 8 13 7 14 6 15 5 16 4 17 3 18 2 19 1 20
REMARK H PARENT
REMARK Flexibility Score: inf
ROOT
ATOM      1  C   UNL     1      10.467  -9.096 -12.467  1.00  0.00    -0.031 C 
ATOM      2  C   UNL     1      10.397  -9.935 -11.416  1.00  0.00    -0.031 C 
ENDROOT
BRANCH   1   3
ATOM      3  C   UNL     1      10.086  -7.636 -12.431  1.00  0.00     0.027 C 
BRANCH   3   4
ATOM      4  C   UNL     1      11.282  -6.732 -12.086  1.00  0.00     0.004 C 
BRANCH   4   5
ATOM      5  C   UNL     1      12.302  -6.563 -13.228  1.00  0.00     0.000 C 
BRANCH   5   6
ATOM      6  C   UNL     1      13.758  -6.564 -12.730  1.00  0.00     0.000 C 
BRANCH   6   7
ATOM      7  C   UNL     1      13.875  -6.977 -11.254  1.00  0.00     0.000 C 
BRANCH   7   8
ATOM      8  C   UNL     1      15.155  -6.444 -10.587  1.00  0.00     0.006 C 
BRANCH   8   9
ATOM      9  C   UNL     1      15.993  -5.588 -11.546  1.00  0.00     0.053 C 
BRANCH   9  10
ATOM     10  C   UNL     1      17.314  -6.227 -11.850  1.00  0.00     0.041 C 
ATOM     11  O   UNL     1      17.412  -7.066 -12.784  1.00  0.00    -0.550 OA
ATOM     12  O   UNL     1      18.445  -5.868 -11.126  1.00  0.00    -0.550 OA
ENDBRANCH   9  10
ENDBRANCH   8   9
ENDBRANCH   7   8
ENDBRANCH   6   7
ENDBRANCH   5   6
ENDBRANCH   4   5
ENDBRANCH   3   4
ENDBRANCH   1   3
BRANCH   2  13
ATOM     13  C   UNL     1       9.829  -9.576 -10.065  1.00  0.00     0.027 C 
BRANCH  13  14
ATOM     14  C   UNL     1      10.927  -9.402  -9.002  1.00  0.00     0.004 C 
BRANCH  14  15
ATOM     15  C   UNL     1      11.115  -7.952  -8.510  1.00  0.00     0.000 C 
BRANCH  15  16
ATOM     16  C   UNL     1       9.811  -7.206  -8.164  1.00  0.00     0.000 C 
BRANCH  16  17
ATOM     17  C   UNL     1       9.657  -6.818  -6.681  1.00  0.00    -0.000 C 
BRANCH  17  18
ATOM     18  C   UNL     1       9.178  -7.954  -5.755  1.00  0.00    -0.000 C 
BRANCH  18  19
ATOM     19  C   UNL     1      10.291  -8.642  -4.946  1.00  0.00    -0.003 C 
ATOM     20  C   UNL     1      10.960  -7.707  -3.939  1.00  0.00     0.004 C 
ENDBRANCH  18  19
ENDBRANCH  17  18
ENDBRANCH  16  17
ENDBRANCH  15  16
ENDBRANCH  14  15
ENDBRANCH  13  14
ENDBRANCH   2  13
TORSDOF 15
ENDMDL
MODEL 3
REMARK VINA RESULT:    -4.589      2.470      4.694
REMARK INTER + INTRA:         -11.505
REMARK INTER:                  -8.968
REMARK INTRA:                  -2.536
REMARK UNBOUND:                -2.891
REMARK SMILES CCCCCCCCC=CCCCCCCCC(=O)[O-]
REMARK SMILES IDX 10 1 9 2 11 3 12 4 13 5 14 6 15 7 16 8 17 9 18 10 19 11
REMARK SMILES IDX 20 12 8 13 7 14 6 15 5 16 4 17 3 18 2 19 1 20
REMARK H PARENT
REMARK Flexibility Score: inf
ROOT
ATOM      1  C   UNL     1      15.457  -9.469 -10.640  1.00  0.00    -0.031 C 
ATOM      2  C   UNL     1      14.421  -8.609 -10.624  1.00  0.00    -0.031 C 
ENDROOT
BRANCH   1   3
ATOM      3  C   UNL     1      16.845  -9.154 -10.138  1.00  0.00     0.027 C 
BRANCH   3   4
ATOM      4  C   UNL     1      17.888  -9.164 -11.270  1.00  0.00     0.004 C 
BRANCH   4   5
ATOM      5  C   UNL     1      18.480  -7.781 -11.602  1.00  0.00     0.000 C 
BRANCH   5   6
ATOM      6  C   UNL     1      17.613  -6.984 -12.593  1.00  0.00     0.000 C 
BRANCH   6   7
ATOM      7  C   UNL     1      17.507  -5.497 -12.218  1.00  0.00     0.000 C 
BRANCH   7   8
ATOM      8  C   UNL     1      17.773  -5.240 -10.725  1.00  0.00     0.006 C 
BRANCH   8   9
ATOM      9  C   UNL     1      16.830  -4.179 -10.144  1.00  0.00     0.053 C 
BRANCH   9  10
ATOM     10  C   UNL     1      17.527  -2.866  -9.945  1.00  0.00     0.041 C 
ATOM     11  O   UNL     1      17.469  -2.282  -8.831  1.00  0.00    -0.550 OA
ATOM     12  O   UNL     1      18.269  -2.308 -10.977  1.00  0.00    -0.550 OA
ENDBRANCH   9  10
ENDBRANCH   8   9
ENDBRANCH   7   8
ENDBRANCH   6   7
ENDBRANCH   5   6
ENDBRANCH   4   5
ENDBRANCH   3   4
ENDBRANCH   1   3
BRANCH   2  13
ATOM     13  C   UNL     1      14.509  -7.164 -10.200  1.00  0.00     0.027 C 
BRANCH  13  14
ATOM     14  C   UNL     1      14.042  -6.205 -11.308  1.00  0.00     0.004 C 
BRANCH  14  15
ATOM     15  C   UNL     1      13.611  -6.901 -12.615  1.00  0.00     0.000 C 
BRANCH  15  16
ATOM     16  C   UNL     1      12.207  -6.519 -13.125  1.00  0.00     0.000 C 
BRANCH  16  17
ATOM     17  C   UNL     1      11.139  -7.620 -12.982  1.00  0.00    -0.000 C 
BRANCH  17  18
ATOM     18  C   UNL     1       9.969  -7.276 -12.039  1.00  0.00    -0.000 C 
BRANCH  18  19
ATOM     19  C   UNL     1       9.792  -8.237 -10.851  1.00  0.00    -0.003 C 
ATOM     20  C   UNL     1      10.782  -7.973  -9.717  1.00  0.00     0.004 C 
ENDBRANCH  18  19
ENDBRANCH  17  18
ENDBRANCH  16  17
ENDBRANCH  15  16
ENDBRANCH  14  15
ENDBRANCH  13  14
ENDBRANCH   2  13
TORSDOF 15
ENDMDL
MODEL 4
REMARK VINA RESULT:    -4.565      3.607      6.806
REMARK INTER + INTRA:         -11.458
REMARK INTER:                  -9.748
REMARK INTRA:                  -1.711
REMARK UNBOUND:                -2.891
REMARK SMILES CCCCCCCCC=CCCCCCCCC(=O)[O-]
REMARK SMILES IDX 10 1 9 2 11 3 12 4 13 5 14 6 15 7 16 8 17 9 18 10 19 11
REMARK SMILES IDX 20 12 8 13 7 14 6 15 5 16 4 17 3 18 2 19 1 20
REMARK H PARENT
REMARK Flexibility Score: inf
ROOT
ATOM      1  C   UNL     1      13.930  -6.611 -11.116  1.00  0.00    -0.031 C 
ATOM      2  C   UNL     1      14.680  -7.486 -10.419  1.00  0.00    -0.031 C 
ENDROOT
BRANCH   1   3
ATOM      3  C   UNL     1      13.967  -6.449 -12.616  1.00  0.00     0.027 C 
BRANCH   3   4
ATOM      4  C   UNL     1      12.591  -6.692 -13.261  1.00  0.00     0.004 C 
BRANCH   4   5
ATOM      5  C   UNL     1      11.399  -6.525 -12.299  1.00  0.00     0.000 C 
BRANCH   5   6
ATOM      6  C   UNL     1      10.343  -7.632 -12.462  1.00  0.00     0.000 C 
BRANCH   6   7
ATOM      7  C   UNL     1       9.453  -7.783 -11.218  1.00  0.00     0.000 C 
BRANCH   7   8
ATOM      8  C   UNL     1      10.260  -7.804  -9.908  1.00  0.00     0.006 C 
BRANCH   8   9
ATOM      9  C   UNL     1       9.645  -6.897  -8.835  1.00  0.00     0.053 C 
BRANCH   9  10
ATOM     10  C   UNL     1      10.255  -7.139  -7.487  1.00  0.00     0.041 C 
ATOM     11  O   UNL     1      11.416  -7.617  -7.395  1.00  0.00    -0.550 OA
ATOM     12  O   UNL     1       9.555  -6.804  -6.335  1.00  0.00    -0.550 OA
ENDBRANCH   9  10
ENDBRANCH   8   9
ENDBRANCH   7   8
ENDBRANCH   6   7
ENDBRANCH   5   6
ENDBRANCH   4   5
ENDBRANCH   3   4
ENDBRANCH   1   3
BRANCH   2  13
ATOM     13  C   UNL     1      15.749  -8.369 -11.015  1.00  0.00     0.027 C 
BRANCH  13  14
ATOM     14  C   UNL     1      17.133  -8.099 -10.401  1.00  0.00     0.004 C 
BRANCH  14  15
ATOM     15  C   UNL     1      18.139  -7.433 -11.363  1.00  0.00     0.000 C 
BRANCH  15  16
ATOM     16  C   UNL     1      18.471  -5.962 -11.044  1.00  0.00     0.000 C 
BRANCH  16  17
ATOM     17  C   UNL     1      17.356  -4.954 -11.380  1.00  0.00    -0.000 C 
BRANCH  17  18
ATOM     18  C   UNL     1      16.742  -4.231 -10.163  1.00  0.00    -0.000 C 
BRANCH  18  19
ATOM     19  C   UNL     1      17.250  -2.796  -9.940  1.00  0.00    -0.003 C 
ATOM     20  C   UNL     1      16.150  -1.840  -9.478  1.00  0.00     0.004 C 
ENDBRANCH  18  19
ENDBRANCH  17  18
ENDBRANCH  16  17
ENDBRANCH  15  16
ENDBRANCH  14  15
ENDBRANCH  13  14
ENDBRANCH   2  13
TORSDOF 15
ENDMDL
MODEL 5
REMARK VINA RESULT:    -4.564      1.287      2.213
REMARK INTER + INTRA:         -11.458
REMARK INTER:                  -8.870
REMARK INTRA:                  -2.587
REMARK UNBOUND:                -2.891
REMARK SMILES CCCCCCCCC=CCCCCCCCC(=O)[O-]
REMARK SMILES IDX 10 1 9 2 11 3 12 4 13 5 14 6 15 7 16 8 17 9 18 10 19 11
REMARK SMILES IDX 20 12 8 13 7 14 6 15 5 16 4 17 3 18 2 19 1 20
REMARK H PARENT
REMARK Flexibility Score: inf
ROOT
ATOM      1  C   UNL     1      10.405  -9.337 -12.487  1.00  0.00    -0.031 C 
ATOM      2  C   UNL     1      10.524 -10.600 -12.035  1.00  0.00    -0.031 C 
ENDROOT
BRANCH   1   3
ATOM      3  C   UNL     1       9.965  -8.161 -11.650  1.00  0.00     0.027 C 
BRANCH   3   4
ATOM      4  C   UNL     1      10.775  -6.890 -11.963  1.00  0.00     0.004 C 
BRANCH   4   5
ATOM      5  C   UNL     1      11.627  -6.977 -13.243  1.00  0.00     0.000 C 
BRANCH   5   6
ATOM      6  C   UNL     1      13.076  -6.507 -13.027  1.00  0.00     0.000 C 
BRANCH   6   7
ATOM      7  C   UNL     1      13.450  -6.419 -11.539  1.00  0.00     0.000 C 
BRANCH   7   8
ATOM      8  C   UNL     1      14.944  -6.122 -11.318  1.00  0.00     0.006 C 
BRANCH   8   9
ATOM      9  C   UNL     1      15.773  -6.353 -12.588  1.00  0.00     0.053 C 
BRANCH   9  10
ATOM     10  C   UNL     1      16.839  -7.385 -12.375  1.00  0.00     0.041 C 
ATOM     11  O   UNL     1      16.673  -8.301 -11.528  1.00  0.00    -0.550 OA
ATOM     12  O   UNL     1      18.001  -7.355 -13.137  1.00  0.00    -0.550 OA
ENDBRANCH   9  10
ENDBRANCH   8   9
ENDBRANCH   7   8
ENDBRANCH   6   7
ENDBRANCH   5   6
ENDBRANCH   4   5
ENDBRANCH   3   4
ENDBRANCH   1   3
BRANCH   2  13
ATOM     13  C   UNL     1      10.137 -11.058 -10.651  1.00  0.00     0.027 C 
BRANCH  13  14
ATOM     14  C   UNL     1      11.361 -11.242  -9.737  1.00  0.00     0.004 C 
BRANCH  14  15
ATOM     15  C   UNL     1      12.711 -10.906 -10.403  1.00  0.00     0.000 C 
BRANCH  15  16
ATOM     16  C   UNL     1      13.408  -9.642  -9.863  1.00  0.00     0.000 C 
BRANCH  16  17
ATOM     17  C   UNL     1      12.869  -9.126  -8.515  1.00  0.00    -0.000 C 
BRANCH  17  18
ATOM     18  C   UNL     1      12.072  -7.808  -8.593  1.00  0.00    -0.000 C 
BRANCH  18  19
ATOM     19  C   UNL     1      10.795  -7.773  -7.736  1.00  0.00    -0.003 C 
ATOM     20  C   UNL     1       9.742  -6.805  -8.275  1.00  0.00     0.004 C 
ENDBRANCH  18  19
ENDBRANCH  17  18
ENDBRANCH  16  17
ENDBRANCH  15  16
ENDBRANCH  14  15
ENDBRANCH  13  14
ENDBRANCH   2  13
TORSDOF 15
ENDMDL
MODEL 6
REMARK VINA RESULT:    -4.531      1.678      2.060
REMARK INTER + INTRA:         -11.395
REMARK INTER:                  -8.647
REMARK INTRA:                  -2.748
REMARK UNBOUND:                -2.891
REMARK SMILES CCCCCCCCC=CCCCCCCCC(=O)[O-]
REMARK SMILES IDX 10 1 9 2 11 3 12 4 13 5 14 6 15 7 16 8 17 9 18 10 19 11
REMARK SMILES IDX 20 12 8 13 7 14 6 15 5 16 4 17 3 18 2 19 1 20
REMARK H PARENT
REMARK Flexibility Score: inf
ROOT
ATOM      1  C   UNL     1      10.796  -6.901 -12.362  1.00  0.00    -0.031 C 
ATOM      2  C   UNL     1      10.037  -8.003 -12.213  1.00  0.00    -0.031 C 
ENDROOT
BRANCH   1   3
ATOM      3  C   UNL     1      12.113  -6.855 -13.099  1.00  0.00     0.027 C 
BRANCH   3   4
ATOM      4  C   UNL     1      13.237  -6.246 -12.243  1.00  0.00     0.004 C 
BRANCH   4   5
ATOM      5  C   UNL     1      14.637  -6.819 -12.531  1.00  0.00     0.000 C 
BRANCH   5   6
ATOM      6  C   UNL     1      15.425  -7.138 -11.248  1.00  0.00     0.000 C 
BRANCH   6   7
ATOM      7  C   UNL     1      16.934  -7.281 -11.505  1.00  0.00     0.000 C 
BRANCH   7   8
ATOM      8  C   UNL     1      17.453  -8.702 -11.223  1.00  0.00     0.006 C 
BRANCH   8   9
ATOM      9  C   UNL     1      16.349  -9.626 -10.694  1.00  0.00     0.053 C 
BRANCH   9  10
ATOM     10  C   UNL     1      16.588 -10.016  -9.266  1.00  0.00     0.041 C 
ATOM     11  O   UNL     1      17.419 -10.920  -8.988  1.00  0.00    -0.550 OA
ATOM     12  O   UNL     1      15.919  -9.357  -8.242  1.00  0.00    -0.550 OA
ENDBRANCH   9  10
ENDBRANCH   8   9
ENDBRANCH   7   8
ENDBRANCH   6   7
ENDBRANCH   5   6
ENDBRANCH   4   5
ENDBRANCH   3   4
ENDBRANCH   1   3
BRANCH   2  13
ATOM     13  C   UNL     1      10.431  -9.387 -12.665  1.00  0.00     0.027 C 
BRANCH  13  14
ATOM     14  C   UNL     1      10.328 -10.420 -11.531  1.00  0.00     0.004 C 
BRANCH  14  15
ATOM     15  C   UNL     1      11.687 -10.883 -10.964  1.00  0.00     0.000 C 
BRANCH  15  16
ATOM     16  C   UNL     1      12.664  -9.746 -10.604  1.00  0.00     0.000 C 
BRANCH  16  17
ATOM     17  C   UNL     1      12.526  -9.196  -9.172  1.00  0.00    -0.000 C 
BRANCH  17  18
ATOM     18  C   UNL     1      12.091  -7.719  -9.080  1.00  0.00    -0.000 C 
BRANCH  18  19
ATOM     19  C   UNL     1      10.797  -7.475  -8.286  1.00  0.00    -0.003 C 
ATOM     20  C   UNL     1       9.763  -8.584  -8.476  1.00  0.00     0.004 C 
ENDBRANCH  18  19
ENDBRANCH  17  18
ENDBRANCH  16  17
ENDBRANCH  15  16
ENDBRANCH  14  15
ENDBRANCH  13  14
ENDBRANCH   2  13
TORSDOF 15
ENDMDL
MODEL 7
REMARK VINA RESULT:    -4.478      1.467      3.695
REMARK INTER + INTRA:         -11.296
REMARK INTER:                  -8.910
REMARK INTRA:                  -2.387
REMARK UNBOUND:                -2.891
REMARK SMILES CCCCCCCCC=CCCCCCCCC(=O)[O-]
REMARK SMILES IDX 10 1 9 2 11 3 12 4 13 5 14 6 15 7 16 8 17 9 18 10 19 11
REMARK SMILES IDX 20 12 8 13 7 14 6 15 5 16 4 17 3 18 2 19 1 20
REMARK H PARENT
REMARK Flexibility Score: inf
ROOT
ATOM      1  C   UNL     1      10.071  -7.264  -9.880  1.00  0.00    -0.031 C 
ATOM      2  C   UNL     1       9.866  -7.273  -8.550  1.00  0.00    -0.031 C 
ENDROOT
BRANCH   1   3
ATOM      3  C   UNL     1       9.846  -8.444 -10.794  1.00  0.00     0.027 C 
BRANCH   3   4
ATOM      4  C   UNL     1      10.592  -8.295 -12.131  1.00  0.00     0.004 C 
BRANCH   4   5
ATOM      5  C   UNL     1      11.067  -6.862 -12.439  1.00  0.00     0.000 C 
BRANCH   5   6
ATOM      6  C   UNL     1      12.418  -6.828 -13.175  1.00  0.00     0.000 C 
BRANCH   6   7
ATOM      7  C   UNL     1      13.519  -6.140 -12.351  1.00  0.00     0.000 C 
BRANCH   7   8
ATOM      8  C   UNL     1      14.934  -6.572 -12.774  1.00  0.00     0.006 C 
BRANCH   8   9
ATOM      9  C   UNL     1      16.001  -6.126 -11.765  1.00  0.00     0.053 C 
BRANCH   9  10
ATOM     10  C   UNL     1      17.279  -6.890 -11.934  1.00  0.00     0.041 C 
ATOM     11  O   UNL     1      17.635  -7.284 -13.075  1.00  0.00    -0.550 OA
ATOM     12  O   UNL     1      18.094  -7.135 -10.836  1.00  0.00    -0.550 OA
ENDBRANCH   9  10
ENDBRANCH   8   9
ENDBRANCH   7   8
ENDBRANCH   6   7
ENDBRANCH   5   6
ENDBRANCH   4   5
ENDBRANCH   3   4
ENDBRANCH   1   3
BRANCH   2  13
ATOM     13  C   UNL     1       9.480  -8.490  -7.746  1.00  0.00     0.027 C 
BRANCH  13  14
ATOM     14  C   UNL     1       9.835  -8.339  -6.258  1.00  0.00     0.004 C 
BRANCH  14  15
ATOM     15  C   UNL     1      10.718  -7.116  -5.932  1.00  0.00     0.000 C 
BRANCH  15  16
ATOM     16  C   UNL     1      12.131  -7.451  -5.416  1.00  0.00     0.000 C 
BRANCH  16  17
ATOM     17  C   UNL     1      13.257  -7.302  -6.457  1.00  0.00    -0.000 C 
BRANCH  17  18
ATOM     18  C   UNL     1      13.287  -8.392  -7.547  1.00  0.00    -0.000 C 
BRANCH  18  19
ATOM     19  C   UNL     1      13.541  -7.874  -8.973  1.00  0.00    -0.003 C 
ATOM     20  C   UNL     1      13.611  -8.994 -10.011  1.00  0.00     0.004 C 
ENDBRANCH  18  19
ENDBRANCH  17  18
ENDBRANCH  16  17
ENDBRANCH  15  16
ENDBRANCH  14  15
ENDBRANCH  13  14
ENDBRANCH   2  13
TORSDOF 15
ENDMDL
MODEL 8
REMARK VINA RESULT:    -4.472      1.294      3.025
REMARK INTER + INTRA:         -11.285
REMARK INTER:                  -8.571
REMARK INTRA:                  -2.713
REMARK UNBOUND:                -2.891
REMARK SMILES CCCCCCCCC=CCCCCCCCC(=O)[O-]
REMARK SMILES IDX 10 1 9 2 11 3 12 4 13 5 14 6 15 7 16 8 17 9 18 10 19 11
REMARK SMILES IDX 20 12 8 13 7 14 6 15 5 16 4 17 3 18 2 19 1 20
REMARK H PARENT
REMARK Flexibility Score: inf
ROOT
ATOM      1  C   UNL     1       9.381  -7.745 -11.190  1.00  0.00    -0.031 C 
ATOM      2  C   UNL     1       9.115  -7.811  -9.872  1.00  0.00    -0.031 C 
ENDROOT
BRANCH   1   3
ATOM      3  C   UNL     1      10.456  -6.885 -11.810  1.00  0.00     0.027 C 
BRANCH   3   4
ATOM      4  C   UNL     1      11.249  -7.636 -12.893  1.00  0.00     0.004 C 
BRANCH   4   5
ATOM      5  C   UNL     1      12.501  -6.893 -13.397  1.00  0.00     0.000 C 
BRANCH   5   6
ATOM      6  C   UNL     1      13.247  -6.154 -12.272  1.00  0.00     0.000 C 
BRANCH   6   7
ATOM      7  C   UNL     1      14.768  -6.373 -12.333  1.00  0.00     0.000 C 
BRANCH   7   8
ATOM      8  C   UNL     1      15.502  -5.781 -11.117  1.00  0.00     0.006 C 
BRANCH   8   9
ATOM      9  C   UNL     1      17.026  -5.832 -11.281  1.00  0.00     0.053 C 
BRANCH   9  10
ATOM     10  C   UNL     1      17.599  -7.112 -10.750  1.00  0.00     0.041 C 
ATOM     11  O   UNL     1      17.004  -7.739  -9.835  1.00  0.00    -0.550 OA
ATOM     12  O   UNL     1      18.769  -7.630 -11.292  1.00  0.00    -0.550 OA
ENDBRANCH   9  10
ENDBRANCH   8   9
ENDBRANCH   7   8
ENDBRANCH   6   7
ENDBRANCH   5   6
ENDBRANCH   4   5
ENDBRANCH   3   4
ENDBRANCH   1   3
BRANCH   2  13
ATOM     13  C   UNL     1       9.777  -6.960  -8.817  1.00  0.00     0.027 C 
BRANCH  13  14
ATOM     14  C   UNL     1      10.271  -7.795  -7.624  1.00  0.00     0.004 C 
BRANCH  14  15
ATOM     15  C   UNL     1      11.795  -8.034  -7.599  1.00  0.00     0.000 C 
BRANCH  15  16
ATOM     16  C   UNL     1      12.541  -7.619  -8.883  1.00  0.00     0.000 C 
BRANCH  16  17
ATOM     17  C   UNL     1      13.706  -8.542  -9.287  1.00  0.00    -0.000 C 
BRANCH  17  18
ATOM     18  C   UNL     1      13.421  -9.464 -10.491  1.00  0.00    -0.000 C 
BRANCH  18  19
ATOM     19  C   UNL     1      12.604 -10.725 -10.160  1.00  0.00    -0.003 C 
ATOM     20  C   UNL     1      11.285 -10.799 -10.929  1.00  0.00     0.004 C 
ENDBRANCH  18  19
ENDBRANCH  17  18
ENDBRANCH  16  17
ENDBRANCH  15  16
ENDBRANCH  14  15
ENDBRANCH  13  14
ENDBRANCH   2  13
TORSDOF 15
ENDMDL
MODEL 9
REMARK VINA RESULT:    -4.442      3.566      6.554
REMARK INTER + INTRA:         -11.228
REMARK INTER:                  -8.960
REMARK INTRA:                  -2.268
REMARK UNBOUND:                -2.891
REMARK SMILES CCCCCCCCC=CCCCCCCCC(=O)[O-]
REMARK SMILES IDX 10 1 9 2 11 3 12 4 13 5 14 6 15 7 16 8 17 9 18 10 19 11
REMARK SMILES IDX 20 12 8 13 7 14 6 15 5 16 4 17 3 18 2 19 1 20
REMARK H PARENT
REMARK Flexibility Score: inf
ROOT
ATOM      1  C   UNL     1      12.495  -6.745 -12.755  1.00  0.00    -0.031 C 
ATOM      2  C   UNL     1      13.472  -6.853 -11.835  1.00  0.00    -0.031 C 
ENDROOT
BRANCH   1   3
ATOM      3  C   UNL     1      11.019  -6.865 -12.462  1.00  0.00     0.027 C 
BRANCH   3   4
ATOM      4  C   UNL     1      10.481  -8.276 -12.759  1.00  0.00     0.004 C 
BRANCH   4   5
ATOM      5  C   UNL     1       9.990  -9.045 -11.518  1.00  0.00     0.000 C 
BRANCH   5   6
ATOM      6  C   UNL     1       9.155  -8.170 -10.567  1.00  0.00     0.000 C 
BRANCH   6   7
ATOM      7  C   UNL     1       9.486  -8.425  -9.088  1.00  0.00     0.000 C 
BRANCH   7   8
ATOM      8  C   UNL     1      10.039  -7.177  -8.378  1.00  0.00     0.006 C 
BRANCH   8   9
ATOM      9  C   UNL     1      11.085  -7.532  -7.314  1.00  0.00     0.053 C 
BRANCH   9  10
ATOM     10  C   UNL     1      10.626  -7.157  -5.937  1.00  0.00     0.041 C 
ATOM     11  O   UNL     1      11.458  -6.765  -5.077  1.00  0.00    -0.550 OA
ATOM     12  O   UNL     1       9.275  -7.204  -5.615  1.00  0.00    -0.550 OA
ENDBRANCH   9  10
ENDBRANCH   8   9
ENDBRANCH   7   8
ENDBRANCH   6   7
ENDBRANCH   5   6
ENDBRANCH   4   5
ENDBRANCH   3   4
ENDBRANCH   1   3
BRANCH   2  13
ATOM     13  C   UNL     1      13.254  -7.213 -10.387  1.00  0.00     0.027 C 
BRANCH  13  14
ATOM     14  C   UNL     1      14.271  -8.253  -9.888  1.00  0.00     0.004 C 
BRANCH  14  15
ATOM     15  C   UNL     1      15.192  -8.823 -10.987  1.00  0.00     0.000 C 
BRANCH  15  16
ATOM     16  C   UNL     1      16.661  -9.028 -10.565  1.00  0.00     0.000 C 
BRANCH  16  17
ATOM     17  C   UNL     1      17.692  -8.224 -11.379  1.00  0.00    -0.000 C 
BRANCH  17  18
ATOM     18  C   UNL     1      17.090  -7.271 -12.433  1.00  0.00    -0.000 C 
BRANCH  18  19
ATOM     19  C   UNL     1      17.331  -5.775 -12.164  1.00  0.00    -0.003 C 
ATOM     20  C   UNL     1      16.671  -5.288 -10.874  1.00  0.00     0.004 C 
ENDBRANCH  18  19
ENDBRANCH  17  18
ENDBRANCH  16  17
ENDBRANCH  15  16
ENDBRANCH  14  15
ENDBRANCH  13  14
ENDBRANCH   2  13
TORSDOF 15
ENDMDL
