MODEL 1
REMARK VINA RESULT:    -7.185      0.000      0.000
REMARK INTER + INTRA:          -8.975
REMARK INTER:                  -8.655
REMARK INTRA:                  -0.320
REMARK UNBOUND:                -0.320
REMARK SMILES O=c1c(O)c(-c2ccc(O)c(O)c2)oc2cc(O)cc(O)c12
REMARK SMILES IDX 5 1 3 2 2 3 1 4 22 5 20 6 19 7 17 8 16 9 15 10 14 11 6 12
REMARK SMILES IDX 7 13 8 14 9 15 13 16 11 17 10 18 12 20 4 22 21 24 18 26
REMARK H PARENT 10 19 12 21 4 23 21 25 18 27
REMARK Flexibility Score: inf
ROOT
ATOM      1  C   UNL     1     165.584 154.806 151.232  1.00  0.00     0.180 A 
ATOM      2  C   UNL     1     164.510 153.909 151.370  1.00  0.00     0.208 A 
ATOM      3  C   UNL     1     164.691 152.569 150.996  1.00  0.00     0.238 A 
ATOM      4  O   UNL     1     163.744 151.758 151.171  1.00  0.00    -0.285 OA
ATOM      5  C   UNL     1     165.936 152.144 150.473  1.00  0.00     0.111 A 
ATOM      6  C   UNL     1     166.219 150.820 150.024  1.00  0.00     0.134 A 
ATOM      7  C   UNL     1     167.524 150.481 149.648  1.00  0.00     0.093 A 
ATOM      8  C   UNL     1     168.543 151.437 149.643  1.00  0.00     0.123 A 
ATOM      9  C   UNL     1     168.264 152.747 150.022  1.00  0.00     0.094 A 
ATOM     10  C   UNL     1     166.979 153.107 150.437  1.00  0.00     0.146 A 
ATOM     11  O   UNL     1     166.759 154.364 150.801  1.00  0.00    -0.452 OA
ENDROOT
BRANCH   1  12
ATOM     12  C   UNL     1     165.463 156.240 151.583  1.00  0.00     0.025 A 
ATOM     13  C   UNL     1     165.069 157.161 150.599  1.00  0.00     0.016 A 
ATOM     14  C   UNL     1     164.927 158.515 150.913  1.00  0.00     0.051 A 
ATOM     15  C   UNL     1     165.164 158.965 152.218  1.00  0.00     0.157 A 
ATOM     16  C   UNL     1     165.679 156.693 152.897  1.00  0.00     0.062 A 
ATOM     17  C   UNL     1     165.536 158.053 153.213  1.00  0.00     0.158 A 
BRANCH  15  18
ATOM     18  O   UNL     1     165.026 160.315 152.535  1.00  0.00    -0.504 OA
ATOM     19  H   UNL     1     164.269 160.874 152.158  1.00  0.00     0.293 HD
ENDBRANCH  15  18
BRANCH  17  20
ATOM     20  O   UNL     1     165.756 158.502 154.514  1.00  0.00    -0.504 OA
ATOM     21  H   UNL     1     165.333 159.356 154.859  1.00  0.00     0.293 HD
ENDBRANCH  17  20
ENDBRANCH   1  12
BRANCH   2  22
ATOM     22  O   UNL     1     163.296 154.344 151.910  1.00  0.00    -0.502 OA
ATOM     23  H   UNL     1     162.402 153.987 151.594  1.00  0.00     0.293 HD
ENDBRANCH   2  22
BRANCH   6  24
ATOM     24  O   UNL     1     165.254 149.814 149.903  1.00  0.00    -0.507 OA
ATOM     25  H   UNL     1     164.264 149.978 149.798  1.00  0.00     0.293 HD
ENDBRANCH   6  24
BRANCH   8  26
ATOM     26  O   UNL     1     169.836 151.094 149.252  1.00  0.00    -0.508 OA
ATOM     27  H   UNL     1     170.024 150.687 148.343  1.00  0.00     0.293 HD
ENDBRANCH   8  26
TORSDOF 6
ENDMDL
MODEL 2
REMARK VINA RESULT:    -6.879      1.916      7.088
REMARK INTER + INTRA:          -8.606
REMARK INTER:                  -8.273
REMARK INTRA:                  -0.333
REMARK UNBOUND:                -0.320
REMARK SMILES O=c1c(O)c(-c2ccc(O)c(O)c2)oc2cc(O)cc(O)c12
REMARK SMILES IDX 5 1 3 2 2 3 1 4 22 5 20 6 19 7 17 8 16 9 15 10 14 11 6 12
REMARK SMILES IDX 7 13 8 14 9 15 13 16 11 17 10 18 12 20 4 22 21 24 18 26
REMARK H PARENT 10 19 12 21 4 23 21 25 18 27
REMARK Flexibility Score: inf
ROOT
ATOM      1  C   UNL     1     166.557 151.582 149.593  1.00  0.00     0.180 A 
ATOM      2  C   UNL     1     165.318 151.061 150.006  1.00  0.00     0.208 A 
ATOM      3  C   UNL     1     164.400 151.912 150.640  1.00  0.00     0.238 A 
ATOM      4  O   UNL     1     163.271 151.454 150.960  1.00  0.00    -0.285 OA
ATOM      5  C   UNL     1     164.737 153.267 150.871  1.00  0.00     0.111 A 
ATOM      6  C   UNL     1     163.900 154.209 151.541  1.00  0.00     0.134 A 
ATOM      7  C   UNL     1     164.280 155.555 151.596  1.00  0.00     0.093 A 
ATOM      8  C   UNL     1     165.498 155.982 151.062  1.00  0.00     0.123 A 
ATOM      9  C   UNL     1     166.350 155.060 150.458  1.00  0.00     0.094 A 
ATOM     10  C   UNL     1     165.981 153.716 150.356  1.00  0.00     0.146 A 
ATOM     11  O   UNL     1     166.817 152.873 149.763  1.00  0.00    -0.452 OA
ENDROOT
BRANCH   1  12
ATOM     12  C   UNL     1     167.587 150.742 148.939  1.00  0.00     0.025 A 
ATOM     13  C   UNL     1     167.632 150.670 147.538  1.00  0.00     0.016 A 
ATOM     14  C   UNL     1     168.608 149.901 146.900  1.00  0.00     0.051 A 
ATOM     15  C   UNL     1     169.561 149.204 147.653  1.00  0.00     0.157 A 
ATOM     16  C   UNL     1     168.558 150.057 149.691  1.00  0.00     0.062 A 
ATOM     17  C   UNL     1     169.540 149.285 149.051  1.00  0.00     0.158 A 
BRANCH  15  18
ATOM     18  O   UNL     1     170.535 148.434 147.021  1.00  0.00    -0.504 OA
ATOM     19  H   UNL     1     170.289 147.696 146.371  1.00  0.00     0.293 HD
ENDBRANCH  15  18
BRANCH  17  20
ATOM     20  O   UNL     1     170.498 148.602 149.797  1.00  0.00    -0.504 OA
ATOM     21  H   UNL     1     171.128 149.090 150.424  1.00  0.00     0.293 HD
ENDBRANCH  17  20
ENDBRANCH   1  12
BRANCH   2  22
ATOM     22  O   UNL     1     164.996 149.725 149.749  1.00  0.00    -0.502 OA
ATOM     23  H   UNL     1     165.098 149.308 148.831  1.00  0.00     0.293 HD
ENDBRANCH   2  22
BRANCH   6  24
ATOM     24  O   UNL     1     162.707 153.871 152.189  1.00  0.00    -0.507 OA
ATOM     25  H   UNL     1     162.450 154.177 153.115  1.00  0.00     0.293 HD
ENDBRANCH   6  24
BRANCH   8  26
ATOM     26  O   UNL     1     165.876 157.321 151.136  1.00  0.00    -0.508 OA
ATOM     27  H   UNL     1     165.810 157.935 150.333  1.00  0.00     0.293 HD
ENDBRANCH   8  26
TORSDOF 6
ENDMDL
MODEL 3
REMARK VINA RESULT:    -6.667      3.064      5.488
REMARK INTER + INTRA:          -8.351
REMARK INTER:                  -8.084
REMARK INTRA:                  -0.267
REMARK UNBOUND:                -0.320
REMARK SMILES O=c1c(O)c(-c2ccc(O)c(O)c2)oc2cc(O)cc(O)c12
REMARK SMILES IDX 5 1 3 2 2 3 1 4 22 5 20 6 19 7 17 8 16 9 15 10 14 11 6 12
REMARK SMILES IDX 7 13 8 14 9 15 13 16 11 17 10 18 12 20 4 22 21 24 18 26
REMARK H PARENT 10 19 12 21 4 23 21 25 18 27
REMARK Flexibility Score: inf
ROOT
ATOM      1  C   UNL     1     166.721 150.595 149.391  1.00  0.00     0.180 A 
ATOM      2  C   UNL     1     167.084 150.780 148.046  1.00  0.00     0.208 A 
ATOM      3  C   UNL     1     168.067 149.949 147.486  1.00  0.00     0.238 A 
ATOM      4  O   UNL     1     168.350 150.083 146.267  1.00  0.00    -0.285 OA
ATOM      5  C   UNL     1     168.687 148.956 148.281  1.00  0.00     0.111 A 
ATOM      6  C   UNL     1     169.723 148.085 147.830  1.00  0.00     0.134 A 
ATOM      7  C   UNL     1     170.172 147.053 148.663  1.00  0.00     0.093 A 
ATOM      8  C   UNL     1     169.666 146.901 149.957  1.00  0.00     0.123 A 
ATOM      9  C   UNL     1     168.697 147.783 150.429  1.00  0.00     0.094 A 
ATOM     10  C   UNL     1     168.204 148.801 149.607  1.00  0.00     0.146 A 
ATOM     11  O   UNL     1     167.273 149.612 150.093  1.00  0.00    -0.452 OA
ENDROOT
BRANCH   1  12
ATOM     12  C   UNL     1     165.710 151.448 150.059  1.00  0.00     0.025 A 
ATOM     13  C   UNL     1     164.460 150.905 150.392  1.00  0.00     0.016 A 
ATOM     14  C   UNL     1     163.499 151.684 151.041  1.00  0.00     0.051 A 
ATOM     15  C   UNL     1     163.781 153.014 151.379  1.00  0.00     0.157 A 
ATOM     16  C   UNL     1     165.997 152.777 150.419  1.00  0.00     0.062 A 
ATOM     17  C   UNL     1     165.033 153.560 151.072  1.00  0.00     0.158 A 
BRANCH  15  18
ATOM     18  O   UNL     1     162.826 153.796 152.025  1.00  0.00    -0.504 OA
ATOM     19  H   UNL     1     163.077 154.654 152.502  1.00  0.00     0.293 HD
ENDBRANCH  15  18
BRANCH  17  20
ATOM     20  O   UNL     1     165.316 154.879 151.423  1.00  0.00    -0.504 OA
ATOM     21  H   UNL     1     164.848 155.659 150.975  1.00  0.00     0.293 HD
ENDBRANCH  17  20
ENDBRANCH   1  12
BRANCH   2  22
ATOM     22  O   UNL     1     166.443 151.752 147.272  1.00  0.00    -0.502 OA
ATOM     23  H   UNL     1     166.261 151.627 146.284  1.00  0.00     0.293 HD
ENDBRANCH   2  22
BRANCH   6  24
ATOM     24  O   UNL     1     170.361 148.207 146.591  1.00  0.00    -0.507 OA
ATOM     25  H   UNL     1     170.132 148.899 145.893  1.00  0.00     0.293 HD
ENDBRANCH   6  24
BRANCH   8  26
ATOM     26  O   UNL     1     170.130 145.881 150.786  1.00  0.00    -0.508 OA
ATOM     27  H   UNL     1     169.764 144.939 150.721  1.00  0.00     0.293 HD
ENDBRANCH   8  26
TORSDOF 6
ENDMDL
MODEL 4
REMARK VINA RESULT:    -6.647      2.936      8.482
REMARK INTER + INTRA:          -8.326
REMARK INTER:                  -8.003
REMARK INTRA:                  -0.323
REMARK UNBOUND:                -0.320
REMARK SMILES O=c1c(O)c(-c2ccc(O)c(O)c2)oc2cc(O)cc(O)c12
REMARK SMILES IDX 5 1 3 2 2 3 1 4 22 5 20 6 19 7 17 8 16 9 15 10 14 11 6 12
REMARK SMILES IDX 7 13 8 14 9 15 13 16 11 17 10 18 12 20 4 22 21 24 18 26
REMARK H PARENT 10 19 12 21 4 23 21 25 18 27
REMARK Flexibility Score: inf
ROOT
ATOM      1  C   UNL     1     167.352 149.731 150.078  1.00  0.00     0.180 A 
ATOM      2  C   UNL     1     168.294 150.670 149.622  1.00  0.00     0.208 A 
ATOM      3  C   UNL     1     167.966 152.034 149.655  1.00  0.00     0.238 A 
ATOM      4  O   UNL     1     168.832 152.874 149.296  1.00  0.00    -0.285 OA
ATOM      5  C   UNL     1     166.694 152.442 150.126  1.00  0.00     0.111 A 
ATOM      6  C   UNL     1     166.240 153.794 150.166  1.00  0.00     0.134 A 
ATOM      7  C   UNL     1     165.015 154.093 150.774  1.00  0.00     0.093 A 
ATOM      8  C   UNL     1     164.198 153.082 151.286  1.00  0.00     0.123 A 
ATOM      9  C   UNL     1     164.606 151.753 151.198  1.00  0.00     0.094 A 
ATOM     10  C   UNL     1     165.840 151.426 150.629  1.00  0.00     0.146 A 
ATOM     11  O   UNL     1     166.195 150.149 150.576  1.00  0.00    -0.452 OA
ENDROOT
BRANCH   1  12
ATOM     12  C   UNL     1     167.616 148.273 150.052  1.00  0.00     0.025 A 
ATOM     13  C   UNL     1     167.313 147.537 148.896  1.00  0.00     0.016 A 
ATOM     14  C   UNL     1     167.574 146.166 148.841  1.00  0.00     0.051 A 
ATOM     15  C   UNL     1     168.154 145.514 149.937  1.00  0.00     0.157 A 
ATOM     16  C   UNL     1     168.218 147.619 151.142  1.00  0.00     0.062 A 
ATOM     17  C   UNL     1     168.482 146.242 151.088  1.00  0.00     0.158 A 
BRANCH  15  18
ATOM     18  O   UNL     1     168.414 144.146 149.888  1.00  0.00    -0.504 OA
ATOM     19  H   UNL     1     167.669 143.462 149.946  1.00  0.00     0.293 HD
ENDBRANCH  15  18
BRANCH  17  20
ATOM     20  O   UNL     1     169.072 145.593 152.170  1.00  0.00    -0.504 OA
ATOM     21  H   UNL     1     168.525 145.284 152.966  1.00  0.00     0.293 HD
ENDBRANCH  17  20
ENDBRANCH   1  12
BRANCH   2  22
ATOM     22  O   UNL     1     169.552 150.247 149.181  1.00  0.00    -0.502 OA
ATOM     23  H   UNL     1     170.029 149.450 149.583  1.00  0.00     0.293 HD
ENDBRANCH   2  22
BRANCH   6  24
ATOM     24  O   UNL     1     166.935 154.868 149.603  1.00  0.00    -0.507 OA
ATOM     25  H   UNL     1     167.682 154.779 148.929  1.00  0.00     0.293 HD
ENDBRANCH   6  24
BRANCH   8  26
ATOM     26  O   UNL     1     162.973 153.387 151.875  1.00  0.00    -0.508 OA
ATOM     27  H   UNL     1     162.591 152.826 152.627  1.00  0.00     0.293 HD
ENDBRANCH   8  26
TORSDOF 6
ENDMDL
MODEL 5
REMARK VINA RESULT:    -6.631      2.554      4.659
REMARK INTER + INTRA:          -8.308
REMARK INTER:                  -7.995
REMARK INTRA:                  -0.312
REMARK UNBOUND:                -0.320
REMARK SMILES O=c1c(O)c(-c2ccc(O)c(O)c2)oc2cc(O)cc(O)c12
REMARK SMILES IDX 5 1 3 2 2 3 1 4 22 5 20 6 19 7 17 8 16 9 15 10 14 11 6 12
REMARK SMILES IDX 7 13 8 14 9 15 13 16 11 17 10 18 12 20 4 22 21 24 18 26
REMARK H PARENT 10 19 12 21 4 23 21 25 18 27
REMARK Flexibility Score: inf
ROOT
ATOM      1  C   UNL     1     166.734 151.537 149.315  1.00  0.00     0.180 A 
ATOM      2  C   UNL     1     166.529 151.436 147.928  1.00  0.00     0.208 A 
ATOM      3  C   UNL     1     167.199 150.430 147.214  1.00  0.00     0.238 A 
ATOM      4  O   UNL     1     166.971 150.310 145.981  1.00  0.00    -0.285 OA
ATOM      5  C   UNL     1     168.077 149.550 147.891  1.00  0.00     0.111 A 
ATOM      6  C   UNL     1     168.838 148.520 147.260  1.00  0.00     0.134 A 
ATOM      7  C   UNL     1     169.573 147.625 148.047  1.00  0.00     0.093 A 
ATOM      8  C   UNL     1     169.626 147.762 149.436  1.00  0.00     0.123 A 
ATOM      9  C   UNL     1     168.935 148.800 150.055  1.00  0.00     0.094 A 
ATOM     10  C   UNL     1     168.164 149.688 149.301  1.00  0.00     0.146 A 
ATOM     11  O   UNL     1     167.512 150.656 149.932  1.00  0.00    -0.452 OA
ENDROOT
BRANCH   1  12
ATOM     12  C   UNL     1     166.082 152.587 150.134  1.00  0.00     0.025 A 
ATOM     13  C   UNL     1     166.757 153.793 150.374  1.00  0.00     0.016 A 
ATOM     14  C   UNL     1     166.153 154.805 151.124  1.00  0.00     0.051 A 
ATOM     15  C   UNL     1     164.860 154.630 151.633  1.00  0.00     0.157 A 
ATOM     16  C   UNL     1     164.776 152.423 150.628  1.00  0.00     0.062 A 
ATOM     17  C   UNL     1     164.167 153.439 151.381  1.00  0.00     0.158 A 
BRANCH  15  18
ATOM     18  O   UNL     1     164.254 155.635 152.384  1.00  0.00    -0.504 OA
ATOM     19  H   UNL     1     163.682 156.350 151.949  1.00  0.00     0.293 HD
ENDBRANCH  15  18
BRANCH  17  20
ATOM     20  O   UNL     1     162.876 153.274 151.876  1.00  0.00    -0.504 OA
ATOM     21  H   UNL     1     162.060 153.433 151.294  1.00  0.00     0.293 HD
ENDBRANCH  17  20
ENDBRANCH   1  12
BRANCH   2  22
ATOM     22  O   UNL     1     165.641 152.302 147.283  1.00  0.00    -0.502 OA
ATOM     23  H   UNL     1     165.954 153.102 146.747  1.00  0.00     0.293 HD
ENDBRANCH   2  22
BRANCH   6  24
ATOM     24  O   UNL     1     168.928 148.353 145.875  1.00  0.00    -0.507 OA
ATOM     25  H   UNL     1     168.300 147.786 145.324  1.00  0.00     0.293 HD
ENDBRANCH   6  24
BRANCH   8  26
ATOM     26  O   UNL     1     170.374 146.876 150.209  1.00  0.00    -0.508 OA
ATOM     27  H   UNL     1     171.001 147.204 150.934  1.00  0.00     0.293 HD
ENDBRANCH   8  26
TORSDOF 6
ENDMDL
MODEL 6
REMARK VINA RESULT:    -6.600      9.934     12.916
REMARK INTER + INTRA:          -8.270
REMARK INTER:                  -7.935
REMARK INTRA:                  -0.334
REMARK UNBOUND:                -0.320
REMARK SMILES O=c1c(O)c(-c2ccc(O)c(O)c2)oc2cc(O)cc(O)c12
REMARK SMILES IDX 5 1 3 2 2 3 1 4 22 5 20 6 19 7 17 8 16 9 15 10 14 11 6 12
REMARK SMILES IDX 7 13 8 14 9 15 13 16 11 17 10 18 12 20 4 22 21 24 18 26
REMARK H PARENT 10 19 12 21 4 23 21 25 18 27
REMARK Flexibility Score: inf
ROOT
ATOM      1  C   UNL     1     169.328 143.684 152.307  1.00  0.00     0.180 A 
ATOM      2  C   UNL     1     170.672 143.611 152.713  1.00  0.00     0.208 A 
ATOM      3  C   UNL     1     171.085 144.347 153.835  1.00  0.00     0.238 A 
ATOM      4  O   UNL     1     172.276 144.236 154.227  1.00  0.00    -0.285 OA
ATOM      5  C   UNL     1     170.154 145.158 154.528  1.00  0.00     0.111 A 
ATOM      6  C   UNL     1     170.470 145.976 155.653  1.00  0.00     0.134 A 
ATOM      7  C   UNL     1     169.443 146.635 156.339  1.00  0.00     0.093 A 
ATOM      8  C   UNL     1     168.119 146.557 155.901  1.00  0.00     0.123 A 
ATOM      9  C   UNL     1     167.808 145.809 154.768  1.00  0.00     0.094 A 
ATOM     10  C   UNL     1     168.806 145.111 154.084  1.00  0.00     0.146 A 
ATOM     11  O   UNL     1     168.465 144.401 153.016  1.00  0.00    -0.452 OA
ENDROOT
BRANCH   1  12
ATOM     12  C   UNL     1     168.824 142.957 151.119  1.00  0.00     0.025 A 
ATOM     13  C   UNL     1     168.241 141.690 151.280  1.00  0.00     0.016 A 
ATOM     14  C   UNL     1     167.739 140.996 150.177  1.00  0.00     0.051 A 
ATOM     15  C   UNL     1     167.800 141.565 148.898  1.00  0.00     0.157 A 
ATOM     16  C   UNL     1     168.864 143.533 149.837  1.00  0.00     0.062 A 
ATOM     17  C   UNL     1     168.359 142.838 148.728  1.00  0.00     0.158 A 
BRANCH  15  18
ATOM     18  O   UNL     1     167.303 140.875 147.794  1.00  0.00    -0.504 OA
ATOM     19  H   UNL     1     166.635 140.120 147.897  1.00  0.00     0.293 HD
ENDBRANCH  15  18
BRANCH  17  20
ATOM     20  O   UNL     1     168.405 143.407 147.457  1.00  0.00    -0.504 OA
ATOM     21  H   UNL     1     168.417 142.835 146.620  1.00  0.00     0.293 HD
ENDBRANCH  17  20
ENDBRANCH   1  12
BRANCH   2  22
ATOM     22  O   UNL     1     171.570 142.787 152.028  1.00  0.00    -0.502 OA
ATOM     23  H   UNL     1     171.922 143.014 151.106  1.00  0.00     0.293 HD
ENDBRANCH   2  22
BRANCH   6  24
ATOM     24  O   UNL     1     171.771 146.196 156.117  1.00  0.00    -0.507 OA
ATOM     25  H   UNL     1     172.020 146.862 156.833  1.00  0.00     0.293 HD
ENDBRANCH   6  24
BRANCH   8  26
ATOM     26  O   UNL     1     167.105 147.230 156.581  1.00  0.00    -0.508 OA
ATOM     27  H   UNL     1     166.479 147.868 156.103  1.00  0.00     0.293 HD
ENDBRANCH   8  26
TORSDOF 6
ENDMDL
MODEL 7
REMARK VINA RESULT:    -6.598      2.795      4.799
REMARK INTER + INTRA:          -8.267
REMARK INTER:                  -7.953
REMARK INTRA:                  -0.315
REMARK UNBOUND:                -0.320
REMARK SMILES O=c1c(O)c(-c2ccc(O)c(O)c2)oc2cc(O)cc(O)c12
REMARK SMILES IDX 5 1 3 2 2 3 1 4 22 5 20 6 19 7 17 8 16 9 15 10 14 11 6 12
REMARK SMILES IDX 7 13 8 14 9 15 13 16 11 17 10 18 12 20 4 22 21 24 18 26
REMARK H PARENT 10 19 12 21 4 23 21 25 18 27
REMARK Flexibility Score: inf
ROOT
ATOM      1  C   UNL     1     165.484 150.548 150.007  1.00  0.00     0.180 A 
ATOM      2  C   UNL     1     164.888 149.994 148.862  1.00  0.00     0.208 A 
ATOM      3  C   UNL     1     165.289 148.717 148.437  1.00  0.00     0.238 A 
ATOM      4  O   UNL     1     164.715 148.202 147.442  1.00  0.00    -0.285 OA
ATOM      5  C   UNL     1     166.293 148.019 149.151  1.00  0.00     0.111 A 
ATOM      6  C   UNL     1     166.805 146.738 148.787  1.00  0.00     0.134 A 
ATOM      7  C   UNL     1     167.702 146.085 149.641  1.00  0.00     0.093 A 
ATOM      8  C   UNL     1     168.155 146.695 150.813  1.00  0.00     0.123 A 
ATOM      9  C   UNL     1     167.707 147.970 151.147  1.00  0.00     0.094 A 
ATOM     10  C   UNL     1     166.784 148.633 150.333  1.00  0.00     0.146 A 
ATOM     11  O   UNL     1     166.374 149.842 150.694  1.00  0.00    -0.452 OA
ENDROOT
BRANCH   1  12
ATOM     12  C   UNL     1     165.131 151.899 150.503  1.00  0.00     0.025 A 
ATOM     13  C   UNL     1     164.035 152.054 151.365  1.00  0.00     0.016 A 
ATOM     14  C   UNL     1     163.698 153.315 151.863  1.00  0.00     0.051 A 
ATOM     15  C   UNL     1     164.460 154.437 151.515  1.00  0.00     0.157 A 
ATOM     16  C   UNL     1     165.906 153.025 150.173  1.00  0.00     0.062 A 
ATOM     17  C   UNL     1     165.569 154.293 150.673  1.00  0.00     0.158 A 
BRANCH  15  18
ATOM     18  O   UNL     1     164.125 155.698 152.006  1.00  0.00    -0.504 OA
ATOM     19  H   UNL     1     164.682 156.516 151.789  1.00  0.00     0.293 HD
ENDBRANCH  15  18
BRANCH  17  20
ATOM     20  O   UNL     1     166.334 155.409 150.341  1.00  0.00    -0.504 OA
ATOM     21  H   UNL     1     166.078 156.339 150.652  1.00  0.00     0.293 HD
ENDBRANCH  17  20
ENDBRANCH   1  12
BRANCH   2  22
ATOM     22  O   UNL     1     163.884 150.690 148.184  1.00  0.00    -0.502 OA
ATOM     23  H   UNL     1     162.924 150.368 148.153  1.00  0.00     0.293 HD
ENDBRANCH   2  22
BRANCH   6  24
ATOM     24  O   UNL     1     166.488 146.081 147.594  1.00  0.00    -0.507 OA
ATOM     25  H   UNL     1     166.230 145.107 147.526  1.00  0.00     0.293 HD
ENDBRANCH   6  24
BRANCH   8  26
ATOM     26  O   UNL     1     169.061 146.044 151.648  1.00  0.00    -0.508 OA
ATOM     27  H   UNL     1     169.982 145.773 151.323  1.00  0.00     0.293 HD
ENDBRANCH   8  26
TORSDOF 6
ENDMDL
MODEL 8
REMARK VINA RESULT:    -6.490      4.128      9.162
REMARK INTER + INTRA:          -8.138
REMARK INTER:                  -8.156
REMARK INTRA:                   0.018
REMARK UNBOUND:                -0.320
REMARK SMILES O=c1c(O)c(-c2ccc(O)c(O)c2)oc2cc(O)cc(O)c12
REMARK SMILES IDX 5 1 3 2 2 3 1 4 22 5 20 6 19 7 17 8 16 9 15 10 14 11 6 12
REMARK SMILES IDX 7 13 8 14 9 15 13 16 11 17 10 18 12 20 4 22 21 24 18 26
REMARK H PARENT 10 19 12 21 4 23 21 25 18 27
REMARK Flexibility Score: inf
ROOT
ATOM      1  C   UNL     1     168.137 148.112 150.722  1.00  0.00     0.180 A 
ATOM      2  C   UNL     1     169.269 148.539 150.006  1.00  0.00     0.208 A 
ATOM      3  C   UNL     1     169.243 149.794 149.378  1.00  0.00     0.238 A 
ATOM      4  O   UNL     1     170.278 150.195 148.784  1.00  0.00    -0.285 OA
ATOM      5  C   UNL     1     168.081 150.600 149.460  1.00  0.00     0.111 A 
ATOM      6  C   UNL     1     167.929 151.870 148.829  1.00  0.00     0.134 A 
ATOM      7  C   UNL     1     166.786 152.637 149.085  1.00  0.00     0.093 A 
ATOM      8  C   UNL     1     165.760 152.150 149.899  1.00  0.00     0.123 A 
ATOM      9  C   UNL     1     165.872 150.885 150.471  1.00  0.00     0.094 A 
ATOM     10  C   UNL     1     167.017 150.112 150.262  1.00  0.00     0.146 A 
ATOM     11  O   UNL     1     167.087 148.917 150.836  1.00  0.00    -0.452 OA
ENDROOT
BRANCH   1  12
ATOM     12  C   UNL     1     168.079 146.791 151.390  1.00  0.00     0.025 A 
ATOM     13  C   UNL     1     168.436 145.638 150.674  1.00  0.00     0.016 A 
ATOM     14  C   UNL     1     168.410 144.385 151.290  1.00  0.00     0.051 A 
ATOM     15  C   UNL     1     168.040 144.268 152.635  1.00  0.00     0.157 A 
ATOM     16  C   UNL     1     167.729 146.672 152.747  1.00  0.00     0.062 A 
ATOM     17  C   UNL     1     167.703 145.413 153.368  1.00  0.00     0.158 A 
BRANCH  15  18
ATOM     18  O   UNL     1     168.010 143.020 153.254  1.00  0.00    -0.504 OA
ATOM     19  H   UNL     1     167.673 142.196 152.769  1.00  0.00     0.293 HD
ENDBRANCH  15  18
BRANCH  17  20
ATOM     20  O   UNL     1     167.350 145.295 154.710  1.00  0.00    -0.504 OA
ATOM     21  H   UNL     1     166.418 145.528 155.035  1.00  0.00     0.293 HD
ENDBRANCH  17  20
ENDBRANCH   1  12
BRANCH   2  22
ATOM     22  O   UNL     1     170.413 147.738 149.957  1.00  0.00    -0.502 OA
ATOM     23  H   UNL     1     171.153 147.804 150.646  1.00  0.00     0.293 HD
ENDBRANCH   2  22
BRANCH   6  24
ATOM     24  O   UNL     1     168.852 152.409 147.927  1.00  0.00    -0.507 OA
ATOM     25  H   UNL     1     169.159 153.371 147.925  1.00  0.00     0.293 HD
ENDBRANCH   6  24
BRANCH   8  26
ATOM     26  O   UNL     1     164.618 152.914 150.135  1.00  0.00    -0.508 OA
ATOM     27  H   UNL     1     164.671 153.821 150.583  1.00  0.00     0.293 HD
ENDBRANCH   8  26
TORSDOF 6
ENDMDL
MODEL 9
REMARK VINA RESULT:    -6.419      4.959      7.754
REMARK INTER + INTRA:          -8.052
REMARK INTER:                  -7.748
REMARK INTRA:                  -0.304
REMARK UNBOUND:                -0.320
REMARK SMILES O=c1c(O)c(-c2ccc(O)c(O)c2)oc2cc(O)cc(O)c12
REMARK SMILES IDX 5 1 3 2 2 3 1 4 22 5 20 6 19 7 17 8 16 9 15 10 14 11 6 12
REMARK SMILES IDX 7 13 8 14 9 15 13 16 11 17 10 18 12 20 4 22 21 24 18 26
REMARK H PARENT 10 19 12 21 4 23 21 25 18 27
REMARK Flexibility Score: inf
ROOT
ATOM      1  C   UNL     1     168.610 148.650 149.814  1.00  0.00     0.180 A 
ATOM      2  C   UNL     1     169.492 147.814 149.109  1.00  0.00     0.208 A 
ATOM      3  C   UNL     1     169.711 146.508 149.576  1.00  0.00     0.238 A 
ATOM      4  O   UNL     1     170.459 145.745 148.911  1.00  0.00    -0.285 OA
ATOM      5  C   UNL     1     169.059 146.061 150.751  1.00  0.00     0.111 A 
ATOM      6  C   UNL     1     169.238 144.773 151.338  1.00  0.00     0.134 A 
ATOM      7  C   UNL     1     168.443 144.393 152.426  1.00  0.00     0.093 A 
ATOM      8  C   UNL     1     167.521 145.279 152.989  1.00  0.00     0.123 A 
ATOM      9  C   UNL     1     167.382 146.560 152.461  1.00  0.00     0.094 A 
ATOM     10  C   UNL     1     168.135 146.956 151.353  1.00  0.00     0.146 A 
ATOM     11  O   UNL     1     167.963 148.181 150.874  1.00  0.00    -0.452 OA
ENDROOT
BRANCH   1  12
ATOM     12  C   UNL     1     168.347 150.048 149.396  1.00  0.00     0.025 A 
ATOM     13  C   UNL     1     169.261 151.055 149.741  1.00  0.00     0.016 A 
ATOM     14  C   UNL     1     169.044 152.375 149.339  1.00  0.00     0.051 A 
ATOM     15  C   UNL     1     167.917 152.705 148.576  1.00  0.00     0.157 A 
ATOM     16  C   UNL     1     167.227 150.379 148.613  1.00  0.00     0.062 A 
ATOM     17  C   UNL     1     167.009 151.704 148.208  1.00  0.00     0.158 A 
BRANCH  15  18
ATOM     18  O   UNL     1     167.695 154.021 148.176  1.00  0.00    -0.504 OA
ATOM     19  H   UNL     1     167.700 154.285 147.197  1.00  0.00     0.293 HD
ENDBRANCH  15  18
BRANCH  17  20
ATOM     20  O   UNL     1     165.896 152.033 147.437  1.00  0.00    -0.504 OA
ATOM     21  H   UNL     1     165.255 151.322 147.100  1.00  0.00     0.293 HD
ENDBRANCH  17  20
ENDBRANCH   1  12
BRANCH   2  22
ATOM     22  O   UNL     1     170.108 148.267 147.938  1.00  0.00    -0.502 OA
ATOM     23  H   UNL     1     169.588 148.692 147.180  1.00  0.00     0.293 HD
ENDBRANCH   2  22
BRANCH   6  24
ATOM     24  O   UNL     1     170.194 143.847 150.911  1.00  0.00    -0.507 OA
ATOM     25  H   UNL     1     171.190 143.949 151.039  1.00  0.00     0.293 HD
ENDBRANCH   6  24
BRANCH   8  26
ATOM     26  O   UNL     1     166.745 144.898 154.082  1.00  0.00    -0.508 OA
ATOM     27  H   UNL     1     165.877 145.369 154.305  1.00  0.00     0.293 HD
ENDBRANCH   8  26
TORSDOF 6
ENDMDL
