MODEL 1
REMARK VINA RESULT:    -5.299      0.000      0.000
REMARK INTER + INTRA:          -5.985
REMARK INTER:                  -5.918
REMARK INTRA:                  -0.067
REMARK UNBOUND:                -0.067
REMARK SMILES COc1cc2ccc(=O)oc2c(O)c1O
REMARK SMILES IDX 3 1 14 2 12 3 11 4 5 5 4 6 6 7 7 8 8 9 9 10 10 11 2 12 1 13
REMARK SMILES IDX 15 14 13 16
REMARK H PARENT 15 15 13 17
REMARK Flexibility Score: inf
ROOT
ATOM      1  C   UNL     1       8.593  -6.361  -7.025  1.00  0.00     0.165 A 
ATOM      2  C   UNL     1       9.928  -5.986  -7.274  1.00  0.00     0.204 A 
ATOM      3  C   UNL     1      10.546  -6.325  -8.492  1.00  0.00     0.205 A 
ATOM      4  C   UNL     1       9.833  -7.038  -9.462  1.00  0.00     0.184 A 
ATOM      5  C   UNL     1       8.496  -7.416  -9.219  1.00  0.00     0.025 A 
ATOM      6  C   UNL     1       7.882  -7.079  -8.007  1.00  0.00     0.062 A 
ATOM      7  C   UNL     1       7.812  -8.128 -10.209  1.00  0.00     0.020 A 
ATOM      8  C   UNL     1       8.464  -8.443 -11.401  1.00  0.00     0.094 A 
ATOM      9  C   UNL     1       9.790  -8.035 -11.575  1.00  0.00     0.336 A 
ATOM     10  O   UNL     1      10.398  -8.308 -12.643  1.00  0.00    -0.246 OA
ATOM     11  O   UNL     1      10.417  -7.359 -10.616  1.00  0.00    -0.419 OA
ENDROOT
BRANCH   1  12
ATOM     12  O   UNL     1       8.009  -6.007  -5.799  1.00  0.00    -0.493 OA
ATOM     13  C   UNL     1       7.945  -6.855  -4.658  1.00  0.00     0.278 C 
ENDBRANCH   1  12
BRANCH   2  14
ATOM     14  O   UNL     1      10.654  -5.274  -6.317  1.00  0.00    -0.502 OA
ATOM     15  H   UNL     1      11.619  -5.488  -6.098  1.00  0.00     0.293 HD
ENDBRANCH   2  14
BRANCH   3  16
ATOM     16  O   UNL     1      11.868  -5.960  -8.751  1.00  0.00    -0.502 OA
ATOM     17  H   UNL     1      12.105  -5.184  -9.357  1.00  0.00     0.293 HD
ENDBRANCH   3  16
TORSDOF 3
ENDMDL
MODEL 2
REMARK VINA RESULT:    -5.274      2.173      2.411
REMARK INTER + INTRA:          -5.957
REMARK INTER:                  -5.900
REMARK INTRA:                  -0.057
REMARK UNBOUND:                -0.067
REMARK SMILES COc1cc2ccc(=O)oc2c(O)c1O
REMARK SMILES IDX 3 1 14 2 12 3 11 4 5 5 4 6 6 7 7 8 8 9 9 10 10 11 2 12 1 13
REMARK SMILES IDX 15 14 13 16
REMARK H PARENT 15 15 13 17
REMARK Flexibility Score: inf
ROOT
ATOM      1  C   UNL     1       7.941  -7.133  -6.055  1.00  0.00     0.165 A 
ATOM      2  C   UNL     1       7.736  -5.784  -6.408  1.00  0.00     0.204 A 
ATOM      3  C   UNL     1       7.756  -5.393  -7.759  1.00  0.00     0.205 A 
ATOM      4  C   UNL     1       7.979  -6.346  -8.760  1.00  0.00     0.184 A 
ATOM      5  C   UNL     1       8.184  -7.697  -8.412  1.00  0.00     0.025 A 
ATOM      6  C   UNL     1       8.165  -8.086  -7.067  1.00  0.00     0.062 A 
ATOM      7  C   UNL     1       8.405  -8.624  -9.436  1.00  0.00     0.020 A 
ATOM      8  C   UNL     1       8.416  -8.192 -10.761  1.00  0.00     0.094 A 
ATOM      9  C   UNL     1       8.204  -6.836 -11.033  1.00  0.00     0.336 A 
ATOM     10  O   UNL     1       8.210  -6.424 -12.222  1.00  0.00    -0.246 OA
ATOM     11  O   UNL     1       7.997  -5.976 -10.039  1.00  0.00    -0.419 OA
ENDROOT
BRANCH   1  12
ATOM     12  O   UNL     1       7.915  -7.487  -4.697  1.00  0.00    -0.493 OA
ATOM     13  C   UNL     1       7.189  -8.589  -4.161  1.00  0.00     0.278 C 
ENDBRANCH   1  12
BRANCH   2  14
ATOM     14  O   UNL     1       7.512  -4.820  -5.423  1.00  0.00    -0.502 OA
ATOM     15  H   UNL     1       8.018  -4.813  -4.545  1.00  0.00     0.293 HD
ENDBRANCH   2  14
BRANCH   3  16
ATOM     16  O   UNL     1       7.555  -4.060  -8.123  1.00  0.00    -0.502 OA
ATOM     17  H   UNL     1       7.851  -3.694  -9.020  1.00  0.00     0.293 HD
ENDBRANCH   3  16
TORSDOF 3
ENDMDL
MODEL 3
REMARK VINA RESULT:    -5.165      1.378      4.788
REMARK INTER + INTRA:          -5.836
REMARK INTER:                  -5.767
REMARK INTRA:                  -0.069
REMARK UNBOUND:                -0.067
REMARK SMILES COc1cc2ccc(=O)oc2c(O)c1O
REMARK SMILES IDX 3 1 14 2 12 3 11 4 5 5 4 6 6 7 7 8 8 9 9 10 10 11 2 12 1 13
REMARK SMILES IDX 15 14 13 16
REMARK H PARENT 15 15 13 17
REMARK Flexibility Score: inf
ROOT
ATOM      1  C   UNL     1       9.389  -7.018 -11.232  1.00  0.00     0.165 A 
ATOM      2  C   UNL     1      10.693  -6.752 -10.768  1.00  0.00     0.204 A 
ATOM      3  C   UNL     1      10.900  -6.317  -9.446  1.00  0.00     0.205 A 
ATOM      4  C   UNL     1       9.809  -6.146  -8.587  1.00  0.00     0.184 A 
ATOM      5  C   UNL     1       8.502  -6.410  -9.047  1.00  0.00     0.025 A 
ATOM      6  C   UNL     1       8.296  -6.843 -10.362  1.00  0.00     0.062 A 
ATOM      7  C   UNL     1       7.434  -6.229  -8.162  1.00  0.00     0.020 A 
ATOM      8  C   UNL     1       7.687  -5.796  -6.862  1.00  0.00     0.094 A 
ATOM      9  C   UNL     1       9.008  -5.554  -6.474  1.00  0.00     0.336 A 
ATOM     10  O   UNL     1       9.259  -5.162  -5.304  1.00  0.00    -0.246 OA
ATOM     11  O   UNL     1      10.006  -5.734  -7.335  1.00  0.00    -0.419 OA
ENDROOT
BRANCH   1  12
ATOM     12  O   UNL     1       9.219  -7.450 -12.557  1.00  0.00    -0.493 OA
ATOM     13  C   UNL     1       8.928  -8.791 -12.940  1.00  0.00     0.278 C 
ENDBRANCH   1  12
BRANCH   2  14
ATOM     14  O   UNL     1      11.793  -6.918 -11.612  1.00  0.00    -0.502 OA
ATOM     15  H   UNL     1      12.613  -7.446 -11.338  1.00  0.00     0.293 HD
ENDBRANCH   2  14
BRANCH   3  16
ATOM     16  O   UNL     1      12.187  -6.050  -8.973  1.00  0.00    -0.502 OA
ATOM     17  H   UNL     1      12.514  -5.107  -8.802  1.00  0.00     0.293 HD
ENDBRANCH   3  16
TORSDOF 3
ENDMDL
MODEL 4
REMARK VINA RESULT:    -5.139      1.863      4.615
REMARK INTER + INTRA:          -5.806
REMARK INTER:                  -5.746
REMARK INTRA:                  -0.060
REMARK UNBOUND:                -0.067
REMARK SMILES COc1cc2ccc(=O)oc2c(O)c1O
REMARK SMILES IDX 3 1 14 2 12 3 11 4 5 5 4 6 6 7 7 8 8 9 9 10 10 11 2 12 1 13
REMARK SMILES IDX 15 14 13 16
REMARK H PARENT 15 15 13 17
REMARK Flexibility Score: inf
ROOT
ATOM      1  C   UNL     1      10.998  -7.670 -10.147  1.00  0.00     0.165 A 
ATOM      2  C   UNL     1      11.202  -6.646  -9.201  1.00  0.00     0.204 A 
ATOM      3  C   UNL     1      10.461  -6.626  -8.006  1.00  0.00     0.205 A 
ATOM      4  C   UNL     1       9.515  -7.626  -7.752  1.00  0.00     0.184 A 
ATOM      5  C   UNL     1       9.307  -8.654  -8.696  1.00  0.00     0.025 A 
ATOM      6  C   UNL     1      10.045  -8.674  -9.885  1.00  0.00     0.062 A 
ATOM      7  C   UNL     1       8.355  -9.639  -8.412  1.00  0.00     0.020 A 
ATOM      8  C   UNL     1       7.644  -9.579  -7.215  1.00  0.00     0.094 A 
ATOM      9  C   UNL     1       7.902  -8.531  -6.325  1.00  0.00     0.336 A 
ATOM     10  O   UNL     1       7.271  -8.458  -5.238  1.00  0.00    -0.246 OA
ATOM     11  O   UNL     1       8.813  -7.608  -6.620  1.00  0.00    -0.419 OA
ENDROOT
BRANCH   1  12
ATOM     12  O   UNL     1      11.755  -7.659 -11.329  1.00  0.00    -0.493 OA
ATOM     13  C   UNL     1      12.548  -8.747 -11.793  1.00  0.00     0.278 C 
ENDBRANCH   1  12
BRANCH   2  14
ATOM     14  O   UNL     1      12.141  -5.640  -9.438  1.00  0.00    -0.502 OA
ATOM     15  H   UNL     1      12.551  -5.484 -10.351  1.00  0.00     0.293 HD
ENDBRANCH   2  14
BRANCH   3  16
ATOM     16  O   UNL     1      10.653  -5.617  -7.060  1.00  0.00    -0.502 OA
ATOM     17  H   UNL     1      10.092  -4.773  -7.050  1.00  0.00     0.293 HD
ENDBRANCH   3  16
TORSDOF 3
ENDMDL
MODEL 5
REMARK VINA RESULT:    -5.046      2.235      2.728
REMARK INTER + INTRA:          -5.702
REMARK INTER:                  -5.651
REMARK INTRA:                  -0.052
REMARK UNBOUND:                -0.067
REMARK SMILES COc1cc2ccc(=O)oc2c(O)c1O
REMARK SMILES IDX 3 1 14 2 12 3 11 4 5 5 4 6 6 7 7 8 8 9 9 10 10 11 2 12 1 13
REMARK SMILES IDX 15 14 13 16
REMARK H PARENT 15 15 13 17
REMARK Flexibility Score: inf
ROOT
ATOM      1  C   UNL     1       8.080  -6.658  -6.686  1.00  0.00     0.165 A 
ATOM      2  C   UNL     1       8.369  -7.917  -7.248  1.00  0.00     0.204 A 
ATOM      3  C   UNL     1       8.438  -8.071  -8.645  1.00  0.00     0.205 A 
ATOM      4  C   UNL     1       8.219  -6.970  -9.482  1.00  0.00     0.184 A 
ATOM      5  C   UNL     1       7.929  -5.708  -8.924  1.00  0.00     0.025 A 
ATOM      6  C   UNL     1       7.861  -5.555  -7.534  1.00  0.00     0.062 A 
ATOM      7  C   UNL     1       7.716  -4.629  -9.787  1.00  0.00     0.020 A 
ATOM      8  C   UNL     1       7.794  -4.828 -11.165  1.00  0.00     0.094 A 
ATOM      9  C   UNL     1       8.086  -6.107 -11.649  1.00  0.00     0.336 A 
ATOM     10  O   UNL     1       8.161  -6.309 -12.889  1.00  0.00    -0.246 OA
ATOM     11  O   UNL     1       8.285  -7.116 -10.805  1.00  0.00    -0.419 OA
ENDROOT
BRANCH   1  12
ATOM     12  O   UNL     1       8.018  -6.541  -5.288  1.00  0.00    -0.493 OA
ATOM     13  C   UNL     1       8.389  -5.377  -4.556  1.00  0.00     0.278 C 
ENDBRANCH   1  12
BRANCH   2  14
ATOM     14  O   UNL     1       8.590  -9.025  -6.429  1.00  0.00    -0.502 OA
ATOM     15  H   UNL     1       8.286  -9.958  -6.683  1.00  0.00     0.293 HD
ENDBRANCH   2  14
BRANCH   3  16
ATOM     16  O   UNL     1       8.723  -9.313  -9.216  1.00  0.00    -0.502 OA
ATOM     17  H   UNL     1       8.482  -9.534 -10.175  1.00  0.00     0.293 HD
ENDBRANCH   3  16
TORSDOF 3
ENDMDL
MODEL 6
REMARK VINA RESULT:    -5.014      2.121      4.989
REMARK INTER + INTRA:          -5.667
REMARK INTER:                  -5.618
REMARK INTRA:                  -0.049
REMARK UNBOUND:                -0.067
REMARK SMILES COc1cc2ccc(=O)oc2c(O)c1O
REMARK SMILES IDX 3 1 14 2 12 3 11 4 5 5 4 6 6 7 7 8 8 9 9 10 10 11 2 12 1 13
REMARK SMILES IDX 15 14 13 16
REMARK H PARENT 15 15 13 17
REMARK Flexibility Score: inf
ROOT
ATOM      1  C   UNL     1       8.418  -6.878 -10.699  1.00  0.00     0.165 A 
ATOM      2  C   UNL     1       8.110  -5.631 -10.119  1.00  0.00     0.204 A 
ATOM      3  C   UNL     1       7.883  -5.528  -8.735  1.00  0.00     0.205 A 
ATOM      4  C   UNL     1       7.961  -6.668  -7.927  1.00  0.00     0.184 A 
ATOM      5  C   UNL     1       8.269  -7.919  -8.501  1.00  0.00     0.025 A 
ATOM      6  C   UNL     1       8.495  -8.020  -9.879  1.00  0.00     0.062 A 
ATOM      7  C   UNL     1       8.340  -9.039  -7.666  1.00  0.00     0.020 A 
ATOM      8  C   UNL     1       8.107  -8.890  -6.300  1.00  0.00     0.094 A 
ATOM      9  C   UNL     1       7.808  -7.619  -5.798  1.00  0.00     0.336 A 
ATOM     10  O   UNL     1       7.594  -7.462  -4.568  1.00  0.00    -0.246 OA
ATOM     11  O   UNL     1       7.746  -6.571  -6.615  1.00  0.00    -0.419 OA
ENDROOT
BRANCH   1  12
ATOM     12  O   UNL     1       8.638  -6.944 -12.083  1.00  0.00    -0.493 OA
ATOM     13  C   UNL     1       9.138  -8.086 -12.770  1.00  0.00     0.278 C 
ENDBRANCH   1  12
BRANCH   2  14
ATOM     14  O   UNL     1       8.027  -4.483 -10.911  1.00  0.00    -0.502 OA
ATOM     15  H   UNL     1       8.504  -4.402 -11.801  1.00  0.00     0.293 HD
ENDBRANCH   2  14
BRANCH   3  16
ATOM     16  O   UNL     1       7.576  -4.299  -8.148  1.00  0.00    -0.502 OA
ATOM     17  H   UNL     1       7.403  -4.203  -7.154  1.00  0.00     0.293 HD
ENDBRANCH   3  16
TORSDOF 3
ENDMDL
MODEL 7
REMARK VINA RESULT:    -5.009     10.779     12.344
REMARK INTER + INTRA:          -5.662
REMARK INTER:                  -5.611
REMARK INTRA:                  -0.051
REMARK UNBOUND:                -0.067
REMARK SMILES COc1cc2ccc(=O)oc2c(O)c1O
REMARK SMILES IDX 3 1 14 2 12 3 11 4 5 5 4 6 6 7 7 8 8 9 9 10 10 11 2 12 1 13
REMARK SMILES IDX 15 14 13 16
REMARK H PARENT 15 15 13 17
REMARK Flexibility Score: inf
ROOT
ATOM      1  C   UNL     1       5.172   4.469  -9.497  1.00  0.00     0.165 A 
ATOM      2  C   UNL     1       6.312   3.649  -9.377  1.00  0.00     0.204 A 
ATOM      3  C   UNL     1       6.630   3.051  -8.144  1.00  0.00     0.205 A 
ATOM      4  C   UNL     1       5.813   3.270  -7.030  1.00  0.00     0.184 A 
ATOM      5  C   UNL     1       4.671   4.089  -7.143  1.00  0.00     0.025 A 
ATOM      6  C   UNL     1       4.355   4.684  -8.370  1.00  0.00     0.062 A 
ATOM      7  C   UNL     1       3.875   4.287  -6.010  1.00  0.00     0.020 A 
ATOM      8  C   UNL     1       4.229   3.675  -4.809  1.00  0.00     0.094 A 
ATOM      9  C   UNL     1       5.375   2.874  -4.769  1.00  0.00     0.336 A 
ATOM     10  O   UNL     1       5.713   2.312  -3.695  1.00  0.00    -0.246 OA
ATOM     11  O   UNL     1       6.114   2.703  -5.862  1.00  0.00    -0.419 OA
ENDROOT
BRANCH   1  12
ATOM     12  O   UNL     1       4.885   5.050 -10.742  1.00  0.00    -0.493 OA
ATOM     13  C   UNL     1       5.374   6.315 -11.177  1.00  0.00     0.278 C 
ENDBRANCH   1  12
BRANCH   2  14
ATOM     14  O   UNL     1       7.138   3.421 -10.479  1.00  0.00    -0.502 OA
ATOM     15  H   UNL     1       6.774   3.139 -11.382  1.00  0.00     0.293 HD
ENDBRANCH   2  14
BRANCH   3  16
ATOM     16  O   UNL     1       7.757   2.237  -8.012  1.00  0.00    -0.502 OA
ATOM     17  H   UNL     1       8.493   2.438  -7.347  1.00  0.00     0.293 HD
ENDBRANCH   3  16
TORSDOF 3
ENDMDL
MODEL 8
REMARK VINA RESULT:    -4.945      2.117      3.809
REMARK INTER + INTRA:          -5.590
REMARK INTER:                  -5.541
REMARK INTRA:                  -0.049
REMARK UNBOUND:                -0.067
REMARK SMILES COc1cc2ccc(=O)oc2c(O)c1O
REMARK SMILES IDX 3 1 14 2 12 3 11 4 5 5 4 6 6 7 7 8 8 9 9 10 10 11 2 12 1 13
REMARK SMILES IDX 15 14 13 16
REMARK H PARENT 15 15 13 17
REMARK Flexibility Score: inf
ROOT
ATOM      1  C   UNL     1      11.303  -6.359  -9.922  1.00  0.00     0.165 A 
ATOM      2  C   UNL     1      10.517  -6.496  -8.760  1.00  0.00     0.204 A 
ATOM      3  C   UNL     1       9.268  -7.140  -8.819  1.00  0.00     0.205 A 
ATOM      4  C   UNL     1       8.800  -7.648 -10.037  1.00  0.00     0.184 A 
ATOM      5  C   UNL     1       9.582  -7.515 -11.203  1.00  0.00     0.025 A 
ATOM      6  C   UNL     1      10.825  -6.874 -11.143  1.00  0.00     0.062 A 
ATOM      7  C   UNL     1       9.086  -8.034 -12.403  1.00  0.00     0.020 A 
ATOM      8  C   UNL     1       7.843  -8.664 -12.415  1.00  0.00     0.094 A 
ATOM      9  C   UNL     1       7.122  -8.762 -11.220  1.00  0.00     0.336 A 
ATOM     10  O   UNL     1       5.997  -9.327 -11.209  1.00  0.00    -0.246 OA
ATOM     11  O   UNL     1       7.617  -8.259 -10.093  1.00  0.00    -0.419 OA
ENDROOT
BRANCH   1  12
ATOM     12  O   UNL     1      12.544  -5.710  -9.826  1.00  0.00    -0.493 OA
ATOM     13  C   UNL     1      13.320  -5.281 -10.940  1.00  0.00     0.278 C 
ENDBRANCH   1  12
BRANCH   2  14
ATOM     14  O   UNL     1      10.968  -5.994  -7.538  1.00  0.00    -0.502 OA
ATOM     15  H   UNL     1      11.173  -5.012  -7.396  1.00  0.00     0.293 HD
ENDBRANCH   2  14
BRANCH   3  16
ATOM     16  O   UNL     1       8.479  -7.282  -7.676  1.00  0.00    -0.502 OA
ATOM     17  H   UNL     1       7.471  -7.186  -7.700  1.00  0.00     0.293 HD
ENDBRANCH   3  16
TORSDOF 3
ENDMDL
MODEL 9
REMARK VINA RESULT:    -4.890      2.620      5.225
REMARK INTER + INTRA:          -5.528
REMARK INTER:                  -5.475
REMARK INTRA:                  -0.053
REMARK UNBOUND:                -0.067
REMARK SMILES COc1cc2ccc(=O)oc2c(O)c1O
REMARK SMILES IDX 3 1 14 2 12 3 11 4 5 5 4 6 6 7 7 8 8 9 9 10 10 11 2 12 1 13
REMARK SMILES IDX 15 14 13 16
REMARK H PARENT 15 15 13 17
REMARK Flexibility Score: inf
ROOT
ATOM      1  C   UNL     1       8.014  -5.435 -11.467  1.00  0.00     0.165 A 
ATOM      2  C   UNL     1       8.049  -6.830 -11.664  1.00  0.00     0.204 A 
ATOM      3  C   UNL     1       8.042  -7.703 -10.560  1.00  0.00     0.205 A 
ATOM      4  C   UNL     1       8.003  -7.185  -9.260  1.00  0.00     0.184 A 
ATOM      5  C   UNL     1       7.969  -5.790  -9.058  1.00  0.00     0.025 A 
ATOM      6  C   UNL     1       7.975  -4.922 -10.156  1.00  0.00     0.062 A 
ATOM      7  C   UNL     1       7.929  -5.306  -7.746  1.00  0.00     0.020 A 
ATOM      8  C   UNL     1       7.925  -6.208  -6.683  1.00  0.00     0.094 A 
ATOM      9  C   UNL     1       7.959  -7.579  -6.958  1.00  0.00     0.336 A 
ATOM     10  O   UNL     1       7.956  -8.410  -6.013  1.00  0.00    -0.246 OA
ATOM     11  O   UNL     1       7.997  -8.012  -8.215  1.00  0.00    -0.419 OA
ENDROOT
BRANCH   1  12
ATOM     12  O   UNL     1       8.022  -4.594 -12.591  1.00  0.00    -0.493 OA
ATOM     13  C   UNL     1       7.265  -3.394 -12.710  1.00  0.00     0.278 C 
ENDBRANCH   1  12
BRANCH   2  14
ATOM     14  O   UNL     1       8.088  -7.363 -12.954  1.00  0.00    -0.502 OA
ATOM     15  H   UNL     1       8.959  -7.556 -13.435  1.00  0.00     0.293 HD
ENDBRANCH   2  14
BRANCH   3  16
ATOM     16  O   UNL     1       8.076  -9.087 -10.740  1.00  0.00    -0.502 OA
ATOM     17  H   UNL     1       8.827  -9.548 -11.240  1.00  0.00     0.293 HD
ENDBRANCH   3  16
TORSDOF 3
ENDMDL
