MODEL 1
REMARK VINA RESULT:    -5.485      0.000      0.000
REMARK INTER + INTRA:          -7.382
REMARK INTER:                  -6.928
REMARK INTRA:                  -0.454
REMARK UNBOUND:                -0.454
REMARK SMILES O=C(C=Cc1ccc(O)cc1)c1ccc(O)cc1O
REMARK SMILES IDX 4 1 3 2 5 3 6 4 7 5 8 6 11 7 10 8 9 9 2 11 1 12 12 13 18 14
REMARK SMILES IDX 13 15 17 16 14 17 15 18 19 19 16 21
REMARK H PARENT 9 10 19 20 16 22
REMARK Flexibility Score: inf
ROOT
ATOM      1  C   UNL     1      15.754  -7.567  12.880  1.00  0.00     0.012 C 
ATOM      2  C   UNL     1      15.272  -8.496  12.039  1.00  0.00     0.053 C 
ENDROOT
BRANCH   1   3
ATOM      3  C   UNL     1      17.000  -6.800  12.638  1.00  0.00    -0.025 A 
ATOM      4  C   UNL     1      18.123  -7.484  12.141  1.00  0.00     0.012 A 
ATOM      5  C   UNL     1      19.317  -6.803  11.890  1.00  0.00     0.047 A 
ATOM      6  C   UNL     1      19.404  -5.425  12.122  1.00  0.00     0.115 A 
ATOM      7  C   UNL     1      17.093  -5.410  12.855  1.00  0.00     0.012 A 
ATOM      8  C   UNL     1      18.289  -4.732  12.602  1.00  0.00     0.047 A 
BRANCH   6   9
ATOM      9  O   UNL     1      20.589  -4.735  11.875  1.00  0.00    -0.508 OA
ATOM     10  H   UNL     1      20.970  -4.080  12.548  1.00  0.00     0.293 HD
ENDBRANCH   6   9
ENDBRANCH   1   3
BRANCH   2  11
ATOM     11  C   UNL     1      14.026  -9.247  12.305  1.00  0.00     0.189 C 
ATOM     12  O   UNL     1      12.944  -8.605  12.355  1.00  0.00    -0.289 OA
BRANCH  11  13
ATOM     13  C   UNL     1      13.995 -10.714  12.505  1.00  0.00     0.064 A 
ATOM     14  C   UNL     1      12.865 -11.359  13.049  1.00  0.00     0.130 A 
ATOM     15  C   UNL     1      15.099 -11.484  12.104  1.00  0.00     0.020 A 
ATOM     16  C   UNL     1      12.873 -12.751  13.224  1.00  0.00     0.093 A 
ATOM     17  C   UNL     1      15.097 -12.870  12.276  1.00  0.00     0.047 A 
ATOM     18  C   UNL     1      13.989 -13.507  12.840  1.00  0.00     0.119 A 
BRANCH  14  19
ATOM     19  O   UNL     1      11.732 -10.623  13.397  1.00  0.00    -0.507 OA
ATOM     20  H   UNL     1      11.804  -9.701  13.811  1.00  0.00     0.293 HD
ENDBRANCH  14  19
BRANCH  18  21
ATOM     21  O   UNL     1      14.001 -14.890  13.010  1.00  0.00    -0.508 OA
ATOM     22  H   UNL     1      14.706 -15.348  13.575  1.00  0.00     0.293 HD
ENDBRANCH  18  21
ENDBRANCH  11  13
ENDBRANCH   2  11
TORSDOF 6
ENDMDL
MODEL 2
REMARK VINA RESULT:    -5.414      1.682      2.553
REMARK INTER + INTRA:          -7.293
REMARK INTER:                  -6.878
REMARK INTRA:                  -0.415
REMARK UNBOUND:                -0.454
REMARK SMILES O=C(C=Cc1ccc(O)cc1)c1ccc(O)cc1O
REMARK SMILES IDX 4 1 3 2 5 3 6 4 7 5 8 6 11 7 10 8 9 9 2 11 1 12 12 13 18 14
REMARK SMILES IDX 13 15 17 16 14 17 15 18 19 19 16 21
REMARK H PARENT 9 10 19 20 16 22
REMARK Flexibility Score: inf
ROOT
ATOM      1  C   UNL     1      17.246  -9.218  12.526  1.00  0.00     0.012 C 
ATOM      2  C   UNL     1      15.958  -9.579  12.629  1.00  0.00     0.053 C 
ENDROOT
BRANCH   1   3
ATOM      3  C   UNL     1      17.727  -7.822  12.668  1.00  0.00    -0.025 A 
ATOM      4  C   UNL     1      18.808  -7.401  11.875  1.00  0.00     0.012 A 
ATOM      5  C   UNL     1      19.291  -6.093  11.967  1.00  0.00     0.047 A 
ATOM      6  C   UNL     1      18.693  -5.182  12.846  1.00  0.00     0.115 A 
ATOM      7  C   UNL     1      17.122  -6.893  13.540  1.00  0.00     0.012 A 
ATOM      8  C   UNL     1      17.608  -5.585  13.628  1.00  0.00     0.047 A 
BRANCH   6   9
ATOM      9  O   UNL     1      19.167  -3.875  12.947  1.00  0.00    -0.508 OA
ATOM     10  H   UNL     1      20.113  -3.677  13.250  1.00  0.00     0.293 HD
ENDBRANCH   6   9
ENDBRANCH   1   3
BRANCH   2  11
ATOM     11  C   UNL     1      15.505 -10.979  12.484  1.00  0.00     0.189 C 
ATOM     12  O   UNL     1      16.376 -11.889  12.474  1.00  0.00    -0.289 OA
BRANCH  11  13
ATOM     13  C   UNL     1      14.079 -11.357  12.358  1.00  0.00     0.064 A 
ATOM     14  C   UNL     1      13.653 -12.692  12.528  1.00  0.00     0.130 A 
ATOM     15  C   UNL     1      13.124 -10.358  12.107  1.00  0.00     0.020 A 
ATOM     16  C   UNL     1      12.293 -13.011  12.400  1.00  0.00     0.093 A 
ATOM     17  C   UNL     1      11.771 -10.685  11.987  1.00  0.00     0.047 A 
ATOM     18  C   UNL     1      11.352 -12.010  12.128  1.00  0.00     0.119 A 
BRANCH  14  19
ATOM     19  O   UNL     1      14.575 -13.692  12.839  1.00  0.00    -0.507 OA
ATOM     20  H   UNL     1      14.364 -14.672  12.694  1.00  0.00     0.293 HD
ENDBRANCH  14  19
BRANCH  18  21
ATOM     21  O   UNL     1      10.000 -12.321  12.002  1.00  0.00    -0.508 OA
ATOM     22  H   UNL     1       9.404 -11.840  11.339  1.00  0.00     0.293 HD
ENDBRANCH  18  21
ENDBRANCH  11  13
ENDBRANCH   2  11
TORSDOF 6
ENDMDL
MODEL 3
REMARK VINA RESULT:    -5.192      2.633      7.291
REMARK INTER + INTRA:          -7.012
REMARK INTER:                  -6.445
REMARK INTRA:                  -0.567
REMARK UNBOUND:                -0.454
REMARK SMILES O=C(C=Cc1ccc(O)cc1)c1ccc(O)cc1O
REMARK SMILES IDX 4 1 3 2 5 3 6 4 7 5 8 6 11 7 10 8 9 9 2 11 1 12 12 13 18 14
REMARK SMILES IDX 13 15 17 16 14 17 15 18 19 19 16 21
REMARK H PARENT 9 10 19 20 16 22
REMARK Flexibility Score: inf
ROOT
ATOM      1  C   UNL     1      14.946  -9.496  12.603  1.00  0.00     0.012 C 
ATOM      2  C   UNL     1      16.142  -8.888  12.622  1.00  0.00     0.053 C 
ENDROOT
BRANCH   1   3
ATOM      3  C   UNL     1      14.767 -10.968  12.625  1.00  0.00    -0.025 A 
ATOM      4  C   UNL     1      13.460 -11.485  12.659  1.00  0.00     0.012 A 
ATOM      5  C   UNL     1      13.241 -12.864  12.674  1.00  0.00     0.047 A 
ATOM      6  C   UNL     1      14.325 -13.750  12.644  1.00  0.00     0.115 A 
ATOM      7  C   UNL     1      15.852 -11.868  12.581  1.00  0.00     0.012 A 
ATOM      8  C   UNL     1      15.628 -13.248  12.594  1.00  0.00     0.047 A 
BRANCH   6   9
ATOM      9  O   UNL     1      14.118 -15.128  12.658  1.00  0.00    -0.508 OA
ATOM     10  H   UNL     1      14.725 -15.749  13.180  1.00  0.00     0.293 HD
ENDBRANCH   6   9
ENDBRANCH   1   3
BRANCH   2  11
ATOM     11  C   UNL     1      16.293  -7.417  12.598  1.00  0.00     0.189 C 
ATOM     12  O   UNL     1      17.210  -6.924  11.889  1.00  0.00    -0.289 OA
BRANCH  11  13
ATOM     13  C   UNL     1      15.412  -6.504  13.362  1.00  0.00     0.064 A 
ATOM     14  C   UNL     1      15.638  -6.235  14.728  1.00  0.00     0.130 A 
ATOM     15  C   UNL     1      14.355  -5.858  12.700  1.00  0.00     0.020 A 
ATOM     16  C   UNL     1      14.781  -5.364  15.418  1.00  0.00     0.093 A 
ATOM     17  C   UNL     1      13.511  -4.988  13.393  1.00  0.00     0.047 A 
ATOM     18  C   UNL     1      13.717  -4.742  14.752  1.00  0.00     0.119 A 
BRANCH  14  19
ATOM     19  O   UNL     1      16.718  -6.816  15.392  1.00  0.00    -0.507 OA
ATOM     20  H   UNL     1      17.410  -6.254  15.875  1.00  0.00     0.293 HD
ENDBRANCH  14  19
BRANCH  18  21
ATOM     21  O   UNL     1      12.864  -3.875  15.432  1.00  0.00    -0.508 OA
ATOM     22  H   UNL     1      11.864  -3.879  15.271  1.00  0.00     0.293 HD
ENDBRANCH  18  21
ENDBRANCH  11  13
ENDBRANCH   2  11
TORSDOF 6
ENDMDL
MODEL 4
REMARK VINA RESULT:    -4.996      1.361      7.573
REMARK INTER + INTRA:          -6.765
REMARK INTER:                  -6.385
REMARK INTRA:                  -0.380
REMARK UNBOUND:                -0.454
REMARK SMILES O=C(C=Cc1ccc(O)cc1)c1ccc(O)cc1O
REMARK SMILES IDX 4 1 3 2 5 3 6 4 7 5 8 6 11 7 10 8 9 9 2 11 1 12 12 13 18 14
REMARK SMILES IDX 13 15 17 16 14 17 15 18 19 19 16 21
REMARK H PARENT 9 10 19 20 16 22
REMARK Flexibility Score: inf
ROOT
ATOM      1  C   UNL     1      14.283  -9.273  12.242  1.00  0.00     0.012 C 
ATOM      2  C   UNL     1      15.397  -8.574  12.508  1.00  0.00     0.053 C 
ENDROOT
BRANCH   1   3
ATOM      3  C   UNL     1      14.159 -10.738  12.442  1.00  0.00    -0.025 A 
ATOM      4  C   UNL     1      15.303 -11.537  12.273  1.00  0.00     0.012 A 
ATOM      5  C   UNL     1      15.238 -12.920  12.458  1.00  0.00     0.047 A 
ATOM      6  C   UNL     1      14.029 -13.526  12.824  1.00  0.00     0.115 A 
ATOM      7  C   UNL     1      12.950 -11.354  12.825  1.00  0.00     0.012 A 
ATOM      8  C   UNL     1      12.890 -12.739  13.009  1.00  0.00     0.047 A 
BRANCH   6   9
ATOM      9  O   UNL     1      13.953 -14.904  13.011  1.00  0.00    -0.508 OA
ATOM     10  H   UNL     1      14.219 -15.553  12.279  1.00  0.00     0.293 HD
ENDBRANCH   6   9
ENDBRANCH   1   3
BRANCH   2  11
ATOM     11  C   UNL     1      15.494  -7.113  12.300  1.00  0.00     0.189 C 
ATOM     12  O   UNL     1      14.426  -6.449  12.228  1.00  0.00    -0.289 OA
BRANCH  11  13
ATOM     13  C   UNL     1      16.786  -6.398  12.181  1.00  0.00     0.064 A 
ATOM     14  C   UNL     1      16.840  -5.000  12.000  1.00  0.00     0.130 A 
ATOM     15  C   UNL     1      17.983  -7.124  12.294  1.00  0.00     0.020 A 
ATOM     16  C   UNL     1      18.083  -4.359  11.891  1.00  0.00     0.093 A 
ATOM     17  C   UNL     1      19.216  -6.476  12.190  1.00  0.00     0.047 A 
ATOM     18  C   UNL     1      19.271  -5.096  11.984  1.00  0.00     0.119 A 
BRANCH  14  19
ATOM     19  O   UNL     1      15.665  -4.250  11.948  1.00  0.00    -0.507 OA
ATOM     20  H   UNL     1      15.589  -3.421  11.370  1.00  0.00     0.293 HD
ENDBRANCH  14  19
BRANCH  18  21
ATOM     21  O   UNL     1      20.508  -4.463  11.878  1.00  0.00    -0.508 OA
ATOM     22  H   UNL     1      20.626  -3.485  12.112  1.00  0.00     0.293 HD
ENDBRANCH  18  21
ENDBRANCH  11  13
ENDBRANCH   2  11
TORSDOF 6
ENDMDL
MODEL 5
REMARK VINA RESULT:    -4.987      3.072      7.337
REMARK INTER + INTRA:          -6.753
REMARK INTER:                  -6.252
REMARK INTRA:                  -0.501
REMARK UNBOUND:                -0.454
REMARK SMILES O=C(C=Cc1ccc(O)cc1)c1ccc(O)cc1O
REMARK SMILES IDX 4 1 3 2 5 3 6 4 7 5 8 6 11 7 10 8 9 9 2 11 1 12 12 13 18 14
REMARK SMILES IDX 13 15 17 16 14 17 15 18 19 19 16 21
REMARK H PARENT 9 10 19 20 16 22
REMARK Flexibility Score: inf
ROOT
ATOM      1  C   UNL     1      14.653  -8.857  12.921  1.00  0.00     0.012 C 
ATOM      2  C   UNL     1      14.128  -7.624  12.993  1.00  0.00     0.053 C 
ENDROOT
BRANCH   1   3
ATOM      3  C   UNL     1      13.858 -10.079  12.648  1.00  0.00    -0.025 A 
ATOM      4  C   UNL     1      14.535 -11.246  12.256  1.00  0.00     0.012 A 
ATOM      5  C   UNL     1      13.830 -12.424  11.995  1.00  0.00     0.047 A 
ATOM      6  C   UNL     1      12.437 -12.456  12.132  1.00  0.00     0.115 A 
ATOM      7  C   UNL     1      12.456 -10.124  12.797  1.00  0.00     0.012 A 
ATOM      8  C   UNL     1      11.755 -11.305  12.536  1.00  0.00     0.047 A 
BRANCH   6   9
ATOM      9  O   UNL     1      11.723 -13.625  11.875  1.00  0.00    -0.508 OA
ATOM     10  H   UNL     1      11.226 -13.760  11.002  1.00  0.00     0.293 HD
ENDBRANCH   6   9
ENDBRANCH   1   3
BRANCH   2  11
ATOM     11  C   UNL     1      14.944  -6.421  13.267  1.00  0.00     0.189 C 
ATOM     12  O   UNL     1      15.135  -5.604  12.328  1.00  0.00    -0.289 OA
BRANCH  11  13
ATOM     13  C   UNL     1      15.536  -6.133  14.594  1.00  0.00     0.064 A 
ATOM     14  C   UNL     1      14.761  -5.601  15.646  1.00  0.00     0.130 A 
ATOM     15  C   UNL     1      16.888  -6.437  14.821  1.00  0.00     0.020 A 
ATOM     16  C   UNL     1      15.358  -5.340  16.888  1.00  0.00     0.093 A 
ATOM     17  C   UNL     1      17.473  -6.180  16.063  1.00  0.00     0.047 A 
ATOM     18  C   UNL     1      16.714  -5.628  17.097  1.00  0.00     0.119 A 
BRANCH  14  19
ATOM     19  O   UNL     1      13.402  -5.349  15.463  1.00  0.00    -0.507 OA
ATOM     20  H   UNL     1      12.874  -4.781  16.115  1.00  0.00     0.293 HD
ENDBRANCH  14  19
BRANCH  18  21
ATOM     21  O   UNL     1      17.311  -5.373  18.330  1.00  0.00    -0.508 OA
ATOM     22  H   UNL     1      17.623  -6.124  18.934  1.00  0.00     0.293 HD
ENDBRANCH  18  21
ENDBRANCH  11  13
ENDBRANCH   2  11
TORSDOF 6
ENDMDL
MODEL 6
REMARK VINA RESULT:    -4.952      3.964      4.865
REMARK INTER + INTRA:          -6.710
REMARK INTER:                  -6.198
REMARK INTRA:                  -0.512
REMARK UNBOUND:                -0.454
REMARK SMILES O=C(C=Cc1ccc(O)cc1)c1ccc(O)cc1O
REMARK SMILES IDX 4 1 3 2 5 3 6 4 7 5 8 6 11 7 10 8 9 9 2 11 1 12 12 13 18 14
REMARK SMILES IDX 13 15 17 16 14 17 15 18 19 19 16 21
REMARK H PARENT 9 10 19 20 16 22
REMARK Flexibility Score: inf
ROOT
ATOM      1  C   UNL     1      15.807  -6.433  14.739  1.00  0.00     0.012 C 
ATOM      2  C   UNL     1      16.799  -7.152  14.191  1.00  0.00     0.053 C 
ENDROOT
BRANCH   1   3
ATOM      3  C   UNL     1      15.879  -5.817  16.087  1.00  0.00    -0.025 A 
ATOM      4  C   UNL     1      14.781  -5.067  16.541  1.00  0.00     0.012 A 
ATOM      5  C   UNL     1      14.800  -4.473  17.806  1.00  0.00     0.047 A 
ATOM      6  C   UNL     1      15.913  -4.630  18.641  1.00  0.00     0.115 A 
ATOM      7  C   UNL     1      16.990  -5.981  16.940  1.00  0.00     0.012 A 
ATOM      8  C   UNL     1      17.004  -5.386  18.205  1.00  0.00     0.047 A 
BRANCH   6   9
ATOM      9  O   UNL     1      15.942  -4.043  19.904  1.00  0.00    -0.508 OA
ATOM     10  H   UNL     1      16.818  -3.850  20.378  1.00  0.00     0.293 HD
ENDBRANCH   6   9
ENDBRANCH   1   3
BRANCH   2  11
ATOM     11  C   UNL     1      16.701  -7.756  12.845  1.00  0.00     0.189 C 
ATOM     12  O   UNL     1      17.211  -7.135  11.875  1.00  0.00    -0.289 OA
BRANCH  11  13
ATOM     13  C   UNL     1      16.040  -9.056  12.591  1.00  0.00     0.064 A 
ATOM     14  C   UNL     1      16.758 -10.270  12.646  1.00  0.00     0.130 A 
ATOM     15  C   UNL     1      14.660  -9.085  12.332  1.00  0.00     0.020 A 
ATOM     16  C   UNL     1      16.097 -11.482  12.399  1.00  0.00     0.093 A 
ATOM     17  C   UNL     1      14.009 -10.298  12.092  1.00  0.00     0.047 A 
ATOM     18  C   UNL     1      14.724 -11.497  12.120  1.00  0.00     0.119 A 
BRANCH  14  19
ATOM     19  O   UNL     1      18.116 -10.272  12.963  1.00  0.00    -0.507 OA
ATOM     20  H   UNL     1      18.615 -11.132  13.161  1.00  0.00     0.293 HD
ENDBRANCH  14  19
BRANCH  18  21
ATOM     21  O   UNL     1      14.063 -12.699  11.875  1.00  0.00    -0.508 OA
ATOM     22  H   UNL     1      13.145 -12.887  12.260  1.00  0.00     0.293 HD
ENDBRANCH  18  21
ENDBRANCH  11  13
ENDBRANCH   2  11
TORSDOF 6
ENDMDL
MODEL 7
REMARK VINA RESULT:    -4.755      1.759      7.339
REMARK INTER + INTRA:          -6.461
REMARK INTER:                  -5.960
REMARK INTRA:                  -0.501
REMARK UNBOUND:                -0.454
REMARK SMILES O=C(C=Cc1ccc(O)cc1)c1ccc(O)cc1O
REMARK SMILES IDX 4 1 3 2 5 3 6 4 7 5 8 6 11 7 10 8 9 9 2 11 1 12 12 13 18 14
REMARK SMILES IDX 13 15 17 16 14 17 15 18 19 19 16 21
REMARK H PARENT 9 10 19 20 16 22
REMARK Flexibility Score: inf
ROOT
ATOM      1  C   UNL     1      14.934  -8.581  12.552  1.00  0.00     0.012 C 
ATOM      2  C   UNL     1      14.133  -7.654  13.101  1.00  0.00     0.053 C 
ENDROOT
BRANCH   1   3
ATOM      3  C   UNL     1      14.630 -10.033  12.539  1.00  0.00    -0.025 A 
ATOM      4  C   UNL     1      13.308 -10.444  12.783  1.00  0.00     0.012 A 
ATOM      5  C   UNL     1      12.971 -11.799  12.773  1.00  0.00     0.047 A 
ATOM      6  C   UNL     1      13.949 -12.766  12.508  1.00  0.00     0.115 A 
ATOM      7  C   UNL     1      15.605 -11.013  12.258  1.00  0.00     0.012 A 
ATOM      8  C   UNL     1      15.263 -12.368  12.249  1.00  0.00     0.047 A 
BRANCH   6   9
ATOM      9  O   UNL     1      13.625 -14.121  12.495  1.00  0.00    -0.508 OA
ATOM     10  H   UNL     1      13.047 -14.534  13.218  1.00  0.00     0.293 HD
ENDBRANCH   6   9
ENDBRANCH   1   3
BRANCH   2  11
ATOM     11  C   UNL     1      14.461  -6.212  13.101  1.00  0.00     0.189 C 
ATOM     12  O   UNL     1      13.511  -5.386  13.123  1.00  0.00    -0.289 OA
BRANCH  11  13
ATOM     13  C   UNL     1      15.851  -5.701  13.083  1.00  0.00     0.064 A 
ATOM     14  C   UNL     1      16.710  -5.868  14.190  1.00  0.00     0.130 A 
ATOM     15  C   UNL     1      16.336  -5.074  11.924  1.00  0.00     0.020 A 
ATOM     16  C   UNL     1      18.020  -5.368  14.136  1.00  0.00     0.093 A 
ATOM     17  C   UNL     1      17.644  -4.585  11.878  1.00  0.00     0.047 A 
ATOM     18  C   UNL     1      18.487  -4.725  12.982  1.00  0.00     0.119 A 
BRANCH  14  19
ATOM     19  O   UNL     1      16.270  -6.542  15.329  1.00  0.00    -0.507 OA
ATOM     20  H   UNL     1      15.493  -7.191  15.295  1.00  0.00     0.293 HD
ENDBRANCH  14  19
BRANCH  18  21
ATOM     21  O   UNL     1      19.788  -4.229  12.923  1.00  0.00    -0.508 OA
ATOM     22  H   UNL     1      20.056  -3.523  12.248  1.00  0.00     0.293 HD
ENDBRANCH  18  21
ENDBRANCH  11  13
ENDBRANCH   2  11
TORSDOF 6
ENDMDL
MODEL 8
REMARK VINA RESULT:    -4.530      3.091      7.486
REMARK INTER + INTRA:          -6.177
REMARK INTER:                  -5.556
REMARK INTRA:                  -0.620
REMARK UNBOUND:                -0.454
REMARK SMILES O=C(C=Cc1ccc(O)cc1)c1ccc(O)cc1O
REMARK SMILES IDX 4 1 3 2 5 3 6 4 7 5 8 6 11 7 10 8 9 9 2 11 1 12 12 13 18 14
REMARK SMILES IDX 13 15 17 16 14 17 15 18 19 19 16 21
REMARK H PARENT 9 10 19 20 16 22
REMARK Flexibility Score: inf
ROOT
ATOM      1  C   UNL     1      14.685  -8.923  12.983  1.00  0.00     0.012 C 
ATOM      2  C   UNL     1      14.233  -7.663  12.883  1.00  0.00     0.053 C 
ENDROOT
BRANCH   1   3
ATOM      3  C   UNL     1      13.862 -10.122  12.693  1.00  0.00    -0.025 A 
ATOM      4  C   UNL     1      14.514 -11.308  12.314  1.00  0.00     0.012 A 
ATOM      5  C   UNL     1      13.782 -12.466  12.038  1.00  0.00     0.047 A 
ATOM      6  C   UNL     1      12.386 -12.459  12.147  1.00  0.00     0.115 A 
ATOM      7  C   UNL     1      12.457 -10.129  12.814  1.00  0.00     0.012 A 
ATOM      8  C   UNL     1      11.728 -11.290  12.538  1.00  0.00     0.047 A 
BRANCH   6   9
ATOM      9  O   UNL     1      11.645 -13.607  11.875  1.00  0.00    -0.508 OA
ATOM     10  H   UNL     1      12.086 -14.518  11.808  1.00  0.00     0.293 HD
ENDBRANCH   6   9
ENDBRANCH   1   3
BRANCH   2  11
ATOM     11  C   UNL     1      15.075  -6.485  13.179  1.00  0.00     0.189 C 
ATOM     12  O   UNL     1      15.372  -5.712  12.229  1.00  0.00    -0.289 OA
BRANCH  11  13
ATOM     13  C   UNL     1      15.575  -6.170  14.537  1.00  0.00     0.064 A 
ATOM     14  C   UNL     1      16.884  -6.511  14.937  1.00  0.00     0.130 A 
ATOM     15  C   UNL     1      14.741  -5.478  15.431  1.00  0.00     0.020 A 
ATOM     16  C   UNL     1      17.321  -6.197  16.232  1.00  0.00     0.093 A 
ATOM     17  C   UNL     1      15.187  -5.164  16.717  1.00  0.00     0.047 A 
ATOM     18  C   UNL     1      16.474  -5.526  17.123  1.00  0.00     0.119 A 
BRANCH  14  19
ATOM     19  O   UNL     1      17.751  -7.143  14.045  1.00  0.00    -0.507 OA
ATOM     20  H   UNL     1      17.530  -8.044  13.637  1.00  0.00     0.293 HD
ENDBRANCH  14  19
BRANCH  18  21
ATOM     21  O   UNL     1      16.904  -5.210  18.410  1.00  0.00    -0.508 OA
ATOM     22  H   UNL     1      17.378  -5.889  18.993  1.00  0.00     0.293 HD
ENDBRANCH  18  21
ENDBRANCH  11  13
ENDBRANCH   2  11
TORSDOF 6
ENDMDL
MODEL 9
REMARK VINA RESULT:    -4.475      1.977      7.687
REMARK INTER + INTRA:          -6.107
REMARK INTER:                  -6.229
REMARK INTRA:                   0.123
REMARK UNBOUND:                -0.454
REMARK SMILES O=C(C=Cc1ccc(O)cc1)c1ccc(O)cc1O
REMARK SMILES IDX 4 1 3 2 5 3 6 4 7 5 8 6 11 7 10 8 9 9 2 11 1 12 12 13 18 14
REMARK SMILES IDX 13 15 17 16 14 17 15 18 19 19 16 21
REMARK H PARENT 9 10 19 20 16 22
REMARK Flexibility Score: inf
ROOT
ATOM      1  C   UNL     1      15.123 -10.969  12.319  1.00  0.00     0.012 C 
ATOM      2  C   UNL     1      15.496  -9.703  12.561  1.00  0.00     0.053 C 
ENDROOT
BRANCH   1   3
ATOM      3  C   UNL     1      13.711 -11.405  12.189  1.00  0.00    -0.025 A 
ATOM      4  C   UNL     1      13.418 -12.774  12.312  1.00  0.00     0.012 A 
ATOM      5  C   UNL     1      12.102 -13.232  12.205  1.00  0.00     0.047 A 
ATOM      6  C   UNL     1      11.057 -12.326  11.983  1.00  0.00     0.115 A 
ATOM      7  C   UNL     1      12.651 -10.499  11.981  1.00  0.00     0.012 A 
ATOM      8  C   UNL     1      11.336 -10.961  11.875  1.00  0.00     0.047 A 
BRANCH   6   9
ATOM      9  O   UNL     1       9.741 -12.771  11.875  1.00  0.00    -0.508 OA
ATOM     10  H   UNL     1       8.976 -12.126  11.717  1.00  0.00     0.293 HD
ENDBRANCH   6   9
ENDBRANCH   1   3
BRANCH   2  11
ATOM     11  C   UNL     1      16.911  -9.295  12.686  1.00  0.00     0.189 C 
ATOM     12  O   UNL     1      17.782 -10.196  12.812  1.00  0.00    -0.289 OA
BRANCH  11  13
ATOM     13  C   UNL     1      17.348  -7.880  12.662  1.00  0.00     0.064 A 
ATOM     14  C   UNL     1      16.533  -6.849  13.175  1.00  0.00     0.130 A 
ATOM     15  C   UNL     1      18.620  -7.564  12.157  1.00  0.00     0.020 A 
ATOM     16  C   UNL     1      16.982  -5.520  13.134  1.00  0.00     0.093 A 
ATOM     17  C   UNL     1      19.061  -6.239  12.125  1.00  0.00     0.047 A 
ATOM     18  C   UNL     1      18.243  -5.214  12.608  1.00  0.00     0.119 A 
BRANCH  14  19
ATOM     19  O   UNL     1      15.292  -7.146  13.739  1.00  0.00    -0.507 OA
ATOM     20  H   UNL     1      15.174  -7.912  14.391  1.00  0.00     0.293 HD
ENDBRANCH  14  19
BRANCH  18  21
ATOM     21  O   UNL     1      18.694  -3.896  12.566  1.00  0.00    -0.508 OA
ATOM     22  H   UNL     1      18.090  -3.121  12.810  1.00  0.00     0.293 HD
ENDBRANCH  18  21
ENDBRANCH  11  13
ENDBRANCH   2  11
TORSDOF 6
ENDMDL
