MODEL 1
REMARK VINA RESULT:    -3.648      0.000      0.000
REMARK INTER + INTRA:          -4.892
REMARK INTER:                  -5.141
REMARK INTRA:                   0.249
REMARK UNBOUND:                 0.249
REMARK SMILES CC1=CCC(=C(C)C)C(=O)CC(C)=CCC1
REMARK SMILES IDX 12 1 14 2 13 3 15 4 16 5 2 6 1 7 3 8 11 10 9 11 10 12 5 13
REMARK SMILES IDX 6 14 7 15 8 16 4 17
REMARK H PARENT
REMARK Flexibility Score: 60.00
ROOT
ATOM      1  C   UNL     1      16.128  -6.481  16.318  1.00  0.00    -0.070 C 
ATOM      2  C   UNL     1      17.121  -7.394  16.411  1.00  0.00    -0.027 C 
ATOM      3  C   UNL     1      16.510  -5.048  16.041  1.00  0.00     0.039 C 
ENDROOT
BRANCH   2   4
ATOM      4  C   UNL     1      16.934  -8.885  16.587  1.00  0.00     0.032 C 
BRANCH   4   5
ATOM      5  C   UNL     1      16.546  -9.325  18.013  1.00  0.00     0.034 C 
BRANCH   5   6
ATOM      6  C   UNL     1      17.138  -8.439  19.095  1.00  0.00    -0.077 C 
ATOM      7  C   UNL     1      18.615  -8.565  19.374  1.00  0.00     0.039 C 
ATOM      8  C   UNL     1      16.443  -7.495  19.776  1.00  0.00    -0.023 CG0
ATOM      9  G   UNL     1      14.958  -7.204  19.677  1.00  0.00     0.000 G0
ENDBRANCH   5   6
ENDBRANCH   4   5
ENDBRANCH   2   4
BRANCH   1  10
ATOM     10  C   UNL     1      14.657  -6.841  16.387  1.00  0.00     0.111 C 
BRANCH  10  11
ATOM     11  C   UNL     1      13.972  -6.160  17.542  1.00  0.00     0.163 C 
ATOM     12  O   UNL     1      12.771  -5.803  17.393  1.00  0.00    -0.294 OA
BRANCH  11  13
ATOM     13  C   UNL     1      14.640  -5.955  18.861  1.00  0.00    -0.002 C 
ATOM     14  C   UNL     1      14.883  -4.694  19.332  1.00  0.00    -0.069 C 
ATOM     15  C   UNL     1      14.632  -3.474  18.474  1.00  0.00     0.039 C 
ATOM     16  C   UNL     1      15.412  -4.450  20.729  1.00  0.00     0.039 C 
BRANCH  13  17
ATOM     17  C   UNL     1      14.943  -7.194  19.688  1.00  0.00     0.066 CG0
ATOM     18  G   UNL     1      16.430  -7.480  19.770  1.00  0.00     0.000 G0
ENDBRANCH  13  17
ENDBRANCH  11  13
ENDBRANCH  10  11
ENDBRANCH   1  10
TORSDOF 0
ENDMDL
MODEL 2
REMARK VINA RESULT:    -3.617      2.123      3.963
REMARK INTER + INTRA:          -4.847
REMARK INTER:                  -5.000
REMARK INTRA:                   0.153
REMARK UNBOUND:                 0.249
REMARK SMILES CC1=CCC(=C(C)C)C(=O)CC(C)=CCC1
REMARK SMILES IDX 12 1 14 2 13 3 15 4 16 5 2 6 1 7 3 8 11 10 9 11 10 12 5 13
REMARK SMILES IDX 6 14 7 15 8 16 4 17
REMARK H PARENT
REMARK Flexibility Score: 60.00
ROOT
ATOM      1  C   UNL     1      15.069  -5.502  17.008  1.00  0.00    -0.070 C 
ATOM      2  C   UNL     1      15.454  -4.546  17.883  1.00  0.00    -0.027 C 
ATOM      3  C   UNL     1      15.871  -5.663  15.740  1.00  0.00     0.039 C 
ENDROOT
BRANCH   2   4
ATOM      4  C   UNL     1      14.840  -4.297  19.244  1.00  0.00     0.032 C 
BRANCH   4   5
ATOM      5  C   UNL     1      15.514  -5.056  20.406  1.00  0.00     0.034 C 
BRANCH   5   6
ATOM      6  C   UNL     1      14.520  -5.636  21.397  1.00  0.00    -0.077 C 
ATOM      7  C   UNL     1      13.890  -4.693  22.392  1.00  0.00     0.039 C 
ATOM      8  C   UNL     1      14.110  -6.928  21.401  1.00  0.00    -0.023 CG0
ATOM      9  G   UNL     1      14.614  -8.050  20.514  1.00  0.00     0.000 G0
ENDBRANCH   5   6
ENDBRANCH   4   5
ENDBRANCH   2   4
BRANCH   1  10
ATOM     10  C   UNL     1      13.936  -6.471  17.280  1.00  0.00     0.111 C 
BRANCH  10  11
ATOM     11  C   UNL     1      14.425  -7.716  17.972  1.00  0.00     0.163 C 
ATOM     12  O   UNL     1      15.428  -8.310  17.489  1.00  0.00    -0.294 OA
BRANCH  11  13
ATOM     13  C   UNL     1      13.808  -8.227  19.232  1.00  0.00    -0.002 C 
ATOM     14  C   UNL     1      12.607  -8.882  19.206  1.00  0.00    -0.069 C 
ATOM     15  C   UNL     1      11.792  -8.974  17.935  1.00  0.00     0.039 C 
ATOM     16  C   UNL     1      12.032  -9.548  20.436  1.00  0.00     0.039 C 
BRANCH  13  17
ATOM     17  C   UNL     1      14.611  -8.072  20.513  1.00  0.00     0.066 CG0
ATOM     18  G   UNL     1      14.097  -6.940  21.381  1.00  0.00     0.000 G0
ENDBRANCH  13  17
ENDBRANCH  11  13
ENDBRANCH  10  11
ENDBRANCH   1  10
TORSDOF 0
ENDMDL
MODEL 3
REMARK VINA RESULT:    -3.584     12.053     14.252
REMARK INTER + INTRA:          -4.801
REMARK INTER:                  -6.523
REMARK INTRA:                   1.722
REMARK UNBOUND:                 0.249
REMARK SMILES CC1=CCC(=C(C)C)C(=O)CC(C)=CCC1
REMARK SMILES IDX 12 1 14 2 13 3 15 4 16 5 2 6 1 7 3 8 11 10 9 11 10 12 5 13
REMARK SMILES IDX 6 14 7 15 8 16 4 17
REMARK H PARENT
REMARK Flexibility Score: 60.00
ROOT
ATOM      1  C   UNL     1      25.511  -2.689   6.142  1.00  0.00    -0.070 C 
ATOM      2  C   UNL     1      24.973  -1.482   6.424  1.00  0.00    -0.027 C 
ATOM      3  C   UNL     1      27.010  -2.778   5.995  1.00  0.00     0.039 C 
ENDROOT
BRANCH   2   4
ATOM      4  C   UNL     1      23.510  -1.211   6.703  1.00  0.00     0.032 C 
BRANCH   4   5
ATOM      5  C   UNL     1      22.549  -2.336   6.268  1.00  0.00     0.034 C 
BRANCH   5   6
ATOM      6  C   UNL     1      21.601  -2.774   7.371  1.00  0.00    -0.077 C 
ATOM      7  C   UNL     1      20.124  -2.562   7.151  1.00  0.00     0.039 C 
ATOM      8  C   UNL     1      21.989  -3.404   8.507  1.00  0.00    -0.023 CG0
ATOM      9  G   UNL     1      23.409  -3.704   8.947  1.00  0.00     0.000 G0
ENDBRANCH   5   6
ENDBRANCH   4   5
ENDBRANCH   2   4
BRANCH   1  10
ATOM     10  C   UNL     1      24.696  -3.964   6.057  1.00  0.00     0.111 C 
BRANCH  10  11
ATOM     11  C   UNL     1      24.940  -4.859   7.244  1.00  0.00     0.163 C 
ATOM     12  O   UNL     1      26.042  -5.469   7.311  1.00  0.00    -0.294 OA
BRANCH  11  13
ATOM     13  C   UNL     1      23.957  -4.995   8.359  1.00  0.00    -0.002 C 
ATOM     14  C   UNL     1      23.646  -6.226   8.870  1.00  0.00    -0.069 C 
ATOM     15  C   UNL     1      24.159  -7.495   8.226  1.00  0.00     0.039 C 
ATOM     16  C   UNL     1      22.779  -6.386  10.099  1.00  0.00     0.039 C 
BRANCH  13  17
ATOM     17  C   UNL     1      23.402  -3.714   8.958  1.00  0.00     0.066 CG0
ATOM     18  G   UNL     1      21.985  -3.431   8.497  1.00  0.00     0.000 G0
ENDBRANCH  13  17
ENDBRANCH  11  13
ENDBRANCH  10  11
ENDBRANCH   1  10
TORSDOF 0
ENDMDL
MODEL 4
REMARK VINA RESULT:    -3.513      1.861      2.452
REMARK INTER + INTRA:          -4.701
REMARK INTER:                  -5.100
REMARK INTRA:                   0.399
REMARK UNBOUND:                 0.249
REMARK SMILES CC1=CCC(=C(C)C)C(=O)CC(C)=CCC1
REMARK SMILES IDX 12 1 14 2 13 3 15 4 16 5 2 6 1 7 3 8 11 10 9 11 10 12 5 13
REMARK SMILES IDX 6 14 7 15 8 16 4 17
REMARK H PARENT
REMARK Flexibility Score: 60.00
ROOT
ATOM      1  C   UNL     1      14.025  -6.675  16.854  1.00  0.00    -0.070 C 
ATOM      2  C   UNL     1      13.629  -7.949  17.073  1.00  0.00    -0.027 C 
ATOM      3  C   UNL     1      14.652  -6.350  15.521  1.00  0.00     0.039 C 
ENDROOT
BRANCH   2   4
ATOM      4  C   UNL     1      12.896  -8.447  18.300  1.00  0.00     0.032 C 
BRANCH   4   5
ATOM      5  C   UNL     1      13.633  -9.544  19.094  1.00  0.00     0.034 C 
BRANCH   5   6
ATOM      6  C   UNL     1      15.046  -9.151  19.488  1.00  0.00    -0.077 C 
ATOM      7  C   UNL     1      16.181  -9.996  18.964  1.00  0.00     0.039 C 
ATOM      8  C   UNL     1      15.359  -8.053  20.219  1.00  0.00    -0.023 CG0
ATOM      9  G   UNL     1      14.392  -7.076  20.860  1.00  0.00     0.000 G0
ENDBRANCH   5   6
ENDBRANCH   4   5
ENDBRANCH   2   4
BRANCH   1  10
ATOM     10  C   UNL     1      13.786  -5.549  17.840  1.00  0.00     0.111 C 
BRANCH  10  11
ATOM     11  C   UNL     1      14.866  -5.489  18.888  1.00  0.00     0.163 C 
ATOM     12  O   UNL     1      16.045  -5.245  18.512  1.00  0.00    -0.294 OA
BRANCH  11  13
ATOM     13  C   UNL     1      14.578  -5.645  20.344  1.00  0.00    -0.002 C 
ATOM     14  C   UNL     1      14.392  -4.549  21.140  1.00  0.00    -0.069 C 
ATOM     15  C   UNL     1      14.625  -3.150  20.616  1.00  0.00     0.039 C 
ATOM     16  C   UNL     1      13.944  -4.672  22.580  1.00  0.00     0.039 C 
BRANCH  13  17
ATOM     17  C   UNL     1      14.407  -7.060  20.872  1.00  0.00     0.066 CG0
ATOM     18  G   UNL     1      15.368  -8.037  20.222  1.00  0.00     0.000 G0
ENDBRANCH  13  17
ENDBRANCH  11  13
ENDBRANCH  10  11
ENDBRANCH   1  10
TORSDOF 0
ENDMDL
MODEL 5
REMARK VINA RESULT:    -3.489      2.124      4.021
REMARK INTER + INTRA:          -4.667
REMARK INTER:                  -4.840
REMARK INTRA:                   0.173
REMARK UNBOUND:                 0.249
REMARK SMILES CC1=CCC(=C(C)C)C(=O)CC(C)=CCC1
REMARK SMILES IDX 12 1 14 2 13 3 15 4 16 5 2 6 1 7 3 8 11 10 9 11 10 12 5 13
REMARK SMILES IDX 6 14 7 15 8 16 4 17
REMARK H PARENT
REMARK Flexibility Score: 60.00
ROOT
ATOM      1  C   UNL     1      15.858  -9.768  21.034  1.00  0.00    -0.070 C 
ATOM      2  C   UNL     1      17.207  -9.685  21.072  1.00  0.00    -0.027 C 
ATOM      3  C   UNL     1      15.125  -9.945  22.341  1.00  0.00     0.039 C 
ENDROOT
BRANCH   2   4
ATOM      4  C   UNL     1      18.107  -9.411  19.887  1.00  0.00     0.032 C 
BRANCH   4   5
ATOM      5  C   UNL     1      18.434  -7.922  19.652  1.00  0.00     0.034 C 
BRANCH   5   6
ATOM      6  C   UNL     1      18.345  -7.513  18.192  1.00  0.00    -0.077 C 
ATOM      7  C   UNL     1      19.490  -7.894  17.287  1.00  0.00     0.039 C 
ATOM      8  C   UNL     1      17.276  -6.893  17.635  1.00  0.00    -0.023 CG0
ATOM      9  G   UNL     1      16.030  -6.402  18.347  1.00  0.00     0.000 G0
ENDBRANCH   5   6
ENDBRANCH   4   5
ENDBRANCH   2   4
BRANCH   1  10
ATOM     10  C   UNL     1      15.049  -9.600  19.764  1.00  0.00     0.111 C 
BRANCH  10  11
ATOM     11  C   UNL     1      14.605  -8.174  19.572  1.00  0.00     0.163 C 
ATOM     12  O   UNL     1      14.023  -7.599  20.532  1.00  0.00    -0.294 OA
BRANCH  11  13
ATOM     13  C   UNL     1      14.886  -7.409  18.321  1.00  0.00    -0.002 C 
ATOM     14  C   UNL     1      14.090  -7.558  17.219  1.00  0.00    -0.069 C 
ATOM     15  C   UNL     1      13.004  -8.609  17.172  1.00  0.00     0.039 C 
ATOM     16  C   UNL     1      14.250  -6.685  15.993  1.00  0.00     0.039 C 
BRANCH  13  17
ATOM     17  C   UNL     1      16.022  -6.400  18.363  1.00  0.00     0.066 CG0
ATOM     18  G   UNL     1      17.262  -6.900  17.647  1.00  0.00     0.000 G0
ENDBRANCH  13  17
ENDBRANCH  11  13
ENDBRANCH  10  11
ENDBRANCH   1  10
TORSDOF 0
ENDMDL
MODEL 6
REMARK VINA RESULT:    -3.257      1.471      2.090
REMARK INTER + INTRA:          -4.340
REMARK INTER:                  -5.218
REMARK INTRA:                   0.877
REMARK UNBOUND:                 0.249
REMARK SMILES CC1=CCC(=C(C)C)C(=O)CC(C)=CCC1
REMARK SMILES IDX 12 1 14 2 13 3 15 4 16 5 2 6 1 7 3 8 11 10 9 11 10 12 5 13
REMARK SMILES IDX 6 14 7 15 8 16 4 17
REMARK H PARENT
REMARK Flexibility Score: 60.00
ROOT
ATOM      1  C   UNL     1      14.285  -7.978  17.545  1.00  0.00    -0.070 C 
ATOM      2  C   UNL     1      14.904  -9.131  17.885  1.00  0.00    -0.027 C 
ATOM      3  C   UNL     1      13.001  -7.630  18.256  1.00  0.00     0.039 C 
ENDROOT
BRANCH   2   4
ATOM      4  C   UNL     1      16.242  -9.602  17.359  1.00  0.00     0.032 C 
BRANCH   4   5
ATOM      5  C   UNL     1      17.387  -9.585  18.392  1.00  0.00     0.034 C 
BRANCH   5   6
ATOM      6  C   UNL     1      18.225  -8.319  18.335  1.00  0.00    -0.077 C 
ATOM      7  C   UNL     1      19.575  -8.402  17.667  1.00  0.00     0.039 C 
ATOM      8  C   UNL     1      17.811  -7.107  18.779  1.00  0.00    -0.023 CG0
ATOM      9  G   UNL     1      16.512  -6.791  19.495  1.00  0.00     0.000 G0
ENDBRANCH   5   6
ENDBRANCH   4   5
ENDBRANCH   2   4
BRANCH   1  10
ATOM     10  C   UNL     1      14.863  -6.984  16.558  1.00  0.00     0.111 C 
BRANCH  10  11
ATOM     11  C   UNL     1      15.620  -5.885  17.256  1.00  0.00     0.163 C 
ATOM     12  O   UNL     1      16.189  -5.012  16.545  1.00  0.00    -0.294 OA
BRANCH  11  13
ATOM     13  C   UNL     1      15.666  -5.763  18.743  1.00  0.00    -0.002 C 
ATOM     14  C   UNL     1      14.904  -4.830  19.391  1.00  0.00    -0.069 C 
ATOM     15  C   UNL     1      14.116  -3.791  18.624  1.00  0.00     0.039 C 
ATOM     16  C   UNL     1      14.805  -4.785  20.900  1.00  0.00     0.039 C 
BRANCH  13  17
ATOM     17  C   UNL     1      16.511  -6.775  19.499  1.00  0.00     0.066 CG0
ATOM     18  G   UNL     1      17.801  -7.103  18.773  1.00  0.00     0.000 G0
ENDBRANCH  13  17
ENDBRANCH  11  13
ENDBRANCH  10  11
ENDBRANCH   1  10
TORSDOF 0
ENDMDL
MODEL 7
REMARK VINA RESULT:    -3.214      1.970      4.315
REMARK INTER + INTRA:          -4.280
REMARK INTER:                  -4.686
REMARK INTRA:                   0.406
REMARK UNBOUND:                 0.249
REMARK SMILES CC1=CCC(=C(C)C)C(=O)CC(C)=CCC1
REMARK SMILES IDX 12 1 14 2 13 3 15 4 16 5 2 6 1 7 3 8 11 10 9 11 10 12 5 13
REMARK SMILES IDX 6 14 7 15 8 16 4 17
REMARK H PARENT
REMARK Flexibility Score: 60.00
ROOT
ATOM      1  C   UNL     1      15.355  -5.238  18.965  1.00  0.00    -0.070 C 
ATOM      2  C   UNL     1      14.425  -5.874  19.712  1.00  0.00    -0.027 C 
ATOM      3  C   UNL     1      15.000  -3.888  18.394  1.00  0.00     0.039 C 
ENDROOT
BRANCH   2   4
ATOM      4  C   UNL     1      14.626  -7.182  20.445  1.00  0.00     0.032 C 
BRANCH   4   5
ATOM      5  C   UNL     1      13.717  -8.335  19.974  1.00  0.00     0.034 C 
BRANCH   5   6
ATOM      6  C   UNL     1      13.699  -8.504  18.464  1.00  0.00    -0.077 C 
ATOM      7  C   UNL     1      12.397  -8.252  17.747  1.00  0.00     0.039 C 
ATOM      8  C   UNL     1      14.790  -8.796  17.714  1.00  0.00    -0.023 CG0
ATOM      9  G   UNL     1      16.188  -9.105  18.216  1.00  0.00     0.000 G0
ENDBRANCH   5   6
ENDBRANCH   4   5
ENDBRANCH   2   4
BRANCH   1  10
ATOM     10  C   UNL     1      16.758  -5.771  18.752  1.00  0.00     0.111 C 
BRANCH  10  11
ATOM     11  C   UNL     1      16.828  -6.693  17.564  1.00  0.00     0.163 C 
ATOM     12  O   UNL     1      16.587  -6.211  16.423  1.00  0.00    -0.294 OA
BRANCH  11  13
ATOM     13  C   UNL     1      17.230  -8.126  17.685  1.00  0.00    -0.002 C 
ATOM     14  C   UNL     1      18.511  -8.517  17.408  1.00  0.00    -0.069 C 
ATOM     15  C   UNL     1      19.517  -7.551  16.822  1.00  0.00     0.039 C 
ATOM     16  C   UNL     1      18.991  -9.928  17.671  1.00  0.00     0.039 C 
BRANCH  13  17
ATOM     17  C   UNL     1      16.190  -9.098  18.216  1.00  0.00     0.066 CG0
ATOM     18  G   UNL     1      14.796  -8.785  17.706  1.00  0.00     0.000 G0
ENDBRANCH  13  17
ENDBRANCH  11  13
ENDBRANCH  10  11
ENDBRANCH   1  10
TORSDOF 0
ENDMDL
MODEL 8
REMARK VINA RESULT:    -3.211      1.737      2.638
REMARK INTER + INTRA:          -4.276
REMARK INTER:                  -4.802
REMARK INTRA:                   0.526
REMARK UNBOUND:                 0.249
REMARK SMILES CC1=CCC(=C(C)C)C(=O)CC(C)=CCC1
REMARK SMILES IDX 12 1 14 2 13 3 15 4 16 5 2 6 1 7 3 8 11 10 9 11 10 12 5 13
REMARK SMILES IDX 6 14 7 15 8 16 4 17
REMARK H PARENT
REMARK Flexibility Score: 60.00
ROOT
ATOM      1  C   UNL     1      16.277  -6.214  17.111  1.00  0.00    -0.070 C 
ATOM      2  C   UNL     1      16.274  -7.530  16.804  1.00  0.00    -0.027 C 
ATOM      3  C   UNL     1      16.044  -5.227  15.994  1.00  0.00     0.039 C 
ENDROOT
BRANCH   2   4
ATOM      4  C   UNL     1      16.392  -8.668  17.795  1.00  0.00     0.032 C 
BRANCH   4   5
ATOM      5  C   UNL     1      15.184  -9.626  17.828  1.00  0.00     0.034 C 
BRANCH   5   6
ATOM      6  C   UNL     1      13.860  -8.912  18.038  1.00  0.00    -0.077 C 
ATOM      7  C   UNL     1      12.771  -9.141  17.020  1.00  0.00     0.039 C 
ATOM      8  C   UNL     1      13.569  -8.140  19.114  1.00  0.00    -0.023 CG0
ATOM      9  G   UNL     1      14.505  -7.758  20.245  1.00  0.00     0.000 G0
ENDBRANCH   5   6
ENDBRANCH   4   5
ENDBRANCH   2   4
BRANCH   1  10
ATOM     10  C   UNL     1      16.411  -5.690  18.527  1.00  0.00     0.111 C 
BRANCH  10  11
ATOM     11  C   UNL     1      15.066  -5.474  19.169  1.00  0.00     0.163 C 
ATOM     12  O   UNL     1      14.273  -4.658  18.625  1.00  0.00    -0.294 OA
BRANCH  11  13
ATOM     13  C   UNL     1      14.624  -6.232  20.376  1.00  0.00    -0.002 C 
ATOM     14  C   UNL     1      14.261  -5.575  21.520  1.00  0.00    -0.069 C 
ATOM     15  C   UNL     1      14.443  -4.080  21.657  1.00  0.00     0.039 C 
ATOM     16  C   UNL     1      13.659  -6.301  22.703  1.00  0.00     0.039 C 
BRANCH  13  17
ATOM     17  C   UNL     1      14.504  -7.742  20.245  1.00  0.00     0.066 CG0
ATOM     18  G   UNL     1      13.563  -8.148  19.127  1.00  0.00     0.000 G0
ENDBRANCH  13  17
ENDBRANCH  11  13
ENDBRANCH  10  11
ENDBRANCH   1  10
TORSDOF 0
ENDMDL
MODEL 9
REMARK VINA RESULT:    -3.197      1.783      3.177
REMARK INTER + INTRA:          -4.255
REMARK INTER:                  -4.495
REMARK INTRA:                   0.239
REMARK UNBOUND:                 0.249
REMARK SMILES CC1=CCC(=C(C)C)C(=O)CC(C)=CCC1
REMARK SMILES IDX 12 1 14 2 13 3 15 4 16 5 2 6 1 7 3 8 11 10 9 11 10 12 5 13
REMARK SMILES IDX 6 14 7 15 8 16 4 17
REMARK H PARENT
REMARK Flexibility Score: 60.00
ROOT
ATOM      1  C   UNL     1      14.768  -5.884  18.440  1.00  0.00    -0.070 C 
ATOM      2  C   UNL     1      15.967  -5.504  17.944  1.00  0.00    -0.027 C 
ATOM      3  C   UNL     1      14.339  -5.312  19.768  1.00  0.00     0.039 C 
ENDROOT
BRANCH   2   4
ATOM      4  C   UNL     1      16.526  -5.891  16.592  1.00  0.00     0.032 C 
BRANCH   4   5
ATOM      5  C   UNL     1      16.806  -7.397  16.414  1.00  0.00     0.034 C 
BRANCH   5   6
ATOM      6  C   UNL     1      17.525  -8.016  17.600  1.00  0.00    -0.077 C 
ATOM      7  C   UNL     1      18.928  -7.547  17.893  1.00  0.00     0.039 C 
ATOM      8  C   UNL     1      16.964  -8.908  18.453  1.00  0.00    -0.023 CG0
ATOM      9  G   UNL     1      15.586  -9.531  18.348  1.00  0.00     0.000 G0
ENDBRANCH   5   6
ENDBRANCH   4   5
ENDBRANCH   2   4
BRANCH   1  10
ATOM     10  C   UNL     1      13.803  -6.778  17.688  1.00  0.00     0.111 C 
BRANCH  10  11
ATOM     11  C   UNL     1      13.488  -8.031  18.462  1.00  0.00     0.163 C 
ATOM     12  O   UNL     1      12.301  -8.456  18.446  1.00  0.00    -0.294 OA
BRANCH  11  13
ATOM     13  C   UNL     1      14.536  -8.810  19.185  1.00  0.00    -0.002 C 
ATOM     14  C   UNL     1      14.498  -8.935  20.547  1.00  0.00    -0.069 C 
ATOM     15  C   UNL     1      13.495  -8.166  21.377  1.00  0.00     0.039 C 
ATOM     16  C   UNL     1      15.450  -9.844  21.293  1.00  0.00     0.039 C 
BRANCH  13  17
ATOM     17  C   UNL     1      15.576  -9.528  18.341  1.00  0.00     0.066 CG0
ATOM     18  G   UNL     1      16.952  -8.903  18.468  1.00  0.00     0.000 G0
ENDBRANCH  13  17
ENDBRANCH  11  13
ENDBRANCH  10  11
ENDBRANCH   1  10
TORSDOF 0
ENDMDL
