MODEL 1
REMARK VINA RESULT:    -3.146      0.000      0.000
REMARK INTER + INTRA:          -4.670
REMARK INTER:                  -4.434
REMARK INTRA:                  -0.236
REMARK UNBOUND:                -0.236
REMARK SMILES CCCCCCCCC(=O)[O-]
REMARK SMILES IDX 6 1 7 2 8 3 9 4 10 5 11 6 5 7 4 8 3 9 2 10 1 11
REMARK H PARENT
REMARK Flexibility Score: inf
ROOT
ATOM      1  C   UNL     1       8.829 -16.664   6.461  1.00  0.00     0.000 C 
ENDROOT
BRANCH   1   2
ATOM      2  C   UNL     1       9.470 -17.125   5.144  1.00  0.00     0.006 C 
BRANCH   2   3
ATOM      3  C   UNL     1       8.848 -18.418   4.603  1.00  0.00     0.053 C 
BRANCH   3   4
ATOM      4  C   UNL     1       8.840 -18.409   3.107  1.00  0.00     0.041 C 
ATOM      5  O   UNL     1       8.840 -19.493   2.467  1.00  0.00    -0.550 OA
ATOM      6  O   UNL     1       8.884 -17.202   2.420  1.00  0.00    -0.550 OA
ENDBRANCH   3   4
ENDBRANCH   2   3
ENDBRANCH   1   2
BRANCH   1   7
ATOM      7  C   UNL     1       8.724 -15.135   6.566  1.00  0.00     0.000 C 
BRANCH   7   8
ATOM      8  C   UNL     1       7.464 -14.722   7.342  1.00  0.00    -0.000 C 
BRANCH   8   9
ATOM      9  C   UNL     1       6.711 -13.551   6.686  1.00  0.00    -0.000 C 
BRANCH   9  10
ATOM     10  C   UNL     1       5.203 -13.501   6.987  1.00  0.00    -0.003 C 
ATOM     11  C   UNL     1       4.654 -14.824   7.521  1.00  0.00     0.004 C 
ENDBRANCH   9  10
ENDBRANCH   8   9
ENDBRANCH   7   8
ENDBRANCH   1   7
TORSDOF 7
ENDMDL
MODEL 2
REMARK VINA RESULT:    -3.000     14.449     15.807
REMARK INTER + INTRA:          -4.464
REMARK INTER:                  -4.105
REMARK INTRA:                  -0.359
REMARK UNBOUND:                -0.236
REMARK SMILES CCCCCCCCC(=O)[O-]
REMARK SMILES IDX 6 1 7 2 8 3 9 4 10 5 11 6 5 7 4 8 3 9 2 10 1 11
REMARK H PARENT
REMARK Flexibility Score: inf
ROOT
ATOM      1  C   UNL     1      -4.889 -12.032  14.233  1.00  0.00     0.000 C 
ENDROOT
BRANCH   1   2
ATOM      2  C   UNL     1      -3.372 -12.034  14.474  1.00  0.00     0.006 C 
BRANCH   2   3
ATOM      3  C   UNL     1      -2.901 -10.829  15.299  1.00  0.00     0.053 C 
BRANCH   3   4
ATOM      4  C   UNL     1      -2.955  -9.580  14.478  1.00  0.00     0.041 C 
ATOM      5  O   UNL     1      -3.794  -8.681  14.748  1.00  0.00    -0.550 OA
ATOM      6  O   UNL     1      -2.112  -9.431  13.383  1.00  0.00    -0.550 OA
ENDBRANCH   3   4
ENDBRANCH   2   3
ENDBRANCH   1   2
BRANCH   1   7
ATOM      7  C   UNL     1      -5.401 -13.363  13.664  1.00  0.00     0.000 C 
BRANCH   7   8
ATOM      8  C   UNL     1      -4.245 -14.200  13.096  1.00  0.00    -0.000 C 
BRANCH   8   9
ATOM      9  C   UNL     1      -4.681 -15.123  11.944  1.00  0.00    -0.000 C 
BRANCH   9  10
ATOM     10  C   UNL     1      -5.579 -14.457  10.886  1.00  0.00    -0.003 C 
ATOM     11  C   UNL     1      -5.140 -14.759   9.453  1.00  0.00     0.004 C 
ENDBRANCH   9  10
ENDBRANCH   8   9
ENDBRANCH   7   8
ENDBRANCH   1   7
TORSDOF 7
ENDMDL
MODEL 3
REMARK VINA RESULT:    -2.988      5.585      6.717
REMARK INTER + INTRA:          -4.447
REMARK INTER:                  -3.633
REMARK INTRA:                  -0.815
REMARK UNBOUND:                -0.236
REMARK SMILES CCCCCCCCC(=O)[O-]
REMARK SMILES IDX 6 1 7 2 8 3 9 4 10 5 11 6 5 7 4 8 3 9 2 10 1 11
REMARK H PARENT
REMARK Flexibility Score: inf
ROOT
ATOM      1  C   UNL     1       1.735 -20.087   3.681  1.00  0.00     0.000 C 
ENDROOT
BRANCH   1   2
ATOM      2  C   UNL     1       1.655 -18.757   2.918  1.00  0.00     0.006 C 
BRANCH   2   3
ATOM      3  C   UNL     1       3.010 -18.043   2.827  1.00  0.00     0.053 C 
BRANCH   3   4
ATOM      4  C   UNL     1       4.007 -18.903   2.116  1.00  0.00     0.041 C 
ATOM      5  O   UNL     1       5.111 -19.172   2.657  1.00  0.00    -0.550 OA
ATOM      6  O   UNL     1       3.737 -19.366   0.834  1.00  0.00    -0.550 OA
ENDBRANCH   3   4
ENDBRANCH   2   3
ENDBRANCH   1   2
BRANCH   1   7
ATOM      7  C   UNL     1       0.836 -20.112   4.927  1.00  0.00     0.000 C 
BRANCH   7   8
ATOM      8  C   UNL     1       1.673 -20.028   6.211  1.00  0.00    -0.000 C 
BRANCH   8   9
ATOM      9  C   UNL     1       1.986 -18.580   6.631  1.00  0.00    -0.000 C 
BRANCH   9  10
ATOM     10  C   UNL     1       3.484 -18.247   6.740  1.00  0.00    -0.003 C 
ATOM     11  C   UNL     1       4.385 -19.347   6.177  1.00  0.00     0.004 C 
ENDBRANCH   9  10
ENDBRANCH   8   9
ENDBRANCH   7   8
ENDBRANCH   1   7
TORSDOF 7
ENDMDL
MODEL 4
REMARK VINA RESULT:    -2.988     13.070     15.461
REMARK INTER + INTRA:          -4.446
REMARK INTER:                  -4.192
REMARK INTRA:                  -0.255
REMARK UNBOUND:                -0.236
REMARK SMILES CCCCCCCCC(=O)[O-]
REMARK SMILES IDX 6 1 7 2 8 3 9 4 10 5 11 6 5 7 4 8 3 9 2 10 1 11
REMARK H PARENT
REMARK Flexibility Score: inf
ROOT
ATOM      1  C   UNL     1      -4.202 -13.348  14.149  1.00  0.00     0.000 C 
ENDROOT
BRANCH   1   2
ATOM      2  C   UNL     1      -4.288 -11.818  14.253  1.00  0.00     0.006 C 
BRANCH   2   3
ATOM      3  C   UNL     1      -2.956 -11.176  14.661  1.00  0.00     0.053 C 
BRANCH   3   4
ATOM      4  C   UNL     1      -2.925  -9.736  14.259  1.00  0.00     0.041 C 
ATOM      5  O   UNL     1      -2.070  -9.328  13.430  1.00  0.00    -0.550 OA
ATOM      6  O   UNL     1      -3.808  -8.833  14.840  1.00  0.00    -0.550 OA
ENDBRANCH   3   4
ENDBRANCH   2   3
ENDBRANCH   1   2
BRANCH   1   7
ATOM      7  C   UNL     1      -5.004 -13.909  12.965  1.00  0.00     0.000 C 
BRANCH   7   8
ATOM      8  C   UNL     1      -4.245 -15.055  12.280  1.00  0.00    -0.000 C 
BRANCH   8   9
ATOM      9  C   UNL     1      -3.773 -16.137  13.267  1.00  0.00    -0.000 C 
BRANCH   9  10
ATOM     10  C   UNL     1      -2.796 -17.170  12.678  1.00  0.00    -0.003 C 
ATOM     11  C   UNL     1      -2.423 -16.879  11.224  1.00  0.00     0.004 C 
ENDBRANCH   9  10
ENDBRANCH   8   9
ENDBRANCH   7   8
ENDBRANCH   1   7
TORSDOF 7
ENDMDL
MODEL 5
REMARK VINA RESULT:    -2.920      2.026      2.997
REMARK INTER + INTRA:          -4.351
REMARK INTER:                  -3.997
REMARK INTRA:                  -0.354
REMARK UNBOUND:                -0.236
REMARK SMILES CCCCCCCCC(=O)[O-]
REMARK SMILES IDX 6 1 7 2 8 3 9 4 10 5 11 6 5 7 4 8 3 9 2 10 1 11
REMARK H PARENT
REMARK Flexibility Score: inf
ROOT
ATOM      1  C   UNL     1       9.945 -15.705   5.348  1.00  0.00     0.000 C 
ENDROOT
BRANCH   1   2
ATOM      2  C   UNL     1      10.278 -16.929   4.483  1.00  0.00     0.006 C 
BRANCH   2   3
ATOM      3  C   UNL     1       9.156 -17.976   4.482  1.00  0.00     0.053 C 
BRANCH   3   4
ATOM      4  C   UNL     1       8.585 -18.130   3.108  1.00  0.00     0.041 C 
ATOM      5  O   UNL     1       8.960 -17.368   2.178  1.00  0.00    -0.550 OA
ATOM      6  O   UNL     1       7.601 -19.080   2.866  1.00  0.00    -0.550 OA
ENDBRANCH   3   4
ENDBRANCH   2   3
ENDBRANCH   1   2
BRANCH   1   7
ATOM      7  C   UNL     1       9.043 -16.051   6.543  1.00  0.00     0.000 C 
BRANCH   7   8
ATOM      8  C   UNL     1       8.799 -14.816   7.423  1.00  0.00    -0.000 C 
BRANCH   8   9
ATOM      9  C   UNL     1       9.969 -14.519   8.378  1.00  0.00    -0.000 C 
BRANCH   9  10
ATOM     10  C   UNL     1      10.372 -15.689   9.293  1.00  0.00    -0.003 C 
ATOM     11  C   UNL     1       9.229 -16.170  10.187  1.00  0.00     0.004 C 
ENDBRANCH   9  10
ENDBRANCH   8   9
ENDBRANCH   7   8
ENDBRANCH   1   7
TORSDOF 7
ENDMDL
MODEL 6
REMARK VINA RESULT:    -2.917      4.528      5.743
REMARK INTER + INTRA:          -4.347
REMARK INTER:                  -3.671
REMARK INTRA:                  -0.676
REMARK UNBOUND:                -0.236
REMARK SMILES CCCCCCCCC(=O)[O-]
REMARK SMILES IDX 6 1 7 2 8 3 9 4 10 5 11 6 5 7 4 8 3 9 2 10 1 11
REMARK H PARENT
REMARK Flexibility Score: inf
ROOT
ATOM      1  C   UNL     1       3.918 -19.177   6.254  1.00  0.00     0.000 C 
ENDROOT
BRANCH   1   2
ATOM      2  C   UNL     1       4.541 -20.196   5.289  1.00  0.00     0.006 C 
BRANCH   2   3
ATOM      3  C   UNL     1       6.052 -19.995   5.111  1.00  0.00     0.053 C 
BRANCH   3   4
ATOM      4  C   UNL     1       6.429 -20.117   3.668  1.00  0.00     0.041 C 
ATOM      5  O   UNL     1       6.174 -21.174   3.034  1.00  0.00    -0.550 OA
ATOM      6  O   UNL     1       7.109 -19.082   3.038  1.00  0.00    -0.550 OA
ENDBRANCH   3   4
ENDBRANCH   2   3
ENDBRANCH   1   2
BRANCH   1   7
ATOM      7  C   UNL     1       2.904 -18.251   5.564  1.00  0.00     0.000 C 
BRANCH   7   8
ATOM      8  C   UNL     1       2.187 -18.978   4.417  1.00  0.00    -0.000 C 
BRANCH   8   9
ATOM      9  C   UNL     1       2.226 -18.194   3.093  1.00  0.00    -0.000 C 
BRANCH   9  10
ATOM     10  C   UNL     1       3.562 -18.270   2.333  1.00  0.00    -0.003 C 
ATOM     11  C   UNL     1       3.583 -19.367   1.268  1.00  0.00     0.004 C 
ENDBRANCH   9  10
ENDBRANCH   8   9
ENDBRANCH   7   8
ENDBRANCH   1   7
TORSDOF 7
ENDMDL
MODEL 7
REMARK VINA RESULT:    -2.893      1.962      2.980
REMARK INTER + INTRA:          -4.313
REMARK INTER:                  -3.639
REMARK INTRA:                  -0.674
REMARK UNBOUND:                -0.236
REMARK SMILES CCCCCCCCC(=O)[O-]
REMARK SMILES IDX 6 1 7 2 8 3 9 4 10 5 11 6 5 7 4 8 3 9 2 10 1 11
REMARK H PARENT
REMARK Flexibility Score: inf
ROOT
ATOM      1  C   UNL     1       8.263 -18.260   6.326  1.00  0.00     0.000 C 
ENDROOT
BRANCH   1   2
ATOM      2  C   UNL     1       9.460 -18.307   5.365  1.00  0.00     0.006 C 
BRANCH   2   3
ATOM      3  C   UNL     1       9.284 -17.381   4.154  1.00  0.00     0.053 C 
BRANCH   3   4
ATOM      4  C   UNL     1       8.877 -18.168   2.949  1.00  0.00     0.041 C 
ATOM      5  O   UNL     1       9.623 -18.206   1.936  1.00  0.00    -0.550 OA
ATOM      6  O   UNL     1       7.649 -18.818   2.926  1.00  0.00    -0.550 OA
ENDBRANCH   3   4
ENDBRANCH   2   3
ENDBRANCH   1   2
BRANCH   1   7
ATOM      7  C   UNL     1       8.570 -17.485   7.617  1.00  0.00     0.000 C 
BRANCH   7   8
ATOM      8  C   UNL     1       7.838 -16.135   7.635  1.00  0.00    -0.000 C 
BRANCH   8   9
ATOM      9  C   UNL     1       8.694 -14.981   7.082  1.00  0.00    -0.000 C 
BRANCH   9  10
ATOM     10  C   UNL     1      10.064 -14.807   7.762  1.00  0.00    -0.003 C 
ATOM     11  C   UNL     1      11.238 -15.070   6.819  1.00  0.00     0.004 C 
ENDBRANCH   9  10
ENDBRANCH   8   9
ENDBRANCH   7   8
ENDBRANCH   1   7
TORSDOF 7
ENDMDL
MODEL 8
REMARK VINA RESULT:    -2.890      5.800      6.920
REMARK INTER + INTRA:          -4.309
REMARK INTER:                  -3.886
REMARK INTRA:                  -0.423
REMARK UNBOUND:                -0.236
REMARK SMILES CCCCCCCCC(=O)[O-]
REMARK SMILES IDX 6 1 7 2 8 3 9 4 10 5 11 6 5 7 4 8 3 9 2 10 1 11
REMARK H PARENT
REMARK Flexibility Score: inf
ROOT
ATOM      1  C   UNL     1       1.926 -19.456   4.481  1.00  0.00     0.000 C 
ENDROOT
BRANCH   1   2
ATOM      2  C   UNL     1       1.781 -18.698   3.153  1.00  0.00     0.006 C 
BRANCH   2   3
ATOM      3  C   UNL     1       3.069 -17.973   2.742  1.00  0.00     0.053 C 
BRANCH   3   4
ATOM      4  C   UNL     1       4.026 -18.930   2.104  1.00  0.00     0.041 C 
ATOM      5  O   UNL     1       5.119 -19.202   2.668  1.00  0.00    -0.550 OA
ATOM      6  O   UNL     1       3.734 -19.481   0.863  1.00  0.00    -0.550 OA
ENDBRANCH   3   4
ENDBRANCH   2   3
ENDBRANCH   1   2
BRANCH   1   7
ATOM      7  C   UNL     1       2.462 -18.569   5.615  1.00  0.00     0.000 C 
BRANCH   7   8
ATOM      8  C   UNL     1       1.755 -18.884   6.941  1.00  0.00    -0.000 C 
BRANCH   8   9
ATOM      9  C   UNL     1       0.635 -19.930   6.790  1.00  0.00    -0.000 C 
BRANCH   9  10
ATOM     10  C   UNL     1      -0.626 -19.655   7.629  1.00  0.00    -0.003 C 
ATOM     11  C   UNL     1      -0.547 -18.347   8.417  1.00  0.00     0.004 C 
ENDBRANCH   9  10
ENDBRANCH   8   9
ENDBRANCH   7   8
ENDBRANCH   1   7
TORSDOF 7
ENDMDL
MODEL 9
REMARK VINA RESULT:    -2.875      6.378      8.119
REMARK INTER + INTRA:          -4.288
REMARK INTER:                  -3.361
REMARK INTRA:                  -0.927
REMARK UNBOUND:                -0.236
REMARK SMILES CCCCCCCCC(=O)[O-]
REMARK SMILES IDX 6 1 7 2 8 3 9 4 10 5 11 6 5 7 4 8 3 9 2 10 1 11
REMARK H PARENT
REMARK Flexibility Score: inf
ROOT
ATOM      1  C   UNL     1       1.399 -18.775   2.674  1.00  0.00     0.000 C 
ENDROOT
BRANCH   1   2
ATOM      2  C   UNL     1       2.647 -17.997   3.119  1.00  0.00     0.006 C 
BRANCH   2   3
ATOM      3  C   UNL     1       3.912 -18.423   2.362  1.00  0.00     0.053 C 
BRANCH   3   4
ATOM      4  C   UNL     1       4.684 -19.427   3.159  1.00  0.00     0.041 C 
ATOM      5  O   UNL     1       5.505 -20.191   2.589  1.00  0.00    -0.550 OA
ATOM      6  O   UNL     1       4.458 -19.552   4.524  1.00  0.00    -0.550 OA
ENDBRANCH   3   4
ENDBRANCH   2   3
ENDBRANCH   1   2
BRANCH   1   7
ATOM      7  C   UNL     1       0.998 -19.872   3.672  1.00  0.00     0.000 C 
BRANCH   7   8
ATOM      8  C   UNL     1       1.470 -21.252   3.191  1.00  0.00    -0.000 C 
BRANCH   8   9
ATOM      9  C   UNL     1       1.396 -21.413   1.662  1.00  0.00    -0.000 C 
BRANCH   9  10
ATOM     10  C   UNL     1       2.729 -21.773   0.983  1.00  0.00    -0.003 C 
ATOM     11  C   UNL     1       3.063 -20.863  -0.200  1.00  0.00     0.004 C 
ENDBRANCH   9  10
ENDBRANCH   8   9
ENDBRANCH   7   8
ENDBRANCH   1   7
TORSDOF 7
ENDMDL
