MODEL 1
REMARK VINA RESULT:    -2.856      0.000      0.000
REMARK INTER + INTRA:          -4.849
REMARK INTER:                  -4.358
REMARK INTRA:                  -0.490
REMARK UNBOUND:                -0.490
REMARK SMILES CC1=CCC[C@@H](C)C(=O)C[C@@H](C(C)C)C(=O)C1
REMARK SMILES IDX 8 1 9 2 6 3 7 4 5 5 4 6 3 7 2 8 1 9 10 11 11 12 15 13 16 14
REMARK SMILES IDX 17 15 12 17 13 18 14 19
REMARK H PARENT
REMARK Flexibility Score: 70.00
ROOT
ATOM      1  C   UNL     1      -1.290   5.642  -2.881  1.00  0.00     0.136 C 
ATOM      2  O   UNL     1      -2.396   6.004  -3.254  1.00  0.00    -0.299 OA
ENDROOT
BRANCH   1   3
ATOM      3  C   UNL     1      -1.193   4.490  -1.893  1.00  0.00     0.053 C 
ATOM      4  C   UNL     1       0.018   4.676  -0.972  1.00  0.00     0.016 C 
BRANCH   3   5
ATOM      5  C   UNL     1      -1.146   3.119  -2.596  1.00  0.00     0.015 C 
BRANCH   5   6
ATOM      6  C   UNL     1       0.289   2.729  -2.993  1.00  0.00     0.028 C 
BRANCH   6   7
ATOM      7  C   UNL     1       0.455   2.501  -4.474  1.00  0.00    -0.028 C 
ATOM      8  C   UNL     1       1.015   3.366  -5.359  1.00  0.00    -0.070 CG0
ATOM      9  C   UNL     1       0.962   2.988  -6.820  1.00  0.00     0.039 C 
ATOM     10  G   UNL     1       1.750   4.645  -4.969  1.00  0.00     0.000 G0
ENDBRANCH   6   7
ENDBRANCH   5   6
ENDBRANCH   3   5
ENDBRANCH   1   3
BRANCH   1  11
ATOM     11  C   UNL     1      -0.071   6.395  -3.366  1.00  0.00     0.087 C 
BRANCH  11  12
ATOM     12  C   UNL     1      -0.055   6.599  -4.908  1.00  0.00     0.066 C 
BRANCH  12  13
ATOM     13  C   UNL     1       1.163   5.940  -5.545  1.00  0.00     0.140 C 
ATOM     14  O   UNL     1       1.741   6.518  -6.453  1.00  0.00    -0.299 OA
BRANCH  13  15
ATOM     15  C   UNL     1       1.760   4.673  -4.974  1.00  0.00     0.106 CG0
ATOM     16  G   UNL     1       1.027   3.389  -5.352  1.00  0.00     0.000 G0
ENDBRANCH  13  15
ENDBRANCH  12  13
BRANCH  12  17
ATOM     17  C   UNL     1      -0.135   8.107  -5.313  1.00  0.00    -0.006 C 
ATOM     18  C   UNL     1      -1.507   8.447  -5.929  1.00  0.00     0.008 C 
ATOM     19  C   UNL     1       0.117   9.052  -4.123  1.00  0.00     0.008 C 
ENDBRANCH  12  17
ENDBRANCH  11  12
ENDBRANCH   1  11
TORSDOF 1
ENDMDL
MODEL 2
REMARK VINA RESULT:    -2.757      2.285      4.651
REMARK INTER + INTRA:          -4.698
REMARK INTER:                  -4.251
REMARK INTRA:                  -0.447
REMARK UNBOUND:                -0.490
REMARK SMILES CC1=CCC[C@@H](C)C(=O)C[C@@H](C(C)C)C(=O)C1
REMARK SMILES IDX 8 1 9 2 6 3 7 4 5 5 4 6 3 7 2 8 1 9 10 11 11 12 15 13 16 14
REMARK SMILES IDX 17 15 12 17 13 18 14 19
REMARK H PARENT
REMARK Flexibility Score: 70.00
ROOT
ATOM      1  C   UNL     1       2.145   4.877  -2.843  1.00  0.00     0.136 C 
ATOM      2  O   UNL     1       2.356   3.706  -3.119  1.00  0.00    -0.299 OA
ENDROOT
BRANCH   1   3
ATOM      3  C   UNL     1       3.261   5.889  -3.048  1.00  0.00     0.053 C 
ATOM      4  C   UNL     1       3.114   7.055  -2.063  1.00  0.00     0.016 C 
BRANCH   3   5
ATOM      5  C   UNL     1       3.328   6.400  -4.501  1.00  0.00     0.015 C 
BRANCH   5   6
ATOM      6  C   UNL     1       2.491   7.677  -4.697  1.00  0.00     0.028 C 
BRANCH   6   7
ATOM      7  C   UNL     1       1.385   7.514  -5.708  1.00  0.00    -0.028 C 
ATOM      8  C   UNL     1       0.072   7.306  -5.430  1.00  0.00    -0.070 CG0
ATOM      9  C   UNL     1      -0.846   7.042  -6.599  1.00  0.00     0.039 C 
ATOM     10  G   UNL     1      -0.541   7.395  -4.035  1.00  0.00     0.000 G0
ENDBRANCH   6   7
ENDBRANCH   5   6
ENDBRANCH   3   5
ENDBRANCH   1   3
BRANCH   1  11
ATOM     11  C   UNL     1       0.807   5.259  -2.248  1.00  0.00     0.087 C 
BRANCH  11  12
ATOM     12  C   UNL     1      -0.393   4.897  -3.168  1.00  0.00     0.066 C 
BRANCH  12  13
ATOM     13  C   UNL     1      -1.202   6.133  -3.543  1.00  0.00     0.140 C 
ATOM     14  O   UNL     1      -2.403   6.144  -3.320  1.00  0.00    -0.299 OA
BRANCH  13  15
ATOM     15  C   UNL     1      -0.528   7.396  -4.031  1.00  0.00     0.106 CG0
ATOM     16  G   UNL     1       0.082   7.301  -5.427  1.00  0.00     0.000 G0
ENDBRANCH  13  15
ENDBRANCH  12  13
BRANCH  12  17
ATOM     17  C   UNL     1      -1.320   3.805  -2.540  1.00  0.00    -0.006 C 
ATOM     18  C   UNL     1      -1.183   2.462  -3.283  1.00  0.00     0.008 C 
ATOM     19  C   UNL     1      -1.030   3.572  -1.046  1.00  0.00     0.008 C 
ENDBRANCH  12  17
ENDBRANCH  11  12
ENDBRANCH   1  11
TORSDOF 1
ENDMDL
MODEL 3
REMARK VINA RESULT:    -2.694     10.793     13.385
REMARK INTER + INTRA:          -4.602
REMARK INTER:                  -4.238
REMARK INTRA:                  -0.364
REMARK UNBOUND:                -0.490
REMARK SMILES CC1=CCC[C@@H](C)C(=O)C[C@@H](C(C)C)C(=O)C1
REMARK SMILES IDX 8 1 9 2 6 3 7 4 5 5 4 6 3 7 2 8 1 9 10 11 11 12 15 13 16 14
REMARK SMILES IDX 17 15 12 17 13 18 14 19
REMARK H PARENT
REMARK Flexibility Score: 70.00
ROOT
ATOM      1  C   UNL     1      -1.316  13.113   2.382  1.00  0.00     0.136 C 
ATOM      2  O   UNL     1      -0.324  12.521   1.982  1.00  0.00    -0.299 OA
ENDROOT
BRANCH   1   3
ATOM      3  C   UNL     1      -1.993  14.111   1.458  1.00  0.00     0.053 C 
ATOM      4  C   UNL     1      -2.612  13.392   0.254  1.00  0.00     0.016 C 
BRANCH   3   5
ATOM      5  C   UNL     1      -1.034  15.229   1.000  1.00  0.00     0.015 C 
BRANCH   5   6
ATOM      6  C   UNL     1      -0.983  16.388   2.011  1.00  0.00     0.028 C 
BRANCH   6   7
ATOM      7  C   UNL     1       0.363  16.543   2.672  1.00  0.00    -0.028 C 
ATOM      8  C   UNL     1       0.602  16.546   4.008  1.00  0.00    -0.070 CG0
ATOM      9  C   UNL     1       2.013  16.846   4.455  1.00  0.00     0.039 C 
ATOM     10  G   UNL     1      -0.435  16.196   5.072  1.00  0.00     0.000 G0
ENDBRANCH   6   7
ENDBRANCH   5   6
ENDBRANCH   3   5
ENDBRANCH   1   3
BRANCH   1  11
ATOM     11  C   UNL     1      -1.788  12.875   3.800  1.00  0.00     0.087 C 
BRANCH  11  12
ATOM     12  C   UNL     1      -2.065  14.192   4.578  1.00  0.00     0.066 C 
BRANCH  12  13
ATOM     13  C   UNL     1      -0.794  14.742   5.216  1.00  0.00     0.140 C 
ATOM     14  O   UNL     1       0.003  13.962   5.716  1.00  0.00    -0.299 OA
BRANCH  13  15
ATOM     15  C   UNL     1      -0.425  16.203   5.100  1.00  0.00     0.106 CG0
ATOM     16  G   UNL     1       0.591  16.526   4.006  1.00  0.00     0.000 G0
ENDBRANCH  13  15
ENDBRANCH  12  13
BRANCH  12  17
ATOM     17  C   UNL     1      -3.189  14.027   5.653  1.00  0.00    -0.006 C 
ATOM     18  C   UNL     1      -4.485  14.738   5.218  1.00  0.00     0.008 C 
ATOM     19  C   UNL     1      -3.512  12.550   5.947  1.00  0.00     0.008 C 
ENDBRANCH  12  17
ENDBRANCH  11  12
ENDBRANCH   1  11
TORSDOF 1
ENDMDL
MODEL 4
REMARK VINA RESULT:    -2.671      2.295      4.446
REMARK INTER + INTRA:          -4.567
REMARK INTER:                  -4.015
REMARK INTRA:                  -0.552
REMARK UNBOUND:                -0.490
REMARK SMILES CC1=CCC[C@@H](C)C(=O)C[C@@H](C(C)C)C(=O)C1
REMARK SMILES IDX 8 1 9 2 6 3 7 4 5 5 4 6 3 7 2 8 1 9 10 11 11 12 15 13 16 14
REMARK SMILES IDX 17 15 12 17 13 18 14 19
REMARK H PARENT
REMARK Flexibility Score: 70.00
ROOT
ATOM      1  C   UNL     1       2.654   6.824  -4.495  1.00  0.00     0.136 C 
ATOM      2  O   UNL     1       3.599   6.827  -5.269  1.00  0.00    -0.299 OA
ENDROOT
BRANCH   1   3
ATOM      3  C   UNL     1       2.726   7.698  -3.253  1.00  0.00     0.053 C 
ATOM      4  C   UNL     1       3.146   9.125  -3.625  1.00  0.00     0.016 C 
BRANCH   3   5
ATOM      5  C   UNL     1       3.662   7.111  -2.177  1.00  0.00     0.015 C 
BRANCH   5   6
ATOM      6  C   UNL     1       3.308   5.650  -1.848  1.00  0.00     0.028 C 
BRANCH   6   7
ATOM      7  C   UNL     1       2.218   5.519  -0.815  1.00  0.00    -0.028 C 
ATOM      8  C   UNL     1       0.967   5.036  -1.029  1.00  0.00    -0.070 CG0
ATOM      9  C   UNL     1      -0.009   5.115   0.120  1.00  0.00     0.039 C 
ATOM     10  G   UNL     1       0.512   4.358  -2.319  1.00  0.00     0.000 G0
ENDBRANCH   6   7
ENDBRANCH   5   6
ENDBRANCH   3   5
ENDBRANCH   1   3
BRANCH   1  11
ATOM     11  C   UNL     1       1.484   5.906  -4.771  1.00  0.00     0.087 C 
BRANCH  11  12
ATOM     12  C   UNL     1       0.179   6.350  -4.052  1.00  0.00     0.066 C 
BRANCH  12  13
ATOM     13  C   UNL     1      -0.399   5.226  -3.199  1.00  0.00     0.140 C 
ATOM     14  O   UNL     1      -1.578   4.933  -3.326  1.00  0.00    -0.299 OA
BRANCH  13  15
ATOM     15  C   UNL     1       0.487   4.367  -2.326  1.00  0.00     0.106 CG0
ATOM     16  G   UNL     1       0.946   5.026  -1.028  1.00  0.00     0.000 G0
ENDBRANCH  13  15
ENDBRANCH  12  13
BRANCH  12  17
ATOM     17  C   UNL     1      -0.898   6.891  -5.048  1.00  0.00    -0.006 C 
ATOM     18  C   UNL     1      -0.965   8.430  -5.015  1.00  0.00     0.008 C 
ATOM     19  C   UNL     1      -0.641   6.440  -6.498  1.00  0.00     0.008 C 
ENDBRANCH  12  17
ENDBRANCH  11  12
ENDBRANCH   1  11
TORSDOF 1
ENDMDL
MODEL 5
REMARK VINA RESULT:    -2.661     13.234     15.673
REMARK INTER + INTRA:          -4.551
REMARK INTER:                  -4.461
REMARK INTRA:                  -0.090
REMARK UNBOUND:                -0.490
REMARK SMILES CC1=CCC[C@@H](C)C(=O)C[C@@H](C(C)C)C(=O)C1
REMARK SMILES IDX 8 1 9 2 6 3 7 4 5 5 4 6 3 7 2 8 1 9 10 11 11 12 15 13 16 14
REMARK SMILES IDX 17 15 12 17 13 18 14 19
REMARK H PARENT
REMARK Flexibility Score: 70.00
ROOT
ATOM      1  C   UNL     1      -9.842   4.379   5.956  1.00  0.00     0.136 C 
ATOM      2  O   UNL     1     -10.797   3.770   6.415  1.00  0.00    -0.299 OA
ENDROOT
BRANCH   1   3
ATOM      3  C   UNL     1     -10.083   5.377   4.835  1.00  0.00     0.053 C 
ATOM      4  C   UNL     1      -8.869   5.437   3.901  1.00  0.00     0.016 C 
BRANCH   3   5
ATOM      5  C   UNL     1     -10.439   6.780   5.367  1.00  0.00     0.015 C 
BRANCH   5   6
ATOM      6  C   UNL     1      -9.251   7.433   6.095  1.00  0.00     0.028 C 
BRANCH   6   7
ATOM      7  C   UNL     1      -9.527   7.717   7.550  1.00  0.00    -0.028 C 
ATOM      8  C   UNL     1      -8.994   7.054   8.608  1.00  0.00    -0.070 CG0
ATOM      9  C   UNL     1      -9.509   7.419   9.980  1.00  0.00     0.039 C 
ATOM     10  G   UNL     1      -7.868   6.029   8.508  1.00  0.00     0.000 G0
ENDBRANCH   6   7
ENDBRANCH   5   6
ENDBRANCH   3   5
ENDBRANCH   1   3
BRANCH   1  11
ATOM     11  C   UNL     1      -8.456   4.067   6.476  1.00  0.00     0.087 C 
BRANCH  11  12
ATOM     12  C   UNL     1      -8.462   3.511   7.928  1.00  0.00     0.066 C 
BRANCH  12  13
ATOM     13  C   UNL     1      -8.224   4.616   8.950  1.00  0.00     0.140 C 
ATOM     14  O   UNL     1      -8.203   4.329  10.138  1.00  0.00    -0.299 OA
BRANCH  13  15
ATOM     15  C   UNL     1      -7.855   6.018   8.521  1.00  0.00     0.106 CG0
ATOM     16  G   UNL     1      -8.990   7.035   8.601  1.00  0.00     0.000 G0
ENDBRANCH  13  15
ENDBRANCH  12  13
BRANCH  12  17
ATOM     17  C   UNL     1      -7.434   2.350   8.128  1.00  0.00    -0.006 C 
ATOM     18  C   UNL     1      -8.010   1.244   9.034  1.00  0.00     0.008 C 
ATOM     19  C   UNL     1      -6.994   1.714   6.795  1.00  0.00     0.008 C 
ENDBRANCH  12  17
ENDBRANCH  11  12
ENDBRANCH   1  11
TORSDOF 1
ENDMDL
MODEL 6
REMARK VINA RESULT:    -2.614      1.970      3.076
REMARK INTER + INTRA:          -4.480
REMARK INTER:                  -3.952
REMARK INTRA:                  -0.528
REMARK UNBOUND:                -0.490
REMARK SMILES CC1=CCC[C@@H](C)C(=O)C[C@@H](C(C)C)C(=O)C1
REMARK SMILES IDX 8 1 9 2 6 3 7 4 5 5 4 6 3 7 2 8 1 9 10 11 11 12 15 13 16 14
REMARK SMILES IDX 17 15 12 17 13 18 14 19
REMARK H PARENT
REMARK Flexibility Score: 70.00
ROOT
ATOM      1  C   UNL     1      -1.307   5.291  -3.248  1.00  0.00     0.136 C 
ATOM      2  O   UNL     1      -2.476   5.372  -2.899  1.00  0.00    -0.299 OA
ENDROOT
BRANCH   1   3
ATOM      3  C   UNL     1      -0.517   4.049  -2.871  1.00  0.00     0.053 C 
ATOM      4  C   UNL     1      -1.198   2.792  -3.426  1.00  0.00     0.016 C 
BRANCH   3   5
ATOM      5  C   UNL     1      -0.300   3.932  -1.349  1.00  0.00     0.015 C 
BRANCH   5   6
ATOM      6  C   UNL     1       0.504   5.121  -0.794  1.00  0.00     0.028 C 
BRANCH   6   7
ATOM      7  C   UNL     1       1.979   5.036  -1.094  1.00  0.00    -0.028 C 
ATOM      8  C   UNL     1       2.640   5.731  -2.054  1.00  0.00    -0.070 CG0
ATOM      9  C   UNL     1       4.097   5.395  -2.269  1.00  0.00     0.039 C 
ATOM     10  G   UNL     1       2.033   6.869  -2.871  1.00  0.00     0.000 G0
ENDBRANCH   6   7
ENDBRANCH   5   6
ENDBRANCH   3   5
ENDBRANCH   1   3
BRANCH   1  11
ATOM     11  C   UNL     1      -0.680   6.457  -3.981  1.00  0.00     0.087 C 
BRANCH  11  12
ATOM     12  C   UNL     1       0.522   6.038  -4.873  1.00  0.00     0.066 C 
BRANCH  12  13
ATOM     13  C   UNL     1       1.835   6.604  -4.343  1.00  0.00     0.140 C 
ATOM     14  O   UNL     1       2.691   6.959  -5.139  1.00  0.00    -0.299 OA
BRANCH  13  15
ATOM     15  C   UNL     1       2.032   6.882  -2.870  1.00  0.00     0.106 CG0
ATOM     16  G   UNL     1       2.639   5.731  -2.073  1.00  0.00     0.000 G0
ENDBRANCH  13  15
ENDBRANCH  12  13
BRANCH  12  17
ATOM     17  C   UNL     1       0.321   6.436  -6.373  1.00  0.00    -0.006 C 
ATOM     18  C   UNL     1       0.591   5.241  -7.308  1.00  0.00     0.008 C 
ATOM     19  C   UNL     1      -1.094   6.973  -6.657  1.00  0.00     0.008 C 
ENDBRANCH  12  17
ENDBRANCH  11  12
ENDBRANCH   1  11
TORSDOF 1
ENDMDL
MODEL 7
REMARK VINA RESULT:    -2.593      2.461      4.085
REMARK INTER + INTRA:          -4.448
REMARK INTER:                  -3.993
REMARK INTRA:                  -0.455
REMARK UNBOUND:                -0.490
REMARK SMILES CC1=CCC[C@@H](C)C(=O)C[C@@H](C(C)C)C(=O)C1
REMARK SMILES IDX 8 1 9 2 6 3 7 4 5 5 4 6 3 7 2 8 1 9 10 11 11 12 15 13 16 14
REMARK SMILES IDX 17 15 12 17 13 18 14 19
REMARK H PARENT
REMARK Flexibility Score: 70.00
ROOT
ATOM      1  C   UNL     1       0.428   9.037  -4.059  1.00  0.00     0.136 C 
ATOM      2  O   UNL     1      -0.117  10.038  -3.618  1.00  0.00    -0.299 OA
ENDROOT
BRANCH   1   3
ATOM      3  C   UNL     1      -0.382   8.087  -4.926  1.00  0.00     0.053 C 
ATOM      4  C   UNL     1      -1.093   8.857  -6.046  1.00  0.00     0.016 C 
BRANCH   3   5
ATOM      5  C   UNL     1      -1.387   7.256  -4.104  1.00  0.00     0.015 C 
BRANCH   5   6
ATOM      6  C   UNL     1      -0.986   5.772  -4.041  1.00  0.00     0.028 C 
BRANCH   6   7
ATOM      7  C   UNL     1      -0.489   5.347  -2.682  1.00  0.00    -0.028 C 
ATOM      8  C   UNL     1       0.775   4.956  -2.380  1.00  0.00    -0.070 CG0
ATOM      9  C   UNL     1       1.023   4.447  -0.980  1.00  0.00     0.039 C 
ATOM     10  G   UNL     1       1.965   5.066  -3.330  1.00  0.00     0.000 G0
ENDBRANCH   6   7
ENDBRANCH   5   6
ENDBRANCH   3   5
ENDBRANCH   1   3
BRANCH   1  11
ATOM     11  C   UNL     1       1.863   8.754  -3.671  1.00  0.00     0.087 C 
BRANCH  11  12
ATOM     12  C   UNL     1       2.430   7.467  -4.335  1.00  0.00     0.066 C 
BRANCH  12  13
ATOM     13  C   UNL     1       2.708   6.382  -3.301  1.00  0.00     0.140 C 
ATOM     14  O   UNL     1       3.438   6.639  -2.355  1.00  0.00    -0.299 OA
BRANCH  13  15
ATOM     15  C   UNL     1       1.977   5.059  -3.334  1.00  0.00     0.106 CG0
ATOM     16  G   UNL     1       0.794   4.954  -2.375  1.00  0.00     0.000 G0
ENDBRANCH  13  15
ENDBRANCH  12  13
BRANCH  12  17
ATOM     17  C   UNL     1       3.709   7.749  -5.190  1.00  0.00    -0.006 C 
ATOM     18  C   UNL     1       3.611   7.082  -6.576  1.00  0.00     0.008 C 
ATOM     19  C   UNL     1       3.967   9.255  -5.386  1.00  0.00     0.008 C 
ENDBRANCH  12  17
ENDBRANCH  11  12
ENDBRANCH   1  11
TORSDOF 1
ENDMDL
MODEL 8
REMARK VINA RESULT:    -2.532      2.017      4.731
REMARK INTER + INTRA:          -4.355
REMARK INTER:                  -3.911
REMARK INTRA:                  -0.444
REMARK UNBOUND:                -0.490
REMARK SMILES CC1=CCC[C@@H](C)C(=O)C[C@@H](C(C)C)C(=O)C1
REMARK SMILES IDX 8 1 9 2 6 3 7 4 5 5 4 6 3 7 2 8 1 9 10 11 11 12 15 13 16 14
REMARK SMILES IDX 17 15 12 17 13 18 14 19
REMARK H PARENT
REMARK Flexibility Score: 70.00
ROOT
ATOM      1  C   UNL     1      -1.008   6.607  -4.039  1.00  0.00     0.136 C 
ATOM      2  O   UNL     1      -1.680   6.430  -3.035  1.00  0.00    -0.299 OA
ENDROOT
BRANCH   1   3
ATOM      3  C   UNL     1      -1.085   7.952  -4.742  1.00  0.00     0.053 C 
ATOM      4  C   UNL     1      -0.689   7.809  -6.217  1.00  0.00     0.016 C 
BRANCH   3   5
ATOM      5  C   UNL     1      -0.231   9.028  -4.043  1.00  0.00     0.015 C 
BRANCH   5   6
ATOM      6  C   UNL     1       1.144   9.192  -4.716  1.00  0.00     0.028 C 
BRANCH   6   7
ATOM      7  C   UNL     1       2.296   8.839  -3.810  1.00  0.00    -0.028 C 
ATOM      8  C   UNL     1       2.974   7.663  -3.803  1.00  0.00    -0.070 CG0
ATOM      9  C   UNL     1       4.012   7.473  -2.722  1.00  0.00     0.039 C 
ATOM     10  G   UNL     1       2.810   6.563  -4.848  1.00  0.00     0.000 G0
ENDBRANCH   6   7
ENDBRANCH   5   6
ENDBRANCH   3   5
ENDBRANCH   1   3
BRANCH   1  11
ATOM     11  C   UNL     1      -0.178   5.461  -4.576  1.00  0.00     0.087 C 
BRANCH  11  12
ATOM     12  C   UNL     1       0.994   5.065  -3.634  1.00  0.00     0.066 C 
BRANCH  12  13
ATOM     13  C   UNL     1       2.343   5.216  -4.329  1.00  0.00     0.140 C 
ATOM     14  O   UNL     1       2.996   4.213  -4.578  1.00  0.00    -0.299 OA
BRANCH  13  15
ATOM     15  C   UNL     1       2.810   6.554  -4.856  1.00  0.00     0.106 CG0
ATOM     16  G   UNL     1       2.980   7.639  -3.797  1.00  0.00     0.000 G0
ENDBRANCH  13  15
ENDBRANCH  12  13
BRANCH  12  17
ATOM     17  C   UNL     1       0.835   3.621  -3.055  1.00  0.00    -0.006 C 
ATOM     18  C   UNL     1       0.351   3.658  -1.592  1.00  0.00     0.008 C 
ATOM     19  C   UNL     1      -0.143   2.760  -3.876  1.00  0.00     0.008 C 
ENDBRANCH  12  17
ENDBRANCH  11  12
ENDBRANCH   1  11
TORSDOF 1
ENDMDL
MODEL 9
REMARK VINA RESULT:    -2.515      1.869      4.942
REMARK INTER + INTRA:          -4.329
REMARK INTER:                  -3.983
REMARK INTRA:                  -0.346
REMARK UNBOUND:                -0.490
REMARK SMILES CC1=CCC[C@@H](C)C(=O)C[C@@H](C(C)C)C(=O)C1
REMARK SMILES IDX 8 1 9 2 6 3 7 4 5 5 4 6 3 7 2 8 1 9 10 11 11 12 15 13 16 14
REMARK SMILES IDX 17 15 12 17 13 18 14 19
REMARK H PARENT
REMARK Flexibility Score: 70.00
ROOT
ATOM      1  C   UNL     1       1.686   4.351  -4.978  1.00  0.00     0.136 C 
ATOM      2  O   UNL     1       2.461   3.420  -4.823  1.00  0.00    -0.299 OA
ENDROOT
BRANCH   1   3
ATOM      3  C   UNL     1       1.412   4.846  -6.389  1.00  0.00     0.053 C 
ATOM      4  C   UNL     1       1.263   3.662  -7.352  1.00  0.00     0.016 C 
BRANCH   3   5
ATOM      5  C   UNL     1       2.491   5.828  -6.886  1.00  0.00     0.015 C 
BRANCH   5   6
ATOM      6  C   UNL     1       2.418   7.178  -6.150  1.00  0.00     0.028 C 
BRANCH   6   7
ATOM      7  C   UNL     1       1.181   7.973  -6.485  1.00  0.00    -0.028 C 
ATOM      8  C   UNL     1       0.086   8.117  -5.697  1.00  0.00    -0.070 CG0
ATOM      9  C   UNL     1      -1.095   8.852  -6.285  1.00  0.00     0.039 C 
ATOM     10  G   UNL     1      -0.002   7.653  -4.245  1.00  0.00     0.000 G0
ENDBRANCH   6   7
ENDBRANCH   5   6
ENDBRANCH   3   5
ENDBRANCH   1   3
BRANCH   1  11
ATOM     11  C   UNL     1       1.085   5.014  -3.758  1.00  0.00     0.087 C 
BRANCH  11  12
ATOM     12  C   UNL     1      -0.468   5.075  -3.803  1.00  0.00     0.066 C 
BRANCH  12  13
ATOM     13  C   UNL     1      -0.965   6.506  -3.976  1.00  0.00     0.140 C 
ATOM     14  O   UNL     1      -2.145   6.751  -3.775  1.00  0.00    -0.299 OA
BRANCH  13  15
ATOM     15  C   UNL     1      -0.005   7.646  -4.231  1.00  0.00     0.106 CG0
ATOM     16  G   UNL     1       0.090   8.094  -5.687  1.00  0.00     0.000 G0
ENDBRANCH  13  15
ENDBRANCH  12  13
BRANCH  12  17
ATOM     17  C   UNL     1      -1.129   4.415  -2.549  1.00  0.00    -0.006 C 
ATOM     18  C   UNL     1      -1.087   2.877  -2.641  1.00  0.00     0.008 C 
ATOM     19  C   UNL     1      -0.458   4.847  -1.231  1.00  0.00     0.008 C 
ENDBRANCH  12  17
ENDBRANCH  11  12
ENDBRANCH   1  11
TORSDOF 1
ENDMDL
