MODEL 1
REMARK VINA RESULT:     4.429      0.000      0.000
REMARK INTER + INTRA:           4.609
REMARK INTER:                   4.817
REMARK INTRA:                  -0.208
REMARK UNBOUND:                -0.208
REMARK SMILES C[C@H]1[C@H]2C3=CC[C@H]4[C@]5(C)CC[C@@H](O)C(C)(C)[C@@H]5CC[C@]4(C)[C@]3(C)CC[C@@]2(C(=O)[O-])CC[C@@H]1C
REMARK SMILES IDX 26 1 30 2 25 3 3 4 31 5 24 6 4 7 2 8 32 9 22 10 5 11 1 12
REMARK SMILES IDX 33 13 23 14 20 15 6 16 7 17 19 18 21 19 8 20 18 21 17 22
REMARK SMILES IDX 10 23 9 24 14 25 11 26 12 27 15 28 16 29 27 30 28 31 29 32
REMARK SMILES IDX 13 33
REMARK H PARENT 13 34
REMARK Flexibility Score: inf
ROOT
ATOM      1  C   UNL     1     -28.986  -1.972  23.951  1.00  0.00     0.017 C 
ATOM      2  C   UNL     1     -28.665  -1.640  25.431  1.00  0.00     0.014 C 
ATOM      3  C   UNL     1     -27.664  -2.417  23.256  1.00  0.00     0.014 C 
ATOM      4  C   UNL     1     -29.724  -0.743  23.241  1.00  0.00     0.030 C 
ATOM      5  C   UNL     1     -28.049  -0.260  25.613  1.00  0.00     0.004 C 
ATOM      6  C   UNL     1     -27.796  -2.557  21.732  1.00  0.00     0.013 C 
ATOM      7  C   UNL     1     -29.625  -0.851  21.711  1.00  0.00    -0.063 C 
ATOM      8  C   UNL     1     -29.647   0.736  23.836  1.00  0.00    -0.003 C 
ATOM      9  C   UNL     1     -29.047   0.862  25.278  1.00  0.00    -0.011 C 
ATOM     10  C   UNL     1     -28.258  -1.219  21.063  1.00  0.00    -0.006 C 
ATOM     11  C   UNL     1     -30.787  -0.948  21.025  1.00  0.00    -0.027 C 
ATOM     12  C   UNL     1     -29.094   1.849  22.910  1.00  0.00     0.008 C 
ATOM     13  C   UNL     1     -30.123   1.048  26.367  1.00  0.00     0.008 C 
ATOM     14  C   UNL     1     -27.170  -0.149  21.409  1.00  0.00     0.017 C 
ATOM     15  C   UNL     1     -28.420  -1.317  19.459  1.00  0.00    -0.020 C 
ATOM     16  C   UNL     1     -30.927  -1.472  19.616  1.00  0.00     0.032 C 
ATOM     17  C   UNL     1     -29.655  -2.226  19.129  1.00  0.00     0.006 C 
ATOM     18  C   UNL     1     -27.174  -1.927  18.793  1.00  0.00     0.008 C 
ATOM     19  C   UNL     1     -28.621   0.130  18.875  1.00  0.00     0.012 C 
ATOM     20  C   UNL     1     -29.672  -2.917  17.674  1.00  0.00    -0.025 C 
ATOM     21  C   UNL     1     -27.269  -1.995  17.265  1.00  0.00     0.005 C 
ATOM     22  C   UNL     1     -28.702  -2.189  16.649  1.00  0.00     0.003 C 
ATOM     23  C   UNL     1     -29.211  -4.421  17.785  1.00  0.00     0.010 C 
ATOM     24  C   UNL     1     -31.138  -2.907  17.160  1.00  0.00     0.012 C 
ATOM     25  C   UNL     1     -28.666  -2.826  15.183  1.00  0.00    -0.006 C 
ATOM     26  C   UNL     1     -28.456  -5.002  16.566  1.00  0.00     0.033 C 
ATOM     27  C   UNL     1     -28.829  -4.402  15.205  1.00  0.00     0.120 C 
ATOM     28  C   UNL     1     -27.323  -2.498  14.456  1.00  0.00     0.014 C 
ATOM     29  C   UNL     1     -29.748  -2.158  14.277  1.00  0.00     0.014 C 
ENDROOT
BRANCH   1  30
ATOM     30  C   UNL     1     -29.892  -3.206  23.934  1.00  0.00     0.048 C 
ATOM     31  O   UNL     1     -29.412  -4.376  24.020  1.00  0.00    -0.550 OA
ATOM     32  O   UNL     1     -31.276  -3.057  23.920  1.00  0.00    -0.550 OA
ENDBRANCH   1  30
BRANCH  27  33
ATOM     33  O   UNL     1     -30.130  -4.818  14.876  1.00  0.00    -0.393 OA
ATOM     34  H   UNL     1     -30.063  -5.713  14.448  1.00  0.00     0.210 HD
ENDBRANCH  27  33
TORSDOF 2
ENDMDL
MODEL 2
REMARK VINA RESULT:     4.484      2.201      3.678
REMARK INTER + INTRA:           4.669
REMARK INTER:                   4.879
REMARK INTRA:                  -0.210
REMARK UNBOUND:                -0.208
REMARK SMILES C[C@H]1[C@H]2C3=CC[C@H]4[C@]5(C)CC[C@@H](O)C(C)(C)[C@@H]5CC[C@]4(C)[C@]3(C)CC[C@@]2(C(=O)[O-])CC[C@@H]1C
REMARK SMILES IDX 26 1 30 2 25 3 3 4 31 5 24 6 4 7 2 8 32 9 22 10 5 11 1 12
REMARK SMILES IDX 33 13 23 14 20 15 6 16 7 17 19 18 21 19 8 20 18 21 17 22
REMARK SMILES IDX 10 23 9 24 14 25 11 26 12 27 15 28 16 29 27 30 28 31 29 32
REMARK SMILES IDX 13 33
REMARK H PARENT 13 34
REMARK Flexibility Score: inf
ROOT
ATOM      1  C   UNL     1     -29.025   0.805  23.172  1.00  0.00     0.017 C 
ATOM      2  C   UNL     1     -29.558   1.336  24.528  1.00  0.00     0.014 C 
ATOM      3  C   UNL     1     -30.229   0.685  22.190  1.00  0.00     0.014 C 
ATOM      4  C   UNL     1     -28.203  -0.551  23.379  1.00  0.00     0.030 C 
ATOM      5  C   UNL     1     -30.205   0.253  25.380  1.00  0.00     0.004 C 
ATOM      6  C   UNL     1     -29.878  -0.043  20.885  1.00  0.00     0.013 C 
ATOM      7  C   UNL     1     -28.079  -1.327  22.056  1.00  0.00    -0.063 C 
ATOM      8  C   UNL     1     -28.377  -1.445  24.690  1.00  0.00    -0.003 C 
ATOM      9  C   UNL     1     -29.179  -0.786  25.863  1.00  0.00    -0.011 C 
ATOM     10  C   UNL     1     -29.336  -1.487  21.152  1.00  0.00    -0.006 C 
ATOM     11  C   UNL     1     -26.830  -1.544  21.586  1.00  0.00    -0.027 C 
ATOM     12  C   UNL     1     -28.800  -2.923  24.494  1.00  0.00     0.008 C 
ATOM     13  C   UNL     1     -28.273  -0.249  26.989  1.00  0.00     0.008 C 
ATOM     14  C   UNL     1     -30.471  -2.258  21.904  1.00  0.00     0.017 C 
ATOM     15  C   UNL     1     -28.943  -2.293  19.808  1.00  0.00    -0.020 C 
ATOM     16  C   UNL     1     -26.484  -1.890  20.158  1.00  0.00     0.032 C 
ATOM     17  C   UNL     1     -27.666  -1.635  19.177  1.00  0.00     0.006 C 
ATOM     18  C   UNL     1     -30.075  -2.255  18.766  1.00  0.00     0.008 C 
ATOM     19  C   UNL     1     -28.672  -3.798  20.173  1.00  0.00     0.012 C 
ATOM     20  C   UNL     1     -27.434  -1.879  17.601  1.00  0.00    -0.025 C 
ATOM     21  C   UNL     1     -29.761  -3.048  17.492  1.00  0.00     0.005 C 
ATOM     22  C   UNL     1     -28.253  -3.125  17.056  1.00  0.00     0.003 C 
ATOM     23  C   UNL     1     -27.894  -0.610  16.786  1.00  0.00     0.010 C 
ATOM     24  C   UNL     1     -25.909  -2.065  17.369  1.00  0.00     0.012 C 
ATOM     25  C   UNL     1     -28.072  -3.423  15.497  1.00  0.00    -0.006 C 
ATOM     26  C   UNL     1     -28.460  -0.870  15.370  1.00  0.00     0.033 C 
ATOM     27  C   UNL     1     -27.900  -2.098  14.644  1.00  0.00     0.120 C 
ATOM     28  C   UNL     1     -29.299  -4.202  14.923  1.00  0.00     0.014 C 
ATOM     29  C   UNL     1     -26.876  -4.401  15.268  1.00  0.00     0.014 C 
ENDROOT
BRANCH   1  30
ATOM     30  C   UNL     1     -28.115   1.882  22.573  1.00  0.00     0.048 C 
ATOM     31  O   UNL     1     -28.594   2.863  21.929  1.00  0.00    -0.550 OA
ATOM     32  O   UNL     1     -26.745   1.850  22.811  1.00  0.00    -0.550 OA
ENDBRANCH   1  30
BRANCH  27  33
ATOM     33  O   UNL     1     -26.563  -1.842  14.301  1.00  0.00    -0.393 OA
ATOM     34  H   UNL     1     -26.054  -2.690  14.407  1.00  0.00     0.210 HD
ENDBRANCH  27  33
TORSDOF 2
ENDMDL
MODEL 3
REMARK VINA RESULT:     6.107      3.509     10.266
REMARK INTER + INTRA:           6.435
REMARK INTER:                   6.654
REMARK INTRA:                  -0.220
REMARK UNBOUND:                -0.208
REMARK SMILES C[C@H]1[C@H]2C3=CC[C@H]4[C@]5(C)CC[C@@H](O)C(C)(C)[C@@H]5CC[C@]4(C)[C@]3(C)CC[C@@]2(C(=O)[O-])CC[C@@H]1C
REMARK SMILES IDX 26 1 30 2 25 3 3 4 31 5 24 6 4 7 2 8 32 9 22 10 5 11 1 12
REMARK SMILES IDX 33 13 23 14 20 15 6 16 7 17 19 18 21 19 8 20 18 21 17 22
REMARK SMILES IDX 10 23 9 24 14 25 11 26 12 27 15 28 16 29 27 30 28 31 29 32
REMARK SMILES IDX 13 33
REMARK H PARENT 13 34
REMARK Flexibility Score: inf
ROOT
ATOM      1  C   UNL     1     -29.415   0.591  22.820  1.00  0.00     0.017 C 
ATOM      2  C   UNL     1     -28.912   0.437  21.361  1.00  0.00     0.014 C 
ATOM      3  C   UNL     1     -28.384   1.461  23.600  1.00  0.00     0.014 C 
ATOM      4  C   UNL     1     -29.702  -0.839  23.475  1.00  0.00     0.030 C 
ATOM      5  C   UNL     1     -27.833  -0.626  21.212  1.00  0.00     0.004 C 
ATOM      6  C   UNL     1     -28.644   1.502  25.112  1.00  0.00     0.013 C 
ATOM      7  C   UNL     1     -29.737  -0.745  25.010  1.00  0.00    -0.063 C 
ATOM      8  C   UNL     1     -29.066  -2.176  22.879  1.00  0.00    -0.003 C 
ATOM      9  C   UNL     1     -28.379  -2.040  21.478  1.00  0.00    -0.011 C 
ATOM     10  C   UNL     1     -28.633   0.070  25.744  1.00  0.00    -0.006 C 
ATOM     11  C   UNL     1     -30.894  -1.089  25.620  1.00  0.00    -0.027 C 
ATOM     12  C   UNL     1     -28.205  -3.042  23.833  1.00  0.00     0.008 C 
ATOM     13  C   UNL     1     -29.253  -2.568  20.322  1.00  0.00     0.008 C 
ATOM     14  C   UNL     1     -27.215  -0.531  25.463  1.00  0.00     0.017 C 
ATOM     15  C   UNL     1     -28.911   0.059  27.335  1.00  0.00    -0.020 C 
ATOM     16  C   UNL     1     -31.294  -0.689  27.020  1.00  0.00     0.032 C 
ATOM     17  C   UNL     1     -30.407   0.457  27.591  1.00  0.00     0.006 C 
ATOM     18  C   UNL     1     -28.007   1.056  28.082  1.00  0.00     0.008 C 
ATOM     19  C   UNL     1     -28.613  -1.379  27.898  1.00  0.00     0.012 C 
ATOM     20  C   UNL     1     -30.754   1.057  29.046  1.00  0.00    -0.025 C 
ATOM     21  C   UNL     1     -28.208   1.043  29.601  1.00  0.00     0.005 C 
ATOM     22  C   UNL     1     -29.648   0.696  30.126  1.00  0.00     0.003 C 
ATOM     23  C   UNL     1     -30.857   2.628  28.971  1.00  0.00     0.010 C 
ATOM     24  C   UNL     1     -32.146   0.509  29.465  1.00  0.00     0.012 C 
ATOM     25  C   UNL     1     -29.927   1.263  31.594  1.00  0.00    -0.006 C 
ATOM     26  C   UNL     1     -30.433   3.406  30.239  1.00  0.00     0.033 C 
ATOM     27  C   UNL     1     -30.643   2.676  31.570  1.00  0.00     0.120 C 
ATOM     28  C   UNL     1     -28.599   1.417  32.404  1.00  0.00     0.014 C 
ATOM     29  C   UNL     1     -30.747   0.228  32.427  1.00  0.00     0.014 C 
ENDROOT
BRANCH   1  30
ATOM     30  C   UNL     1     -30.703   1.419  22.786  1.00  0.00     0.048 C 
ATOM     31  O   UNL     1     -30.672   2.681  22.670  1.00  0.00    -0.550 OA
ATOM     32  O   UNL     1     -31.942   0.784  22.785  1.00  0.00    -0.550 OA
ENDBRANCH   1  30
BRANCH  27  33
ATOM     33  O   UNL     1     -32.023   2.591  31.818  1.00  0.00    -0.393 OA
ATOM     34  H   UNL     1     -32.385   1.847  31.267  1.00  0.00     0.210 HD
ENDBRANCH  27  33
TORSDOF 2
ENDMDL
