MODEL 1
REMARK VINA RESULT:    -5.889      0.000      0.000
REMARK INTER + INTRA:         -12.244
REMARK INTER:                 -10.708
REMARK INTRA:                  -1.535
REMARK UNBOUND:                -1.535
REMARK SMILES CCCCCC=CCC=CCCCCCCCC(=O)[O-]
REMARK SMILES IDX 11 1 12 2 13 3 14 4 15 5 16 6 17 7 18 8 19 9 20 10 10 11
REMARK SMILES IDX 9 12 8 13 7 14 6 15 5 16 4 17 3 18 2 19 1 20
REMARK H PARENT
REMARK Flexibility Score: inf
ROOT
ATOM      1  C   UNL     1      11.739   4.040  53.615  1.00  0.00     0.027 C 
ENDROOT
BRANCH   1   2
ATOM      2  C   UNL     1      10.745   3.256  54.486  1.00  0.00     0.004 C 
BRANCH   2   3
ATOM      3  C   UNL     1       9.496   4.078  54.844  1.00  0.00     0.000 C 
BRANCH   3   4
ATOM      4  C   UNL     1       9.806   5.236  55.806  1.00  0.00     0.000 C 
BRANCH   4   5
ATOM      5  C   UNL     1       9.462   6.588  55.162  1.00  0.00     0.000 C 
BRANCH   5   6
ATOM      6  C   UNL     1      10.548   7.654  55.398  1.00  0.00     0.006 C 
BRANCH   6   7
ATOM      7  C   UNL     1      11.513   7.846  54.218  1.00  0.00     0.053 C 
BRANCH   7   8
ATOM      8  C   UNL     1      10.797   7.860  52.902  1.00  0.00     0.041 C 
ATOM      9  O   UNL     1      10.939   6.906  52.094  1.00  0.00    -0.550 OA
ATOM     10  O   UNL     1       9.946   8.912  52.584  1.00  0.00    -0.550 OA
ENDBRANCH   7   8
ENDBRANCH   6   7
ENDBRANCH   5   6
ENDBRANCH   4   5
ENDBRANCH   3   4
ENDBRANCH   2   3
ENDBRANCH   1   2
BRANCH   1  11
ATOM     11  C   UNL     1      12.998   4.346  54.377  1.00  0.00    -0.031 C 
ATOM     12  C   UNL     1      13.254   3.782  55.568  1.00  0.00    -0.027 C 
BRANCH  12  13
ATOM     13  C   UNL     1      14.507   4.094  56.332  1.00  0.00     0.054 C 
BRANCH  13  14
ATOM     14  C   UNL     1      15.718   3.663  55.541  1.00  0.00    -0.027 C 
ATOM     15  C   UNL     1      16.269   2.436  55.575  1.00  0.00    -0.031 C 
BRANCH  15  16
ATOM     16  C   UNL     1      15.737   1.272  56.372  1.00  0.00     0.027 C 
BRANCH  16  17
ATOM     17  C   UNL     1      16.706   0.085  56.330  1.00  0.00     0.004 C 
BRANCH  17  18
ATOM     18  C   UNL     1      17.493  -0.029  57.640  1.00  0.00     0.000 C 
BRANCH  18  19
ATOM     19  C   UNL     1      16.572   0.146  58.853  1.00  0.00    -0.003 C 
ATOM     20  C   UNL     1      17.376   0.400  60.125  1.00  0.00     0.004 C 
ENDBRANCH  18  19
ENDBRANCH  17  18
ENDBRANCH  16  17
ENDBRANCH  15  16
ENDBRANCH  13  14
ENDBRANCH  12  13
ENDBRANCH   1  11
TORSDOF 14
ENDMDL
MODEL 2
REMARK VINA RESULT:    -5.800      3.670      8.315
REMARK INTER + INTRA:         -12.083
REMARK INTER:                  -9.731
REMARK INTRA:                  -2.351
REMARK UNBOUND:                -1.535
REMARK SMILES CCCCCC=CCC=CCCCCCCCC(=O)[O-]
REMARK SMILES IDX 11 1 12 2 13 3 14 4 15 5 16 6 17 7 18 8 19 9 20 10 10 11
REMARK SMILES IDX 9 12 8 13 7 14 6 15 5 16 4 17 3 18 2 19 1 20
REMARK H PARENT
REMARK Flexibility Score: inf
ROOT
ATOM      1  C   UNL     1      12.275   5.883  52.656  1.00  0.00     0.027 C 
ENDROOT
BRANCH   1   2
ATOM      2  C   UNL     1      11.845   4.408  52.654  1.00  0.00     0.004 C 
BRANCH   2   3
ATOM      3  C   UNL     1      11.828   3.795  54.063  1.00  0.00     0.000 C 
BRANCH   3   4
ATOM      4  C   UNL     1      10.408   3.456  54.543  1.00  0.00     0.000 C 
BRANCH   4   5
ATOM      5  C   UNL     1      10.081   4.195  55.850  1.00  0.00     0.000 C 
BRANCH   5   6
ATOM      6  C   UNL     1      11.341   4.647  56.611  1.00  0.00     0.006 C 
BRANCH   6   7
ATOM      7  C   UNL     1      11.773   3.698  57.739  1.00  0.00     0.053 C 
BRANCH   7   8
ATOM      8  C   UNL     1      12.912   2.816  57.328  1.00  0.00     0.041 C 
ATOM      9  O   UNL     1      12.918   1.599  57.649  1.00  0.00    -0.550 OA
ATOM     10  O   UNL     1      13.950   3.332  56.562  1.00  0.00    -0.550 OA
ENDBRANCH   7   8
ENDBRANCH   6   7
ENDBRANCH   5   6
ENDBRANCH   4   5
ENDBRANCH   3   4
ENDBRANCH   2   3
ENDBRANCH   1   2
BRANCH   1  11
ATOM     11  C   UNL     1      11.365   6.708  53.522  1.00  0.00    -0.031 C 
ATOM     12  C   UNL     1      11.795   7.824  54.131  1.00  0.00    -0.027 C 
BRANCH  12  13
ATOM     13  C   UNL     1      10.887   8.642  55.003  1.00  0.00     0.054 C 
BRANCH  13  14
ATOM     14  C   UNL     1       9.677   7.831  55.397  1.00  0.00    -0.027 C 
ATOM     15  C   UNL     1       8.401   8.156  55.116  1.00  0.00    -0.031 C 
BRANCH  15  16
ATOM     16  C   UNL     1       7.973   9.360  54.316  1.00  0.00     0.027 C 
BRANCH  16  17
ATOM     17  C   UNL     1       7.286   8.939  53.011  1.00  0.00     0.004 C 
BRANCH  17  18
ATOM     18  C   UNL     1       7.923   9.638  51.805  1.00  0.00     0.000 C 
BRANCH  18  19
ATOM     19  C   UNL     1       9.384   9.209  51.628  1.00  0.00    -0.003 C 
ATOM     20  C   UNL     1       9.506   8.076  50.613  1.00  0.00     0.004 C 
ENDBRANCH  18  19
ENDBRANCH  17  18
ENDBRANCH  16  17
ENDBRANCH  15  16
ENDBRANCH  13  14
ENDBRANCH  12  13
ENDBRANCH   1  11
TORSDOF 14
ENDMDL
MODEL 3
REMARK VINA RESULT:    -5.773      3.875      8.272
REMARK INTER + INTRA:         -12.034
REMARK INTER:                 -10.303
REMARK INTRA:                  -1.731
REMARK UNBOUND:                -1.535
REMARK SMILES CCCCCC=CCC=CCCCCCCCC(=O)[O-]
REMARK SMILES IDX 11 1 12 2 13 3 14 4 15 5 16 6 17 7 18 8 19 9 20 10 10 11
REMARK SMILES IDX 9 12 8 13 7 14 6 15 5 16 4 17 3 18 2 19 1 20
REMARK H PARENT
REMARK Flexibility Score: inf
ROOT
ATOM      1  C   UNL     1      12.415   3.441  57.760  1.00  0.00     0.027 C 
ENDROOT
BRANCH   1   2
ATOM      2  C   UNL     1      13.596   2.714  57.097  1.00  0.00     0.004 C 
BRANCH   2   3
ATOM      3  C   UNL     1      14.015   3.359  55.766  1.00  0.00     0.000 C 
BRANCH   3   4
ATOM      4  C   UNL     1      15.530   3.606  55.681  1.00  0.00     0.000 C 
BRANCH   4   5
ATOM      5  C   UNL     1      16.259   2.359  55.156  1.00  0.00     0.000 C 
BRANCH   5   6
ATOM      6  C   UNL     1      17.121   1.675  56.232  1.00  0.00     0.006 C 
BRANCH   6   7
ATOM      7  C   UNL     1      16.491   0.412  56.839  1.00  0.00     0.053 C 
BRANCH   7   8
ATOM      8  C   UNL     1      16.964   0.164  58.239  1.00  0.00     0.041 C 
ATOM      9  O   UNL     1      18.149  -0.203  58.451  1.00  0.00    -0.550 OA
ATOM     10  O   UNL     1      16.105   0.372  59.311  1.00  0.00    -0.550 OA
ENDBRANCH   7   8
ENDBRANCH   6   7
ENDBRANCH   5   6
ENDBRANCH   4   5
ENDBRANCH   3   4
ENDBRANCH   2   3
ENDBRANCH   1   2
BRANCH   1  11
ATOM     11  C   UNL     1      11.333   3.735  56.758  1.00  0.00    -0.031 C 
ATOM     12  C   UNL     1      10.765   4.947  56.673  1.00  0.00    -0.027 C 
BRANCH  12  13
ATOM     13  C   UNL     1       9.678   5.237  55.678  1.00  0.00     0.054 C 
BRANCH  13  14
ATOM     14  C   UNL     1       9.165   6.643  55.866  1.00  0.00    -0.027 C 
ATOM     15  C   UNL     1       9.136   7.592  54.912  1.00  0.00    -0.031 C 
BRANCH  15  16
ATOM     16  C   UNL     1       9.565   7.390  53.481  1.00  0.00     0.027 C 
BRANCH  16  17
ATOM     17  C   UNL     1      11.086   7.522  53.337  1.00  0.00     0.004 C 
BRANCH  17  18
ATOM     18  C   UNL     1      11.655   6.394  52.470  1.00  0.00     0.000 C 
BRANCH  18  19
ATOM     19  C   UNL     1      12.382   5.352  53.329  1.00  0.00    -0.003 C 
ATOM     20  C   UNL     1      11.960   3.935  52.952  1.00  0.00     0.004 C 
ENDBRANCH  18  19
ENDBRANCH  17  18
ENDBRANCH  16  17
ENDBRANCH  15  16
ENDBRANCH  13  14
ENDBRANCH  12  13
ENDBRANCH   1  11
TORSDOF 14
ENDMDL
MODEL 4
REMARK VINA RESULT:    -5.767      3.828      8.366
REMARK INTER + INTRA:         -12.021
REMARK INTER:                 -10.278
REMARK INTRA:                  -1.743
REMARK UNBOUND:                -1.535
REMARK SMILES CCCCCC=CCC=CCCCCCCCC(=O)[O-]
REMARK SMILES IDX 11 1 12 2 13 3 14 4 15 5 16 6 17 7 18 8 19 9 20 10 10 11
REMARK SMILES IDX 9 12 8 13 7 14 6 15 5 16 4 17 3 18 2 19 1 20
REMARK H PARENT
REMARK Flexibility Score: inf
ROOT
ATOM      1  C   UNL     1      10.531   4.061  55.798  1.00  0.00     0.027 C 
ENDROOT
BRANCH   1   2
ATOM      2  C   UNL     1      11.352   3.966  57.093  1.00  0.00     0.004 C 
BRANCH   2   3
ATOM      3  C   UNL     1      12.784   3.460  56.851  1.00  0.00     0.000 C 
BRANCH   3   4
ATOM      4  C   UNL     1      13.654   4.486  56.106  1.00  0.00     0.000 C 
BRANCH   4   5
ATOM      5  C   UNL     1      14.928   3.826  55.557  1.00  0.00     0.000 C 
BRANCH   5   6
ATOM      6  C   UNL     1      15.116   2.382  56.059  1.00  0.00     0.006 C 
BRANCH   6   7
ATOM      7  C   UNL     1      16.435   1.728  55.621  1.00  0.00     0.053 C 
BRANCH   7   8
ATOM      8  C   UNL     1      16.677   0.426  56.322  1.00  0.00     0.041 C 
ATOM      9  O   UNL     1      16.552  -0.661  55.699  1.00  0.00    -0.550 OA
ATOM     10  O   UNL     1      17.074   0.415  57.653  1.00  0.00    -0.550 OA
ENDBRANCH   7   8
ENDBRANCH   6   7
ENDBRANCH   5   6
ENDBRANCH   4   5
ENDBRANCH   3   4
ENDBRANCH   2   3
ENDBRANCH   1   2
BRANCH   1  11
ATOM     11  C   UNL     1       9.516   5.166  55.884  1.00  0.00    -0.031 C 
ATOM     12  C   UNL     1       9.818   6.427  55.538  1.00  0.00    -0.027 C 
BRANCH  12  13
ATOM     13  C   UNL     1       8.806   7.531  55.633  1.00  0.00     0.054 C 
BRANCH  13  14
ATOM     14  C   UNL     1       9.474   8.867  55.418  1.00  0.00    -0.027 C 
ATOM     15  C   UNL     1       9.531   9.526  54.246  1.00  0.00    -0.031 C 
BRANCH  15  16
ATOM     16  C   UNL     1       8.891   9.061  52.963  1.00  0.00     0.027 C 
BRANCH  16  17
ATOM     17  C   UNL     1       9.952   8.689  51.920  1.00  0.00     0.004 C 
BRANCH  17  18
ATOM     18  C   UNL     1      10.343   7.212  52.037  1.00  0.00     0.000 C 
BRANCH  18  19
ATOM     19  C   UNL     1      11.739   7.060  52.652  1.00  0.00    -0.003 C 
ATOM     20  C   UNL     1      12.100   5.589  52.844  1.00  0.00     0.004 C 
ENDBRANCH  18  19
ENDBRANCH  17  18
ENDBRANCH  16  17
ENDBRANCH  15  16
ENDBRANCH  13  14
ENDBRANCH  12  13
ENDBRANCH   1  11
TORSDOF 14
ENDMDL
MODEL 5
REMARK VINA RESULT:    -5.731      3.429      8.107
REMARK INTER + INTRA:         -11.957
REMARK INTER:                 -10.050
REMARK INTRA:                  -1.908
REMARK UNBOUND:                -1.535
REMARK SMILES CCCCCC=CCC=CCCCCCCCC(=O)[O-]
REMARK SMILES IDX 11 1 12 2 13 3 14 4 15 5 16 6 17 7 18 8 19 9 20 10 10 11
REMARK SMILES IDX 9 12 8 13 7 14 6 15 5 16 4 17 3 18 2 19 1 20
REMARK H PARENT
REMARK Flexibility Score: inf
ROOT
ATOM      1  C   UNL     1      11.834   4.000  53.076  1.00  0.00     0.027 C 
ENDROOT
BRANCH   1   2
ATOM      2  C   UNL     1      11.016   3.195  54.098  1.00  0.00     0.004 C 
BRANCH   2   3
ATOM      3  C   UNL     1      10.306   4.091  55.126  1.00  0.00     0.000 C 
BRANCH   3   4
ATOM      4  C   UNL     1      10.945   4.011  56.521  1.00  0.00     0.000 C 
BRANCH   4   5
ATOM      5  C   UNL     1      12.148   3.055  56.518  1.00  0.00     0.000 C 
BRANCH   5   6
ATOM      6  C   UNL     1      13.484   3.777  56.773  1.00  0.00     0.006 C 
BRANCH   6   7
ATOM      7  C   UNL     1      14.524   3.597  55.657  1.00  0.00     0.053 C 
BRANCH   7   8
ATOM      8  C   UNL     1      15.431   2.432  55.914  1.00  0.00     0.041 C 
ATOM      9  O   UNL     1      15.068   1.506  56.686  1.00  0.00    -0.550 OA
ATOM     10  O   UNL     1      16.661   2.354  55.275  1.00  0.00    -0.550 OA
ENDBRANCH   7   8
ENDBRANCH   6   7
ENDBRANCH   5   6
ENDBRANCH   4   5
ENDBRANCH   3   4
ENDBRANCH   2   3
ENDBRANCH   1   2
BRANCH   1  11
ATOM     11  C   UNL     1      12.009   5.423  53.528  1.00  0.00    -0.031 C 
ATOM     12  C   UNL     1      11.399   6.440  52.900  1.00  0.00    -0.027 C 
BRANCH  12  13
ATOM     13  C   UNL     1      11.582   7.862  53.346  1.00  0.00     0.054 C 
BRANCH  13  14
ATOM     14  C   UNL     1      11.544   7.941  54.852  1.00  0.00    -0.027 C 
ATOM     15  C   UNL     1      10.431   7.849  55.605  1.00  0.00    -0.031 C 
BRANCH  15  16
ATOM     16  C   UNL     1       9.045   7.600  55.069  1.00  0.00     0.027 C 
BRANCH  16  17
ATOM     17  C   UNL     1       8.157   8.839  55.239  1.00  0.00     0.004 C 
BRANCH  17  18
ATOM     18  C   UNL     1       7.443   9.186  53.929  1.00  0.00     0.000 C 
BRANCH  18  19
ATOM     19  C   UNL     1       7.993   8.355  52.764  1.00  0.00    -0.003 C 
ATOM     20  C   UNL     1       7.668   9.003  51.421  1.00  0.00     0.004 C 
ENDBRANCH  18  19
ENDBRANCH  17  18
ENDBRANCH  16  17
ENDBRANCH  15  16
ENDBRANCH  13  14
ENDBRANCH  12  13
ENDBRANCH   1  11
TORSDOF 14
ENDMDL
MODEL 6
REMARK VINA RESULT:    -5.697      2.003      3.705
REMARK INTER + INTRA:         -11.895
REMARK INTER:                 -10.670
REMARK INTRA:                  -1.225
REMARK UNBOUND:                -1.535
REMARK SMILES CCCCCC=CCC=CCCCCCCCC(=O)[O-]
REMARK SMILES IDX 11 1 12 2 13 3 14 4 15 5 16 6 17 7 18 8 19 9 20 10 10 11
REMARK SMILES IDX 9 12 8 13 7 14 6 15 5 16 4 17 3 18 2 19 1 20
REMARK H PARENT
REMARK Flexibility Score: inf
ROOT
ATOM      1  C   UNL     1      11.625   6.316  52.292  1.00  0.00     0.027 C 
ENDROOT
BRANCH   1   2
ATOM      2  C   UNL     1      10.633   7.487  52.367  1.00  0.00     0.004 C 
BRANCH   2   3
ATOM      3  C   UNL     1       9.862   7.694  51.053  1.00  0.00     0.000 C 
BRANCH   3   4
ATOM      4  C   UNL     1       8.631   8.598  51.226  1.00  0.00     0.000 C 
BRANCH   4   5
ATOM      5  C   UNL     1       8.637   9.272  52.607  1.00  0.00     0.000 C 
BRANCH   5   6
ATOM      6  C   UNL     1       7.496   8.781  53.516  1.00  0.00     0.006 C 
BRANCH   6   7
ATOM      7  C   UNL     1       7.758   8.968  55.018  1.00  0.00     0.053 C 
BRANCH   7   8
ATOM      8  C   UNL     1       9.035   8.315  55.452  1.00  0.00     0.041 C 
ATOM      9  O   UNL     1       9.106   7.062  55.544  1.00  0.00    -0.550 OA
ATOM     10  O   UNL     1      10.156   9.090  55.723  1.00  0.00    -0.550 OA
ENDBRANCH   7   8
ENDBRANCH   6   7
ENDBRANCH   5   6
ENDBRANCH   4   5
ENDBRANCH   3   4
ENDBRANCH   2   3
ENDBRANCH   1   2
BRANCH   1  11
ATOM     11  C   UNL     1      11.606   5.513  53.563  1.00  0.00    -0.031 C 
ATOM     12  C   UNL     1      11.527   4.174  53.546  1.00  0.00    -0.027 C 
BRANCH  12  13
ATOM     13  C   UNL     1      11.499   3.373  54.815  1.00  0.00     0.054 C 
BRANCH  13  14
ATOM     14  C   UNL     1      12.028   4.199  55.961  1.00  0.00    -0.027 C 
ATOM     15  C   UNL     1      13.151   3.935  56.654  1.00  0.00    -0.031 C 
BRANCH  15  16
ATOM     16  C   UNL     1      14.095   2.795  56.366  1.00  0.00     0.027 C 
BRANCH  16  17
ATOM     17  C   UNL     1      15.337   3.285  55.611  1.00  0.00     0.004 C 
BRANCH  17  18
ATOM     18  C   UNL     1      16.373   2.165  55.474  1.00  0.00     0.000 C 
BRANCH  18  19
ATOM     19  C   UNL     1      16.099   1.036  56.474  1.00  0.00    -0.003 C 
ATOM     20  C   UNL     1      16.528  -0.316  55.911  1.00  0.00     0.004 C 
ENDBRANCH  18  19
ENDBRANCH  17  18
ENDBRANCH  16  17
ENDBRANCH  15  16
ENDBRANCH  13  14
ENDBRANCH  12  13
ENDBRANCH   1  11
TORSDOF 14
ENDMDL
MODEL 7
REMARK VINA RESULT:    -5.694      1.691      3.205
REMARK INTER + INTRA:         -11.889
REMARK INTER:                 -10.343
REMARK INTRA:                  -1.546
REMARK UNBOUND:                -1.535
REMARK SMILES CCCCCC=CCC=CCCCCCCCC(=O)[O-]
REMARK SMILES IDX 11 1 12 2 13 3 14 4 15 5 16 6 17 7 18 8 19 9 20 10 10 11
REMARK SMILES IDX 9 12 8 13 7 14 6 15 5 16 4 17 3 18 2 19 1 20
REMARK H PARENT
REMARK Flexibility Score: inf
ROOT
ATOM      1  C   UNL     1      11.944   6.011  52.573  1.00  0.00     0.027 C 
ENDROOT
BRANCH   1   2
ATOM      2  C   UNL     1      11.556   7.379  53.155  1.00  0.00     0.004 C 
BRANCH   2   3
ATOM      3  C   UNL     1      11.677   7.425  54.687  1.00  0.00     0.000 C 
BRANCH   3   4
ATOM      4  C   UNL     1      10.572   8.269  55.342  1.00  0.00     0.000 C 
BRANCH   4   5
ATOM      5  C   UNL     1       9.189   7.647  55.093  1.00  0.00     0.000 C 
BRANCH   5   6
ATOM      6  C   UNL     1       8.052   8.685  55.135  1.00  0.00     0.006 C 
BRANCH   6   7
ATOM      7  C   UNL     1       8.332   9.963  54.329  1.00  0.00     0.053 C 
BRANCH   7   8
ATOM      8  C   UNL     1       8.264   9.723  52.852  1.00  0.00     0.041 C 
ATOM      9  O   UNL     1       9.290   9.872  52.139  1.00  0.00    -0.550 OA
ATOM     10  O   UNL     1       7.075   9.303  52.269  1.00  0.00    -0.550 OA
ENDBRANCH   7   8
ENDBRANCH   6   7
ENDBRANCH   5   6
ENDBRANCH   4   5
ENDBRANCH   3   4
ENDBRANCH   2   3
ENDBRANCH   1   2
BRANCH   1  11
ATOM     11  C   UNL     1      12.157   5.001  53.666  1.00  0.00    -0.031 C 
ATOM     12  C   UNL     1      11.168   4.194  54.080  1.00  0.00    -0.027 C 
BRANCH  12  13
ATOM     13  C   UNL     1      11.379   3.192  55.178  1.00  0.00     0.054 C 
BRANCH  13  14
ATOM     14  C   UNL     1      11.866   3.886  56.426  1.00  0.00    -0.027 C 
ATOM     15  C   UNL     1      13.035   3.637  57.045  1.00  0.00    -0.031 C 
BRANCH  15  16
ATOM     16  C   UNL     1      14.075   2.657  56.564  1.00  0.00     0.027 C 
BRANCH  16  17
ATOM     17  C   UNL     1      15.056   3.325  55.594  1.00  0.00     0.004 C 
BRANCH  17  18
ATOM     18  C   UNL     1      16.415   2.616  55.612  1.00  0.00     0.000 C 
BRANCH  18  19
ATOM     19  C   UNL     1      16.242   1.098  55.734  1.00  0.00    -0.003 C 
ATOM     20  C   UNL     1      17.008   0.550  56.934  1.00  0.00     0.004 C 
ENDBRANCH  18  19
ENDBRANCH  17  18
ENDBRANCH  16  17
ENDBRANCH  15  16
ENDBRANCH  13  14
ENDBRANCH  12  13
ENDBRANCH   1  11
TORSDOF 14
ENDMDL
MODEL 8
REMARK VINA RESULT:    -5.645      1.660      4.164
REMARK INTER + INTRA:         -11.800
REMARK INTER:                 -10.093
REMARK INTRA:                  -1.708
REMARK UNBOUND:                -1.535
REMARK SMILES CCCCCC=CCC=CCCCCCCCC(=O)[O-]
REMARK SMILES IDX 11 1 12 2 13 3 14 4 15 5 16 6 17 7 18 8 19 9 20 10 10 11
REMARK SMILES IDX 9 12 8 13 7 14 6 15 5 16 4 17 3 18 2 19 1 20
REMARK H PARENT
REMARK Flexibility Score: inf
ROOT
ATOM      1  C   UNL     1       8.675   7.612  55.549  1.00  0.00     0.027 C 
ENDROOT
BRANCH   1   2
ATOM      2  C   UNL     1       9.379   8.976  55.494  1.00  0.00     0.004 C 
BRANCH   2   3
ATOM      3  C   UNL     1       8.799   9.897  54.408  1.00  0.00     0.000 C 
BRANCH   3   4
ATOM      4  C   UNL     1       7.955   9.133  53.374  1.00  0.00     0.000 C 
BRANCH   4   5
ATOM      5  C   UNL     1       8.440   9.430  51.947  1.00  0.00     0.000 C 
BRANCH   5   6
ATOM      6  C   UNL     1       9.855   8.888  51.672  1.00  0.00     0.006 C 
BRANCH   6   7
ATOM      7  C   UNL     1      10.016   7.382  51.926  1.00  0.00     0.053 C 
BRANCH   7   8
ATOM      8  C   UNL     1      11.297   7.064  52.636  1.00  0.00     0.041 C 
ATOM      9  O   UNL     1      11.839   7.924  53.379  1.00  0.00    -0.550 OA
ATOM     10  O   UNL     1      11.873   5.807  52.503  1.00  0.00    -0.550 OA
ENDBRANCH   7   8
ENDBRANCH   6   7
ENDBRANCH   5   6
ENDBRANCH   4   5
ENDBRANCH   3   4
ENDBRANCH   2   3
ENDBRANCH   1   2
BRANCH   1  11
ATOM     11  C   UNL     1       9.674   6.495  55.677  1.00  0.00    -0.031 C 
ATOM     12  C   UNL     1       9.400   5.255  55.244  1.00  0.00    -0.027 C 
BRANCH  12  13
ATOM     13  C   UNL     1      10.394   4.138  55.380  1.00  0.00     0.054 C 
BRANCH  13  14
ATOM     14  C   UNL     1      11.324   4.411  56.537  1.00  0.00    -0.027 C 
ATOM     15  C   UNL     1      12.667   4.346  56.483  1.00  0.00    -0.031 C 
BRANCH  15  16
ATOM     16  C   UNL     1      13.468   4.041  55.243  1.00  0.00     0.027 C 
BRANCH  16  17
ATOM     17  C   UNL     1      14.938   3.770  55.588  1.00  0.00     0.004 C 
BRANCH  17  18
ATOM     18  C   UNL     1      15.114   2.367  56.178  1.00  0.00     0.000 C 
BRANCH  18  19
ATOM     19  C   UNL     1      16.395   1.707  55.657  1.00  0.00    -0.003 C 
ATOM     20  C   UNL     1      16.480   0.247  56.090  1.00  0.00     0.004 C 
ENDBRANCH  18  19
ENDBRANCH  17  18
ENDBRANCH  16  17
ENDBRANCH  15  16
ENDBRANCH  13  14
ENDBRANCH  12  13
ENDBRANCH   1  11
TORSDOF 14
ENDMDL
MODEL 9
REMARK VINA RESULT:    -5.596      3.633      8.154
REMARK INTER + INTRA:         -11.711
REMARK INTER:                  -9.728
REMARK INTRA:                  -1.983
REMARK UNBOUND:                -1.535
REMARK SMILES CCCCCC=CCC=CCCCCCCCC(=O)[O-]
REMARK SMILES IDX 11 1 12 2 13 3 14 4 15 5 16 6 17 7 18 8 19 9 20 10 10 11
REMARK SMILES IDX 9 12 8 13 7 14 6 15 5 16 4 17 3 18 2 19 1 20
REMARK H PARENT
REMARK Flexibility Score: inf
ROOT
ATOM      1  C   UNL     1      12.025   6.260  53.032  1.00  0.00     0.027 C 
ENDROOT
BRANCH   1   2
ATOM      2  C   UNL     1      12.155   4.729  53.064  1.00  0.00     0.004 C 
BRANCH   2   3
ATOM      3  C   UNL     1      11.148   4.070  54.020  1.00  0.00     0.000 C 
BRANCH   3   4
ATOM      4  C   UNL     1      10.196   5.087  54.668  1.00  0.00     0.000 C 
BRANCH   4   5
ATOM      5  C   UNL     1      10.187   4.933  56.196  1.00  0.00     0.000 C 
BRANCH   5   6
ATOM      6  C   UNL     1      11.602   4.804  56.791  1.00  0.00     0.006 C 
BRANCH   6   7
ATOM      7  C   UNL     1      11.818   3.544  57.642  1.00  0.00     0.053 C 
BRANCH   7   8
ATOM      8  C   UNL     1      12.943   2.700  57.125  1.00  0.00     0.041 C 
ATOM      9  O   UNL     1      13.074   1.511  57.516  1.00  0.00    -0.550 OA
ATOM     10  O   UNL     1      13.825   3.218  56.185  1.00  0.00    -0.550 OA
ENDBRANCH   7   8
ENDBRANCH   6   7
ENDBRANCH   5   6
ENDBRANCH   4   5
ENDBRANCH   3   4
ENDBRANCH   2   3
ENDBRANCH   1   2
BRANCH   1  11
ATOM     11  C   UNL     1      10.998   6.692  52.023  1.00  0.00    -0.031 C 
ATOM     12  C   UNL     1      10.346   7.859  52.141  1.00  0.00    -0.027 C 
BRANCH  12  13
ATOM     13  C   UNL     1       9.313   8.286  51.138  1.00  0.00     0.054 C 
BRANCH  13  14
ATOM     14  C   UNL     1       8.773   9.648  51.499  1.00  0.00    -0.027 C 
ATOM     15  C   UNL     1       7.843   9.889  52.442  1.00  0.00    -0.031 C 
BRANCH  15  16
ATOM     16  C   UNL     1       7.224   8.841  53.331  1.00  0.00     0.027 C 
BRANCH  16  17
ATOM     17  C   UNL     1       7.480   9.152  54.811  1.00  0.00     0.004 C 
BRANCH  17  18
ATOM     18  C   UNL     1       8.743   8.443  55.311  1.00  0.00     0.000 C 
BRANCH  18  19
ATOM     19  C   UNL     1       9.849   9.453  55.635  1.00  0.00    -0.003 C 
ATOM     20  C   UNL     1      11.232   8.825  55.483  1.00  0.00     0.004 C 
ENDBRANCH  18  19
ENDBRANCH  17  18
ENDBRANCH  16  17
ENDBRANCH  15  16
ENDBRANCH  13  14
ENDBRANCH  12  13
ENDBRANCH   1  11
TORSDOF 14
ENDMDL
