MODEL 1
REMARK VINA RESULT:    -5.375      0.000      0.000
REMARK INTER + INTRA:          -5.532
REMARK INTER:                  -5.532
REMARK INTRA:                   0.000
REMARK UNBOUND:                 0.000
REMARK SMILES O=c1ccc2ccc(O)cc2o1
REMARK SMILES IDX 6 1 7 2 8 3 10 4 11 5 5 6 4 7 3 8 2 9 1 10 12 11 9 12
REMARK H PARENT 9 13
REMARK Flexibility Score: inf
ROOT
ATOM      1  C   UNL     1      -9.002  -9.972  27.617  1.00  0.00     0.016 A 
ATOM      2  C   UNL     1      -9.930  -9.215  28.339  1.00  0.00     0.047 A 
ATOM      3  C   UNL     1      -9.730  -8.967  29.706  1.00  0.00     0.119 A 
ATOM      4  C   UNL     1      -8.598  -9.480  30.351  1.00  0.00     0.094 A 
ATOM      5  C   UNL     1      -7.664 -10.238  29.637  1.00  0.00     0.142 A 
ATOM      6  C   UNL     1      -7.867 -10.487  28.261  1.00  0.00     0.018 A 
ATOM      7  C   UNL     1      -6.918 -11.249  27.574  1.00  0.00     0.019 A 
ATOM      8  C   UNL     1      -5.806 -11.738  28.261  1.00  0.00     0.094 A 
ATOM      9  C   UNL     1      -5.670 -11.451  29.623  1.00  0.00     0.336 A 
ATOM     10  O   UNL     1      -4.674 -11.884  30.259  1.00  0.00    -0.246 OA
ATOM     11  O   UNL     1      -6.590 -10.724  30.254  1.00  0.00    -0.423 OA
ENDROOT
BRANCH   3  12
ATOM     12  O   UNL     1     -10.650  -8.213  30.431  1.00  0.00    -0.508 OA
ATOM     13  H   UNL     1     -11.378  -8.651  30.982  1.00  0.00     0.293 HD
ENDBRANCH   3  12
TORSDOF 1
ENDMDL
MODEL 2
REMARK VINA RESULT:    -5.254      1.386      1.773
REMARK INTER + INTRA:          -5.407
REMARK INTER:                  -5.407
REMARK INTRA:                   0.000
REMARK UNBOUND:                 0.000
REMARK SMILES O=c1ccc2ccc(O)cc2o1
REMARK SMILES IDX 6 1 7 2 8 3 10 4 11 5 5 6 4 7 3 8 2 9 1 10 12 11 9 12
REMARK H PARENT 9 13
REMARK Flexibility Score: inf
ROOT
ATOM      1  C   UNL     1      -9.446  -8.720  28.975  1.00  0.00     0.016 A 
ATOM      2  C   UNL     1      -9.472  -7.936  30.132  1.00  0.00     0.047 A 
ATOM      3  C   UNL     1      -8.451  -8.051  31.088  1.00  0.00     0.119 A 
ATOM      4  C   UNL     1      -7.401  -8.956  30.883  1.00  0.00     0.094 A 
ATOM      5  C   UNL     1      -7.367  -9.744  29.728  1.00  0.00     0.142 A 
ATOM      6  C   UNL     1      -8.396  -9.627  28.767  1.00  0.00     0.018 A 
ATOM      7  C   UNL     1      -8.335 -10.428  27.624  1.00  0.00     0.019 A 
ATOM      8  C   UNL     1      -7.269 -11.314  27.466  1.00  0.00     0.094 A 
ATOM      9  C   UNL     1      -6.285 -11.376  28.458  1.00  0.00     0.336 A 
ATOM     10  O   UNL     1      -5.316 -12.170  28.333  1.00  0.00    -0.246 OA
ATOM     11  O   UNL     1      -6.368 -10.602  29.538  1.00  0.00    -0.423 OA
ENDROOT
BRANCH   3  12
ATOM     12  O   UNL     1      -8.470  -7.273  32.242  1.00  0.00    -0.508 OA
ATOM     13  H   UNL     1      -7.833  -7.448  33.010  1.00  0.00     0.293 HD
ENDBRANCH   3  12
TORSDOF 1
ENDMDL
MODEL 3
REMARK VINA RESULT:    -5.110      1.536      2.490
REMARK INTER + INTRA:          -5.260
REMARK INTER:                  -5.260
REMARK INTRA:                   0.000
REMARK UNBOUND:                 0.000
REMARK SMILES O=c1ccc2ccc(O)cc2o1
REMARK SMILES IDX 6 1 7 2 8 3 10 4 11 5 5 6 4 7 3 8 2 9 1 10 12 11 9 12
REMARK H PARENT 9 13
REMARK Flexibility Score: inf
ROOT
ATOM      1  C   UNL     1      -8.380  -7.981  30.908  1.00  0.00     0.016 A 
ATOM      2  C   UNL     1      -9.528  -8.102  30.120  1.00  0.00     0.047 A 
ATOM      3  C   UNL     1      -9.634  -9.136  29.177  1.00  0.00     0.119 A 
ATOM      4  C   UNL     1      -8.585 -10.052  29.025  1.00  0.00     0.094 A 
ATOM      5  C   UNL     1      -7.432  -9.939  29.809  1.00  0.00     0.142 A 
ATOM      6  C   UNL     1      -7.328  -8.896  30.757  1.00  0.00     0.018 A 
ATOM      7  C   UNL     1      -6.164  -8.808  31.527  1.00  0.00     0.019 A 
ATOM      8  C   UNL     1      -5.147  -9.745  31.337  1.00  0.00     0.094 A 
ATOM      9  C   UNL     1      -5.320 -10.750  30.381  1.00  0.00     0.336 A 
ATOM     10  O   UNL     1      -4.413 -11.603  30.196  1.00  0.00    -0.246 OA
ATOM     11  O   UNL     1      -6.438 -10.811  29.661  1.00  0.00    -0.423 OA
ENDROOT
BRANCH   3  12
ATOM     12  O   UNL     1     -10.775  -9.262  28.389  1.00  0.00    -0.508 OA
ATOM     13  H   UNL     1     -11.681  -9.460  28.796  1.00  0.00     0.293 HD
ENDBRANCH   3  12
TORSDOF 1
ENDMDL
MODEL 4
REMARK VINA RESULT:    -5.063      1.973      3.625
REMARK INTER + INTRA:          -5.211
REMARK INTER:                  -5.211
REMARK INTRA:                   0.000
REMARK UNBOUND:                 0.000
REMARK SMILES O=c1ccc2ccc(O)cc2o1
REMARK SMILES IDX 6 1 7 2 8 3 10 4 11 5 5 6 4 7 3 8 2 9 1 10 12 11 9 12
REMARK H PARENT 9 13
REMARK Flexibility Score: inf
ROOT
ATOM      1  C   UNL     1      -9.774  -8.893  28.669  1.00  0.00     0.016 A 
ATOM      2  C   UNL     1      -9.424  -9.708  27.588  1.00  0.00     0.047 A 
ATOM      3  C   UNL     1      -8.182 -10.361  27.568  1.00  0.00     0.119 A 
ATOM      4  C   UNL     1      -7.289 -10.197  28.634  1.00  0.00     0.094 A 
ATOM      5  C   UNL     1      -7.631  -9.384  29.719  1.00  0.00     0.142 A 
ATOM      6  C   UNL     1      -8.881  -8.727  29.738  1.00  0.00     0.018 A 
ATOM      7  C   UNL     1      -9.195  -7.920  30.836  1.00  0.00     0.019 A 
ATOM      8  C   UNL     1      -8.271  -7.789  31.873  1.00  0.00     0.094 A 
ATOM      9  C   UNL     1      -7.053  -8.470  31.788  1.00  0.00     0.336 A 
ATOM     10  O   UNL     1      -6.207  -8.363  32.714  1.00  0.00    -0.246 OA
ATOM     11  O   UNL     1      -6.779  -9.231  30.731  1.00  0.00    -0.423 OA
ENDROOT
BRANCH   3  12
ATOM     12  O   UNL     1      -7.827 -11.174  26.494  1.00  0.00    -0.508 OA
ATOM     13  H   UNL     1      -7.961 -10.875  25.536  1.00  0.00     0.293 HD
ENDBRANCH   3  12
TORSDOF 1
ENDMDL
MODEL 5
REMARK VINA RESULT:    -5.015      1.479      4.087
REMARK INTER + INTRA:          -5.161
REMARK INTER:                  -5.161
REMARK INTRA:                   0.000
REMARK UNBOUND:                 0.000
REMARK SMILES O=c1ccc2ccc(O)cc2o1
REMARK SMILES IDX 6 1 7 2 8 3 10 4 11 5 5 6 4 7 3 8 2 9 1 10 12 11 9 12
REMARK H PARENT 9 13
REMARK Flexibility Score: inf
ROOT
ATOM      1  C   UNL     1      -8.321 -10.372  27.712  1.00  0.00     0.016 A 
ATOM      2  C   UNL     1      -7.265 -11.265  27.503  1.00  0.00     0.047 A 
ATOM      3  C   UNL     1      -6.251 -11.398  28.464  1.00  0.00     0.119 A 
ATOM      4  C   UNL     1      -6.295 -10.634  29.637  1.00  0.00     0.094 A 
ATOM      5  C   UNL     1      -7.348  -9.740  29.855  1.00  0.00     0.142 A 
ATOM      6  C   UNL     1      -8.368  -9.607  28.886  1.00  0.00     0.018 A 
ATOM      7  C   UNL     1      -9.407  -8.704  29.131  1.00  0.00     0.019 A 
ATOM      8  C   UNL     1      -9.407  -7.967  30.315  1.00  0.00     0.094 A 
ATOM      9  C   UNL     1      -8.365  -8.150  31.229  1.00  0.00     0.336 A 
ATOM     10  O   UNL     1      -8.348  -7.493  32.303  1.00  0.00    -0.246 OA
ATOM     11  O   UNL     1      -7.387  -9.016  30.971  1.00  0.00    -0.423 OA
ENDROOT
BRANCH   3  12
ATOM     12  O   UNL     1      -5.196 -12.285  28.262  1.00  0.00    -0.508 OA
ATOM     13  H   UNL     1      -4.761 -12.393  27.354  1.00  0.00     0.293 HD
ENDBRANCH   3  12
TORSDOF 1
ENDMDL
MODEL 6
REMARK VINA RESULT:    -4.943      2.300      3.016
REMARK INTER + INTRA:          -5.087
REMARK INTER:                  -5.087
REMARK INTRA:                   0.000
REMARK UNBOUND:                 0.000
REMARK SMILES O=c1ccc2ccc(O)cc2o1
REMARK SMILES IDX 6 1 7 2 8 3 10 4 11 5 5 6 4 7 3 8 2 9 1 10 12 11 9 12
REMARK H PARENT 9 13
REMARK Flexibility Score: inf
ROOT
ATOM      1  C   UNL     1      -7.160 -10.266  28.647  1.00  0.00     0.016 A 
ATOM      2  C   UNL     1      -8.459 -10.147  28.144  1.00  0.00     0.047 A 
ATOM      3  C   UNL     1      -9.396  -9.328  28.791  1.00  0.00     0.119 A 
ATOM      4  C   UNL     1      -9.030  -8.626  29.947  1.00  0.00     0.094 A 
ATOM      5  C   UNL     1      -7.733  -8.738  30.457  1.00  0.00     0.142 A 
ATOM      6  C   UNL     1      -6.791  -9.564  29.804  1.00  0.00     0.018 A 
ATOM      7  C   UNL     1      -5.502  -9.658  30.338  1.00  0.00     0.019 A 
ATOM      8  C   UNL     1      -5.186  -8.939  31.491  1.00  0.00     0.094 A 
ATOM      9  C   UNL     1      -6.169  -8.141  32.084  1.00  0.00     0.336 A 
ATOM     10  O   UNL     1      -5.903  -7.485  33.125  1.00  0.00    -0.246 OA
ATOM     11  O   UNL     1      -7.389  -8.070  31.555  1.00  0.00    -0.423 OA
ENDROOT
BRANCH   3  12
ATOM     12  O   UNL     1     -10.692  -9.204  28.295  1.00  0.00    -0.508 OA
ATOM     13  H   UNL     1     -11.245  -8.371  28.459  1.00  0.00     0.293 HD
ENDBRANCH   3  12
TORSDOF 1
ENDMDL
MODEL 7
REMARK VINA RESULT:    -4.626      8.461      9.375
REMARK INTER + INTRA:          -4.761
REMARK INTER:                  -4.761
REMARK INTRA:                   0.000
REMARK UNBOUND:                 0.000
REMARK SMILES O=c1ccc2ccc(O)cc2o1
REMARK SMILES IDX 6 1 7 2 8 3 10 4 11 5 5 6 4 7 3 8 2 9 1 10 12 11 9 12
REMARK H PARENT 9 13
REMARK Flexibility Score: inf
ROOT
ATOM      1  C   UNL     1      -9.244 -13.960  19.150  1.00  0.00     0.016 A 
ATOM      2  C   UNL     1      -9.807 -12.714  18.860  1.00  0.00     0.047 A 
ATOM      3  C   UNL     1     -10.471 -11.987  19.860  1.00  0.00     0.119 A 
ATOM      4  C   UNL     1     -10.570 -12.511  21.155  1.00  0.00     0.094 A 
ATOM      5  C   UNL     1     -10.009 -13.757  21.455  1.00  0.00     0.142 A 
ATOM      6  C   UNL     1      -9.341 -14.487  20.446  1.00  0.00     0.018 A 
ATOM      7  C   UNL     1      -8.791 -15.730  20.775  1.00  0.00     0.019 A 
ATOM      8  C   UNL     1      -8.916 -16.209  22.079  1.00  0.00     0.094 A 
ATOM      9  C   UNL     1      -9.590 -15.431  23.026  1.00  0.00     0.336 A 
ATOM     10  O   UNL     1      -9.713 -15.847  24.208  1.00  0.00    -0.246 OA
ATOM     11  O   UNL     1     -10.105 -14.252  22.686  1.00  0.00    -0.423 OA
ENDROOT
BRANCH   3  12
ATOM     12  O   UNL     1     -11.034 -10.745  19.578  1.00  0.00    -0.508 OA
ATOM     13  H   UNL     1     -10.462  -9.915  19.473  1.00  0.00     0.293 HD
ENDBRANCH   3  12
TORSDOF 1
ENDMDL
MODEL 8
REMARK VINA RESULT:    -4.603     14.846     15.763
REMARK INTER + INTRA:          -4.738
REMARK INTER:                  -4.738
REMARK INTRA:                   0.000
REMARK UNBOUND:                 0.000
REMARK SMILES O=c1ccc2ccc(O)cc2o1
REMARK SMILES IDX 6 1 7 2 8 3 10 4 11 5 5 6 4 7 3 8 2 9 1 10 12 11 9 12
REMARK H PARENT 9 13
REMARK Flexibility Score: inf
ROOT
ATOM      1  C   UNL     1     -18.108 -19.715  18.670  1.00  0.00     0.016 A 
ATOM      2  C   UNL     1     -18.752 -18.862  17.767  1.00  0.00     0.047 A 
ATOM      3  C   UNL     1     -18.311 -17.540  17.606  1.00  0.00     0.119 A 
ATOM      4  C   UNL     1     -17.223 -17.070  18.352  1.00  0.00     0.094 A 
ATOM      5  C   UNL     1     -16.572 -17.916  19.256  1.00  0.00     0.142 A 
ATOM      6  C   UNL     1     -17.017 -19.247  19.417  1.00  0.00     0.018 A 
ATOM      7  C   UNL     1     -16.348 -20.069  20.329  1.00  0.00     0.019 A 
ATOM      8  C   UNL     1     -15.269 -19.555  21.048  1.00  0.00     0.094 A 
ATOM      9  C   UNL     1     -14.883 -18.227  20.837  1.00  0.00     0.336 A 
ATOM     10  O   UNL     1     -13.912 -17.746  21.477  1.00  0.00    -0.246 OA
ATOM     11  O   UNL     1     -15.538 -17.466  19.963  1.00  0.00    -0.423 OA
ENDROOT
BRANCH   3  12
ATOM     12  O   UNL     1     -18.948 -16.686  16.710  1.00  0.00    -0.508 OA
ATOM     13  H   UNL     1     -19.554 -15.939  17.028  1.00  0.00     0.293 HD
ENDBRANCH   3  12
TORSDOF 1
ENDMDL
MODEL 9
REMARK VINA RESULT:    -4.563      7.908      8.774
REMARK INTER + INTRA:          -4.696
REMARK INTER:                  -4.696
REMARK INTRA:                   0.000
REMARK UNBOUND:                 0.000
REMARK SMILES O=c1ccc2ccc(O)cc2o1
REMARK SMILES IDX 6 1 7 2 8 3 10 4 11 5 5 6 4 7 3 8 2 9 1 10 12 11 9 12
REMARK H PARENT 9 13
REMARK Flexibility Score: inf
ROOT
ATOM      1  C   UNL     1      -9.865 -13.179  19.926  1.00  0.00     0.016 A 
ATOM      2  C   UNL     1     -10.702 -12.864  21.001  1.00  0.00     0.047 A 
ATOM      3  C   UNL     1     -10.188 -12.812  22.306  1.00  0.00     0.119 A 
ATOM      4  C   UNL     1      -8.832 -13.076  22.534  1.00  0.00     0.094 A 
ATOM      5  C   UNL     1      -7.987 -13.392  21.465  1.00  0.00     0.142 A 
ATOM      6  C   UNL     1      -8.507 -13.444  20.152  1.00  0.00     0.018 A 
ATOM      7  C   UNL     1      -7.639 -13.763  19.103  1.00  0.00     0.019 A 
ATOM      8  C   UNL     1      -6.296 -14.019  19.381  1.00  0.00     0.094 A 
ATOM      9  C   UNL     1      -5.851 -13.948  20.705  1.00  0.00     0.336 A 
ATOM     10  O   UNL     1      -4.643 -14.175  20.976  1.00  0.00    -0.246 OA
ATOM     11  O   UNL     1      -6.699 -13.643  21.686  1.00  0.00    -0.423 OA
ENDROOT
BRANCH   3  12
ATOM     12  O   UNL     1     -11.016 -12.498  23.381  1.00  0.00    -0.508 OA
ATOM     13  H   UNL     1     -12.000 -12.296  23.251  1.00  0.00     0.293 HD
ENDBRANCH   3  12
TORSDOF 1
ENDMDL
