MODEL 1
REMARK VINA RESULT:    19.433      0.000      0.000
REMARK INTER + INTRA:          33.712
REMARK INTER:                  34.201
REMARK INTRA:                  -0.490
REMARK UNBOUND:                -0.490
REMARK SMILES CCCCCCC=CCCCCCCCC(=O)[O-]
REMARK SMILES IDX 10 1 11 2 12 3 13 4 14 5 15 6 16 7 17 8 18 9 9 10 8 11 7 12
REMARK SMILES IDX 6 13 5 14 4 15 3 16 2 17 1 18
REMARK H PARENT
REMARK Flexibility Score: inf
ROOT
ATOM      1  C   UNL     1     -33.889  36.607 -25.418  1.00  0.00     0.004 C 
ENDROOT
BRANCH   1   2
ATOM      2  C   UNL     1     -32.765  37.414 -26.091  1.00  0.00     0.000 C 
BRANCH   2   3
ATOM      3  C   UNL     1     -32.941  38.931 -25.918  1.00  0.00     0.000 C 
BRANCH   3   4
ATOM      4  C   UNL     1     -31.602  39.684 -25.920  1.00  0.00     0.000 C 
BRANCH   4   5
ATOM      5  C   UNL     1     -31.647  40.888 -24.968  1.00  0.00     0.006 C 
BRANCH   5   6
ATOM      6  C   UNL     1     -33.011  41.037 -24.282  1.00  0.00     0.053 C 
BRANCH   6   7
ATOM      7  C   UNL     1     -33.003  40.459 -22.900  1.00  0.00     0.041 C 
ATOM      8  O   UNL     1     -31.912  40.252 -22.305  1.00  0.00    -0.550 OA
ATOM      9  O   UNL     1     -34.199  40.119 -22.281  1.00  0.00    -0.550 OA
ENDBRANCH   6   7
ENDBRANCH   5   6
ENDBRANCH   4   5
ENDBRANCH   3   4
ENDBRANCH   2   3
ENDBRANCH   1   2
BRANCH   1  10
ATOM     10  C   UNL     1     -34.007  35.189 -25.996  1.00  0.00     0.027 C 
BRANCH  10  11
ATOM     11  C   UNL     1     -35.438  34.729 -26.093  1.00  0.00    -0.031 C 
ATOM     12  C   UNL     1     -35.767  33.432 -26.008  1.00  0.00    -0.031 C 
BRANCH  12  13
ATOM     13  C   UNL     1     -37.203  32.997 -26.113  1.00  0.00     0.027 C 
BRANCH  13  14
ATOM     14  C   UNL     1     -37.560  31.997 -25.005  1.00  0.00     0.004 C 
BRANCH  14  15
ATOM     15  C   UNL     1     -36.773  30.682 -25.117  1.00  0.00     0.000 C 
BRANCH  15  16
ATOM     16  C   UNL     1     -36.175  30.233 -23.772  1.00  0.00    -0.000 C 
BRANCH  16  17
ATOM     17  C   UNL     1     -37.008  29.134 -23.096  1.00  0.00    -0.003 C 
ATOM     18  C   UNL     1     -37.600  29.580 -21.759  1.00  0.00     0.004 C 
ENDBRANCH  16  17
ENDBRANCH  15  16
ENDBRANCH  14  15
ENDBRANCH  13  14
ENDBRANCH  12  13
ENDBRANCH  10  11
ENDBRANCH   1  10
TORSDOF 13
ENDMDL
MODEL 2
REMARK VINA RESULT:    19.933      9.492     12.349
REMARK INTER + INTRA:          34.592
REMARK INTER:                  34.758
REMARK INTRA:                  -0.166
REMARK UNBOUND:                -0.490
REMARK SMILES CCCCCCC=CCCCCCCCC(=O)[O-]
REMARK SMILES IDX 10 1 11 2 12 3 13 4 14 5 15 6 16 7 17 8 18 9 9 10 8 11 7 12
REMARK SMILES IDX 6 13 5 14 4 15 3 16 2 17 1 18
REMARK H PARENT
REMARK Flexibility Score: inf
ROOT
ATOM      1  C   UNL     1     -37.329  26.582 -21.278  1.00  0.00     0.004 C 
ENDROOT
BRANCH   1   2
ATOM      2  C   UNL     1     -38.163  27.650 -22.007  1.00  0.00     0.000 C 
BRANCH   2   3
ATOM      3  C   UNL     1     -37.822  29.078 -21.553  1.00  0.00     0.000 C 
BRANCH   3   4
ATOM      4  C   UNL     1     -39.029  29.805 -20.940  1.00  0.00     0.000 C 
BRANCH   4   5
ATOM      5  C   UNL     1     -40.337  29.363 -21.613  1.00  0.00     0.006 C 
BRANCH   5   6
ATOM      6  C   UNL     1     -41.536  30.207 -21.162  1.00  0.00     0.053 C 
BRANCH   6   7
ATOM      7  C   UNL     1     -42.307  30.743 -22.329  1.00  0.00     0.041 C 
ATOM      8  O   UNL     1     -43.492  31.144 -22.178  1.00  0.00    -0.550 OA
ATOM      9  O   UNL     1     -41.728  30.770 -23.592  1.00  0.00    -0.550 OA
ENDBRANCH   6   7
ENDBRANCH   5   6
ENDBRANCH   4   5
ENDBRANCH   3   4
ENDBRANCH   2   3
ENDBRANCH   1   2
BRANCH   1  10
ATOM     10  C   UNL     1     -37.956  25.184 -21.388  1.00  0.00     0.027 C 
BRANCH  10  11
ATOM     11  C   UNL     1     -37.641  24.321 -20.196  1.00  0.00    -0.031 C 
ATOM     12  C   UNL     1     -38.222  23.126 -20.020  1.00  0.00    -0.031 C 
BRANCH  12  13
ATOM     13  C   UNL     1     -37.894  22.283 -18.818  1.00  0.00     0.027 C 
BRANCH  13  14
ATOM     14  C   UNL     1     -38.686  20.968 -18.830  1.00  0.00     0.004 C 
BRANCH  14  15
ATOM     15  C   UNL     1     -40.199  21.188 -18.671  1.00  0.00     0.000 C 
BRANCH  15  16
ATOM     16  C   UNL     1     -40.544  22.613 -18.204  1.00  0.00    -0.000 C 
BRANCH  16  17
ATOM     17  C   UNL     1     -41.977  22.724 -17.662  1.00  0.00    -0.003 C 
ATOM     18  C   UNL     1     -42.074  23.623 -16.430  1.00  0.00     0.004 C 
ENDBRANCH  16  17
ENDBRANCH  15  16
ENDBRANCH  14  15
ENDBRANCH  13  14
ENDBRANCH  12  13
ENDBRANCH  10  11
ENDBRANCH   1  10
TORSDOF 13
ENDMDL
MODEL 3
REMARK VINA RESULT:    19.992      6.154     10.895
REMARK INTER + INTRA:          34.695
REMARK INTER:                  34.617
REMARK INTRA:                   0.078
REMARK UNBOUND:                -0.490
REMARK SMILES CCCCCCC=CCCCCCCCC(=O)[O-]
REMARK SMILES IDX 10 1 11 2 12 3 13 4 14 5 15 6 16 7 17 8 18 9 9 10 8 11 7 12
REMARK SMILES IDX 6 13 5 14 4 15 3 16 2 17 1 18
REMARK H PARENT
REMARK Flexibility Score: inf
ROOT
ATOM      1  C   UNL     1     -36.994  26.818 -21.338  1.00  0.00     0.004 C 
ENDROOT
BRANCH   1   2
ATOM      2  C   UNL     1     -37.580  27.982 -22.155  1.00  0.00     0.000 C 
BRANCH   2   3
ATOM      3  C   UNL     1     -36.740  28.313 -23.399  1.00  0.00     0.000 C 
BRANCH   3   4
ATOM      4  C   UNL     1     -37.227  29.581 -24.118  1.00  0.00     0.000 C 
BRANCH   4   5
ATOM      5  C   UNL     1     -36.041  30.446 -24.569  1.00  0.00     0.006 C 
BRANCH   5   6
ATOM      6  C   UNL     1     -36.275  31.078 -25.947  1.00  0.00     0.053 C 
BRANCH   6   7
ATOM      7  C   UNL     1     -36.565  32.544 -25.843  1.00  0.00     0.041 C 
ATOM      8  O   UNL     1     -35.675  33.390 -26.124  1.00  0.00    -0.550 OA
ATOM      9  O   UNL     1     -37.811  32.977 -25.405  1.00  0.00    -0.550 OA
ENDBRANCH   6   7
ENDBRANCH   5   6
ENDBRANCH   4   5
ENDBRANCH   3   4
ENDBRANCH   2   3
ENDBRANCH   1   2
BRANCH   1  10
ATOM     10  C   UNL     1     -37.946  25.615 -21.280  1.00  0.00     0.027 C 
BRANCH  10  11
ATOM     11  C   UNL     1     -37.569  24.638 -20.198  1.00  0.00    -0.031 C 
ATOM     12  C   UNL     1     -38.236  23.488 -20.025  1.00  0.00    -0.031 C 
BRANCH  12  13
ATOM     13  C   UNL     1     -37.843  22.530 -18.933  1.00  0.00     0.027 C 
BRANCH  13  14
ATOM     14  C   UNL     1     -38.592  21.198 -19.070  1.00  0.00     0.004 C 
BRANCH  14  15
ATOM     15  C   UNL     1     -40.105  21.344 -18.844  1.00  0.00     0.000 C 
BRANCH  15  16
ATOM     16  C   UNL     1     -40.495  22.740 -18.327  1.00  0.00    -0.000 C 
BRANCH  16  17
ATOM     17  C   UNL     1     -41.804  22.725 -17.524  1.00  0.00    -0.003 C 
ATOM     18  C   UNL     1     -41.886  23.865 -16.509  1.00  0.00     0.004 C 
ENDBRANCH  16  17
ENDBRANCH  15  16
ENDBRANCH  14  15
ENDBRANCH  13  14
ENDBRANCH  12  13
ENDBRANCH  10  11
ENDBRANCH   1  10
TORSDOF 13
ENDMDL
MODEL 4
REMARK VINA RESULT:    20.090      9.757     11.856
REMARK INTER + INTRA:          34.869
REMARK INTER:                  35.480
REMARK INTRA:                  -0.611
REMARK UNBOUND:                -0.490
REMARK SMILES CCCCCCC=CCCCCCCCC(=O)[O-]
REMARK SMILES IDX 10 1 11 2 12 3 13 4 14 5 15 6 16 7 17 8 18 9 9 10 8 11 7 12
REMARK SMILES IDX 6 13 5 14 4 15 3 16 2 17 1 18
REMARK H PARENT
REMARK Flexibility Score: inf
ROOT
ATOM      1  C   UNL     1     -37.914  28.179 -22.003  1.00  0.00     0.004 C 
ENDROOT
BRANCH   1   2
ATOM      2  C   UNL     1     -38.035  29.210 -20.867  1.00  0.00     0.000 C 
BRANCH   2   3
ATOM      3  C   UNL     1     -39.347  30.008 -20.931  1.00  0.00     0.000 C 
BRANCH   3   4
ATOM      4  C   UNL     1     -40.463  29.251 -21.666  1.00  0.00     0.000 C 
BRANCH   4   5
ATOM      5  C   UNL     1     -41.846  29.788 -21.269  1.00  0.00     0.006 C 
BRANCH   5   6
ATOM      6  C   UNL     1     -42.481  30.635 -22.379  1.00  0.00     0.053 C 
BRANCH   6   7
ATOM      7  C   UNL     1     -43.486  31.602 -21.831  1.00  0.00     0.041 C 
ATOM      8  O   UNL     1     -43.733  31.631 -20.596  1.00  0.00    -0.550 OA
ATOM      9  O   UNL     1     -44.173  32.451 -22.690  1.00  0.00    -0.550 OA
ENDBRANCH   6   7
ENDBRANCH   5   6
ENDBRANCH   4   5
ENDBRANCH   3   4
ENDBRANCH   2   3
ENDBRANCH   1   2
BRANCH   1  10
ATOM     10  C   UNL     1     -37.013  26.997 -21.616  1.00  0.00     0.027 C 
BRANCH  10  11
ATOM     11  C   UNL     1     -37.793  25.725 -21.415  1.00  0.00    -0.031 C 
ATOM     12  C   UNL     1     -37.505  24.873 -20.420  1.00  0.00    -0.031 C 
BRANCH  12  13
ATOM     13  C   UNL     1     -38.296  23.606 -20.242  1.00  0.00     0.027 C 
BRANCH  13  14
ATOM     14  C   UNL     1     -37.656  22.699 -19.183  1.00  0.00     0.004 C 
BRANCH  14  15
ATOM     15  C   UNL     1     -38.681  21.792 -18.484  1.00  0.00     0.000 C 
BRANCH  15  16
ATOM     16  C   UNL     1     -40.133  22.163 -18.830  1.00  0.00    -0.000 C 
BRANCH  16  17
ATOM     17  C   UNL     1     -40.747  23.144 -17.819  1.00  0.00    -0.003 C 
ATOM     18  C   UNL     1     -42.188  22.790 -17.454  1.00  0.00     0.004 C 
ENDBRANCH  16  17
ENDBRANCH  15  16
ENDBRANCH  14  15
ENDBRANCH  13  14
ENDBRANCH  12  13
ENDBRANCH  10  11
ENDBRANCH   1  10
TORSDOF 13
ENDMDL
MODEL 5
REMARK VINA RESULT:    21.242     10.563     14.484
REMARK INTER + INTRA:          36.896
REMARK INTER:                  37.548
REMARK INTRA:                  -0.652
REMARK UNBOUND:                -0.490
REMARK SMILES CCCCCCC=CCCCCCCCC(=O)[O-]
REMARK SMILES IDX 10 1 11 2 12 3 13 4 14 5 15 6 16 7 17 8 18 9 9 10 8 11 7 12
REMARK SMILES IDX 6 13 5 14 4 15 3 16 2 17 1 18
REMARK H PARENT
REMARK Flexibility Score: inf
ROOT
ATOM      1  C   UNL     1     -37.944  24.831 -20.691  1.00  0.00     0.004 C 
ENDROOT
BRANCH   1   2
ATOM      2  C   UNL     1     -37.577  23.417 -20.211  1.00  0.00     0.000 C 
BRANCH   2   3
ATOM      3  C   UNL     1     -38.213  23.068 -18.856  1.00  0.00     0.000 C 
BRANCH   3   4
ATOM      4  C   UNL     1     -38.733  21.623 -18.804  1.00  0.00     0.000 C 
BRANCH   4   5
ATOM      5  C   UNL     1     -40.243  21.592 -18.525  1.00  0.00     0.006 C 
BRANCH   5   6
ATOM      6  C   UNL     1     -40.858  22.998 -18.493  1.00  0.00     0.053 C 
BRANCH   6   7
ATOM      7  C   UNL     1     -41.757  23.183 -17.310  1.00  0.00     0.041 C 
ATOM      8  O   UNL     1     -41.497  24.063 -16.446  1.00  0.00    -0.550 OA
ATOM      9  O   UNL     1     -42.866  22.363 -17.144  1.00  0.00    -0.550 OA
ENDBRANCH   6   7
ENDBRANCH   5   6
ENDBRANCH   4   5
ENDBRANCH   3   4
ENDBRANCH   2   3
ENDBRANCH   1   2
BRANCH   1  10
ATOM     10  C   UNL     1     -36.701  25.694 -20.951  1.00  0.00     0.027 C 
BRANCH  10  11
ATOM     11  C   UNL     1     -37.026  27.163 -21.009  1.00  0.00    -0.031 C 
ATOM     12  C   UNL     1     -37.878  27.660 -21.917  1.00  0.00    -0.031 C 
BRANCH  12  13
ATOM     13  C   UNL     1     -38.184  29.132 -21.958  1.00  0.00     0.027 C 
BRANCH  13  14
ATOM     14  C   UNL     1     -39.415  29.466 -21.105  1.00  0.00     0.004 C 
BRANCH  14  15
ATOM     15  C   UNL     1     -40.721  29.437 -21.915  1.00  0.00     0.000 C 
BRANCH  15  16
ATOM     16  C   UNL     1     -41.854  30.229 -21.238  1.00  0.00    -0.000 C 
BRANCH  16  17
ATOM     17  C   UNL     1     -42.745  30.963 -22.252  1.00  0.00    -0.003 C 
ATOM     18  C   UNL     1     -43.902  31.710 -21.588  1.00  0.00     0.004 C 
ENDBRANCH  16  17
ENDBRANCH  15  16
ENDBRANCH  14  15
ENDBRANCH  13  14
ENDBRANCH  12  13
ENDBRANCH  10  11
ENDBRANCH   1  10
TORSDOF 13
ENDMDL
MODEL 6
REMARK VINA RESULT:    21.359     10.887     13.897
REMARK INTER + INTRA:          37.102
REMARK INTER:                  36.630
REMARK INTRA:                   0.472
REMARK UNBOUND:                -0.490
REMARK SMILES CCCCCCC=CCCCCCCCC(=O)[O-]
REMARK SMILES IDX 10 1 11 2 12 3 13 4 14 5 15 6 16 7 17 8 18 9 9 10 8 11 7 12
REMARK SMILES IDX 6 13 5 14 4 15 3 16 2 17 1 18
REMARK H PARENT
REMARK Flexibility Score: inf
ROOT
ATOM      1  C   UNL     1     -37.967  26.483 -21.851  1.00  0.00     0.004 C 
ENDROOT
BRANCH   1   2
ATOM      2  C   UNL     1     -37.362  25.570 -20.771  1.00  0.00     0.000 C 
BRANCH   2   3
ATOM      3  C   UNL     1     -38.160  24.270 -20.580  1.00  0.00     0.000 C 
BRANCH   3   4
ATOM      4  C   UNL     1     -37.379  23.211 -19.789  1.00  0.00     0.000 C 
BRANCH   4   5
ATOM      5  C   UNL     1     -38.334  22.285 -19.020  1.00  0.00     0.006 C 
BRANCH   5   6
ATOM      6  C   UNL     1     -39.496  23.052 -18.378  1.00  0.00     0.053 C 
BRANCH   6   7
ATOM      7  C   UNL     1     -40.737  22.217 -18.301  1.00  0.00     0.041 C 
ATOM      8  O   UNL     1     -41.816  22.719 -17.887  1.00  0.00    -0.550 OA
ATOM      9  O   UNL     1     -40.695  20.875 -18.657  1.00  0.00    -0.550 OA
ENDBRANCH   6   7
ENDBRANCH   5   6
ENDBRANCH   4   5
ENDBRANCH   3   4
ENDBRANCH   2   3
ENDBRANCH   1   2
BRANCH   1  10
ATOM     10  C   UNL     1     -37.248  27.838 -21.931  1.00  0.00     0.027 C 
BRANCH  10  11
ATOM     11  C   UNL     1     -38.179  28.995 -21.680  1.00  0.00    -0.031 C 
ATOM     12  C   UNL     1     -39.495  28.814 -21.506  1.00  0.00    -0.031 C 
BRANCH  12  13
ATOM     13  C   UNL     1     -40.406  29.986 -21.261  1.00  0.00     0.027 C 
BRANCH  13  14
ATOM     14  C   UNL     1     -41.801  29.736 -21.849  1.00  0.00     0.004 C 
BRANCH  14  15
ATOM     15  C   UNL     1     -42.113  30.652 -23.042  1.00  0.00     0.000 C 
BRANCH  15  16
ATOM     16  C   UNL     1     -42.924  31.895 -22.637  1.00  0.00    -0.000 C 
BRANCH  16  17
ATOM     17  C   UNL     1     -43.416  31.829 -21.183  1.00  0.00    -0.003 C 
ATOM     18  C   UNL     1     -44.103  30.505 -20.853  1.00  0.00     0.004 C 
ENDBRANCH  16  17
ENDBRANCH  15  16
ENDBRANCH  14  15
ENDBRANCH  13  14
ENDBRANCH  12  13
ENDBRANCH  10  11
ENDBRANCH   1  10
TORSDOF 13
ENDMDL
MODEL 7
REMARK VINA RESULT:    21.557     10.679     14.762
REMARK INTER + INTRA:          37.450
REMARK INTER:                  37.957
REMARK INTRA:                  -0.507
REMARK UNBOUND:                -0.490
REMARK SMILES CCCCCCC=CCCCCCCCC(=O)[O-]
REMARK SMILES IDX 10 1 11 2 12 3 13 4 14 5 15 6 16 7 17 8 18 9 9 10 8 11 7 12
REMARK SMILES IDX 6 13 5 14 4 15 3 16 2 17 1 18
REMARK H PARENT
REMARK Flexibility Score: inf
ROOT
ATOM      1  C   UNL     1     -38.115  23.706 -20.413  1.00  0.00     0.004 C 
ENDROOT
BRANCH   1   2
ATOM      2  C   UNL     1     -38.037  23.143 -18.984  1.00  0.00     0.000 C 
BRANCH   2   3
ATOM      3  C   UNL     1     -38.610  21.721 -18.877  1.00  0.00     0.000 C 
BRANCH   3   4
ATOM      4  C   UNL     1     -40.136  21.713 -18.699  1.00  0.00     0.000 C 
BRANCH   4   5
ATOM      5  C   UNL     1     -40.616  23.002 -18.015  1.00  0.00     0.006 C 
BRANCH   5   6
ATOM      6  C   UNL     1     -42.018  22.851 -17.410  1.00  0.00     0.053 C 
BRANCH   6   7
ATOM      7  C   UNL     1     -42.156  23.621 -16.132  1.00  0.00     0.041 C 
ATOM      8  O   UNL     1     -43.066  23.331 -15.311  1.00  0.00    -0.550 OA
ATOM      9  O   UNL     1     -41.298  24.679 -15.862  1.00  0.00    -0.550 OA
ENDBRANCH   6   7
ENDBRANCH   5   6
ENDBRANCH   4   5
ENDBRANCH   3   4
ENDBRANCH   2   3
ENDBRANCH   1   2
BRANCH   1  10
ATOM     10  C   UNL     1     -37.277  24.983 -20.578  1.00  0.00     0.027 C 
BRANCH  10  11
ATOM     11  C   UNL     1     -37.950  25.998 -21.463  1.00  0.00    -0.031 C 
ATOM     12  C   UNL     1     -37.568  27.283 -21.477  1.00  0.00    -0.031 C 
BRANCH  12  13
ATOM     13  C   UNL     1     -38.258  28.279 -22.368  1.00  0.00     0.027 C 
BRANCH  13  14
ATOM     14  C   UNL     1     -38.938  29.381 -21.543  1.00  0.00     0.004 C 
BRANCH  14  15
ATOM     15  C   UNL     1     -40.469  29.247 -21.527  1.00  0.00     0.000 C 
BRANCH  15  16
ATOM     16  C   UNL     1     -41.169  30.359 -22.328  1.00  0.00    -0.000 C 
BRANCH  16  17
ATOM     17  C   UNL     1     -42.700  30.275 -22.236  1.00  0.00    -0.003 C 
ATOM     18  C   UNL     1     -43.330  31.562 -21.705  1.00  0.00     0.004 C 
ENDBRANCH  16  17
ENDBRANCH  15  16
ENDBRANCH  14  15
ENDBRANCH  13  14
ENDBRANCH  12  13
ENDBRANCH  10  11
ENDBRANCH   1  10
TORSDOF 13
ENDMDL
MODEL 8
REMARK VINA RESULT:    21.601      5.926     10.101
REMARK INTER + INTRA:          37.528
REMARK INTER:                  38.053
REMARK INTRA:                  -0.524
REMARK UNBOUND:                -0.490
REMARK SMILES CCCCCCC=CCCCCCCCC(=O)[O-]
REMARK SMILES IDX 10 1 11 2 12 3 13 4 14 5 15 6 16 7 17 8 18 9 9 10 8 11 7 12
REMARK SMILES IDX 6 13 5 14 4 15 3 16 2 17 1 18
REMARK H PARENT
REMARK Flexibility Score: inf
ROOT
ATOM      1  C   UNL     1     -37.629  28.750 -20.581  1.00  0.00     0.004 C 
ENDROOT
BRANCH   1   2
ATOM      2  C   UNL     1     -38.501  29.940 -21.017  1.00  0.00     0.000 C 
BRANCH   2   3
ATOM      3  C   UNL     1     -39.991  29.728 -20.701  1.00  0.00     0.000 C 
BRANCH   3   4
ATOM      4  C   UNL     1     -40.738  29.017 -21.839  1.00  0.00     0.000 C 
BRANCH   4   5
ATOM      5  C   UNL     1     -42.166  29.565 -21.987  1.00  0.00     0.006 C 
BRANCH   5   6
ATOM      6  C   UNL     1     -42.219  30.818 -22.871  1.00  0.00     0.053 C 
BRANCH   6   7
ATOM      7  C   UNL     1     -43.167  31.841 -22.326  1.00  0.00     0.041 C 
ATOM      8  O   UNL     1     -43.740  31.652 -21.220  1.00  0.00    -0.550 OA
ATOM      9  O   UNL     1     -43.443  32.991 -23.055  1.00  0.00    -0.550 OA
ENDBRANCH   6   7
ENDBRANCH   5   6
ENDBRANCH   4   5
ENDBRANCH   3   4
ENDBRANCH   2   3
ENDBRANCH   1   2
BRANCH   1  10
ATOM     10  C   UNL     1     -37.632  27.620 -21.622  1.00  0.00     0.027 C 
BRANCH  10  11
ATOM     11  C   UNL     1     -37.671  28.143 -23.033  1.00  0.00    -0.031 C 
ATOM     12  C   UNL     1     -36.719  28.959 -23.508  1.00  0.00    -0.031 C 
BRANCH  12  13
ATOM     13  C   UNL     1     -36.782  29.472 -24.921  1.00  0.00     0.027 C 
BRANCH  13  14
ATOM     14  C   UNL     1     -35.508  30.245 -25.287  1.00  0.00     0.004 C 
BRANCH  14  15
ATOM     15  C   UNL     1     -35.806  31.636 -25.867  1.00  0.00     0.000 C 
BRANCH  15  16
ATOM     16  C   UNL     1     -37.251  32.092 -25.598  1.00  0.00    -0.000 C 
BRANCH  16  17
ATOM     17  C   UNL     1     -37.522  33.518 -26.102  1.00  0.00    -0.003 C 
ATOM     18  C   UNL     1     -36.262  34.384 -26.125  1.00  0.00     0.004 C 
ENDBRANCH  16  17
ENDBRANCH  15  16
ENDBRANCH  14  15
ENDBRANCH  13  14
ENDBRANCH  12  13
ENDBRANCH  10  11
ENDBRANCH   1  10
TORSDOF 13
ENDMDL
