MODEL 1
REMARK VINA RESULT:    -4.629      0.000      0.000
REMARK INTER + INTRA:          -7.614
REMARK INTER:                  -6.253
REMARK INTRA:                  -1.361
REMARK UNBOUND:                -1.361
REMARK SMILES CC(=O)CCC=C(C)CCC=C(C)C
REMARK SMILES IDX 7 1 6 2 8 3 9 4 10 5 11 6 13 7 12 8 14 9 5 10 4 11 2 12 3 13
REMARK SMILES IDX 1 14
REMARK H PARENT
REMARK Flexibility Score: inf
ROOT
ATOM      1  C   UNL     1       4.507  31.645  53.416  1.00  0.00    -0.077 C 
ATOM      2  C   UNL     1       5.219  31.504  54.557  1.00  0.00    -0.028 C 
ATOM      3  C   UNL     1       4.954  32.567  52.306  1.00  0.00     0.039 C 
ENDROOT
BRANCH   1   4
ATOM      4  C   UNL     1       3.215  30.875  53.260  1.00  0.00     0.034 C 
BRANCH   4   5
ATOM      5  C   UNL     1       3.375  29.438  53.767  1.00  0.00     0.032 C 
BRANCH   5   6
ATOM      6  C   UNL     1       3.777  28.516  52.643  1.00  0.00    -0.028 C 
ATOM      7  C   UNL     1       5.202  26.931  51.420  1.00  0.00     0.039 C 
ATOM      8  C   UNL     1       4.952  27.851  52.587  1.00  0.00    -0.080 C 
ATOM      9  C   UNL     1       6.020  28.024  53.642  1.00  0.00     0.039 C 
ENDBRANCH   5   6
ENDBRANCH   4   5
ENDBRANCH   1   4
BRANCH   2  10
ATOM     10  C   UNL     1       6.543  32.172  54.827  1.00  0.00     0.035 C 
BRANCH  10  11
ATOM     11  C   UNL     1       7.692  31.170  54.689  1.00  0.00     0.079 C 
BRANCH  11  12
ATOM     12  C   UNL     1       8.460  31.414  53.419  1.00  0.00     0.130 C 
ATOM     13  O   UNL     1       9.351  32.248  53.400  1.00  0.00    -0.300 OA
ATOM     14  C   UNL     1       8.170  30.618  52.180  1.00  0.00     0.087 C 
ENDBRANCH  11  12
ENDBRANCH  10  11
ENDBRANCH   2  10
TORSDOF 6
ENDMDL
MODEL 2
REMARK VINA RESULT:    -4.592      2.486      5.391
REMARK INTER + INTRA:          -7.563
REMARK INTER:                  -6.724
REMARK INTRA:                  -0.839
REMARK UNBOUND:                -1.361
REMARK SMILES CC(=O)CCC=C(C)CCC=C(C)C
REMARK SMILES IDX 7 1 6 2 8 3 9 4 10 5 11 6 13 7 12 8 14 9 5 10 4 11 2 12 3 13
REMARK SMILES IDX 1 14
REMARK H PARENT
REMARK Flexibility Score: inf
ROOT
ATOM      1  C   UNL     1       5.889  30.931  54.241  1.00  0.00    -0.077 C 
ATOM      2  C   UNL     1       6.736  29.926  53.921  1.00  0.00    -0.028 C 
ATOM      3  C   UNL     1       4.391  30.737  54.259  1.00  0.00     0.039 C 
ENDROOT
BRANCH   1   4
ATOM      4  C   UNL     1       6.460  32.293  54.566  1.00  0.00     0.034 C 
BRANCH   4   5
ATOM      5  C   UNL     1       7.949  32.188  54.917  1.00  0.00     0.032 C 
BRANCH   5   6
ATOM      6  C   UNL     1       8.769  33.116  54.056  1.00  0.00    -0.028 C 
ATOM      7  C   UNL     1      10.467  33.749  52.397  1.00  0.00     0.039 C 
ATOM      8  C   UNL     1       9.757  32.712  53.229  1.00  0.00    -0.080 C 
ATOM      9  C   UNL     1      10.180  31.264  53.135  1.00  0.00     0.039 C 
ENDBRANCH   5   6
ENDBRANCH   4   5
ENDBRANCH   1   4
BRANCH   2  10
ATOM     10  C   UNL     1       6.310  28.511  53.622  1.00  0.00     0.035 C 
BRANCH  10  11
ATOM     11  C   UNL     1       6.252  28.272  52.111  1.00  0.00     0.079 C 
BRANCH  11  12
ATOM     12  C   UNL     1       5.229  27.221  51.778  1.00  0.00     0.130 C 
ATOM     13  O   UNL     1       5.359  26.546  50.769  1.00  0.00    -0.300 OA
ATOM     14  C   UNL     1       4.065  26.964  52.690  1.00  0.00     0.087 C 
ENDBRANCH  11  12
ENDBRANCH  10  11
ENDBRANCH   2  10
TORSDOF 6
ENDMDL
MODEL 3
REMARK VINA RESULT:    -4.480      2.422      4.484
REMARK INTER + INTRA:          -7.413
REMARK INTER:                  -6.233
REMARK INTRA:                  -1.179
REMARK UNBOUND:                -1.361
REMARK SMILES CC(=O)CCC=C(C)CCC=C(C)C
REMARK SMILES IDX 7 1 6 2 8 3 9 4 10 5 11 6 13 7 12 8 14 9 5 10 4 11 2 12 3 13
REMARK SMILES IDX 1 14
REMARK H PARENT
REMARK Flexibility Score: inf
ROOT
ATOM      1  C   UNL     1       5.736  32.186  53.988  1.00  0.00    -0.077 C 
ATOM      2  C   UNL     1       4.836  31.281  54.434  1.00  0.00    -0.028 C 
ATOM      3  C   UNL     1       5.485  33.020  52.754  1.00  0.00     0.039 C 
ENDROOT
BRANCH   1   4
ATOM      4  C   UNL     1       7.042  32.347  54.734  1.00  0.00     0.034 C 
BRANCH   4   5
ATOM      5  C   UNL     1       7.915  31.097  54.578  1.00  0.00     0.032 C 
BRANCH   5   6
ATOM      6  C   UNL     1       8.444  30.986  53.170  1.00  0.00    -0.028 C 
ATOM      7  C   UNL     1       8.662  30.062  50.904  1.00  0.00     0.039 C 
ATOM      8  C   UNL     1       8.079  30.026  52.293  1.00  0.00    -0.080 C 
ATOM      9  C   UNL     1       7.130  28.914  52.674  1.00  0.00     0.039 C 
ENDBRANCH   5   6
ENDBRANCH   4   5
ENDBRANCH   1   4
BRANCH   2  10
ATOM     10  C   UNL     1       3.480  31.049  53.817  1.00  0.00     0.035 C 
BRANCH  10  11
ATOM     11  C   UNL     1       3.522  29.865  52.846  1.00  0.00     0.079 C 
BRANCH  11  12
ATOM     12  C   UNL     1       3.109  28.596  53.539  1.00  0.00     0.130 C 
ATOM     13  O   UNL     1       2.145  28.602  54.289  1.00  0.00    -0.300 OA
ATOM     14  C   UNL     1       3.842  27.310  53.293  1.00  0.00     0.087 C 
ENDBRANCH  11  12
ENDBRANCH  10  11
ENDBRANCH   2  10
TORSDOF 6
ENDMDL
MODEL 4
REMARK VINA RESULT:    -4.455     10.269     12.528
REMARK INTER + INTRA:          -7.378
REMARK INTER:                  -6.918
REMARK INTRA:                  -0.460
REMARK UNBOUND:                -1.361
REMARK SMILES CC(=O)CCC=C(C)CCC=C(C)C
REMARK SMILES IDX 7 1 6 2 8 3 9 4 10 5 11 6 13 7 12 8 14 9 5 10 4 11 2 12 3 13
REMARK SMILES IDX 1 14
REMARK H PARENT
REMARK Flexibility Score: inf
ROOT
ATOM      1  C   UNL     1      11.820  22.191  57.089  1.00  0.00    -0.077 C 
ATOM      2  C   UNL     1      10.719  21.955  57.837  1.00  0.00    -0.028 C 
ATOM      3  C   UNL     1      11.740  22.872  55.743  1.00  0.00     0.039 C 
ENDROOT
BRANCH   1   4
ATOM      4  C   UNL     1      13.166  21.736  57.607  1.00  0.00     0.034 C 
BRANCH   4   5
ATOM      5  C   UNL     1      13.668  22.672  58.712  1.00  0.00     0.032 C 
BRANCH   5   6
ATOM      6  C   UNL     1      13.608  21.992  60.057  1.00  0.00    -0.028 C 
ATOM      7  C   UNL     1      14.403  21.299  62.276  1.00  0.00     0.039 C 
ATOM      8  C   UNL     1      14.619  21.987  60.953  1.00  0.00    -0.080 C 
ATOM      9  C   UNL     1      15.954  22.628  60.656  1.00  0.00     0.039 C 
ENDBRANCH   5   6
ENDBRANCH   4   5
ENDBRANCH   1   4
BRANCH   2  10
ATOM     10  C   UNL     1       9.324  22.393  57.467  1.00  0.00     0.035 C 
BRANCH  10  11
ATOM     11  C   UNL     1       8.309  21.290  57.782  1.00  0.00     0.079 C 
BRANCH  11  12
ATOM     12  C   UNL     1       7.197  21.288  56.770  1.00  0.00     0.130 C 
ATOM     13  O   UNL     1       6.225  22.008  56.937  1.00  0.00    -0.300 OA
ATOM     14  C   UNL     1       7.280  20.439  55.536  1.00  0.00     0.087 C 
ENDBRANCH  11  12
ENDBRANCH  10  11
ENDBRANCH   2  10
TORSDOF 6
ENDMDL
MODEL 5
REMARK VINA RESULT:    -4.429     13.461     15.451
REMARK INTER + INTRA:          -7.343
REMARK INTER:                  -6.527
REMARK INTRA:                  -0.816
REMARK UNBOUND:                -1.361
REMARK SMILES CC(=O)CCC=C(C)CCC=C(C)C
REMARK SMILES IDX 7 1 6 2 8 3 9 4 10 5 11 6 13 7 12 8 14 9 5 10 4 11 2 12 3 13
REMARK SMILES IDX 1 14
REMARK H PARENT
REMARK Flexibility Score: inf
ROOT
ATOM      1  C   UNL     1      13.826  20.824  58.751  1.00  0.00    -0.077 C 
ATOM      2  C   UNL     1      14.387  19.622  58.483  1.00  0.00    -0.028 C 
ATOM      3  C   UNL     1      13.310  21.726  57.654  1.00  0.00     0.039 C 
ENDROOT
BRANCH   1   4
ATOM      4  C   UNL     1      13.737  21.285  60.188  1.00  0.00     0.034 C 
BRANCH   4   5
ATOM      5  C   UNL     1      14.378  22.667  60.356  1.00  0.00     0.032 C 
BRANCH   5   6
ATOM      6  C   UNL     1      15.826  22.540  60.759  1.00  0.00    -0.028 C 
ATOM      7  C   UNL     1      18.266  22.615  60.476  1.00  0.00     0.039 C 
ATOM      8  C   UNL     1      16.869  22.738  59.924  1.00  0.00    -0.080 C 
ATOM      9  C   UNL     1      16.672  23.053  58.459  1.00  0.00     0.039 C 
ENDBRANCH   5   6
ENDBRANCH   4   5
ENDBRANCH   1   4
BRANCH   2  10
ATOM     10  C   UNL     1      14.498  19.019  57.106  1.00  0.00     0.035 C 
BRANCH  10  11
ATOM     11  C   UNL     1      15.765  18.167  56.990  1.00  0.00     0.079 C 
BRANCH  11  12
ATOM     12  C   UNL     1      15.647  17.193  55.849  1.00  0.00     0.130 C 
ATOM     13  O   UNL     1      14.969  17.481  54.875  1.00  0.00    -0.300 OA
ATOM     14  C   UNL     1      16.383  15.885  55.874  1.00  0.00     0.087 C 
ENDBRANCH  11  12
ENDBRANCH  10  11
ENDBRANCH   2  10
TORSDOF 6
ENDMDL
MODEL 6
REMARK VINA RESULT:    -4.364     13.712     15.759
REMARK INTER + INTRA:          -7.255
REMARK INTER:                  -6.576
REMARK INTRA:                  -0.679
REMARK UNBOUND:                -1.361
REMARK SMILES CC(=O)CCC=C(C)CCC=C(C)C
REMARK SMILES IDX 7 1 6 2 8 3 9 4 10 5 11 6 13 7 12 8 14 9 5 10 4 11 2 12 3 13
REMARK SMILES IDX 1 14
REMARK H PARENT
REMARK Flexibility Score: inf
ROOT
ATOM      1  C   UNL     1      14.196  20.076  57.255  1.00  0.00    -0.077 C 
ATOM      2  C   UNL     1      15.003  19.333  56.464  1.00  0.00    -0.028 C 
ATOM      3  C   UNL     1      13.584  19.518  58.519  1.00  0.00     0.039 C 
ENDROOT
BRANCH   1   4
ATOM      4  C   UNL     1      13.878  21.496  56.846  1.00  0.00     0.034 C 
BRANCH   4   5
ATOM      5  C   UNL     1      13.976  22.443  58.048  1.00  0.00     0.032 C 
BRANCH   5   6
ATOM      6  C   UNL     1      15.412  22.632  58.465  1.00  0.00    -0.028 C 
ATOM      7  C   UNL     1      17.312  22.805  60.015  1.00  0.00     0.039 C 
ATOM      8  C   UNL     1      15.837  22.645  59.748  1.00  0.00    -0.080 C 
ATOM      9  C   UNL     1      14.878  22.529  60.909  1.00  0.00     0.039 C 
ENDBRANCH   5   6
ENDBRANCH   4   5
ENDBRANCH   1   4
BRANCH   2  10
ATOM     10  C   UNL     1      15.439  17.923  56.773  1.00  0.00     0.035 C 
BRANCH  10  11
ATOM     11  C   UNL     1      15.510  17.086  55.491  1.00  0.00     0.079 C 
BRANCH  11  12
ATOM     12  C   UNL     1      16.698  16.165  55.525  1.00  0.00     0.130 C 
ATOM     13  O   UNL     1      17.631  16.352  54.759  1.00  0.00    -0.300 OA
ATOM     14  C   UNL     1      16.771  15.038  56.513  1.00  0.00     0.087 C 
ENDBRANCH  11  12
ENDBRANCH  10  11
ENDBRANCH   2  10
TORSDOF 6
ENDMDL
MODEL 7
REMARK VINA RESULT:    -4.357      1.649      2.080
REMARK INTER + INTRA:          -7.246
REMARK INTER:                  -6.230
REMARK INTRA:                  -1.016
REMARK UNBOUND:                -1.361
REMARK SMILES CC(=O)CCC=C(C)CCC=C(C)C
REMARK SMILES IDX 7 1 6 2 8 3 9 4 10 5 11 6 13 7 12 8 14 9 5 10 4 11 2 12 3 13
REMARK SMILES IDX 1 14
REMARK H PARENT
REMARK Flexibility Score: inf
ROOT
ATOM      1  C   UNL     1       4.987  31.551  53.763  1.00  0.00    -0.077 C 
ATOM      2  C   UNL     1       6.146  31.182  54.355  1.00  0.00    -0.028 C 
ATOM      3  C   UNL     1       4.960  32.480  52.572  1.00  0.00     0.039 C 
ENDROOT
BRANCH   1   4
ATOM      4  C   UNL     1       3.682  31.037  54.327  1.00  0.00     0.034 C 
BRANCH   4   5
ATOM      5  C   UNL     1       2.934  30.195  53.287  1.00  0.00     0.032 C 
BRANCH   5   6
ATOM      6  C   UNL     1       3.453  28.779  53.271  1.00  0.00    -0.028 C 
ATOM      7  C   UNL     1       4.658  26.823  52.399  1.00  0.00     0.039 C 
ATOM      8  C   UNL     1       4.171  28.242  52.260  1.00  0.00    -0.080 C 
ATOM      9  C   UNL     1       4.476  29.014  50.998  1.00  0.00     0.039 C 
ENDBRANCH   5   6
ENDBRANCH   4   5
ENDBRANCH   1   4
BRANCH   2  10
ATOM     10  C   UNL     1       7.517  31.580  53.871  1.00  0.00     0.035 C 
BRANCH  10  11
ATOM     11  C   UNL     1       8.133  32.631  54.799  1.00  0.00     0.079 C 
BRANCH  11  12
ATOM     12  C   UNL     1       8.375  33.917  54.057  1.00  0.00     0.130 C 
ATOM     13  O   UNL     1       8.099  33.993  52.870  1.00  0.00    -0.300 OA
ATOM     14  C   UNL     1       8.919  35.124  54.765  1.00  0.00     0.087 C 
ENDBRANCH  11  12
ENDBRANCH  10  11
ENDBRANCH   2  10
TORSDOF 6
ENDMDL
MODEL 8
REMARK VINA RESULT:    -4.290      1.901      4.223
REMARK INTER + INTRA:          -7.155
REMARK INTER:                  -5.775
REMARK INTRA:                  -1.380
REMARK UNBOUND:                -1.361
REMARK SMILES CC(=O)CCC=C(C)CCC=C(C)C
REMARK SMILES IDX 7 1 6 2 8 3 9 4 10 5 11 6 13 7 12 8 14 9 5 10 4 11 2 12 3 13
REMARK SMILES IDX 1 14
REMARK H PARENT
REMARK Flexibility Score: inf
ROOT
ATOM      1  C   UNL     1       3.759  28.587  52.820  1.00  0.00    -0.077 C 
ATOM      2  C   UNL     1       4.029  29.136  51.613  1.00  0.00    -0.028 C 
ATOM      3  C   UNL     1       4.285  27.226  53.212  1.00  0.00     0.039 C 
ENDROOT
BRANCH   1   4
ATOM      4  C   UNL     1       2.885  29.348  53.790  1.00  0.00     0.034 C 
BRANCH   4   5
ATOM      5  C   UNL     1       3.275  30.830  53.826  1.00  0.00     0.032 C 
BRANCH   5   6
ATOM      6  C   UNL     1       4.613  31.016  54.496  1.00  0.00    -0.028 C 
ATOM      7  C   UNL     1       6.890  31.891  54.793  1.00  0.00     0.039 C 
ATOM      8  C   UNL     1       5.620  31.764  53.993  1.00  0.00    -0.080 C 
ATOM      9  C   UNL     1       5.513  32.449  52.651  1.00  0.00     0.039 C 
ENDBRANCH   5   6
ENDBRANCH   4   5
ENDBRANCH   1   4
BRANCH   2  10
ATOM     10  C   UNL     1       4.920  28.512  50.570  1.00  0.00     0.035 C 
BRANCH  10  11
ATOM     11  C   UNL     1       6.120  29.417  50.272  1.00  0.00     0.079 C 
BRANCH  11  12
ATOM     12  C   UNL     1       7.357  28.897  50.951  1.00  0.00     0.130 C 
ATOM     13  O   UNL     1       8.266  28.431  50.281  1.00  0.00    -0.300 OA
ATOM     14  C   UNL     1       7.509  28.977  52.442  1.00  0.00     0.087 C 
ENDBRANCH  11  12
ENDBRANCH  10  11
ENDBRANCH   2  10
TORSDOF 6
ENDMDL
MODEL 9
REMARK VINA RESULT:    -4.209     14.100     15.803
REMARK INTER + INTRA:          -7.046
REMARK INTER:                  -6.506
REMARK INTRA:                  -0.540
REMARK UNBOUND:                -1.361
REMARK SMILES CC(=O)CCC=C(C)CCC=C(C)C
REMARK SMILES IDX 7 1 6 2 8 3 9 4 10 5 11 6 13 7 12 8 14 9 5 10 4 11 2 12 3 13
REMARK SMILES IDX 1 14
REMARK H PARENT
REMARK Flexibility Score: inf
ROOT
ATOM      1  C   UNL     1      14.739  19.535  57.540  1.00  0.00    -0.077 C 
ATOM      2  C   UNL     1      14.366  19.875  58.795  1.00  0.00    -0.028 C 
ATOM      3  C   UNL     1      14.130  20.189  56.322  1.00  0.00     0.039 C 
ENDROOT
BRANCH   1   4
ATOM      4  C   UNL     1      15.777  18.452  57.354  1.00  0.00     0.034 C 
BRANCH   4   5
ATOM      5  C   UNL     1      15.383  17.511  56.210  1.00  0.00     0.032 C 
BRANCH   5   6
ATOM      6  C   UNL     1      16.588  17.136  55.386  1.00  0.00    -0.028 C 
ATOM      7  C   UNL     1      18.402  15.699  54.558  1.00  0.00     0.039 C 
ATOM      8  C   UNL     1      17.232  15.951  55.474  1.00  0.00    -0.080 C 
ATOM      9  C   UNL     1      16.827  14.893  56.474  1.00  0.00     0.039 C 
ENDBRANCH   5   6
ENDBRANCH   4   5
ENDBRANCH   1   4
BRANCH   2  10
ATOM     10  C   UNL     1      13.380  20.966  59.128  1.00  0.00     0.035 C 
BRANCH  10  11
ATOM     11  C   UNL     1      14.094  22.311  59.284  1.00  0.00     0.079 C 
BRANCH  11  12
ATOM     12  C   UNL     1      15.020  22.286  60.470  1.00  0.00     0.130 C 
ATOM     13  O   UNL     1      14.601  21.922  61.557  1.00  0.00    -0.300 OA
ATOM     14  C   UNL     1      16.464  22.666  60.327  1.00  0.00     0.087 C 
ENDBRANCH  11  12
ENDBRANCH  10  11
ENDBRANCH   2  10
TORSDOF 6
ENDMDL
