MODEL 1
REMARK VINA RESULT:     7.778      0.000      0.000
REMARK INTER + INTRA:           8.460
REMARK INTER:                   8.460
REMARK INTRA:                   0.000
REMARK UNBOUND:                 0.000
REMARK SMILES Cc1cc(O)c2c(c1)C(=O)c1cc(O)cc(O)c1C2=O
REMARK SMILES IDX 1 1 2 2 8 3 7 4 6 5 4 6 3 7 19 8 20 9 18 10 11 11 9 12 10 13
REMARK SMILES IDX 12 14 13 15 15 16 16 17 5 18 17 20 14 22
REMARK H PARENT 5 19 17 21 14 23
REMARK Flexibility Score: inf
ROOT
ATOM      1  C   UNL     1      -3.361  16.125   5.546  1.00  0.00     0.044 C 
ATOM      2  C   UNL     1      -3.372  15.316   6.809  1.00  0.00    -0.047 A 
ATOM      3  C   UNL     1      -3.169  13.932   6.762  1.00  0.00     0.016 A 
ATOM      4  C   UNL     1      -3.205  13.162   7.936  1.00  0.00     0.038 A 
ATOM      5  C   UNL     1      -3.450  13.787   9.179  1.00  0.00     0.076 A 
ATOM      6  C   UNL     1      -3.738  15.176   9.210  1.00  0.00     0.127 A 
ATOM      7  C   UNL     1      -3.675  15.925   8.031  1.00  0.00     0.050 A 
ATOM      8  C   UNL     1      -3.333  12.967  10.412  1.00  0.00     0.201 C 
ATOM      9  O   UNL     1      -2.973  13.507  11.492  1.00  0.00    -0.288 OA
ATOM     10  C   UNL     1      -3.459  11.488  10.330  1.00  0.00     0.076 A 
ATOM     11  C   UNL     1      -3.216  10.867   9.084  1.00  0.00     0.041 A 
ATOM     12  C   UNL     1      -2.997  11.696   7.876  1.00  0.00     0.194 C 
ATOM     13  O   UNL     1      -2.657  11.151   6.790  1.00  0.00    -0.289 OA
ATOM     14  C   UNL     1      -3.190   9.464   8.996  1.00  0.00     0.059 A 
ATOM     15  C   UNL     1      -3.417   8.678  10.129  1.00  0.00     0.120 A 
ATOM     16  C   UNL     1      -3.695   9.288  11.352  1.00  0.00     0.093 A 
ATOM     17  C   UNL     1      -3.747  10.682  11.462  1.00  0.00     0.131 A 
ENDROOT
BRANCH   6  18
ATOM     18  O   UNL     1      -4.124  15.840  10.377  1.00  0.00    -0.507 OA
ATOM     19  H   UNL     1      -4.047  16.840  10.502  1.00  0.00     0.293 HD
ENDBRANCH   6  18
BRANCH  17  20
ATOM     20  O   UNL     1      -4.123  11.217  12.696  1.00  0.00    -0.507 OA
ATOM     21  H   UNL     1      -3.706  10.941  13.575  1.00  0.00     0.293 HD
ENDBRANCH  17  20
BRANCH  15  22
ATOM     22  O   UNL     1      -3.379   7.288  10.049  1.00  0.00    -0.508 OA
ATOM     23  H   UNL     1      -3.340   6.710  10.880  1.00  0.00     0.293 HD
ENDBRANCH  15  22
TORSDOF 3
ENDMDL
MODEL 2
REMARK VINA RESULT:     8.321      1.260      3.461
REMARK INTER + INTRA:           9.051
REMARK INTER:                   9.051
REMARK INTRA:                   0.000
REMARK UNBOUND:                 0.000
REMARK SMILES Cc1cc(O)c2c(c1)C(=O)c1cc(O)cc(O)c1C2=O
REMARK SMILES IDX 1 1 2 2 8 3 7 4 6 5 4 6 3 7 19 8 20 9 18 10 11 11 9 12 10 13
REMARK SMILES IDX 12 14 13 15 15 16 16 17 5 18 17 20 14 22
REMARK H PARENT 5 19 17 21 14 23
REMARK Flexibility Score: inf
ROOT
ATOM      1  C   UNL     1      -2.812  16.097   6.433  1.00  0.00     0.044 C 
ATOM      2  C   UNL     1      -3.010  14.775   7.113  1.00  0.00    -0.047 A 
ATOM      3  C   UNL     1      -3.342  14.723   8.472  1.00  0.00     0.016 A 
ATOM      4  C   UNL     1      -3.501  13.490   9.124  1.00  0.00     0.038 A 
ATOM      5  C   UNL     1      -3.325  12.287   8.406  1.00  0.00     0.076 A 
ATOM      6  C   UNL     1      -2.907  12.345   7.052  1.00  0.00     0.127 A 
ATOM      7  C   UNL     1      -2.775  13.584   6.418  1.00  0.00     0.050 A 
ATOM      8  C   UNL     1      -3.647  11.007   9.089  1.00  0.00     0.201 C 
ATOM      9  O   UNL     1      -4.061  10.025   8.417  1.00  0.00    -0.288 OA
ATOM     10  C   UNL     1      -3.659  10.946  10.574  1.00  0.00     0.076 A 
ATOM     11  C   UNL     1      -3.833  12.152  11.290  1.00  0.00     0.041 A 
ATOM     12  C   UNL     1      -3.845  13.445  10.566  1.00  0.00     0.194 C 
ATOM     13  O   UNL     1      -4.124  14.511  11.182  1.00  0.00    -0.289 OA
ATOM     14  C   UNL     1      -3.987  12.120  12.686  1.00  0.00     0.059 A 
ATOM     15  C   UNL     1      -3.956  10.905  13.376  1.00  0.00     0.120 A 
ATOM     16  C   UNL     1      -3.746   9.716  12.677  1.00  0.00     0.093 A 
ATOM     17  C   UNL     1      -3.569   9.724  11.289  1.00  0.00     0.131 A 
ENDROOT
BRANCH   6  18
ATOM     18  O   UNL     1      -2.579  11.205   6.314  1.00  0.00    -0.507 OA
ATOM     19  H   UNL     1      -1.985  11.220   5.497  1.00  0.00     0.293 HD
ENDBRANCH   6  18
BRANCH  17  20
ATOM     20  O   UNL     1      -3.271   8.507  10.672  1.00  0.00    -0.507 OA
ATOM     21  H   UNL     1      -2.631   7.825  11.059  1.00  0.00     0.293 HD
ENDBRANCH  17  20
BRANCH  15  22
ATOM     22  O   UNL     1      -4.122  10.868  14.758  1.00  0.00    -0.508 OA
ATOM     23  H   UNL     1      -3.567  11.451  15.374  1.00  0.00     0.293 HD
ENDBRANCH  15  22
TORSDOF 3
ENDMDL
