MODEL 1
REMARK VINA RESULT:    -5.542      0.000      0.000
REMARK INTER + INTRA:          -8.888
REMARK INTER:                  -7.649
REMARK INTRA:                  -1.240
REMARK UNBOUND:                -1.240
REMARK SMILES CCCCc1cccc(O)c1CCCC
REMARK SMILES IDX 5 1 11 2 9 3 8 4 7 5 6 6 4 7 3 8 2 9 1 10 12 11 13 12 14 13
REMARK SMILES IDX 15 14 10 15
REMARK H PARENT 10 16
REMARK Flexibility Score: inf
ROOT
ATOM      1  C   UNL     1      26.292   7.353  23.286  1.00  0.00    -0.041 A 
ATOM      2  C   UNL     1      24.998   6.994  23.765  1.00  0.00    -0.003 A 
ATOM      3  C   UNL     1      24.835   6.704  25.141  1.00  0.00     0.119 A 
ATOM      4  C   UNL     1      25.926   6.781  26.015  1.00  0.00     0.046 A 
ATOM      5  C   UNL     1      27.185   7.129  25.539  1.00  0.00     0.004 A 
ATOM      6  C   UNL     1      27.370   7.404  24.187  1.00  0.00     0.004 A 
ENDROOT
BRANCH   1   7
ATOM      7  C   UNL     1      26.586   7.611  21.824  1.00  0.00     0.036 C 
BRANCH   7   8
ATOM      8  C   UNL     1      27.088   6.333  21.136  1.00  0.00     0.004 C 
BRANCH   8   9
ATOM      9  C   UNL     1      26.279   5.985  19.877  1.00  0.00    -0.003 C 
ATOM     10  C   UNL     1      25.337   7.110  19.452  1.00  0.00     0.004 C 
ENDBRANCH   8   9
ENDBRANCH   7   8
ENDBRANCH   1   7
BRANCH   2  11
ATOM     11  C   UNL     1      23.781   6.906  22.857  1.00  0.00     0.040 C 
BRANCH  11  12
ATOM     12  C   UNL     1      22.921   8.185  22.899  1.00  0.00     0.005 C 
BRANCH  12  13
ATOM     13  C   UNL     1      23.139   9.119  21.697  1.00  0.00    -0.003 C 
ATOM     14  C   UNL     1      24.136  10.238  22.003  1.00  0.00     0.004 C 
ENDBRANCH  12  13
ENDBRANCH  11  12
ENDBRANCH   2  11
BRANCH   3  15
ATOM     15  O   UNL     1      23.585   6.329  25.637  1.00  0.00    -0.508 OA
ATOM     16  H   UNL     1      22.930   7.011  26.003  1.00  0.00     0.293 HD
ENDBRANCH   3  15
TORSDOF 7
ENDMDL
MODEL 2
REMARK VINA RESULT:    -5.497      1.903      3.600
REMARK INTER + INTRA:          -8.825
REMARK INTER:                  -7.582
REMARK INTRA:                  -1.243
REMARK UNBOUND:                -1.240
REMARK SMILES CCCCc1cccc(O)c1CCCC
REMARK SMILES IDX 5 1 11 2 9 3 8 4 7 5 6 6 4 7 3 8 2 9 1 10 12 11 13 12 14 13
REMARK SMILES IDX 15 14 10 15
REMARK H PARENT 10 16
REMARK Flexibility Score: inf
ROOT
ATOM      1  C   UNL     1      25.460   6.149  23.336  1.00  0.00    -0.041 A 
ATOM      2  C   UNL     1      24.932   5.035  22.621  1.00  0.00    -0.003 A 
ATOM      3  C   UNL     1      23.742   4.426  23.085  1.00  0.00     0.119 A 
ATOM      4  C   UNL     1      23.091   4.919  24.222  1.00  0.00     0.046 A 
ATOM      5  C   UNL     1      23.613   6.004  24.916  1.00  0.00     0.004 A 
ATOM      6  C   UNL     1      24.791   6.609  24.484  1.00  0.00     0.004 A 
ENDROOT
BRANCH   1   7
ATOM      7  C   UNL     1      26.762   6.825  22.965  1.00  0.00     0.036 C 
BRANCH   7   8
ATOM      8  C   UNL     1      26.547   8.327  22.725  1.00  0.00     0.004 C 
BRANCH   8   9
ATOM      9  C   UNL     1      25.625   8.607  21.528  1.00  0.00    -0.003 C 
ATOM     10  C   UNL     1      24.491   9.573  21.870  1.00  0.00     0.004 C 
ENDBRANCH   8   9
ENDBRANCH   7   8
ENDBRANCH   1   7
BRANCH   2  11
ATOM     11  C   UNL     1      25.598   4.469  21.376  1.00  0.00     0.040 C 
BRANCH  11  12
ATOM     12  C   UNL     1      25.151   5.190  20.089  1.00  0.00     0.005 C 
BRANCH  12  13
ATOM     13  C   UNL     1      26.299   5.879  19.333  1.00  0.00    -0.003 C 
ATOM     14  C   UNL     1      25.798   6.737  18.170  1.00  0.00     0.004 C 
ENDBRANCH  12  13
ENDBRANCH  11  12
ENDBRANCH   2  11
BRANCH   3  15
ATOM     15  O   UNL     1      23.212   3.320  22.419  1.00  0.00    -0.508 OA
ATOM     16  H   UNL     1      22.694   3.416  21.553  1.00  0.00     0.293 HD
ENDBRANCH   3  15
TORSDOF 7
ENDMDL
MODEL 3
REMARK VINA RESULT:    -5.473      2.260      4.326
REMARK INTER + INTRA:          -8.792
REMARK INTER:                  -7.467
REMARK INTRA:                  -1.325
REMARK UNBOUND:                -1.240
REMARK SMILES CCCCc1cccc(O)c1CCCC
REMARK SMILES IDX 5 1 11 2 9 3 8 4 7 5 6 6 4 7 3 8 2 9 1 10 12 11 13 12 14 13
REMARK SMILES IDX 15 14 10 15
REMARK H PARENT 10 16
REMARK Flexibility Score: inf
ROOT
ATOM      1  C   UNL     1      26.138   6.375  21.176  1.00  0.00    -0.041 A 
ATOM      2  C   UNL     1      25.091   7.322  21.376  1.00  0.00    -0.003 A 
ATOM      3  C   UNL     1      24.428   7.856  20.246  1.00  0.00     0.119 A 
ATOM      4  C   UNL     1      24.790   7.452  18.956  1.00  0.00     0.046 A 
ATOM      5  C   UNL     1      25.813   6.530  18.769  1.00  0.00     0.004 A 
ATOM      6  C   UNL     1      26.488   6.002  19.867  1.00  0.00     0.004 A 
ENDROOT
BRANCH   1   7
ATOM      7  C   UNL     1      26.955   5.799  22.312  1.00  0.00     0.036 C 
BRANCH   7   8
ATOM      8  C   UNL     1      26.878   4.264  22.315  1.00  0.00     0.004 C 
BRANCH   8   9
ATOM      9  C   UNL     1      25.432   3.747  22.361  1.00  0.00    -0.003 C 
ATOM     10  C   UNL     1      25.143   2.706  21.281  1.00  0.00     0.004 C 
ENDBRANCH   8   9
ENDBRANCH   7   8
ENDBRANCH   1   7
BRANCH   2  11
ATOM     11  C   UNL     1      24.656   7.786  22.758  1.00  0.00     0.040 C 
BRANCH  11  12
ATOM     12  C   UNL     1      23.479   6.959  23.314  1.00  0.00     0.005 C 
BRANCH  12  13
ATOM     13  C   UNL     1      23.834   6.136  24.563  1.00  0.00    -0.003 C 
ATOM     14  C   UNL     1      25.063   6.682  25.291  1.00  0.00     0.004 C 
ENDBRANCH  12  13
ENDBRANCH  11  12
ENDBRANCH   2  11
BRANCH   3  15
ATOM     15  O   UNL     1      23.413   8.801  20.407  1.00  0.00    -0.508 OA
ATOM     16  H   UNL     1      23.615   9.791  20.497  1.00  0.00     0.293 HD
ENDBRANCH   3  15
TORSDOF 7
ENDMDL
MODEL 4
REMARK VINA RESULT:    -5.457      1.257      2.325
REMARK INTER + INTRA:          -8.770
REMARK INTER:                  -7.518
REMARK INTRA:                  -1.252
REMARK UNBOUND:                -1.240
REMARK SMILES CCCCc1cccc(O)c1CCCC
REMARK SMILES IDX 5 1 11 2 9 3 8 4 7 5 6 6 4 7 3 8 2 9 1 10 12 11 13 12 14 13
REMARK SMILES IDX 15 14 10 15
REMARK H PARENT 10 16
REMARK Flexibility Score: inf
ROOT
ATOM      1  C   UNL     1      26.144   7.358  23.125  1.00  0.00    -0.041 A 
ATOM      2  C   UNL     1      24.899   6.957  23.691  1.00  0.00    -0.003 A 
ATOM      3  C   UNL     1      24.830   6.703  25.082  1.00  0.00     0.119 A 
ATOM      4  C   UNL     1      25.966   6.853  25.886  1.00  0.00     0.046 A 
ATOM      5  C   UNL     1      27.178   7.241  25.326  1.00  0.00     0.004 A 
ATOM      6  C   UNL     1      27.270   7.483  23.958  1.00  0.00     0.004 A 
ENDROOT
BRANCH   1   7
ATOM      7  C   UNL     1      26.339   7.585  21.642  1.00  0.00     0.036 C 
BRANCH   7   8
ATOM      8  C   UNL     1      27.439   6.664  21.090  1.00  0.00     0.004 C 
BRANCH   8   9
ATOM      9  C   UNL     1      27.221   6.306  19.612  1.00  0.00    -0.003 C 
ATOM     10  C   UNL     1      25.804   6.617  19.133  1.00  0.00     0.004 C 
ENDBRANCH   8   9
ENDBRANCH   7   8
ENDBRANCH   1   7
BRANCH   2  11
ATOM     11  C   UNL     1      23.635   6.790  22.861  1.00  0.00     0.040 C 
BRANCH  11  12
ATOM     12  C   UNL     1      23.660   5.511  22.000  1.00  0.00     0.005 C 
BRANCH  12  13
ATOM     13  C   UNL     1      24.117   4.257  22.763  1.00  0.00    -0.003 C 
ATOM     14  C   UNL     1      25.422   3.682  22.211  1.00  0.00     0.004 C 
ENDBRANCH  12  13
ENDBRANCH  11  12
ENDBRANCH   2  11
BRANCH   3  15
ATOM     15  O   UNL     1      23.630   6.289  25.663  1.00  0.00    -0.508 OA
ATOM     16  H   UNL     1      23.241   5.370  25.487  1.00  0.00     0.293 HD
ENDBRANCH   3  15
TORSDOF 7
ENDMDL
MODEL 5
REMARK VINA RESULT:    -5.434      1.822      3.648
REMARK INTER + INTRA:          -8.738
REMARK INTER:                  -7.531
REMARK INTRA:                  -1.207
REMARK UNBOUND:                -1.240
REMARK SMILES CCCCc1cccc(O)c1CCCC
REMARK SMILES IDX 5 1 11 2 9 3 8 4 7 5 6 6 4 7 3 8 2 9 1 10 12 11 13 12 14 13
REMARK SMILES IDX 15 14 10 15
REMARK H PARENT 10 16
REMARK Flexibility Score: inf
ROOT
ATOM      1  C   UNL     1      25.552   7.630  22.296  1.00  0.00    -0.041 A 
ATOM      2  C   UNL     1      24.421   7.069  22.957  1.00  0.00    -0.003 A 
ATOM      3  C   UNL     1      23.224   7.822  23.022  1.00  0.00     0.119 A 
ATOM      4  C   UNL     1      23.153   9.091  22.436  1.00  0.00     0.046 A 
ATOM      5  C   UNL     1      24.262   9.633  21.796  1.00  0.00     0.004 A 
ATOM      6  C   UNL     1      25.454   8.915  21.733  1.00  0.00     0.004 A 
ENDROOT
BRANCH   1   7
ATOM      7  C   UNL     1      26.896   6.938  22.234  1.00  0.00     0.036 C 
BRANCH   7   8
ATOM      8  C   UNL     1      27.373   6.802  20.780  1.00  0.00     0.004 C 
BRANCH   8   9
ATOM      9  C   UNL     1      26.400   5.985  19.916  1.00  0.00    -0.003 C 
ATOM     10  C   UNL     1      26.194   6.589  18.528  1.00  0.00     0.004 C 
ENDBRANCH   8   9
ENDBRANCH   7   8
ENDBRANCH   1   7
BRANCH   2  11
ATOM     11  C   UNL     1      24.445   5.691  23.600  1.00  0.00     0.040 C 
BRANCH  11  12
ATOM     12  C   UNL     1      24.165   4.563  22.587  1.00  0.00     0.005 C 
BRANCH  12  13
ATOM     13  C   UNL     1      25.345   3.596  22.392  1.00  0.00    -0.003 C 
ATOM     14  C   UNL     1      25.147   2.670  21.191  1.00  0.00     0.004 C 
ENDBRANCH  12  13
ENDBRANCH  11  12
ENDBRANCH   2  11
BRANCH   3  15
ATOM     15  O   UNL     1      22.105   7.309  23.680  1.00  0.00    -0.508 OA
ATOM     16  H   UNL     1      21.418   6.739  23.199  1.00  0.00     0.293 HD
ENDBRANCH   3  15
TORSDOF 7
ENDMDL
MODEL 6
REMARK VINA RESULT:    -5.421      2.570      4.982
REMARK INTER + INTRA:          -8.721
REMARK INTER:                  -7.459
REMARK INTRA:                  -1.262
REMARK UNBOUND:                -1.240
REMARK SMILES CCCCc1cccc(O)c1CCCC
REMARK SMILES IDX 5 1 11 2 9 3 8 4 7 5 6 6 4 7 3 8 2 9 1 10 12 11 13 12 14 13
REMARK SMILES IDX 15 14 10 15
REMARK H PARENT 10 16
REMARK Flexibility Score: inf
ROOT
ATOM      1  C   UNL     1      24.532   6.574  20.278  1.00  0.00    -0.041 A 
ATOM      2  C   UNL     1      23.534   7.413  19.703  1.00  0.00    -0.003 A 
ATOM      3  C   UNL     1      23.712   7.879  18.379  1.00  0.00     0.119 A 
ATOM      4  C   UNL     1      24.847   7.513  17.646  1.00  0.00     0.046 A 
ATOM      5  C   UNL     1      25.819   6.697  18.215  1.00  0.00     0.004 A 
ATOM      6  C   UNL     1      25.669   6.239  19.522  1.00  0.00     0.004 A 
ENDROOT
BRANCH   1   7
ATOM      7  C   UNL     1      24.471   6.082  21.708  1.00  0.00     0.036 C 
BRANCH   7   8
ATOM      8  C   UNL     1      25.639   6.648  22.530  1.00  0.00     0.004 C 
BRANCH   8   9
ATOM      9  C   UNL     1      25.312   6.745  24.028  1.00  0.00    -0.003 C 
ATOM     10  C   UNL     1      23.825   6.556  24.321  1.00  0.00     0.004 C 
ENDBRANCH   8   9
ENDBRANCH   7   8
ENDBRANCH   1   7
BRANCH   2  11
ATOM     11  C   UNL     1      22.279   7.830  20.455  1.00  0.00     0.040 C 
BRANCH  11  12
ATOM     12  C   UNL     1      22.330   9.300  20.917  1.00  0.00     0.005 C 
BRANCH  12  13
ATOM     13  C   UNL     1      23.138   9.519  22.205  1.00  0.00    -0.003 C 
ATOM     14  C   UNL     1      24.516  10.124  21.933  1.00  0.00     0.004 C 
ENDBRANCH  12  13
ENDBRANCH  11  12
ENDBRANCH   2  11
BRANCH   3  15
ATOM     15  O   UNL     1      22.762   8.718  17.794  1.00  0.00    -0.508 OA
ATOM     16  H   UNL     1      21.773   8.494  17.805  1.00  0.00     0.293 HD
ENDBRANCH   3  15
TORSDOF 7
ENDMDL
MODEL 7
REMARK VINA RESULT:    -5.380      2.949      4.596
REMARK INTER + INTRA:          -8.664
REMARK INTER:                  -7.768
REMARK INTRA:                  -0.895
REMARK UNBOUND:                -1.240
REMARK SMILES CCCCc1cccc(O)c1CCCC
REMARK SMILES IDX 5 1 11 2 9 3 8 4 7 5 6 6 4 7 3 8 2 9 1 10 12 11 13 12 14 13
REMARK SMILES IDX 15 14 10 15
REMARK H PARENT 10 16
REMARK Flexibility Score: inf
ROOT
ATOM      1  C   UNL     1      25.870   6.821  20.396  1.00  0.00    -0.041 A 
ATOM      2  C   UNL     1      24.674   7.587  20.273  1.00  0.00    -0.003 A 
ATOM      3  C   UNL     1      24.183   7.885  18.980  1.00  0.00     0.119 A 
ATOM      4  C   UNL     1      24.857   7.424  17.843  1.00  0.00     0.046 A 
ATOM      5  C   UNL     1      26.024   6.680  17.970  1.00  0.00     0.004 A 
ATOM      6  C   UNL     1      26.532   6.387  19.234  1.00  0.00     0.004 A 
ENDROOT
BRANCH   1   7
ATOM      7  C   UNL     1      26.515   6.510  21.728  1.00  0.00     0.036 C 
BRANCH   7   8
ATOM      8  C   UNL     1      26.686   4.993  21.910  1.00  0.00     0.004 C 
BRANCH   8   9
ATOM      9  C   UNL     1      25.358   4.284  22.217  1.00  0.00    -0.003 C 
ATOM     10  C   UNL     1      25.189   2.983  21.434  1.00  0.00     0.004 C 
ENDBRANCH   8   9
ENDBRANCH   7   8
ENDBRANCH   1   7
BRANCH   2  11
ATOM     11  C   UNL     1      23.901   8.102  21.478  1.00  0.00     0.040 C 
BRANCH  11  12
ATOM     12  C   UNL     1      24.304   9.538  21.867  1.00  0.00     0.005 C 
BRANCH  12  13
ATOM     13  C   UNL     1      23.114  10.443  22.222  1.00  0.00    -0.003 C 
ATOM     14  C   UNL     1      21.777   9.704  22.147  1.00  0.00     0.004 C 
ENDBRANCH  12  13
ENDBRANCH  11  12
ENDBRANCH   2  11
BRANCH   3  15
ATOM     15  O   UNL     1      23.026   8.651  18.826  1.00  0.00    -0.508 OA
ATOM     16  H   UNL     1      22.548   8.723  17.935  1.00  0.00     0.293 HD
ENDBRANCH   3  15
TORSDOF 7
ENDMDL
MODEL 8
REMARK VINA RESULT:    -5.378      2.678      4.451
REMARK INTER + INTRA:          -8.661
REMARK INTER:                  -7.347
REMARK INTRA:                  -1.314
REMARK UNBOUND:                -1.240
REMARK SMILES CCCCc1cccc(O)c1CCCC
REMARK SMILES IDX 5 1 11 2 9 3 8 4 7 5 6 6 4 7 3 8 2 9 1 10 12 11 13 12 14 13
REMARK SMILES IDX 15 14 10 15
REMARK H PARENT 10 16
REMARK Flexibility Score: inf
ROOT
ATOM      1  C   UNL     1      26.266   4.994  21.599  1.00  0.00    -0.041 A 
ATOM      2  C   UNL     1      25.532   5.300  20.416  1.00  0.00    -0.003 A 
ATOM      3  C   UNL     1      24.740   4.288  19.822  1.00  0.00     0.119 A 
ATOM      4  C   UNL     1      24.672   3.013  20.397  1.00  0.00     0.046 A 
ATOM      5  C   UNL     1      25.393   2.722  21.549  1.00  0.00     0.004 A 
ATOM      6  C   UNL     1      26.190   3.699  22.141  1.00  0.00     0.004 A 
ENDROOT
BRANCH   1   7
ATOM      7  C   UNL     1      27.196   5.982  22.269  1.00  0.00     0.036 C 
BRANCH   7   8
ATOM      8  C   UNL     1      26.970   5.999  23.789  1.00  0.00     0.004 C 
BRANCH   8   9
ATOM      9  C   UNL     1      26.044   7.141  24.233  1.00  0.00    -0.003 C 
ATOM     10  C   UNL     1      24.593   6.693  24.403  1.00  0.00     0.004 C 
ENDBRANCH   8   9
ENDBRANCH   7   8
ENDBRANCH   1   7
BRANCH   2  11
ATOM     11  C   UNL     1      25.565   6.672  19.759  1.00  0.00     0.040 C 
BRANCH  11  12
ATOM     12  C   UNL     1      24.505   7.629  20.340  1.00  0.00     0.005 C 
BRANCH  12  13
ATOM     13  C   UNL     1      25.098   8.813  21.120  1.00  0.00    -0.003 C 
ATOM     14  C   UNL     1      24.020   9.671  21.784  1.00  0.00     0.004 C 
ENDBRANCH  12  13
ENDBRANCH  11  12
ENDBRANCH   2  11
BRANCH   3  15
ATOM     15  O   UNL     1      24.026   4.550  18.652  1.00  0.00    -0.508 OA
ATOM     16  H   UNL     1      23.049   4.819  18.672  1.00  0.00     0.293 HD
ENDBRANCH   3  15
TORSDOF 7
ENDMDL
MODEL 9
REMARK VINA RESULT:    -5.366      1.973      3.811
REMARK INTER + INTRA:          -8.644
REMARK INTER:                  -7.384
REMARK INTRA:                  -1.261
REMARK UNBOUND:                -1.240
REMARK SMILES CCCCc1cccc(O)c1CCCC
REMARK SMILES IDX 5 1 11 2 9 3 8 4 7 5 6 6 4 7 3 8 2 9 1 10 12 11 13 12 14 13
REMARK SMILES IDX 15 14 10 15
REMARK H PARENT 10 16
REMARK Flexibility Score: inf
ROOT
ATOM      1  C   UNL     1      24.362   7.690  21.775  1.00  0.00    -0.041 A 
ATOM      2  C   UNL     1      23.027   7.694  22.274  1.00  0.00    -0.003 A 
ATOM      3  C   UNL     1      22.408   8.933  22.563  1.00  0.00     0.119 A 
ATOM      4  C   UNL     1      23.095  10.134  22.351  1.00  0.00     0.046 A 
ATOM      5  C   UNL     1      24.398  10.123  21.867  1.00  0.00     0.004 A 
ATOM      6  C   UNL     1      25.030   8.913  21.589  1.00  0.00     0.004 A 
ENDROOT
BRANCH   1   7
ATOM      7  C   UNL     1      25.137   6.419  21.503  1.00  0.00     0.036 C 
BRANCH   7   8
ATOM      8  C   UNL     1      26.512   6.462  22.187  1.00  0.00     0.004 C 
BRANCH   8   9
ATOM      9  C   UNL     1      26.948   5.088  22.718  1.00  0.00    -0.003 C 
ATOM     10  C   UNL     1      26.031   3.958  22.254  1.00  0.00     0.004 C 
ENDBRANCH   8   9
ENDBRANCH   7   8
ENDBRANCH   1   7
BRANCH   2  11
ATOM     11  C   UNL     1      22.236   6.416  22.512  1.00  0.00     0.040 C 
BRANCH  11  12
ATOM     12  C   UNL     1      22.167   6.035  24.004  1.00  0.00     0.005 C 
BRANCH  12  13
ATOM     13  C   UNL     1      23.435   5.342  24.528  1.00  0.00    -0.003 C 
ATOM     14  C   UNL     1      24.348   6.300  25.296  1.00  0.00     0.004 C 
ENDBRANCH  12  13
ENDBRANCH  11  12
ENDBRANCH   2  11
BRANCH   3  15
ATOM     15  O   UNL     1      21.109   8.968  23.073  1.00  0.00    -0.508 OA
ATOM     16  H   UNL     1      20.297   8.940  22.467  1.00  0.00     0.293 HD
ENDBRANCH   3  15
TORSDOF 7
ENDMDL
