MODEL 1
REMARK VINA RESULT:    -4.178      0.000      0.000
REMARK INTER + INTRA:          -6.369
REMARK INTER:                  -6.132
REMARK INTRA:                  -0.238
REMARK UNBOUND:                -0.238
REMARK SMILES O=C([O-])CCCCCCCC(=O)[O-]
REMARK SMILES IDX 7 1 6 2 5 3 4 4 2 5 1 6 3 7 8 8 9 9 10 10 11 11 12 12 13 13
REMARK H PARENT
REMARK Flexibility Score: inf
ROOT
ATOM      1  C   UNL     1      35.905  82.182  23.070  1.00  0.00     0.000 C 
ENDROOT
BRANCH   1   2
ATOM      2  C   UNL     1      37.041  81.612  23.940  1.00  0.00     0.000 C 
BRANCH   2   3
ATOM      3  C   UNL     1      38.361  82.406  23.884  1.00  0.00     0.006 C 
BRANCH   3   4
ATOM      4  C   UNL     1      39.227  82.283  25.149  1.00  0.00     0.053 C 
BRANCH   4   5
ATOM      5  C   UNL     1      40.147  81.104  25.085  1.00  0.00     0.041 C 
ATOM      6  O   UNL     1      39.826  80.019  25.637  1.00  0.00    -0.550 OA
ATOM      7  O   UNL     1      41.374  81.213  24.445  1.00  0.00    -0.550 OA
ENDBRANCH   4   5
ENDBRANCH   3   4
ENDBRANCH   2   3
ENDBRANCH   1   2
BRANCH   1   8
ATOM      8  C   UNL     1      35.367  81.186  22.020  1.00  0.00     0.000 C 
BRANCH   8   9
ATOM      9  C   UNL     1      33.998  80.605  22.415  1.00  0.00     0.006 C 
BRANCH   9  10
ATOM     10  C   UNL     1      32.884  81.658  22.359  1.00  0.00     0.053 C 
BRANCH  10  11
ATOM     11  C   UNL     1      31.916  81.382  21.249  1.00  0.00     0.041 C 
ATOM     12  O   UNL     1      32.321  80.895  20.160  1.00  0.00    -0.550 OA
ATOM     13  O   UNL     1      30.572  81.692  21.407  1.00  0.00    -0.550 OA
ENDBRANCH  10  11
ENDBRANCH   9  10
ENDBRANCH   8   9
ENDBRANCH   1   8
TORSDOF 8
ENDMDL
MODEL 2
REMARK VINA RESULT:    -4.150      8.478     11.205
REMARK INTER + INTRA:          -6.329
REMARK INTER:                  -6.025
REMARK INTRA:                  -0.303
REMARK UNBOUND:                -0.238
REMARK SMILES O=C([O-])CCCCCCCC(=O)[O-]
REMARK SMILES IDX 7 1 6 2 5 3 4 4 2 5 1 6 3 7 8 8 9 9 10 10 11 11 12 12 13 13
REMARK H PARENT
REMARK Flexibility Score: inf
ROOT
ATOM      1  C   UNL     1      31.968  78.981  13.349  1.00  0.00     0.000 C 
ENDROOT
BRANCH   1   2
ATOM      2  C   UNL     1      32.358  78.394  11.980  1.00  0.00     0.000 C 
BRANCH   2   3
ATOM      3  C   UNL     1      33.646  77.548  11.980  1.00  0.00     0.006 C 
BRANCH   3   4
ATOM      4  C   UNL     1      34.647  77.920  10.873  1.00  0.00     0.053 C 
BRANCH   4   5
ATOM      5  C   UNL     1      35.982  77.277  11.087  1.00  0.00     0.041 C 
ATOM      6  O   UNL     1      36.818  77.798  11.871  1.00  0.00    -0.550 OA
ATOM      7  O   UNL     1      36.317  76.121  10.395  1.00  0.00    -0.550 OA
ENDBRANCH   4   5
ENDBRANCH   3   4
ENDBRANCH   2   3
ENDBRANCH   1   2
BRANCH   1   8
ATOM      8  C   UNL     1      33.027  78.750  14.449  1.00  0.00     0.000 C 
BRANCH   8   9
ATOM      9  C   UNL     1      32.674  79.475  15.760  1.00  0.00     0.006 C 
BRANCH   9  10
ATOM     10  C   UNL     1      31.967  80.812  15.510  1.00  0.00     0.053 C 
BRANCH  10  11
ATOM     11  C   UNL     1      32.420  81.867  16.474  1.00  0.00     0.041 C 
ATOM     12  O   UNL     1      32.910  82.946  16.049  1.00  0.00    -0.550 OA
ATOM     13  O   UNL     1      32.330  81.642  17.841  1.00  0.00    -0.550 OA
ENDBRANCH  10  11
ENDBRANCH   9  10
ENDBRANCH   8   9
ENDBRANCH   1   8
TORSDOF 8
ENDMDL
MODEL 3
REMARK VINA RESULT:    -4.098      8.773     11.869
REMARK INTER + INTRA:          -6.253
REMARK INTER:                  -5.958
REMARK INTRA:                  -0.295
REMARK UNBOUND:                -0.238
REMARK SMILES O=C([O-])CCCCCCCC(=O)[O-]
REMARK SMILES IDX 7 1 6 2 5 3 4 4 2 5 1 6 3 7 8 8 9 9 10 10 11 11 12 12 13 13
REMARK H PARENT
REMARK Flexibility Score: inf
ROOT
ATOM      1  C   UNL     1      32.603  78.764  12.935  1.00  0.00     0.000 C 
ENDROOT
BRANCH   1   2
ATOM      2  C   UNL     1      31.248  78.977  13.636  1.00  0.00     0.000 C 
BRANCH   2   3
ATOM      3  C   UNL     1      31.325  79.715  14.987  1.00  0.00     0.006 C 
BRANCH   3   4
ATOM      4  C   UNL     1      31.476  81.241  14.866  1.00  0.00     0.053 C 
BRANCH   4   5
ATOM      5  C   UNL     1      32.238  81.821  16.016  1.00  0.00     0.041 C 
ATOM      6  O   UNL     1      32.390  81.157  17.075  1.00  0.00    -0.550 OA
ATOM      7  O   UNL     1      32.754  83.108  15.932  1.00  0.00    -0.550 OA
ENDBRANCH   4   5
ENDBRANCH   3   4
ENDBRANCH   2   3
ENDBRANCH   1   2
BRANCH   1   8
ATOM      8  C   UNL     1      32.559  79.009  11.412  1.00  0.00     0.000 C 
BRANCH   8   9
ATOM      9  C   UNL     1      33.770  78.394  10.687  1.00  0.00     0.006 C 
BRANCH   9  10
ATOM     10  C   UNL     1      34.451  77.302  11.522  1.00  0.00     0.053 C 
BRANCH  10  11
ATOM     11  C   UNL     1      35.895  77.146  11.157  1.00  0.00     0.041 C 
ATOM     12  O   UNL     1      36.774  77.846  11.726  1.00  0.00    -0.550 OA
ATOM     13  O   UNL     1      36.267  76.248  10.164  1.00  0.00    -0.550 OA
ENDBRANCH  10  11
ENDBRANCH   9  10
ENDBRANCH   8   9
ENDBRANCH   1   8
TORSDOF 8
ENDMDL
MODEL 4
REMARK VINA RESULT:    -4.062      8.779     11.777
REMARK INTER + INTRA:          -6.200
REMARK INTER:                  -5.895
REMARK INTRA:                  -0.305
REMARK UNBOUND:                -0.238
REMARK SMILES O=C([O-])CCCCCCCC(=O)[O-]
REMARK SMILES IDX 7 1 6 2 5 3 4 4 2 5 1 6 3 7 8 8 9 9 10 10 11 11 12 12 13 13
REMARK H PARENT
REMARK Flexibility Score: inf
ROOT
ATOM      1  C   UNL     1      32.797  78.221  12.897  1.00  0.00     0.000 C 
ENDROOT
BRANCH   1   2
ATOM      2  C   UNL     1      31.767  78.871  13.840  1.00  0.00     0.000 C 
BRANCH   2   3
ATOM      3  C   UNL     1      32.371  79.749  14.954  1.00  0.00     0.006 C 
BRANCH   3   4
ATOM      4  C   UNL     1      31.583  81.038  15.239  1.00  0.00     0.053 C 
BRANCH   4   5
ATOM      5  C   UNL     1      32.263  81.896  16.260  1.00  0.00     0.041 C 
ATOM      6  O   UNL     1      32.794  82.985  15.920  1.00  0.00    -0.550 OA
ATOM      7  O   UNL     1      32.340  81.476  17.582  1.00  0.00    -0.550 OA
ENDBRANCH   4   5
ENDBRANCH   3   4
ENDBRANCH   2   3
ENDBRANCH   1   2
BRANCH   1   8
ATOM      8  C   UNL     1      32.841  78.858  11.492  1.00  0.00     0.000 C 
BRANCH   8   9
ATOM      9  C   UNL     1      33.761  78.087  10.529  1.00  0.00     0.006 C 
BRANCH   9  10
ATOM     10  C   UNL     1      34.401  76.863  11.197  1.00  0.00     0.053 C 
BRANCH  10  11
ATOM     11  C   UNL     1      35.897  76.925  11.149  1.00  0.00     0.041 C 
ATOM     12  O   UNL     1      36.541  76.140  10.404  1.00  0.00    -0.550 OA
ATOM     13  O   UNL     1      36.581  77.828  11.952  1.00  0.00    -0.550 OA
ENDBRANCH  10  11
ENDBRANCH   9  10
ENDBRANCH   8   9
ENDBRANCH   1   8
TORSDOF 8
ENDMDL
MODEL 5
REMARK VINA RESULT:    -4.030     11.034     13.857
REMARK INTER + INTRA:          -6.152
REMARK INTER:                  -5.554
REMARK INTRA:                  -0.599
REMARK UNBOUND:                -0.238
REMARK SMILES O=C([O-])CCCCCCCC(=O)[O-]
REMARK SMILES IDX 7 1 6 2 5 3 4 4 2 5 1 6 3 7 8 8 9 9 10 10 11 11 12 12 13 13
REMARK H PARENT
REMARK Flexibility Score: inf
ROOT
ATOM      1  C   UNL     1      32.319  77.800   8.954  1.00  0.00     0.000 C 
ENDROOT
BRANCH   1   2
ATOM      2  C   UNL     1      31.791  78.073  10.376  1.00  0.00     0.000 C 
BRANCH   2   3
ATOM      3  C   UNL     1      32.761  78.846  11.291  1.00  0.00     0.006 C 
BRANCH   3   4
ATOM      4  C   UNL     1      33.180  78.080  12.557  1.00  0.00     0.053 C 
BRANCH   4   5
ATOM      5  C   UNL     1      32.686  78.747  13.803  1.00  0.00     0.041 C 
ATOM      6  O   UNL     1      33.232  78.502  14.911  1.00  0.00    -0.550 OA
ATOM      7  O   UNL     1      31.602  79.612  13.747  1.00  0.00    -0.550 OA
ENDBRANCH   4   5
ENDBRANCH   3   4
ENDBRANCH   2   3
ENDBRANCH   1   2
BRANCH   1   8
ATOM      8  C   UNL     1      33.858  77.724   8.868  1.00  0.00     0.000 C 
BRANCH   8   9
ATOM      9  C   UNL     1      34.344  76.387   8.282  1.00  0.00     0.006 C 
BRANCH   9  10
ATOM     10  C   UNL     1      35.617  75.881   8.973  1.00  0.00     0.053 C 
BRANCH  10  11
ATOM     11  C   UNL     1      35.519  75.992  10.464  1.00  0.00     0.041 C 
ATOM     12  O   UNL     1      34.719  75.259  11.103  1.00  0.00    -0.550 OA
ATOM     13  O   UNL     1      36.288  76.927  11.144  1.00  0.00    -0.550 OA
ENDBRANCH  10  11
ENDBRANCH   9  10
ENDBRANCH   8   9
ENDBRANCH   1   8
TORSDOF 8
ENDMDL
MODEL 6
REMARK VINA RESULT:    -3.972     10.573     13.159
REMARK INTER + INTRA:          -6.068
REMARK INTER:                  -5.726
REMARK INTRA:                  -0.342
REMARK UNBOUND:                -0.238
REMARK SMILES O=C([O-])CCCCCCCC(=O)[O-]
REMARK SMILES IDX 7 1 6 2 5 3 4 4 2 5 1 6 3 7 8 8 9 9 10 10 11 11 12 12 13 13
REMARK H PARENT
REMARK Flexibility Score: inf
ROOT
ATOM      1  C   UNL     1      33.849  78.439  10.745  1.00  0.00     0.000 C 
ENDROOT
BRANCH   1   2
ATOM      2  C   UNL     1      34.927  77.713  11.572  1.00  0.00     0.000 C 
BRANCH   2   3
ATOM      3  C   UNL     1      36.006  76.993  10.740  1.00  0.00     0.006 C 
BRANCH   3   4
ATOM      4  C   UNL     1      35.526  75.695  10.069  1.00  0.00     0.053 C 
BRANCH   4   5
ATOM      5  C   UNL     1      35.535  75.800   8.576  1.00  0.00     0.041 C 
ATOM      6  O   UNL     1      36.382  75.158   7.901  1.00  0.00    -0.550 OA
ATOM      7  O   UNL     1      34.629  76.631   7.931  1.00  0.00    -0.550 OA
ENDBRANCH   4   5
ENDBRANCH   3   4
ENDBRANCH   2   3
ENDBRANCH   1   2
BRANCH   1   8
ATOM      8  C   UNL     1      32.562  78.751  11.540  1.00  0.00     0.000 C 
BRANCH   8   9
ATOM      9  C   UNL     1      32.685  78.364  13.024  1.00  0.00     0.006 C 
BRANCH   9  10
ATOM     10  C   UNL     1      31.936  79.339  13.941  1.00  0.00     0.053 C 
BRANCH  10  11
ATOM     11  C   UNL     1      32.623  79.495  15.263  1.00  0.00     0.041 C 
ATOM     12  O   UNL     1      32.346  80.469  16.011  1.00  0.00    -0.550 OA
ATOM     13  O   UNL     1      33.594  78.582  15.653  1.00  0.00    -0.550 OA
ENDBRANCH  10  11
ENDBRANCH   9  10
ENDBRANCH   8   9
ENDBRANCH   1   8
TORSDOF 8
ENDMDL
MODEL 7
REMARK VINA RESULT:    -3.919     10.582     13.171
REMARK INTER + INTRA:          -5.990
REMARK INTER:                  -5.646
REMARK INTRA:                  -0.344
REMARK UNBOUND:                -0.238
REMARK SMILES O=C([O-])CCCCCCCC(=O)[O-]
REMARK SMILES IDX 7 1 6 2 5 3 4 4 2 5 1 6 3 7 8 8 9 9 10 10 11 11 12 12 13 13
REMARK H PARENT
REMARK Flexibility Score: inf
ROOT
ATOM      1  C   UNL     1      33.872  78.454  10.749  1.00  0.00     0.000 C 
ENDROOT
BRANCH   1   2
ATOM      2  C   UNL     1      32.642  78.833  11.596  1.00  0.00     0.000 C 
BRANCH   2   3
ATOM      3  C   UNL     1      32.711  78.395  13.072  1.00  0.00     0.006 C 
BRANCH   3   4
ATOM      4  C   UNL     1      31.865  79.254  14.027  1.00  0.00     0.053 C 
BRANCH   4   5
ATOM      5  C   UNL     1      32.570  79.510  15.322  1.00  0.00     0.041 C 
ATOM      6  O   UNL     1      33.292  78.617  15.838  1.00  0.00    -0.550 OA
ATOM      7  O   UNL     1      32.404  80.723  15.977  1.00  0.00    -0.550 OA
ENDBRANCH   4   5
ENDBRANCH   3   4
ENDBRANCH   2   3
ENDBRANCH   1   2
BRANCH   1   8
ATOM      8  C   UNL     1      34.961  77.698  11.539  1.00  0.00     0.000 C 
BRANCH   8   9
ATOM      9  C   UNL     1      35.990  77.023  10.615  1.00  0.00     0.006 C 
BRANCH   9  10
ATOM     10  C   UNL     1      35.472  75.699  10.041  1.00  0.00     0.053 C 
BRANCH  10  11
ATOM     11  C   UNL     1      35.471  75.707   8.543  1.00  0.00     0.041 C 
ATOM     12  O   UNL     1      36.388  75.125   7.905  1.00  0.00    -0.550 OA
ATOM     13  O   UNL     1      34.476  76.385   7.852  1.00  0.00    -0.550 OA
ENDBRANCH  10  11
ENDBRANCH   9  10
ENDBRANCH   8   9
ENDBRANCH   1   8
TORSDOF 8
ENDMDL
MODEL 8
REMARK VINA RESULT:    -3.917     13.082     14.493
REMARK INTER + INTRA:          -5.987
REMARK INTER:                  -5.171
REMARK INTRA:                  -0.816
REMARK UNBOUND:                -0.238
REMARK SMILES O=C([O-])CCCCCCCC(=O)[O-]
REMARK SMILES IDX 7 1 6 2 5 3 4 4 2 5 1 6 3 7 8 8 9 9 10 10 11 11 12 12 13 13
REMARK H PARENT
REMARK Flexibility Score: inf
ROOT
ATOM      1  C   UNL     1      33.963  78.441  10.308  1.00  0.00     0.000 C 
ENDROOT
BRANCH   1   2
ATOM      2  C   UNL     1      33.311  77.591   9.201  1.00  0.00     0.000 C 
BRANCH   2   3
ATOM      3  C   UNL     1      34.300  76.941   8.214  1.00  0.00     0.006 C 
BRANCH   3   4
ATOM      4  C   UNL     1      34.774  75.537   8.626  1.00  0.00     0.053 C 
BRANCH   4   5
ATOM      5  C   UNL     1      36.190  75.543   9.111  1.00  0.00     0.041 C 
ATOM      6  O   UNL     1      36.462  75.958  10.268  1.00  0.00    -0.550 OA
ATOM      7  O   UNL     1      37.214  75.123   8.273  1.00  0.00    -0.550 OA
ENDBRANCH   4   5
ENDBRANCH   3   4
ENDBRANCH   2   3
ENDBRANCH   1   2
BRANCH   1   8
ATOM      8  C   UNL     1      33.837  77.826  11.718  1.00  0.00     0.000 C 
BRANCH   8   9
ATOM      9  C   UNL     1      32.439  77.238  11.976  1.00  0.00     0.006 C 
BRANCH   9  10
ATOM     10  C   UNL     1      32.503  75.891  12.705  1.00  0.00     0.053 C 
BRANCH  10  11
ATOM     11  C   UNL     1      32.879  74.776  11.777  1.00  0.00     0.041 C 
ATOM     12  O   UNL     1      32.206  74.564  10.734  1.00  0.00    -0.550 OA
ATOM     13  O   UNL     1      33.955  73.952  12.082  1.00  0.00    -0.550 OA
ENDBRANCH  10  11
ENDBRANCH   9  10
ENDBRANCH   8   9
ENDBRANCH   1   8
TORSDOF 8
ENDMDL
MODEL 9
REMARK VINA RESULT:    -3.898     11.063     13.559
REMARK INTER + INTRA:          -5.959
REMARK INTER:                  -5.294
REMARK INTRA:                  -0.665
REMARK UNBOUND:                -0.238
REMARK SMILES O=C([O-])CCCCCCCC(=O)[O-]
REMARK SMILES IDX 7 1 6 2 5 3 4 4 2 5 1 6 3 7 8 8 9 9 10 10 11 11 12 12 13 13
REMARK H PARENT
REMARK Flexibility Score: inf
ROOT
ATOM      1  C   UNL     1      32.495  77.519   9.194  1.00  0.00     0.000 C 
ENDROOT
BRANCH   1   2
ATOM      2  C   UNL     1      33.883  77.515   8.525  1.00  0.00     0.000 C 
BRANCH   2   3
ATOM      3  C   UNL     1      34.442  76.117   8.200  1.00  0.00     0.006 C 
BRANCH   3   4
ATOM      4  C   UNL     1      35.754  75.776   8.926  1.00  0.00     0.053 C 
BRANCH   4   5
ATOM      5  C   UNL     1      35.631  75.936  10.409  1.00  0.00     0.041 C 
ATOM      6  O   UNL     1      34.872  75.177  11.068  1.00  0.00    -0.550 OA
ATOM      7  O   UNL     1      36.327  76.945  11.061  1.00  0.00    -0.550 OA
ENDBRANCH   4   5
ENDBRANCH   3   4
ENDBRANCH   2   3
ENDBRANCH   1   2
BRANCH   1   8
ATOM      8  C   UNL     1      32.417  78.400  10.459  1.00  0.00     0.000 C 
BRANCH   8   9
ATOM      9  C   UNL     1      32.462  77.568  11.753  1.00  0.00     0.006 C 
BRANCH   9  10
ATOM     10  C   UNL     1      33.439  78.152  12.782  1.00  0.00     0.053 C 
BRANCH  10  11
ATOM     11  C   UNL     1      32.725  78.659  13.998  1.00  0.00     0.041 C 
ATOM     12  O   UNL     1      32.985  78.179  15.132  1.00  0.00    -0.550 OA
ATOM     13  O   UNL     1      31.749  79.639  13.872  1.00  0.00    -0.550 OA
ENDBRANCH  10  11
ENDBRANCH   9  10
ENDBRANCH   8   9
ENDBRANCH   1   8
TORSDOF 8
ENDMDL
