MODEL 1
REMARK VINA RESULT:    -4.260      0.000      0.000
REMARK INTER + INTRA:          -5.027
REMARK INTER:                  -5.007
REMARK INTRA:                  -0.020
REMARK UNBOUND:                -0.020
REMARK SMILES CCCCC(=O)[O-]
REMARK SMILES IDX 4 1 5 2 6 3 7 4 3 5 2 6 1 7
REMARK H PARENT
REMARK Flexibility Score: inf
ROOT
ATOM      1  C   UNL     1     -12.164   2.717  -9.508  1.00  0.00     0.053 C 
ENDROOT
BRANCH   1   2
ATOM      2  C   UNL     1     -11.727   3.725  -8.494  1.00  0.00     0.041 C 
ATOM      3  O   UNL     1     -10.554   3.696  -8.036  1.00  0.00    -0.550 OA
ATOM      4  O   UNL     1     -12.630   4.668  -8.016  1.00  0.00    -0.550 OA
ENDBRANCH   1   2
BRANCH   1   5
ATOM      5  C   UNL     1     -11.417   1.393  -9.304  1.00  0.00     0.006 C 
BRANCH   5   6
ATOM      6  C   UNL     1     -11.878   0.298 -10.277  1.00  0.00    -0.003 C 
ATOM      7  C   UNL     1     -10.731  -0.597 -10.745  1.00  0.00     0.004 C 
ENDBRANCH   5   6
ENDBRANCH   1   5
TORSDOF 3
ENDMDL
MODEL 2
REMARK VINA RESULT:    -4.238      0.203      1.241
REMARK INTER + INTRA:          -5.001
REMARK INTER:                  -4.981
REMARK INTRA:                  -0.020
REMARK UNBOUND:                -0.020
REMARK SMILES CCCCC(=O)[O-]
REMARK SMILES IDX 4 1 5 2 6 3 7 4 3 5 2 6 1 7
REMARK H PARENT
REMARK Flexibility Score: inf
ROOT
ATOM      1  C   UNL     1     -12.436   2.545  -9.247  1.00  0.00     0.053 C 
ENDROOT
BRANCH   1   2
ATOM      2  C   UNL     1     -11.843   3.680  -8.475  1.00  0.00     0.041 C 
ATOM      3  O   UNL     1     -12.548   4.680  -8.177  1.00  0.00    -0.550 OA
ATOM      4  O   UNL     1     -10.498   3.656  -8.125  1.00  0.00    -0.550 OA
ENDBRANCH   1   2
BRANCH   1   5
ATOM      5  C   UNL     1     -11.437   1.386  -9.349  1.00  0.00     0.006 C 
BRANCH   5   6
ATOM      6  C   UNL     1     -11.917   0.274 -10.295  1.00  0.00    -0.003 C 
ATOM      7  C   UNL     1     -10.761  -0.492 -10.938  1.00  0.00     0.004 C 
ENDBRANCH   5   6
ENDBRANCH   1   5
TORSDOF 3
ENDMDL
MODEL 3
REMARK VINA RESULT:    -4.034      1.155      1.518
REMARK INTER + INTRA:          -4.761
REMARK INTER:                  -4.732
REMARK INTRA:                  -0.030
REMARK UNBOUND:                -0.020
REMARK SMILES CCCCC(=O)[O-]
REMARK SMILES IDX 4 1 5 2 6 3 7 4 3 5 2 6 1 7
REMARK H PARENT
REMARK Flexibility Score: inf
ROOT
ATOM      1  C   UNL     1     -12.003   2.353  -9.274  1.00  0.00     0.053 C 
ENDROOT
BRANCH   1   2
ATOM      2  C   UNL     1     -11.636   3.613  -8.557  1.00  0.00     0.041 C 
ATOM      3  O   UNL     1     -10.487   3.746  -8.058  1.00  0.00    -0.550 OA
ATOM      4  O   UNL     1     -12.577   4.623  -8.398  1.00  0.00    -0.550 OA
ENDBRANCH   1   2
BRANCH   1   5
ATOM      5  C   UNL     1     -13.515   2.112  -9.193  1.00  0.00     0.006 C 
BRANCH   5   6
ATOM      6  C   UNL     1     -14.012   1.115 -10.252  1.00  0.00    -0.003 C 
ATOM      7  C   UNL     1     -13.006  -0.001 -10.529  1.00  0.00     0.004 C 
ENDBRANCH   5   6
ENDBRANCH   1   5
TORSDOF 3
ENDMDL
MODEL 4
REMARK VINA RESULT:    -3.999      2.613      4.209
REMARK INTER + INTRA:          -4.721
REMARK INTER:                  -4.701
REMARK INTRA:                  -0.019
REMARK UNBOUND:                -0.020
REMARK SMILES CCCCC(=O)[O-]
REMARK SMILES IDX 4 1 5 2 6 3 7 4 3 5 2 6 1 7
REMARK H PARENT
REMARK Flexibility Score: inf
ROOT
ATOM      1  C   UNL     1     -12.392   1.668  -9.664  1.00  0.00     0.053 C 
ENDROOT
BRANCH   1   2
ATOM      2  C   UNL     1     -11.637   0.438 -10.056  1.00  0.00     0.041 C 
ATOM      3  O   UNL     1     -12.021  -0.256 -11.034  1.00  0.00    -0.550 OA
ATOM      4  O   UNL     1     -10.536   0.030  -9.312  1.00  0.00    -0.550 OA
ENDBRANCH   1   2
BRANCH   1   5
ATOM      5  C   UNL     1     -11.467   2.658  -8.946  1.00  0.00     0.006 C 
BRANCH   5   6
ATOM      6  C   UNL     1     -11.857   4.122  -9.200  1.00  0.00    -0.003 C 
ATOM      7  C   UNL     1     -13.062   4.564  -8.371  1.00  0.00     0.004 C 
ENDBRANCH   5   6
ENDBRANCH   1   5
TORSDOF 3
ENDMDL
MODEL 5
REMARK VINA RESULT:    -3.757      3.856      4.902
REMARK INTER + INTRA:          -4.435
REMARK INTER:                  -4.369
REMARK INTRA:                  -0.067
REMARK UNBOUND:                -0.020
REMARK SMILES CCCCC(=O)[O-]
REMARK SMILES IDX 4 1 5 2 6 3 7 4 3 5 2 6 1 7
REMARK H PARENT
REMARK Flexibility Score: inf
ROOT
ATOM      1  C   UNL     1     -10.600  -0.726 -10.308  1.00  0.00     0.053 C 
ENDROOT
BRANCH   1   2
ATOM      2  C   UNL     1     -10.672  -2.083  -9.683  1.00  0.00     0.041 C 
ATOM      3  O   UNL     1      -9.858  -2.408  -8.779  1.00  0.00    -0.550 OA
ATOM      4  O   UNL     1     -11.608  -3.007 -10.132  1.00  0.00    -0.550 OA
ENDBRANCH   1   2
BRANCH   1   5
ATOM      5  C   UNL     1     -11.982  -0.293 -10.811  1.00  0.00     0.006 C 
BRANCH   5   6
ATOM      6  C   UNL     1     -12.579   0.857  -9.984  1.00  0.00    -0.003 C 
ATOM      7  C   UNL     1     -11.516   1.652  -9.227  1.00  0.00     0.004 C 
ENDBRANCH   5   6
ENDBRANCH   1   5
TORSDOF 3
ENDMDL
MODEL 6
REMARK VINA RESULT:    -3.613      2.920      4.148
REMARK INTER + INTRA:          -4.266
REMARK INTER:                  -4.234
REMARK INTRA:                  -0.032
REMARK UNBOUND:                -0.020
REMARK SMILES CCCCC(=O)[O-]
REMARK SMILES IDX 4 1 5 2 6 3 7 4 3 5 2 6 1 7
REMARK H PARENT
REMARK Flexibility Score: inf
ROOT
ATOM      1  C   UNL     1     -12.156  -0.471 -11.046  1.00  0.00     0.053 C 
ENDROOT
BRANCH   1   2
ATOM      2  C   UNL     1     -10.918  -0.347 -10.216  1.00  0.00     0.041 C 
ATOM      3  O   UNL     1     -10.011  -1.216 -10.297  1.00  0.00    -0.550 OA
ATOM      4  O   UNL     1     -10.787   0.704  -9.315  1.00  0.00    -0.550 OA
ENDBRANCH   1   2
BRANCH   1   5
ATOM      5  C   UNL     1     -13.405  -0.284 -10.176  1.00  0.00     0.006 C 
BRANCH   5   6
ATOM      6  C   UNL     1     -14.044   1.103 -10.350  1.00  0.00    -0.003 C 
ATOM      7  C   UNL     1     -14.929   1.498  -9.168  1.00  0.00     0.004 C 
ENDBRANCH   5   6
ENDBRANCH   1   5
TORSDOF 3
ENDMDL
MODEL 7
REMARK VINA RESULT:    -3.547     15.395     16.588
REMARK INTER + INTRA:          -4.189
REMARK INTER:                  -4.084
REMARK INTRA:                  -0.105
REMARK UNBOUND:                -0.020
REMARK SMILES CCCCC(=O)[O-]
REMARK SMILES IDX 4 1 5 2 6 3 7 4 3 5 2 6 1 7
REMARK H PARENT
REMARK Flexibility Score: inf
ROOT
ATOM      1  C   UNL     1     -12.523   4.597   7.038  1.00  0.00     0.053 C 
ENDROOT
BRANCH   1   2
ATOM      2  C   UNL     1     -12.467   5.349   5.747  1.00  0.00     0.041 C 
ATOM      3  O   UNL     1     -11.407   5.935   5.401  1.00  0.00    -0.550 OA
ATOM      4  O   UNL     1     -13.600   5.446   4.948  1.00  0.00    -0.550 OA
ENDBRANCH   1   2
BRANCH   1   5
ATOM      5  C   UNL     1     -11.191   3.883   7.301  1.00  0.00     0.006 C 
BRANCH   5   6
ATOM      6  C   UNL     1     -10.645   4.152   8.712  1.00  0.00    -0.003 C 
ATOM      7  C   UNL     1     -10.398   5.637   8.975  1.00  0.00     0.004 C 
ENDBRANCH   5   6
ENDBRANCH   1   5
TORSDOF 3
ENDMDL
MODEL 8
REMARK VINA RESULT:    -3.535      2.079      2.484
REMARK INTER + INTRA:          -4.175
REMARK INTER:                  -4.148
REMARK INTRA:                  -0.027
REMARK UNBOUND:                -0.020
REMARK SMILES CCCCC(=O)[O-]
REMARK SMILES IDX 4 1 5 2 6 3 7 4 3 5 2 6 1 7
REMARK H PARENT
REMARK Flexibility Score: inf
ROOT
ATOM      1  C   UNL     1     -13.269   0.745 -10.014  1.00  0.00     0.053 C 
ENDROOT
BRANCH   1   2
ATOM      2  C   UNL     1     -13.907   1.970  -9.441  1.00  0.00     0.041 C 
ATOM      3  O   UNL     1     -13.381   3.101  -9.618  1.00  0.00    -0.550 OA
ATOM      4  O   UNL     1     -15.057   1.859  -8.669  1.00  0.00    -0.550 OA
ENDBRANCH   1   2
BRANCH   1   5
ATOM      5  C   UNL     1     -11.741   0.876  -9.992  1.00  0.00     0.006 C 
BRANCH   5   6
ATOM      6  C   UNL     1     -11.039  -0.262 -10.748  1.00  0.00    -0.003 C 
ATOM      7  C   UNL     1     -11.582  -1.641 -10.374  1.00  0.00     0.004 C 
ENDBRANCH   5   6
ENDBRANCH   1   5
TORSDOF 3
ENDMDL
MODEL 9
REMARK VINA RESULT:    -3.493      3.302      4.321
REMARK INTER + INTRA:          -4.126
REMARK INTER:                  -4.107
REMARK INTRA:                  -0.018
REMARK UNBOUND:                -0.020
REMARK SMILES CCCCC(=O)[O-]
REMARK SMILES IDX 4 1 5 2 6 3 7 4 3 5 2 6 1 7
REMARK H PARENT
REMARK Flexibility Score: inf
ROOT
ATOM      1  C   UNL     1     -13.891   2.042  -9.514  1.00  0.00     0.053 C 
ENDROOT
BRANCH   1   2
ATOM      2  C   UNL     1     -14.063   0.632  -9.982  1.00  0.00     0.041 C 
ATOM      3  O   UNL     1     -15.125   0.004  -9.725  1.00  0.00    -0.550 OA
ATOM      4  O   UNL     1     -13.032  -0.007 -10.660  1.00  0.00    -0.550 OA
ENDBRANCH   1   2
BRANCH   1   5
ATOM      5  C   UNL     1     -12.409   2.347  -9.268  1.00  0.00     0.006 C 
BRANCH   5   6
ATOM      6  C   UNL     1     -12.194   3.678  -8.530  1.00  0.00    -0.003 C 
ATOM      7  C   UNL     1     -10.722   4.079  -8.453  1.00  0.00     0.004 C 
ENDBRANCH   5   6
ENDBRANCH   1   5
TORSDOF 3
ENDMDL
