MODEL 1
REMARK VINA RESULT:    -4.418      0.000      0.000
REMARK INTER + INTRA:          -5.180
REMARK INTER:                  -5.063
REMARK INTRA:                  -0.117
REMARK UNBOUND:                -0.117
REMARK SMILES COc1cc(C(C)=O)ccc1O
REMARK SMILES IDX 5 1 4 2 3 3 11 4 10 5 9 6 6 7 7 8 8 9 2 10 1 11 12 12
REMARK H PARENT 12 13
REMARK Flexibility Score: inf
ROOT
ATOM      1  C   UNL     1     177.126 171.374 172.431  1.00  0.00     0.021 A 
ATOM      2  C   UNL     1     177.204 170.490 171.337  1.00  0.00     0.062 A 
ATOM      3  C   UNL     1     176.104 169.688 170.973  1.00  0.00     0.161 A 
ATOM      4  C   UNL     1     174.915 169.776 171.716  1.00  0.00     0.157 A 
ATOM      5  C   UNL     1     174.833 170.652 172.801  1.00  0.00     0.051 A 
ATOM      6  C   UNL     1     175.925 171.444 173.159  1.00  0.00     0.016 A 
ENDROOT
BRANCH   1   7
ATOM      7  C   UNL     1     178.301 172.212 172.797  1.00  0.00     0.159 C 
ATOM      8  C   UNL     1     178.239 173.225 173.901  1.00  0.00     0.093 C 
ATOM      9  O   UNL     1     179.388 172.077 172.170  1.00  0.00    -0.295 OA
ENDBRANCH   1   7
BRANCH   3  10
ATOM     10  O   UNL     1     176.157 168.798 169.887  1.00  0.00    -0.493 OA
ATOM     11  C   UNL     1     177.342 168.159 169.422  1.00  0.00     0.278 C 
ENDBRANCH   3  10
BRANCH   4  12
ATOM     12  O   UNL     1     173.801 169.001 171.392  1.00  0.00    -0.504 OA
ATOM     13  H   UNL     1     173.069 169.338 170.777  1.00  0.00     0.293 HD
ENDBRANCH   4  12
TORSDOF 3
ENDMDL
MODEL 2
REMARK VINA RESULT:    -4.398      1.780      2.106
REMARK INTER + INTRA:          -5.158
REMARK INTER:                  -5.027
REMARK INTRA:                  -0.131
REMARK UNBOUND:                -0.117
REMARK SMILES COc1cc(C(C)=O)ccc1O
REMARK SMILES IDX 5 1 4 2 3 3 11 4 10 5 9 6 6 7 7 8 8 9 2 10 1 11 12 12
REMARK H PARENT 12 13
REMARK Flexibility Score: inf
ROOT
ATOM      1  C   UNL     1     176.738 171.675 172.269  1.00  0.00     0.021 A 
ATOM      2  C   UNL     1     175.630 171.780 171.405  1.00  0.00     0.062 A 
ATOM      3  C   UNL     1     174.765 170.687 171.199  1.00  0.00     0.161 A 
ATOM      4  C   UNL     1     175.016 169.477 171.868  1.00  0.00     0.157 A 
ATOM      5  C   UNL     1     176.113 169.369 172.726  1.00  0.00     0.051 A 
ATOM      6  C   UNL     1     176.968 170.454 172.927  1.00  0.00     0.016 A 
ENDROOT
BRANCH   1   7
ATOM      7  C   UNL     1     177.639 172.843 172.472  1.00  0.00     0.159 C 
ATOM      8  C   UNL     1     178.688 172.859 173.544  1.00  0.00     0.093 C 
ATOM      9  O   UNL     1     177.528 173.856 171.729  1.00  0.00    -0.295 OA
ENDBRANCH   1   7
BRANCH   3  10
ATOM     10  O   UNL     1     173.655 170.767 170.342  1.00  0.00    -0.493 OA
ATOM     11  C   UNL     1     173.732 170.976 168.935  1.00  0.00     0.278 C 
ENDBRANCH   3  10
BRANCH   4  12
ATOM     12  O   UNL     1     174.186 168.370 171.694  1.00  0.00    -0.504 OA
ATOM     13  H   UNL     1     174.488 167.543 171.192  1.00  0.00     0.293 HD
ENDBRANCH   4  12
TORSDOF 3
ENDMDL
MODEL 3
REMARK VINA RESULT:    -4.376      1.577      2.961
REMARK INTER + INTRA:          -5.132
REMARK INTER:                  -5.019
REMARK INTRA:                  -0.114
REMARK UNBOUND:                -0.117
REMARK SMILES COc1cc(C(C)=O)ccc1O
REMARK SMILES IDX 5 1 4 2 3 3 11 4 10 5 9 6 6 7 7 8 8 9 2 10 1 11 12 12
REMARK H PARENT 12 13
REMARK Flexibility Score: inf
ROOT
ATOM      1  C   UNL     1     176.694 171.696 172.840  1.00  0.00     0.021 A 
ATOM      2  C   UNL     1     175.385 171.289 173.165  1.00  0.00     0.062 A 
ATOM      3  C   UNL     1     174.766 170.223 172.482  1.00  0.00     0.161 A 
ATOM      4  C   UNL     1     175.472 169.560 171.462  1.00  0.00     0.157 A 
ATOM      5  C   UNL     1     176.770 169.960 171.137  1.00  0.00     0.051 A 
ATOM      6  C   UNL     1     177.378 171.017 171.816  1.00  0.00     0.016 A 
ENDROOT
BRANCH   1   7
ATOM      7  C   UNL     1     177.328 172.825 173.575  1.00  0.00     0.159 C 
ATOM      8  C   UNL     1     178.789 173.135 173.445  1.00  0.00     0.093 C 
ATOM      9  O   UNL     1     176.628 173.551 174.333  1.00  0.00    -0.295 OA
ENDBRANCH   1   7
BRANCH   3  10
ATOM     10  O   UNL     1     173.462 169.800 172.786  1.00  0.00    -0.493 OA
ATOM     11  C   UNL     1     172.596 170.450 173.711  1.00  0.00     0.278 C 
ENDBRANCH   3  10
BRANCH   4  12
ATOM     12  O   UNL     1     174.899 168.500 170.760  1.00  0.00    -0.504 OA
ATOM     13  H   UNL     1     175.458 167.778 170.321  1.00  0.00     0.293 HD
ENDBRANCH   4  12
TORSDOF 3
ENDMDL
MODEL 4
REMARK VINA RESULT:    -4.274      1.426      2.940
REMARK INTER + INTRA:          -5.015
REMARK INTER:                  -4.901
REMARK INTRA:                  -0.114
REMARK UNBOUND:                -0.117
REMARK SMILES COc1cc(C(C)=O)ccc1O
REMARK SMILES IDX 5 1 4 2 3 3 11 4 10 5 9 6 6 7 7 8 8 9 2 10 1 11 12 12
REMARK H PARENT 12 13
REMARK Flexibility Score: inf
ROOT
ATOM      1  C   UNL     1     176.671 171.425 172.324  1.00  0.00     0.021 A 
ATOM      2  C   UNL     1     175.505 171.225 173.088  1.00  0.00     0.062 A 
ATOM      3  C   UNL     1     174.714 170.071 172.915  1.00  0.00     0.161 A 
ATOM      4  C   UNL     1     175.101 169.110 171.964  1.00  0.00     0.157 A 
ATOM      5  C   UNL     1     176.257 169.305 171.205  1.00  0.00     0.051 A 
ATOM      6  C   UNL     1     177.037 170.449 171.380  1.00  0.00     0.016 A 
ENDROOT
BRANCH   1   7
ATOM      7  C   UNL     1     177.492 172.651 172.524  1.00  0.00     0.159 C 
ATOM      8  C   UNL     1     178.507 172.757 173.622  1.00  0.00     0.093 C 
ATOM      9  O   UNL     1     177.340 173.639 171.753  1.00  0.00    -0.295 OA
ENDBRANCH   1   7
BRANCH   3  10
ATOM     10  O   UNL     1     173.546 169.849 173.663  1.00  0.00    -0.493 OA
ATOM     11  C   UNL     1     172.301 170.502 173.433  1.00  0.00     0.278 C 
ENDBRANCH   3  10
BRANCH   4  12
ATOM     12  O   UNL     1     174.348 167.954 171.760  1.00  0.00    -0.504 OA
ATOM     13  H   UNL     1     173.830 167.507 172.507  1.00  0.00     0.293 HD
ENDBRANCH   4  12
TORSDOF 3
ENDMDL
MODEL 5
REMARK VINA RESULT:    -4.225      1.724      2.080
REMARK INTER + INTRA:          -4.959
REMARK INTER:                  -4.822
REMARK INTRA:                  -0.137
REMARK UNBOUND:                -0.117
REMARK SMILES COc1cc(C(C)=O)ccc1O
REMARK SMILES IDX 5 1 4 2 3 3 11 4 10 5 9 6 6 7 7 8 8 9 2 10 1 11 12 12
REMARK H PARENT 12 13
REMARK Flexibility Score: inf
ROOT
ATOM      1  C   UNL     1     176.842 171.253 172.705  1.00  0.00     0.021 A 
ATOM      2  C   UNL     1     176.803 169.873 172.986  1.00  0.00     0.062 A 
ATOM      3  C   UNL     1     175.915 169.018 172.302  1.00  0.00     0.161 A 
ATOM      4  C   UNL     1     175.059 169.557 171.327  1.00  0.00     0.157 A 
ATOM      5  C   UNL     1     175.094 170.924 171.045  1.00  0.00     0.051 A 
ATOM      6  C   UNL     1     175.975 171.767 171.725  1.00  0.00     0.016 A 
ENDROOT
BRANCH   1   7
ATOM      7  C   UNL     1     177.789 172.137 173.440  1.00  0.00     0.159 C 
ATOM      8  C   UNL     1     177.905 173.601 173.135  1.00  0.00     0.093 C 
ATOM      9  O   UNL     1     178.520 171.655 174.347  1.00  0.00    -0.295 OA
ENDBRANCH   1   7
BRANCH   3  10
ATOM     10  O   UNL     1     175.857 167.640 172.565  1.00  0.00    -0.493 OA
ATOM     11  C   UNL     1     175.246 167.060 173.714  1.00  0.00     0.278 C 
ENDBRANCH   3  10
BRANCH   4  12
ATOM     12  O   UNL     1     174.164 168.749 170.626  1.00  0.00    -0.504 OA
ATOM     13  H   UNL     1     173.972 168.884 169.640  1.00  0.00     0.293 HD
ENDBRANCH   4  12
TORSDOF 3
ENDMDL
MODEL 6
REMARK VINA RESULT:    -4.205      0.969      0.984
REMARK INTER + INTRA:          -4.936
REMARK INTER:                  -4.822
REMARK INTRA:                  -0.114
REMARK UNBOUND:                -0.117
REMARK SMILES COc1cc(C(C)=O)ccc1O
REMARK SMILES IDX 5 1 4 2 3 3 11 4 10 5 9 6 6 7 7 8 8 9 2 10 1 11 12 12
REMARK H PARENT 12 13
REMARK Flexibility Score: inf
ROOT
ATOM      1  C   UNL     1     176.647 171.045 172.533  1.00  0.00     0.021 A 
ATOM      2  C   UNL     1     177.038 170.339 171.378  1.00  0.00     0.062 A 
ATOM      3  C   UNL     1     176.128 169.511 170.692  1.00  0.00     0.161 A 
ATOM      4  C   UNL     1     174.813 169.392 171.171  1.00  0.00     0.157 A 
ATOM      5  C   UNL     1     174.420 170.090 172.315  1.00  0.00     0.051 A 
ATOM      6  C   UNL     1     175.325 170.909 172.993  1.00  0.00     0.016 A 
ENDROOT
BRANCH   1   7
ATOM      7  C   UNL     1     177.625 171.915 173.243  1.00  0.00     0.159 C 
ATOM      8  C   UNL     1     177.825 173.353 172.868  1.00  0.00     0.093 C 
ATOM      9  O   UNL     1     178.313 171.442 174.189  1.00  0.00    -0.295 OA
ENDBRANCH   1   7
BRANCH   3  10
ATOM     10  O   UNL     1     176.495 168.796 169.540  1.00  0.00    -0.493 OA
ATOM     11  C   UNL     1     177.133 167.523 169.546  1.00  0.00     0.278 C 
ENDBRANCH   3  10
BRANCH   4  12
ATOM     12  O   UNL     1     173.879 168.583 170.524  1.00  0.00    -0.504 OA
ATOM     13  H   UNL     1     173.954 168.353 169.540  1.00  0.00     0.293 HD
ENDBRANCH   4  12
TORSDOF 3
ENDMDL
MODEL 7
REMARK VINA RESULT:    -3.968      1.460      3.886
REMARK INTER + INTRA:          -4.664
REMARK INTER:                  -4.572
REMARK INTRA:                  -0.092
REMARK UNBOUND:                -0.117
REMARK SMILES COc1cc(C(C)=O)ccc1O
REMARK SMILES IDX 5 1 4 2 3 3 11 4 10 5 9 6 6 7 7 8 8 9 2 10 1 11 12 12
REMARK H PARENT 12 13
REMARK Flexibility Score: inf
ROOT
ATOM      1  C   UNL     1     174.979 170.631 172.881  1.00  0.00     0.021 A 
ATOM      2  C   UNL     1     175.574 169.966 171.791  1.00  0.00     0.062 A 
ATOM      3  C   UNL     1     176.895 170.260 171.395  1.00  0.00     0.161 A 
ATOM      4  C   UNL     1     177.623 171.231 172.104  1.00  0.00     0.157 A 
ATOM      5  C   UNL     1     177.037 171.892 173.185  1.00  0.00     0.051 A 
ATOM      6  C   UNL     1     175.728 171.599 173.573  1.00  0.00     0.016 A 
ENDROOT
BRANCH   1   7
ATOM      7  C   UNL     1     173.582 170.304 173.281  1.00  0.00     0.159 C 
ATOM      8  C   UNL     1     172.753 169.308 172.527  1.00  0.00     0.093 C 
ATOM      9  O   UNL     1     173.068 170.875 174.282  1.00  0.00    -0.295 OA
ENDBRANCH   1   7
BRANCH   3  10
ATOM     10  O   UNL     1     177.510 169.611 170.312  1.00  0.00    -0.493 OA
ATOM     11  C   UNL     1     176.984 168.463 169.652  1.00  0.00     0.278 C 
ENDBRANCH   3  10
BRANCH   4  12
ATOM     12  O   UNL     1     178.932 171.554 171.748  1.00  0.00    -0.504 OA
ATOM     13  H   UNL     1     179.222 172.507 171.563  1.00  0.00     0.293 HD
ENDBRANCH   4  12
TORSDOF 3
ENDMDL
MODEL 8
REMARK VINA RESULT:    -3.916      1.752      4.359
REMARK INTER + INTRA:          -4.605
REMARK INTER:                  -4.515
REMARK INTRA:                  -0.090
REMARK UNBOUND:                -0.117
REMARK SMILES COc1cc(C(C)=O)ccc1O
REMARK SMILES IDX 5 1 4 2 3 3 11 4 10 5 9 6 6 7 7 8 8 9 2 10 1 11 12 12
REMARK H PARENT 12 13
REMARK Flexibility Score: inf
ROOT
ATOM      1  C   UNL     1     176.549 169.699 171.231  1.00  0.00     0.021 A 
ATOM      2  C   UNL     1     175.384 169.811 172.015  1.00  0.00     0.062 A 
ATOM      3  C   UNL     1     175.234 170.857 172.947  1.00  0.00     0.161 A 
ATOM      4  C   UNL     1     176.267 171.800 173.091  1.00  0.00     0.157 A 
ATOM      5  C   UNL     1     177.424 171.693 172.316  1.00  0.00     0.051 A 
ATOM      6  C   UNL     1     177.568 170.655 171.394  1.00  0.00     0.016 A 
ENDROOT
BRANCH   1   7
ATOM      7  C   UNL     1     176.685 168.585 170.253  1.00  0.00     0.159 C 
ATOM      8  C   UNL     1     176.006 167.264 170.455  1.00  0.00     0.093 C 
ATOM      9  O   UNL     1     177.390 168.743 169.218  1.00  0.00    -0.295 OA
ENDBRANCH   1   7
BRANCH   3  10
ATOM     10  O   UNL     1     174.083 170.990 173.740  1.00  0.00    -0.493 OA
ATOM     11  C   UNL     1     172.942 170.141 173.659  1.00  0.00     0.278 C 
ENDBRANCH   3  10
BRANCH   4  12
ATOM     12  O   UNL     1     176.162 172.852 174.001  1.00  0.00    -0.504 OA
ATOM     13  H   UNL     1     175.525 173.627 173.859  1.00  0.00     0.293 HD
ENDBRANCH   4  12
TORSDOF 3
ENDMDL
MODEL 9
REMARK VINA RESULT:    -3.901      1.709      3.202
REMARK INTER + INTRA:          -4.587
REMARK INTER:                  -4.481
REMARK INTRA:                  -0.107
REMARK UNBOUND:                -0.117
REMARK SMILES COc1cc(C(C)=O)ccc1O
REMARK SMILES IDX 5 1 4 2 3 3 11 4 10 5 9 6 6 7 7 8 8 9 2 10 1 11 12 12
REMARK H PARENT 12 13
REMARK Flexibility Score: inf
ROOT
ATOM      1  C   UNL     1     176.168 171.121 172.550  1.00  0.00     0.021 A 
ATOM      2  C   UNL     1     175.005 170.963 173.330  1.00  0.00     0.062 A 
ATOM      3  C   UNL     1     173.923 170.187 172.868  1.00  0.00     0.161 A 
ATOM      4  C   UNL     1     174.012 169.564 171.612  1.00  0.00     0.157 A 
ATOM      5  C   UNL     1     175.163 169.718 170.836  1.00  0.00     0.051 A 
ATOM      6  C   UNL     1     176.232 170.488 171.296  1.00  0.00     0.016 A 
ENDROOT
BRANCH   1   7
ATOM      7  C   UNL     1     177.299 171.946 173.058  1.00  0.00     0.159 C 
ATOM      8  C   UNL     1     177.624 173.290 172.478  1.00  0.00     0.093 C 
ATOM      9  O   UNL     1     178.016 171.513 174.002  1.00  0.00    -0.295 OA
ENDBRANCH   1   7
BRANCH   3  10
ATOM     10  O   UNL     1     172.753 170.015 173.626  1.00  0.00    -0.493 OA
ATOM     11  C   UNL     1     171.612 170.865 173.557  1.00  0.00     0.278 C 
ENDBRANCH   3  10
BRANCH   4  12
ATOM     12  O   UNL     1     172.965 168.787 171.115  1.00  0.00    -0.504 OA
ATOM     13  H   UNL     1     173.121 167.886 170.680  1.00  0.00     0.293 HD
ENDBRANCH   4  12
TORSDOF 3
ENDMDL
