MODEL 1
REMARK VINA RESULT:    -4.123      0.000      0.000
REMARK INTER + INTRA:          -4.695
REMARK INTER:                  -4.485
REMARK INTRA:                  -0.211
REMARK UNBOUND:                -0.211
REMARK SMILES O=C([O-])c1ccccc1O
REMARK SMILES IDX 4 1 9 2 5 3 8 4 6 5 7 6 2 7 1 8 3 9 10 10
REMARK H PARENT 10 11
REMARK Flexibility Score: inf
ROOT
ATOM      1  C   UNL     1      38.428 -42.643  21.752  1.00  0.00     0.039 A 
ATOM      2  C   UNL     1      38.660 -43.786  20.944  1.00  0.00     0.124 A 
ATOM      3  C   UNL     1      38.648 -41.365  21.205  1.00  0.00     0.014 A 
ATOM      4  C   UNL     1      39.159 -43.625  19.645  1.00  0.00     0.047 A 
ATOM      5  C   UNL     1      39.125 -41.222  19.900  1.00  0.00     0.001 A 
ATOM      6  C   UNL     1      39.390 -42.350  19.125  1.00  0.00     0.004 A 
ENDROOT
BRANCH   1   7
ATOM      7  C   UNL     1      38.000 -42.746  23.165  1.00  0.00     0.075 C 
ATOM      8  O   UNL     1      38.087 -41.744  23.926  1.00  0.00    -0.545 OA
ATOM      9  O   UNL     1      37.564 -43.955  23.691  1.00  0.00    -0.545 OA
ENDBRANCH   1   7
BRANCH   2  10
ATOM     10  O   UNL     1      38.375 -45.082  21.375  1.00  0.00    -0.507 OA
ATOM     11  H   UNL     1      38.221 -45.325  22.343  1.00  0.00     0.293 HD
ENDBRANCH   2  10
TORSDOF 2
ENDMDL
MODEL 2
REMARK VINA RESULT:    -4.000      0.995      1.359
REMARK INTER + INTRA:          -4.561
REMARK INTER:                  -4.363
REMARK INTRA:                  -0.199
REMARK UNBOUND:                -0.211
REMARK SMILES O=C([O-])c1ccccc1O
REMARK SMILES IDX 4 1 9 2 5 3 8 4 6 5 7 6 2 7 1 8 3 9 10 10
REMARK H PARENT 10 11
REMARK Flexibility Score: inf
ROOT
ATOM      1  C   UNL     1      38.371 -42.537  21.487  1.00  0.00     0.039 A 
ATOM      2  C   UNL     1      38.715 -42.965  20.179  1.00  0.00     0.124 A 
ATOM      3  C   UNL     1      38.547 -41.184  21.830  1.00  0.00     0.014 A 
ATOM      4  C   UNL     1      39.279 -42.053  19.278  1.00  0.00     0.047 A 
ATOM      5  C   UNL     1      39.091 -40.282  20.913  1.00  0.00     0.001 A 
ATOM      6  C   UNL     1      39.466 -40.718  19.642  1.00  0.00     0.004 A 
ENDROOT
BRANCH   1   7
ATOM      7  C   UNL     1      37.868 -43.471  22.519  1.00  0.00     0.075 C 
ATOM      8  O   UNL     1      37.651 -43.060  23.691  1.00  0.00    -0.545 OA
ATOM      9  O   UNL     1      37.694 -44.819  22.236  1.00  0.00    -0.545 OA
ENDBRANCH   1   7
BRANCH   2  10
ATOM     10  O   UNL     1      38.482 -44.265  19.727  1.00  0.00    -0.507 OA
ATOM     11  H   UNL     1      37.560 -44.674  19.662  1.00  0.00     0.293 HD
ENDBRANCH   2  10
TORSDOF 2
ENDMDL
MODEL 3
REMARK VINA RESULT:    -3.972      1.720      3.471
REMARK INTER + INTRA:          -4.531
REMARK INTER:                  -4.305
REMARK INTRA:                  -0.226
REMARK UNBOUND:                -0.211
REMARK SMILES O=C([O-])c1ccccc1O
REMARK SMILES IDX 4 1 9 2 5 3 8 4 6 5 7 6 2 7 1 8 3 9 10 10
REMARK H PARENT 10 11
REMARK Flexibility Score: inf
ROOT
ATOM      1  C   UNL     1      38.822 -42.911  20.700  1.00  0.00     0.039 A 
ATOM      2  C   UNL     1      38.244 -43.788  21.653  1.00  0.00     0.124 A 
ATOM      3  C   UNL     1      38.767 -41.524  20.929  1.00  0.00     0.014 A 
ATOM      4  C   UNL     1      37.578 -43.259  22.766  1.00  0.00     0.047 A 
ATOM      5  C   UNL     1      38.118 -41.013  22.055  1.00  0.00     0.001 A 
ATOM      6  C   UNL     1      37.515 -41.879  22.967  1.00  0.00     0.004 A 
ENDROOT
BRANCH   1   7
ATOM      7  C   UNL     1      39.450 -43.400  19.452  1.00  0.00     0.075 C 
ATOM      8  O   UNL     1      38.795 -44.127  18.658  1.00  0.00    -0.545 OA
ATOM      9  O   UNL     1      40.782 -43.127  19.170  1.00  0.00    -0.545 OA
ENDBRANCH   1   7
BRANCH   2  10
ATOM     10  O   UNL     1      38.340 -45.177  21.553  1.00  0.00    -0.507 OA
ATOM     11  H   UNL     1      37.538 -45.792  21.553  1.00  0.00     0.293 HD
ENDBRANCH   2  10
TORSDOF 2
ENDMDL
MODEL 4
REMARK VINA RESULT:    -3.900      0.985      2.519
REMARK INTER + INTRA:          -4.452
REMARK INTER:                  -4.199
REMARK INTRA:                  -0.253
REMARK UNBOUND:                -0.211
REMARK SMILES O=C([O-])c1ccccc1O
REMARK SMILES IDX 4 1 9 2 5 3 8 4 6 5 7 6 2 7 1 8 3 9 10 10
REMARK H PARENT 10 11
REMARK Flexibility Score: inf
ROOT
ATOM      1  C   UNL     1      38.264 -43.653  21.292  1.00  0.00     0.039 A 
ATOM      2  C   UNL     1      38.297 -42.278  21.641  1.00  0.00     0.124 A 
ATOM      3  C   UNL     1      38.764 -44.049  20.037  1.00  0.00     0.014 A 
ATOM      4  C   UNL     1      38.765 -41.339  20.713  1.00  0.00     0.047 A 
ATOM      5  C   UNL     1      39.247 -43.102  19.132  1.00  0.00     0.001 A 
ATOM      6  C   UNL     1      39.238 -41.748  19.464  1.00  0.00     0.004 A 
ENDROOT
BRANCH   1   7
ATOM      7  C   UNL     1      37.688 -44.683  22.184  1.00  0.00     0.075 C 
ATOM      8  O   UNL     1      36.924 -45.570  21.715  1.00  0.00    -0.545 OA
ATOM      9  O   UNL     1      37.921 -44.651  23.553  1.00  0.00    -0.545 OA
ENDBRANCH   1   7
BRANCH   2  10
ATOM     10  O   UNL     1      37.912 -41.812  22.899  1.00  0.00    -0.507 OA
ATOM     11  H   UNL     1      37.592 -40.870  23.070  1.00  0.00     0.293 HD
ENDBRANCH   2  10
TORSDOF 2
ENDMDL
MODEL 5
REMARK VINA RESULT:    -3.855      1.590      3.370
REMARK INTER + INTRA:          -4.404
REMARK INTER:                  -4.186
REMARK INTRA:                  -0.218
REMARK UNBOUND:                -0.211
REMARK SMILES O=C([O-])c1ccccc1O
REMARK SMILES IDX 4 1 9 2 5 3 8 4 6 5 7 6 2 7 1 8 3 9 10 10
REMARK H PARENT 10 11
REMARK Flexibility Score: inf
ROOT
ATOM      1  C   UNL     1      39.089 -41.780  20.339  1.00  0.00     0.039 A 
ATOM      2  C   UNL     1      38.709 -41.200  21.577  1.00  0.00     0.124 A 
ATOM      3  C   UNL     1      39.549 -40.940  19.307  1.00  0.00     0.014 A 
ATOM      4  C   UNL     1      38.737 -39.809  21.728  1.00  0.00     0.047 A 
ATOM      5  C   UNL     1      39.591 -39.556  19.481  1.00  0.00     0.001 A 
ATOM      6  C   UNL     1      39.176 -38.989  20.686  1.00  0.00     0.004 A 
ENDROOT
BRANCH   1   7
ATOM      7  C   UNL     1      38.986 -43.233  20.079  1.00  0.00     0.075 C 
ATOM      8  O   UNL     1      38.978 -44.048  21.041  1.00  0.00    -0.545 OA
ATOM      9  O   UNL     1      38.967 -43.724  18.781  1.00  0.00    -0.545 OA
ENDBRANCH   1   7
BRANCH   2  10
ATOM     10  O   UNL     1      38.336 -41.967  22.683  1.00  0.00    -0.507 OA
ATOM     11  H   UNL     1      38.353 -42.977  22.691  1.00  0.00     0.293 HD
ENDBRANCH   2  10
TORSDOF 2
ENDMDL
MODEL 6
REMARK VINA RESULT:    -3.795      2.730      4.055
REMARK INTER + INTRA:          -4.338
REMARK INTER:                  -4.102
REMARK INTRA:                  -0.236
REMARK UNBOUND:                -0.211
REMARK SMILES O=C([O-])c1ccccc1O
REMARK SMILES IDX 4 1 9 2 5 3 8 4 6 5 7 6 2 7 1 8 3 9 10 10
REMARK H PARENT 10 11
REMARK Flexibility Score: inf
ROOT
ATOM      1  C   UNL     1      39.057 -41.315  19.971  1.00  0.00     0.039 A 
ATOM      2  C   UNL     1      38.631 -41.355  21.325  1.00  0.00     0.124 A 
ATOM      3  C   UNL     1      39.216 -42.525  19.271  1.00  0.00     0.014 A 
ATOM      4  C   UNL     1      38.440 -42.591  21.953  1.00  0.00     0.047 A 
ATOM      5  C   UNL     1      39.000 -43.749  19.907  1.00  0.00     0.001 A 
ATOM      6  C   UNL     1      38.623 -43.783  21.249  1.00  0.00     0.004 A 
ENDROOT
BRANCH   1   7
ATOM      7  C   UNL     1      39.375 -40.047  19.278  1.00  0.00     0.075 C 
ATOM      8  O   UNL     1      40.191 -39.234  19.791  1.00  0.00    -0.545 OA
ATOM      9  O   UNL     1      38.734 -39.701  18.096  1.00  0.00    -0.545 OA
ENDBRANCH   1   7
BRANCH   2  10
ATOM     10  O   UNL     1      38.355 -40.202  22.060  1.00  0.00    -0.507 OA
ATOM     11  H   UNL     1      38.993 -39.807  22.737  1.00  0.00     0.293 HD
ENDBRANCH   2  10
TORSDOF 2
ENDMDL
MODEL 7
REMARK VINA RESULT:    -3.782      1.024      1.451
REMARK INTER + INTRA:          -4.324
REMARK INTER:                  -4.078
REMARK INTRA:                  -0.246
REMARK UNBOUND:                -0.211
REMARK SMILES O=C([O-])c1ccccc1O
REMARK SMILES IDX 4 1 9 2 5 3 8 4 6 5 7 6 2 7 1 8 3 9 10 10
REMARK H PARENT 10 11
REMARK Flexibility Score: inf
ROOT
ATOM      1  C   UNL     1      38.443 -42.088  21.662  1.00  0.00     0.039 A 
ATOM      2  C   UNL     1      38.655 -43.490  21.611  1.00  0.00     0.124 A 
ATOM      3  C   UNL     1      38.736 -41.314  20.524  1.00  0.00     0.014 A 
ATOM      4  C   UNL     1      39.207 -44.066  20.460  1.00  0.00     0.047 A 
ATOM      5  C   UNL     1      39.266 -41.907  19.376  1.00  0.00     0.001 A 
ATOM      6  C   UNL     1      39.512 -43.279  19.348  1.00  0.00     0.004 A 
ENDROOT
BRANCH   1   7
ATOM      7  C   UNL     1      37.959 -41.403  22.881  1.00  0.00     0.075 C 
ATOM      8  O   UNL     1      38.488 -41.652  23.998  1.00  0.00    -0.545 OA
ATOM      9  O   UNL     1      36.877 -40.534  22.828  1.00  0.00    -0.545 OA
ENDBRANCH   1   7
BRANCH   2  10
ATOM     10  O   UNL     1      38.300 -44.342  22.658  1.00  0.00    -0.507 OA
ATOM     11  H   UNL     1      37.378 -44.364  23.070  1.00  0.00     0.293 HD
ENDBRANCH   2  10
TORSDOF 2
ENDMDL
MODEL 8
REMARK VINA RESULT:    -3.744      0.846      2.370
REMARK INTER + INTRA:          -4.283
REMARK INTER:                  -4.063
REMARK INTRA:                  -0.219
REMARK UNBOUND:                -0.211
REMARK SMILES O=C([O-])c1ccccc1O
REMARK SMILES IDX 4 1 9 2 5 3 8 4 6 5 7 6 2 7 1 8 3 9 10 10
REMARK H PARENT 10 11
REMARK Flexibility Score: inf
ROOT
ATOM      1  C   UNL     1      38.358 -42.997  21.685  1.00  0.00     0.039 A 
ATOM      2  C   UNL     1      38.570 -41.636  21.344  1.00  0.00     0.124 A 
ATOM      3  C   UNL     1      38.644 -43.991  20.731  1.00  0.00     0.014 A 
ATOM      4  C   UNL     1      38.997 -41.305  20.053  1.00  0.00     0.047 A 
ATOM      5  C   UNL     1      39.090 -43.644  19.454  1.00  0.00     0.001 A 
ATOM      6  C   UNL     1      39.257 -42.303  19.112  1.00  0.00     0.004 A 
ENDROOT
BRANCH   1   7
ATOM      7  C   UNL     1      37.810 -43.409  22.997  1.00  0.00     0.075 C 
ATOM      8  O   UNL     1      37.796 -44.627  23.321  1.00  0.00    -0.545 OA
ATOM      9  O   UNL     1      37.243 -42.478  23.856  1.00  0.00    -0.545 OA
ENDBRANCH   1   7
BRANCH   2  10
ATOM     10  O   UNL     1      38.405 -40.597  22.261  1.00  0.00    -0.507 OA
ATOM     11  H   UNL     1      37.531 -40.401  22.729  1.00  0.00     0.293 HD
ENDBRANCH   2  10
TORSDOF 2
ENDMDL
MODEL 9
REMARK VINA RESULT:    -3.732      2.208      2.943
REMARK INTER + INTRA:          -4.270
REMARK INTER:                  -4.022
REMARK INTRA:                  -0.248
REMARK UNBOUND:                -0.211
REMARK SMILES O=C([O-])c1ccccc1O
REMARK SMILES IDX 4 1 9 2 5 3 8 4 6 5 7 6 2 7 1 8 3 9 10 10
REMARK H PARENT 10 11
REMARK Flexibility Score: inf
ROOT
ATOM      1  C   UNL     1      38.698 -41.477  21.200  1.00  0.00     0.039 A 
ATOM      2  C   UNL     1      39.120 -41.376  19.849  1.00  0.00     0.124 A 
ATOM      3  C   UNL     1      38.469 -42.752  21.749  1.00  0.00     0.014 A 
ATOM      4  C   UNL     1      39.240 -42.535  19.073  1.00  0.00     0.047 A 
ATOM      5  C   UNL     1      38.615 -43.900  20.967  1.00  0.00     0.001 A 
ATOM      6  C   UNL     1      38.989 -43.791  19.628  1.00  0.00     0.004 A 
ENDROOT
BRANCH   1   7
ATOM      7  C   UNL     1      38.453 -40.287  22.045  1.00  0.00     0.075 C 
ATOM      8  O   UNL     1      39.315 -39.370  22.111  1.00  0.00    -0.545 OA
ATOM      9  O   UNL     1      37.309 -40.192  22.827  1.00  0.00    -0.545 OA
ENDBRANCH   1   7
BRANCH   2  10
ATOM     10  O   UNL     1      39.462 -40.159  19.258  1.00  0.00    -0.507 OA
ATOM     11  H   UNL     1      38.784 -39.457  18.996  1.00  0.00     0.293 HD
ENDBRANCH   2  10
TORSDOF 2
ENDMDL
