MODEL 1
REMARK VINA RESULT:     2.580      0.000      0.000
REMARK INTER + INTRA:           4.701
REMARK INTER:                   5.596
REMARK INTRA:                  -0.894
REMARK UNBOUND:                -0.894
REMARK SMILES CCCCCCCCCCCCCCCCCCCCCC(=O)[O-]
REMARK SMILES IDX 12 1 11 2 10 3 9 4 8 5 7 6 6 7 5 8 4 9 3 10 2 11 1 12 13 13
REMARK SMILES IDX 14 14 15 15 16 16 17 17 18 18 19 19 20 20 21 21 22 22 23 23
REMARK SMILES IDX 24 24
REMARK H PARENT
REMARK Flexibility Score: inf
ROOT
ATOM      1  C   UNL     1      -0.179  -3.559 -14.054  1.00  0.00     0.000 C 
ENDROOT
BRANCH   1   2
ATOM      2  C   UNL     1       1.356  -3.536 -13.972  1.00  0.00     0.000 C 
BRANCH   2   3
ATOM      3  C   UNL     1       1.871  -2.797 -12.725  1.00  0.00     0.000 C 
BRANCH   3   4
ATOM      4  C   UNL     1       3.135  -1.964 -13.002  1.00  0.00    -0.000 C 
BRANCH   4   5
ATOM      5  C   UNL     1       4.186  -2.656 -13.893  1.00  0.00    -0.000 C 
BRANCH   5   6
ATOM      6  C   UNL     1       5.647  -2.246 -13.620  1.00  0.00    -0.000 C 
BRANCH   6   7
ATOM      7  C   UNL     1       6.688  -3.359 -13.851  1.00  0.00    -0.000 C 
BRANCH   7   8
ATOM      8  C   UNL     1       6.442  -4.654 -13.054  1.00  0.00    -0.000 C 
BRANCH   8   9
ATOM      9  C   UNL     1       6.345  -5.937 -13.904  1.00  0.00    -0.000 C 
BRANCH   9  10
ATOM     10  C   UNL     1       4.915  -6.465 -14.124  1.00  0.00    -0.000 C 
BRANCH  10  11
ATOM     11  C   UNL     1       4.815  -7.990 -13.978  1.00  0.00    -0.003 C 
ATOM     12  C   UNL     1       3.516  -8.392 -13.289  1.00  0.00     0.004 C 
ENDBRANCH  10  11
ENDBRANCH   9  10
ENDBRANCH   8   9
ENDBRANCH   7   8
ENDBRANCH   6   7
ENDBRANCH   5   6
ENDBRANCH   4   5
ENDBRANCH   3   4
ENDBRANCH   2   3
ENDBRANCH   1   2
BRANCH   1  13
ATOM     13  C   UNL     1      -0.748  -4.987 -14.037  1.00  0.00     0.000 C 
BRANCH  13  14
ATOM     14  C   UNL     1      -2.285  -5.013 -14.075  1.00  0.00     0.000 C 
BRANCH  14  15
ATOM     15  C   UNL     1      -2.903  -6.124 -13.196  1.00  0.00     0.000 C 
BRANCH  15  16
ATOM     16  C   UNL     1      -3.916  -7.010 -13.949  1.00  0.00     0.000 C 
BRANCH  16  17
ATOM     17  C   UNL     1      -3.676  -8.525 -13.793  1.00  0.00     0.000 C 
BRANCH  17  18
ATOM     18  C   UNL     1      -4.883  -9.424 -14.125  1.00  0.00     0.000 C 
BRANCH  18  19
ATOM     19  C   UNL     1      -6.037  -9.328 -13.105  1.00  0.00     0.000 C 
BRANCH  19  20
ATOM     20  C   UNL     1      -6.782 -10.663 -12.929  1.00  0.00     0.006 C 
BRANCH  20  21
ATOM     21  C   UNL     1      -8.301 -10.503 -13.088  1.00  0.00     0.053 C 
BRANCH  21  22
ATOM     22  C   UNL     1      -9.051 -11.186 -11.985  1.00  0.00     0.041 C 
ATOM     23  O   UNL     1     -10.311 -11.187 -11.982  1.00  0.00    -0.550 OA
ATOM     24  O   UNL     1      -8.363 -11.768 -10.930  1.00  0.00    -0.550 OA
ENDBRANCH  21  22
ENDBRANCH  20  21
ENDBRANCH  19  20
ENDBRANCH  18  19
ENDBRANCH  17  18
ENDBRANCH  16  17
ENDBRANCH  15  16
ENDBRANCH  14  15
ENDBRANCH  13  14
ENDBRANCH   1  13
TORSDOF 20
ENDMDL
MODEL 2
REMARK VINA RESULT:     4.762     16.186     20.119
REMARK INTER + INTRA:           9.435
REMARK INTER:                  10.173
REMARK INTRA:                  -0.738
REMARK UNBOUND:                -0.894
REMARK SMILES CCCCCCCCCCCCCCCCCCCCCC(=O)[O-]
REMARK SMILES IDX 12 1 11 2 10 3 9 4 8 5 7 6 6 7 5 8 4 9 3 10 2 11 1 12 13 13
REMARK SMILES IDX 14 14 15 15 16 16 17 17 18 18 19 19 20 20 21 21 22 22 23 23
REMARK SMILES IDX 24 24
REMARK H PARENT
REMARK Flexibility Score: inf
ROOT
ATOM      1  C   UNL     1       2.810   6.995  -1.207  1.00  0.00     0.000 C 
ENDROOT
BRANCH   1   2
ATOM      2  C   UNL     1       2.486   7.673   0.134  1.00  0.00     0.000 C 
BRANCH   2   3
ATOM      3  C   UNL     1       1.928   6.688   1.175  1.00  0.00     0.000 C 
BRANCH   3   4
ATOM      4  C   UNL     1       2.854   5.482   1.415  1.00  0.00    -0.000 C 
BRANCH   4   5
ATOM      5  C   UNL     1       3.953   5.706   2.474  1.00  0.00    -0.000 C 
BRANCH   5   6
ATOM      6  C   UNL     1       3.448   5.820   3.926  1.00  0.00    -0.000 C 
BRANCH   6   7
ATOM      7  C   UNL     1       3.616   4.544   4.774  1.00  0.00    -0.000 C 
BRANCH   7   8
ATOM      8  C   UNL     1       2.809   4.526   6.086  1.00  0.00    -0.000 C 
BRANCH   8   9
ATOM      9  C   UNL     1       1.360   4.015   5.955  1.00  0.00    -0.000 C 
BRANCH   9  10
ATOM     10  C   UNL     1       1.225   2.513   5.638  1.00  0.00    -0.000 C 
BRANCH  10  11
ATOM     11  C   UNL     1      -0.155   1.950   6.005  1.00  0.00    -0.003 C 
ATOM     12  C   UNL     1      -1.227   3.031   5.929  1.00  0.00     0.004 C 
ENDBRANCH  10  11
ENDBRANCH   9  10
ENDBRANCH   8   9
ENDBRANCH   7   8
ENDBRANCH   6   7
ENDBRANCH   5   6
ENDBRANCH   4   5
ENDBRANCH   3   4
ENDBRANCH   2   3
ENDBRANCH   1   2
BRANCH   1  13
ATOM     13  C   UNL     1       3.583   7.919  -2.163  1.00  0.00     0.000 C 
BRANCH  13  14
ATOM     14  C   UNL     1       2.895   8.065  -3.530  1.00  0.00     0.000 C 
BRANCH  14  15
ATOM     15  C   UNL     1       3.865   7.921  -4.725  1.00  0.00     0.000 C 
BRANCH  15  16
ATOM     16  C   UNL     1       3.158   7.940  -6.095  1.00  0.00     0.000 C 
BRANCH  16  17
ATOM     17  C   UNL     1       3.673   6.881  -7.092  1.00  0.00     0.000 C 
BRANCH  17  18
ATOM     18  C   UNL     1       4.770   7.362  -8.061  1.00  0.00     0.000 C 
BRANCH  18  19
ATOM     19  C   UNL     1       4.231   8.125  -9.289  1.00  0.00     0.000 C 
BRANCH  19  20
ATOM     20  C   UNL     1       4.520   7.393 -10.612  1.00  0.00     0.006 C 
BRANCH  20  21
ATOM     21  C   UNL     1       3.811   8.051 -11.805  1.00  0.00     0.053 C 
BRANCH  21  22
ATOM     22  C   UNL     1       3.654   7.101 -12.953  1.00  0.00     0.041 C 
ATOM     23  O   UNL     1       4.344   7.248 -13.996  1.00  0.00    -0.550 OA
ATOM     24  O   UNL     1       2.704   6.090 -12.896  1.00  0.00    -0.550 OA
ENDBRANCH  21  22
ENDBRANCH  20  21
ENDBRANCH  19  20
ENDBRANCH  18  19
ENDBRANCH  17  18
ENDBRANCH  16  17
ENDBRANCH  15  16
ENDBRANCH  14  15
ENDBRANCH  13  14
ENDBRANCH   1  13
TORSDOF 20
ENDMDL
