MODEL 1
REMARK VINA RESULT:    -4.992      0.000      0.000
REMARK INTER + INTRA:          -5.382
REMARK INTER:                  -5.284
REMARK INTRA:                  -0.098
REMARK UNBOUND:                -0.098
REMARK SMILES C=C(C)[C@H]1CC=C(C)C(=O)C1
REMARK SMILES IDX 8 1 7 2 6 3 5 4 4 5 11 6 9 7 10 8 2 9 1 10 3 11
REMARK H PARENT
REMARK Flexibility Score: inf
ROOT
ATOM      1  C   UNL     1       7.525  19.721  23.761  1.00  0.00     0.048 C 
ATOM      2  C   UNL     1       8.882  20.363  23.677  1.00  0.00    -0.012 C 
ATOM      3  C   UNL     1       9.009  21.688  23.864  1.00  0.00    -0.019 C 
ATOM      4  C   UNL     1      10.341  22.384  23.773  1.00  0.00     0.036 C 
ATOM      5  C   UNL     1      11.481  21.464  24.249  1.00  0.00     0.025 C 
ATOM      6  C   UNL     1      11.460  20.138  23.465  1.00  0.00     0.089 C 
ATOM      7  C   UNL     1      10.091  19.518  23.512  1.00  0.00     0.158 C 
ATOM      8  O   UNL     1       9.978  18.269  23.372  1.00  0.00    -0.295 OA
ENDROOT
BRANCH   5   9
ATOM      9  C   UNL     1      12.834  22.152  24.141  1.00  0.00    -0.077 C 
ATOM     10  C   UNL     1      13.709  21.773  23.196  1.00  0.00     0.008 C 
ATOM     11  C   UNL     1      13.227  23.266  25.080  1.00  0.00     0.039 C 
ENDBRANCH   5   9
TORSDOF 1
ENDMDL
MODEL 2
REMARK VINA RESULT:    -4.973      1.879      4.735
REMARK INTER + INTRA:          -5.362
REMARK INTER:                  -5.264
REMARK INTRA:                  -0.099
REMARK UNBOUND:                -0.098
REMARK SMILES C=C(C)[C@H]1CC=C(C)C(=O)C1
REMARK SMILES IDX 8 1 7 2 6 3 5 4 4 5 11 6 9 7 10 8 2 9 1 10 3 11
REMARK H PARENT
REMARK Flexibility Score: inf
ROOT
ATOM      1  C   UNL     1      13.606  22.145  24.072  1.00  0.00     0.048 C 
ATOM      2  C   UNL     1      12.275  21.474  23.873  1.00  0.00    -0.012 C 
ATOM      3  C   UNL     1      12.186  20.133  23.931  1.00  0.00    -0.019 C 
ATOM      4  C   UNL     1      10.883  19.410  23.721  1.00  0.00     0.036 C 
ATOM      5  C   UNL     1       9.695  20.247  24.232  1.00  0.00     0.025 C 
ATOM      6  C   UNL     1       9.702  21.640  23.575  1.00  0.00     0.089 C 
ATOM      7  C   UNL     1      11.046  22.294  23.736  1.00  0.00     0.158 C 
ATOM      8  O   UNL     1      11.123  23.553  23.716  1.00  0.00    -0.295 OA
ENDROOT
BRANCH   5   9
ATOM      9  C   UNL     1       8.371  19.532  24.006  1.00  0.00    -0.077 C 
ATOM     10  C   UNL     1       7.449  20.064  23.187  1.00  0.00     0.008 C 
ATOM     11  C   UNL     1       8.059  18.220  24.683  1.00  0.00     0.039 C 
ENDBRANCH   5   9
TORSDOF 1
ENDMDL
MODEL 3
REMARK VINA RESULT:    -4.775      1.368      2.013
REMARK INTER + INTRA:          -5.152
REMARK INTER:                  -5.057
REMARK INTRA:                  -0.095
REMARK UNBOUND:                -0.098
REMARK SMILES C=C(C)[C@H]1CC=C(C)C(=O)C1
REMARK SMILES IDX 8 1 7 2 6 3 5 4 4 5 11 6 9 7 10 8 2 9 1 10 3 11
REMARK H PARENT
REMARK Flexibility Score: inf
ROOT
ATOM      1  C   UNL     1       7.807  18.849  23.404  1.00  0.00     0.048 C 
ATOM      2  C   UNL     1       9.077  19.601  23.693  1.00  0.00    -0.012 C 
ATOM      3  C   UNL     1      10.263  19.070  23.346  1.00  0.00    -0.019 C 
ATOM      4  C   UNL     1      11.564  19.770  23.628  1.00  0.00     0.036 C 
ATOM      5  C   UNL     1      11.397  21.300  23.558  1.00  0.00     0.025 C 
ATOM      6  C   UNL     1      10.271  21.758  24.504  1.00  0.00     0.089 C 
ATOM      7  C   UNL     1       9.013  20.976  24.246  1.00  0.00     0.158 C 
ATOM      8  O   UNL     1       7.899  21.491  24.539  1.00  0.00    -0.295 OA
ENDROOT
BRANCH   5   9
ATOM      9  C   UNL     1      12.704  22.018  23.861  1.00  0.00    -0.077 C 
ATOM     10  C   UNL     1      13.838  21.641  23.246  1.00  0.00     0.008 C 
ATOM     11  C   UNL     1      12.766  23.160  24.846  1.00  0.00     0.039 C 
ENDBRANCH   5   9
TORSDOF 1
ENDMDL
MODEL 4
REMARK VINA RESULT:    -4.697      1.482      4.325
REMARK INTER + INTRA:          -5.070
REMARK INTER:                  -4.976
REMARK INTRA:                  -0.094
REMARK UNBOUND:                -0.098
REMARK SMILES C=C(C)[C@H]1CC=C(C)C(=O)C1
REMARK SMILES IDX 8 1 7 2 6 3 5 4 4 5 11 6 9 7 10 8 2 9 1 10 3 11
REMARK H PARENT
REMARK Flexibility Score: inf
ROOT
ATOM      1  C   UNL     1      13.281  22.888  23.766  1.00  0.00     0.048 C 
ATOM      2  C   UNL     1      12.026  22.077  23.929  1.00  0.00    -0.012 C 
ATOM      3  C   UNL     1      10.825  22.662  23.771  1.00  0.00    -0.019 C 
ATOM      4  C   UNL     1       9.538  21.902  23.940  1.00  0.00     0.036 C 
ATOM      5  C   UNL     1       9.700  20.432  23.507  1.00  0.00     0.025 C 
ATOM      6  C   UNL     1      10.869  19.778  24.267  1.00  0.00     0.089 C 
ATOM      7  C   UNL     1      12.114  20.611  24.141  1.00  0.00     0.158 C 
ATOM      8  O   UNL     1      13.240  20.053  24.254  1.00  0.00    -0.295 OA
ENDROOT
BRANCH   5   9
ATOM      9  C   UNL     1       8.408  19.650  23.694  1.00  0.00    -0.077 C 
ATOM     10  C   UNL     1       7.265  20.098  23.148  1.00  0.00     0.008 C 
ATOM     11  C   UNL     1       8.372  18.366  24.484  1.00  0.00     0.039 C 
ENDBRANCH   5   9
TORSDOF 1
ENDMDL
MODEL 5
REMARK VINA RESULT:    -4.211      9.725     11.307
REMARK INTER + INTRA:          -4.556
REMARK INTER:                  -4.457
REMARK INTRA:                  -0.099
REMARK UNBOUND:                -0.098
REMARK SMILES C=C(C)[C@H]1CC=C(C)C(=O)C1
REMARK SMILES IDX 8 1 7 2 6 3 5 4 4 5 11 6 9 7 10 8 2 9 1 10 3 11
REMARK H PARENT
REMARK Flexibility Score: inf
ROOT
ATOM      1  C   UNL     1      16.428  28.508  14.756  1.00  0.00     0.048 C 
ATOM      2  C   UNL     1      15.214  27.697  15.115  1.00  0.00    -0.012 C 
ATOM      3  C   UNL     1      13.986  28.188  14.875  1.00  0.00    -0.019 C 
ATOM      4  C   UNL     1      12.738  27.427  15.232  1.00  0.00     0.036 C 
ATOM      5  C   UNL     1      12.958  25.907  15.102  1.00  0.00     0.025 C 
ATOM      6  C   UNL     1      14.170  25.470  15.946  1.00  0.00     0.089 C 
ATOM      7  C   UNL     1      15.373  26.310  15.618  1.00  0.00     0.158 C 
ATOM      8  O   UNL     1      16.526  25.834  15.810  1.00  0.00    -0.295 OA
ENDROOT
BRANCH   5   9
ATOM      9  C   UNL     1      11.707  25.128  15.479  1.00  0.00    -0.077 C 
ATOM     10  C   UNL     1      11.785  24.113  16.355  1.00  0.00     0.008 C 
ATOM     11  C   UNL     1      10.360  25.469  14.891  1.00  0.00     0.039 C 
ENDBRANCH   5   9
TORSDOF 1
ENDMDL
MODEL 6
REMARK VINA RESULT:    -4.164     10.850     11.756
REMARK INTER + INTRA:          -4.505
REMARK INTER:                  -4.407
REMARK INTRA:                  -0.099
REMARK UNBOUND:                -0.098
REMARK SMILES C=C(C)[C@H]1CC=C(C)C(=O)C1
REMARK SMILES IDX 8 1 7 2 6 3 5 4 4 5 11 6 9 7 10 8 2 9 1 10 3 11
REMARK H PARENT
REMARK Flexibility Score: inf
ROOT
ATOM      1  C   UNL     1       3.523  25.776  16.156  1.00  0.00     0.048 C 
ATOM      2  C   UNL     1       4.507  26.858  16.507  1.00  0.00    -0.012 C 
ATOM      3  C   UNL     1       5.816  26.567  16.601  1.00  0.00    -0.019 C 
ATOM      4  C   UNL     1       6.840  27.608  16.967  1.00  0.00     0.036 C 
ATOM      5  C   UNL     1       6.433  28.997  16.441  1.00  0.00     0.025 C 
ATOM      6  C   UNL     1       5.023  29.365  16.940  1.00  0.00     0.089 C 
ATOM      7  C   UNL     1       4.048  28.264  16.628  1.00  0.00     0.158 C 
ATOM      8  O   UNL     1       2.824  28.544  16.505  1.00  0.00    -0.295 OA
ENDROOT
BRANCH   5   9
ATOM      9  C   UNL     1       7.453  30.059  16.824  1.00  0.00    -0.077 C 
ATOM     10  C   UNL     1       7.144  30.989  17.742  1.00  0.00     0.008 C 
ATOM     11  C   UNL     1       8.823  30.098  16.193  1.00  0.00     0.039 C 
ENDBRANCH   5   9
TORSDOF 1
ENDMDL
MODEL 7
REMARK VINA RESULT:    -4.153      9.364     10.516
REMARK INTER + INTRA:          -4.494
REMARK INTER:                  -4.397
REMARK INTRA:                  -0.097
REMARK UNBOUND:                -0.098
REMARK SMILES C=C(C)[C@H]1CC=C(C)C(=O)C1
REMARK SMILES IDX 8 1 7 2 6 3 5 4 4 5 11 6 9 7 10 8 2 9 1 10 3 11
REMARK H PARENT
REMARK Flexibility Score: inf
ROOT
ATOM      1  C   UNL     1      11.792  24.053  16.350  1.00  0.00     0.048 C 
ATOM      2  C   UNL     1      12.954  24.851  15.827  1.00  0.00    -0.012 C 
ATOM      3  C   UNL     1      13.021  26.172  16.068  1.00  0.00    -0.019 C 
ATOM      4  C   UNL     1      14.152  27.021  15.552  1.00  0.00     0.036 C 
ATOM      5  C   UNL     1      15.466  26.218  15.494  1.00  0.00     0.025 C 
ATOM      6  C   UNL     1      15.272  24.937  14.662  1.00  0.00     0.089 C 
ATOM      7  C   UNL     1      14.084  24.160  15.157  1.00  0.00     0.158 C 
ATOM      8  O   UNL     1      14.039  22.915  14.962  1.00  0.00    -0.295 OA
ENDROOT
BRANCH   5   9
ATOM      9  C   UNL     1      16.612  27.063  14.956  1.00  0.00    -0.077 C 
ATOM     10  C   UNL     1      17.761  26.478  14.579  1.00  0.00     0.008 C 
ATOM     11  C   UNL     1      16.492  28.562  14.828  1.00  0.00     0.039 C 
ENDBRANCH   5   9
TORSDOF 1
ENDMDL
MODEL 8
REMARK VINA RESULT:    -4.149     11.496     12.903
REMARK INTER + INTRA:          -4.490
REMARK INTER:                  -4.392
REMARK INTRA:                  -0.098
REMARK UNBOUND:                -0.098
REMARK SMILES C=C(C)[C@H]1CC=C(C)C(=O)C1
REMARK SMILES IDX 8 1 7 2 6 3 5 4 4 5 11 6 9 7 10 8 2 9 1 10 3 11
REMARK H PARENT
REMARK Flexibility Score: inf
ROOT
ATOM      1  C   UNL     1      19.468  24.173  15.905  1.00  0.00     0.048 C 
ATOM      2  C   UNL     1      18.393  25.130  15.467  1.00  0.00    -0.012 C 
ATOM      3  C   UNL     1      17.199  25.123  16.083  1.00  0.00    -0.019 C 
ATOM      4  C   UNL     1      16.083  26.046  15.673  1.00  0.00     0.036 C 
ATOM      5  C   UNL     1      16.636  27.390  15.160  1.00  0.00     0.025 C 
ATOM      6  C   UNL     1      17.645  27.151  14.021  1.00  0.00     0.089 C 
ATOM      7  C   UNL     1      18.694  26.161  14.443  1.00  0.00     0.158 C 
ATOM      8  O   UNL     1      19.827  26.193  13.889  1.00  0.00    -0.295 OA
ENDROOT
BRANCH   5   9
ATOM      9  C   UNL     1      15.515  28.323  14.724  1.00  0.00    -0.077 C 
ATOM     10  C   UNL     1      15.779  29.356  13.908  1.00  0.00     0.008 C 
ATOM     11  C   UNL     1      14.094  28.117  15.187  1.00  0.00     0.039 C 
ENDBRANCH   5   9
TORSDOF 1
ENDMDL
MODEL 9
REMARK VINA RESULT:    -4.095     10.772     12.466
REMARK INTER + INTRA:          -4.433
REMARK INTER:                  -4.335
REMARK INTRA:                  -0.098
REMARK UNBOUND:                -0.098
REMARK SMILES C=C(C)[C@H]1CC=C(C)C(=O)C1
REMARK SMILES IDX 8 1 7 2 6 3 5 4 4 5 11 6 9 7 10 8 2 9 1 10 3 11
REMARK H PARENT
REMARK Flexibility Score: inf
ROOT
ATOM      1  C   UNL     1      13.657  26.100  16.136  1.00  0.00     0.048 C 
ATOM      2  C   UNL     1      15.097  26.296  15.748  1.00  0.00    -0.012 C 
ATOM      3  C   UNL     1      15.968  25.280  15.873  1.00  0.00    -0.019 C 
ATOM      4  C   UNL     1      17.423  25.427  15.517  1.00  0.00     0.036 C 
ATOM      5  C   UNL     1      17.611  26.415  14.350  1.00  0.00     0.025 C 
ATOM      6  C   UNL     1      16.952  27.767  14.683  1.00  0.00     0.089 C 
ATOM      7  C   UNL     1      15.526  27.567  15.113  1.00  0.00     0.158 C 
ATOM      8  O   UNL     1      14.701  28.510  14.961  1.00  0.00    -0.295 OA
ENDROOT
BRANCH   5   9
ATOM      9  C   UNL     1      19.081  26.586  13.996  1.00  0.00    -0.077 C 
ATOM     10  C   UNL     1      19.976  25.657  14.370  1.00  0.00     0.008 C 
ATOM     11  C   UNL     1      19.571  27.786  13.223  1.00  0.00     0.039 C 
ENDBRANCH   5   9
TORSDOF 1
ENDMDL
