MODEL 1
REMARK VINA RESULT:    -4.298      0.000      0.000
REMARK INTER + INTRA:          -6.005
REMARK INTER:                  -5.554
REMARK INTRA:                  -0.450
REMARK UNBOUND:                -0.450
REMARK SMILES CCO[C@H]1O[C@@H](CO)[C@@H](O)[C@H](O)[C@@H]1O
REMARK SMILES IDX 4 1 13 2 11 3 9 4 6 5 5 6 3 7 2 8 1 9 14 10 12 12 7 14 8 15
REMARK SMILES IDX 10 17
REMARK H PARENT 14 11 12 13 8 16 10 18
REMARK Flexibility Score: inf
ROOT
ATOM      1  C   UNL     1      18.036   8.492  42.472  1.00  0.00     0.281 C 
ATOM      2  C   UNL     1      16.902   8.932  41.513  1.00  0.00     0.202 C 
ATOM      3  C   UNL     1      16.982   8.148  40.201  1.00  0.00     0.179 C 
ATOM      4  C   UNL     1      16.848   6.638  40.492  1.00  0.00     0.177 C 
ATOM      5  C   UNL     1      17.557   6.236  41.825  1.00  0.00     0.178 C 
ATOM      6  O   UNL     1      18.545   7.182  42.215  1.00  0.00    -0.341 OA
ENDROOT
BRANCH   1   7
ATOM      7  O   UNL     1      17.587   8.600  43.812  1.00  0.00    -0.350 OA
BRANCH   7   8
ATOM      8  C   UNL     1      18.681   8.562  44.704  1.00  0.00     0.160 C 
ATOM      9  C   UNL     1      18.374   7.581  45.826  1.00  0.00     0.035 C 
ENDBRANCH   7   8
ENDBRANCH   1   7
BRANCH   2  10
ATOM     10  O   UNL     1      16.998  10.311  41.264  1.00  0.00    -0.385 OA
ATOM     11  H   UNL     1      16.468  10.770  41.966  1.00  0.00     0.211 HD
ENDBRANCH   2  10
BRANCH   3  12
ATOM     12  O   UNL     1      18.210   8.416  39.568  1.00  0.00    -0.387 OA
ATOM     13  H   UNL     1      18.608   9.197  40.033  1.00  0.00     0.211 HD
ENDBRANCH   3  12
BRANCH   5  14
ATOM     14  C   UNL     1      16.603   5.874  42.989  1.00  0.00     0.191 C 
BRANCH  14  15
ATOM     15  O   UNL     1      16.153   4.552  42.865  1.00  0.00    -0.394 OA
ATOM     16  H   UNL     1      16.789   4.090  42.257  1.00  0.00     0.210 HD
ENDBRANCH  14  15
ENDBRANCH   5  14
BRANCH   4  17
ATOM     17  O   UNL     1      15.488   6.276  40.523  1.00  0.00    -0.387 OA
ATOM     18  H   UNL     1      15.003   7.009  40.985  1.00  0.00     0.211 HD
ENDBRANCH   4  17
TORSDOF 7
ENDMDL
MODEL 2
REMARK VINA RESULT:    -4.262      9.360     11.474
REMARK INTER + INTRA:          -5.958
REMARK INTER:                  -5.624
REMARK INTRA:                  -0.334
REMARK UNBOUND:                -0.450
REMARK SMILES CCO[C@H]1O[C@@H](CO)[C@@H](O)[C@H](O)[C@@H]1O
REMARK SMILES IDX 4 1 13 2 11 3 9 4 6 5 5 6 3 7 2 8 1 9 14 10 12 12 7 14 8 15
REMARK SMILES IDX 10 17
REMARK H PARENT 14 11 12 13 8 16 10 18
REMARK Flexibility Score: inf
ROOT
ATOM      1  C   UNL     1      11.485  -0.563  40.007  1.00  0.00     0.281 C 
ATOM      2  C   UNL     1      11.054  -0.538  41.494  1.00  0.00     0.202 C 
ATOM      3  C   UNL     1       9.537  -0.370  41.604  1.00  0.00     0.179 C 
ATOM      4  C   UNL     1       8.834  -1.544  40.889  1.00  0.00     0.177 C 
ATOM      5  C   UNL     1       9.599  -1.982  39.600  1.00  0.00     0.178 C 
ATOM      6  O   UNL     1      10.450  -0.957  39.104  1.00  0.00    -0.341 OA
ENDROOT
BRANCH   1   7
ATOM      7  O   UNL     1      12.620  -1.400  39.860  1.00  0.00    -0.350 OA
BRANCH   7   8
ATOM      8  C   UNL     1      13.800  -0.626  39.808  1.00  0.00     0.160 C 
ATOM      9  C   UNL     1      14.724  -1.052  40.939  1.00  0.00     0.035 C 
ENDBRANCH   7   8
ENDBRANCH   1   7
BRANCH   2  10
ATOM     10  O   UNL     1      11.711   0.510  42.161  1.00  0.00    -0.385 OA
ATOM     11  H   UNL     1      11.964   1.178  41.473  1.00  0.00     0.211 HD
ENDBRANCH   2  10
BRANCH   3  12
ATOM     12  O   UNL     1       9.156   0.854  41.025  1.00  0.00    -0.387 OA
ATOM     13  H   UNL     1       8.901   1.458  41.770  1.00  0.00     0.211 HD
ENDBRANCH   3  12
BRANCH   5  14
ATOM     14  C   UNL     1      10.326  -3.345  39.704  1.00  0.00     0.191 C 
BRANCH  14  15
ATOM     15  O   UNL     1       9.461  -4.393  39.356  1.00  0.00    -0.394 OA
ATOM     16  H   UNL     1       8.913  -4.590  40.161  1.00  0.00     0.210 HD
ENDBRANCH  14  15
ENDBRANCH   5  14
BRANCH   4  17
ATOM     17  O   UNL     1       8.690  -2.627  41.775  1.00  0.00    -0.387 OA
ATOM     18  H   UNL     1       8.931  -2.296  42.681  1.00  0.00     0.211 HD
ENDBRANCH   4  17
TORSDOF 7
ENDMDL
MODEL 3
REMARK VINA RESULT:    -4.203      1.777      3.182
REMARK INTER + INTRA:          -5.882
REMARK INTER:                  -5.390
REMARK INTRA:                  -0.492
REMARK UNBOUND:                -0.450
REMARK SMILES CCO[C@H]1O[C@@H](CO)[C@@H](O)[C@H](O)[C@@H]1O
REMARK SMILES IDX 4 1 13 2 11 3 9 4 6 5 5 6 3 7 2 8 1 9 14 10 12 12 7 14 8 15
REMARK SMILES IDX 10 17
REMARK H PARENT 14 11 12 13 8 16 10 18
REMARK Flexibility Score: inf
ROOT
ATOM      1  C   UNL     1      16.042   8.496  41.991  1.00  0.00     0.281 C 
ATOM      2  C   UNL     1      17.203   8.284  40.987  1.00  0.00     0.202 C 
ATOM      3  C   UNL     1      18.509   8.010  41.737  1.00  0.00     0.179 C 
ATOM      4  C   UNL     1      18.349   6.745  42.607  1.00  0.00     0.177 C 
ATOM      5  C   UNL     1      16.918   6.640  43.226  1.00  0.00     0.178 C 
ATOM      6  O   UNL     1      16.259   7.899  43.271  1.00  0.00    -0.341 OA
ENDROOT
BRANCH   1   7
ATOM      7  O   UNL     1      14.834   8.027  41.418  1.00  0.00    -0.350 OA
BRANCH   7   8
ATOM      8  C   UNL     1      13.731   8.738  41.939  1.00  0.00     0.160 C 
ATOM      9  C   UNL     1      13.991  10.231  41.799  1.00  0.00     0.035 C 
ENDBRANCH   7   8
ENDBRANCH   1   7
BRANCH   2  10
ATOM     10  O   UNL     1      17.338   9.419  40.171  1.00  0.00    -0.385 OA
ATOM     11  H   UNL     1      16.780  10.134  40.574  1.00  0.00     0.211 HD
ENDBRANCH   2  10
BRANCH   3  12
ATOM     12  O   UNL     1      18.832   9.118  42.540  1.00  0.00    -0.387 OA
ATOM     13  H   UNL     1      19.810   9.261  42.454  1.00  0.00     0.211 HD
ENDBRANCH   3  12
BRANCH   5  14
ATOM     14  C   UNL     1      16.024   5.533  42.618  1.00  0.00     0.191 C 
BRANCH  14  15
ATOM     15  O   UNL     1      14.766   5.520  43.236  1.00  0.00    -0.394 OA
ATOM     16  H   UNL     1      14.305   6.357  42.965  1.00  0.00     0.210 HD
ENDBRANCH  14  15
ENDBRANCH   5  14
BRANCH   4  17
ATOM     17  O   UNL     1      18.648   5.599  41.847  1.00  0.00    -0.387 OA
ATOM     18  H   UNL     1      19.395   5.132  42.306  1.00  0.00     0.211 HD
ENDBRANCH   4  17
TORSDOF 7
ENDMDL
MODEL 4
REMARK VINA RESULT:    -4.200      1.639      3.593
REMARK INTER + INTRA:          -5.879
REMARK INTER:                  -5.496
REMARK INTRA:                  -0.382
REMARK UNBOUND:                -0.450
REMARK SMILES CCO[C@H]1O[C@@H](CO)[C@@H](O)[C@H](O)[C@@H]1O
REMARK SMILES IDX 4 1 13 2 11 3 9 4 6 5 5 6 3 7 2 8 1 9 14 10 12 12 7 14 8 15
REMARK SMILES IDX 10 17
REMARK H PARENT 14 11 12 13 8 16 10 18
REMARK Flexibility Score: inf
ROOT
ATOM      1  C   UNL     1      15.971   6.179  43.018  1.00  0.00     0.281 C 
ATOM      2  C   UNL     1      16.776   5.616  41.821  1.00  0.00     0.202 C 
ATOM      3  C   UNL     1      16.584   6.503  40.588  1.00  0.00     0.179 C 
ATOM      4  C   UNL     1      17.068   7.935  40.901  1.00  0.00     0.177 C 
ATOM      5  C   UNL     1      16.738   8.353  42.370  1.00  0.00     0.178 C 
ATOM      6  O   UNL     1      15.686   7.576  42.927  1.00  0.00    -0.341 OA
ENDROOT
BRANCH   1   7
ATOM      7  O   UNL     1      16.654   5.886  44.224  1.00  0.00    -0.350 OA
BRANCH   7   8
ATOM      8  C   UNL     1      15.774   5.972  45.325  1.00  0.00     0.160 C 
ATOM      9  C   UNL     1      15.898   4.708  46.162  1.00  0.00     0.035 C 
ENDBRANCH   7   8
ENDBRANCH   1   7
BRANCH   2  10
ATOM     10  O   UNL     1      16.364   4.302  41.546  1.00  0.00    -0.385 OA
ATOM     11  H   UNL     1      17.173   3.729  41.588  1.00  0.00     0.211 HD
ENDBRANCH   2  10
BRANCH   3  12
ATOM     12  O   UNL     1      15.225   6.514  40.225  1.00  0.00    -0.387 OA
ATOM     13  H   UNL     1      14.855   5.626  40.467  1.00  0.00     0.211 HD
ENDBRANCH   3  12
BRANCH   5  14
ATOM     14  C   UNL     1      17.962   8.442  43.313  1.00  0.00     0.191 C 
BRANCH  14  15
ATOM     15  O   UNL     1      18.709   9.597  43.044  1.00  0.00    -0.394 OA
ATOM     16  H   UNL     1      18.069  10.357  43.039  1.00  0.00     0.210 HD
ENDBRANCH  14  15
ENDBRANCH   5  14
BRANCH   4  17
ATOM     17  O   UNL     1      18.448   8.039  40.652  1.00  0.00    -0.387 OA
ATOM     18  H   UNL     1      18.742   7.169  40.272  1.00  0.00     0.211 HD
ENDBRANCH   4  17
TORSDOF 7
ENDMDL
MODEL 5
REMARK VINA RESULT:    -4.185      1.517      4.287
REMARK INTER + INTRA:          -5.858
REMARK INTER:                  -5.596
REMARK INTRA:                  -0.262
REMARK UNBOUND:                -0.450
REMARK SMILES CCO[C@H]1O[C@@H](CO)[C@@H](O)[C@H](O)[C@@H]1O
REMARK SMILES IDX 4 1 13 2 11 3 9 4 6 5 5 6 3 7 2 8 1 9 14 10 12 12 7 14 8 15
REMARK SMILES IDX 10 17
REMARK H PARENT 14 11 12 13 8 16 10 18
REMARK Flexibility Score: inf
ROOT
ATOM      1  C   UNL     1      17.270   6.120  42.609  1.00  0.00     0.281 C 
ATOM      2  C   UNL     1      16.518   7.048  43.595  1.00  0.00     0.202 C 
ATOM      3  C   UNL     1      17.487   8.056  44.218  1.00  0.00     0.179 C 
ATOM      4  C   UNL     1      18.131   8.909  43.104  1.00  0.00     0.177 C 
ATOM      5  C   UNL     1      18.410   8.071  41.816  1.00  0.00     0.178 C 
ATOM      6  O   UNL     1      18.477   6.676  42.086  1.00  0.00    -0.341 OA
ENDROOT
BRANCH   1   7
ATOM      7  O   UNL     1      16.396   5.745  41.558  1.00  0.00    -0.350 OA
BRANCH   7   8
ATOM      8  C   UNL     1      16.911   4.631  40.860  1.00  0.00     0.160 C 
ATOM      9  C   UNL     1      16.978   3.440  41.805  1.00  0.00     0.035 C 
ENDBRANCH   7   8
ENDBRANCH   1   7
BRANCH   2  10
ATOM     10  O   UNL     1      15.904   6.278  44.597  1.00  0.00    -0.385 OA
ATOM     11  H   UNL     1      14.926   6.317  44.434  1.00  0.00     0.211 HD
ENDBRANCH   2  10
BRANCH   3  12
ATOM     12  O   UNL     1      18.478   7.369  44.943  1.00  0.00    -0.387 OA
ATOM     13  H   UNL     1      18.067   7.095  45.803  1.00  0.00     0.211 HD
ENDBRANCH   3  12
BRANCH   5  14
ATOM     14  C   UNL     1      17.486   8.391  40.616  1.00  0.00     0.191 C 
BRANCH  14  15
ATOM     15  O   UNL     1      18.229   8.473  39.430  1.00  0.00    -0.394 OA
ATOM     16  H   UNL     1      18.835   7.687  39.417  1.00  0.00     0.210 HD
ENDBRANCH  14  15
ENDBRANCH   5  14
BRANCH   4  17
ATOM     17  O   UNL     1      17.309  10.013  42.811  1.00  0.00    -0.387 OA
ATOM     18  H   UNL     1      16.758  10.188  43.620  1.00  0.00     0.211 HD
ENDBRANCH   4  17
TORSDOF 7
ENDMDL
MODEL 6
REMARK VINA RESULT:    -4.076      1.849      3.577
REMARK INTER + INTRA:          -5.718
REMARK INTER:                  -5.237
REMARK INTRA:                  -0.481
REMARK UNBOUND:                -0.450
REMARK SMILES CCO[C@H]1O[C@@H](CO)[C@@H](O)[C@H](O)[C@@H]1O
REMARK SMILES IDX 4 1 13 2 11 3 9 4 6 5 5 6 3 7 2 8 1 9 14 10 12 12 7 14 8 15
REMARK SMILES IDX 10 17
REMARK H PARENT 14 11 12 13 8 16 10 18
REMARK Flexibility Score: inf
ROOT
ATOM      1  C   UNL     1      17.338   5.623  41.376  1.00  0.00     0.281 C 
ATOM      2  C   UNL     1      18.021   6.798  42.119  1.00  0.00     0.202 C 
ATOM      3  C   UNL     1      17.708   8.123  41.418  1.00  0.00     0.179 C 
ATOM      4  C   UNL     1      16.181   8.349  41.398  1.00  0.00     0.177 C 
ATOM      5  C   UNL     1      15.397   7.014  41.190  1.00  0.00     0.178 C 
ATOM      6  O   UNL     1      16.203   6.004  40.596  1.00  0.00    -0.341 OA
ENDROOT
BRANCH   1   7
ATOM      7  O   UNL     1      16.988   4.616  42.310  1.00  0.00    -0.350 OA
BRANCH   7   8
ATOM      8  C   UNL     1      16.974   3.348  41.688  1.00  0.00     0.160 C 
ATOM      9  C   UNL     1      18.406   2.916  41.409  1.00  0.00     0.035 C 
ENDBRANCH   7   8
ENDBRANCH   1   7
BRANCH   2  10
ATOM     10  O   UNL     1      19.409   6.587  42.168  1.00  0.00    -0.385 OA
ATOM     11  H   UNL     1      19.573   5.895  42.859  1.00  0.00     0.211 HD
ENDBRANCH   2  10
BRANCH   3  12
ATOM     12  O   UNL     1      18.215   8.090  40.106  1.00  0.00    -0.387 OA
ATOM     13  H   UNL     1      18.642   8.971  39.941  1.00  0.00     0.211 HD
ENDBRANCH   3  12
BRANCH   5  14
ATOM     14  C   UNL     1      14.641   6.500  42.438  1.00  0.00     0.191 C 
BRANCH  14  15
ATOM     15  O   UNL     1      14.004   5.281  42.162  1.00  0.00    -0.394 OA
ATOM     16  H   UNL     1      13.537   5.394  41.293  1.00  0.00     0.210 HD
ENDBRANCH  14  15
ENDBRANCH   5  14
BRANCH   4  17
ATOM     17  O   UNL     1      15.776   8.984  42.587  1.00  0.00    -0.387 OA
ATOM     18  H   UNL     1      14.851   8.676  42.780  1.00  0.00     0.211 HD
ENDBRANCH   4  17
TORSDOF 7
ENDMDL
MODEL 7
REMARK VINA RESULT:    -4.060      9.875     12.131
REMARK INTER + INTRA:          -5.697
REMARK INTER:                  -5.233
REMARK INTRA:                  -0.464
REMARK UNBOUND:                -0.450
REMARK SMILES CCO[C@H]1O[C@@H](CO)[C@@H](O)[C@H](O)[C@@H]1O
REMARK SMILES IDX 4 1 13 2 11 3 9 4 6 5 5 6 3 7 2 8 1 9 14 10 12 12 7 14 8 15
REMARK SMILES IDX 10 17
REMARK H PARENT 14 11 12 13 8 16 10 18
REMARK Flexibility Score: inf
ROOT
ATOM      1  C   UNL     1       8.244   0.115  41.371  1.00  0.00     0.281 C 
ATOM      2  C   UNL     1       8.560  -1.292  41.937  1.00  0.00     0.202 C 
ATOM      3  C   UNL     1       8.534  -2.333  40.815  1.00  0.00     0.179 C 
ATOM      4  C   UNL     1       9.585  -1.966  39.746  1.00  0.00     0.177 C 
ATOM      5  C   UNL     1       9.688  -0.421  39.537  1.00  0.00     0.178 C 
ATOM      6  O   UNL     1       8.520   0.260  39.977  1.00  0.00    -0.341 OA
ENDROOT
BRANCH   1   7
ATOM      7  O   UNL     1       8.943   1.092  42.123  1.00  0.00    -0.350 OA
BRANCH   7   8
ATOM      8  C   UNL     1       8.334   2.357  41.976  1.00  0.00     0.160 C 
ATOM      9  C   UNL     1       6.875   2.259  42.395  1.00  0.00     0.035 C 
ENDBRANCH   7   8
ENDBRANCH   1   7
BRANCH   2  10
ATOM     10  O   UNL     1       7.625  -1.624  42.933  1.00  0.00    -0.385 OA
ATOM     11  H   UNL     1       7.470  -0.804  43.469  1.00  0.00     0.211 HD
ENDBRANCH   2  10
BRANCH   3  12
ATOM     12  O   UNL     1       7.249  -2.377  40.244  1.00  0.00    -0.387 OA
ATOM     13  H   UNL     1       6.626  -1.985  40.909  1.00  0.00     0.211 HD
ENDBRANCH   3  12
BRANCH   5  14
ATOM     14  C   UNL     1      10.983   0.226  40.083  1.00  0.00     0.191 C 
BRANCH  14  15
ATOM     15  O   UNL     1      10.977   1.610  39.856  1.00  0.00    -0.394 OA
ATOM     16  H   UNL     1      11.832   1.829  39.401  1.00  0.00     0.210 HD
ENDBRANCH  14  15
ENDBRANCH   5  14
BRANCH   4  17
ATOM     17  O   UNL     1      10.836  -2.505  40.098  1.00  0.00    -0.387 OA
ATOM     18  H   UNL     1      11.482  -1.750  40.120  1.00  0.00     0.211 HD
ENDBRANCH   4  17
TORSDOF 7
ENDMDL
MODEL 8
REMARK VINA RESULT:    -4.015      8.651     10.877
REMARK INTER + INTRA:          -5.638
REMARK INTER:                  -5.177
REMARK INTRA:                  -0.461
REMARK UNBOUND:                -0.450
REMARK SMILES CCO[C@H]1O[C@@H](CO)[C@@H](O)[C@H](O)[C@@H]1O
REMARK SMILES IDX 4 1 13 2 11 3 9 4 6 5 5 6 3 7 2 8 1 9 14 10 12 12 7 14 8 15
REMARK SMILES IDX 10 17
REMARK H PARENT 14 11 12 13 8 16 10 18
REMARK Flexibility Score: inf
ROOT
ATOM      1  C   UNL     1      11.625  -0.819  40.919  1.00  0.00     0.281 C 
ATOM      2  C   UNL     1      10.148  -1.159  40.597  1.00  0.00     0.202 C 
ATOM      3  C   UNL     1       9.239  -0.723  41.749  1.00  0.00     0.179 C 
ATOM      4  C   UNL     1       9.377   0.799  41.968  1.00  0.00     0.177 C 
ATOM      5  C   UNL     1      10.844   1.289  41.745  1.00  0.00     0.178 C 
ATOM      6  O   UNL     1      11.789   0.234  41.871  1.00  0.00    -0.341 OA
ENDROOT
BRANCH   1   7
ATOM      7  O   UNL     1      12.311  -0.518  39.717  1.00  0.00    -0.350 OA
BRANCH   7   8
ATOM      8  C   UNL     1      13.659  -0.932  39.801  1.00  0.00     0.160 C 
ATOM      9  C   UNL     1      13.706  -2.443  39.967  1.00  0.00     0.035 C 
ENDBRANCH   7   8
ENDBRANCH   1   7
BRANCH   2  10
ATOM     10  O   UNL     1      10.017  -2.539  40.367  1.00  0.00    -0.385 OA
ATOM     11  H   UNL     1       9.085  -2.784  40.602  1.00  0.00     0.211 HD
ENDBRANCH   2  10
BRANCH   3  12
ATOM     12  O   UNL     1       9.596  -1.420  42.918  1.00  0.00    -0.387 OA
ATOM     13  H   UNL     1       9.406  -0.816  43.682  1.00  0.00     0.211 HD
ENDBRANCH   3  12
BRANCH   5  14
ATOM     14  C   UNL     1      11.064   2.121  40.458  1.00  0.00     0.191 C 
BRANCH  14  15
ATOM     15  O   UNL     1      10.608   3.435  40.637  1.00  0.00    -0.394 OA
ATOM     16  H   UNL     1      10.881   3.711  41.551  1.00  0.00     0.210 HD
ENDBRANCH  14  15
ENDBRANCH   5  14
BRANCH   4  17
ATOM     17  O   UNL     1       8.488   1.487  41.123  1.00  0.00    -0.387 OA
ATOM     18  H   UNL     1       7.817   0.826  40.807  1.00  0.00     0.211 HD
ENDBRANCH   4  17
TORSDOF 7
ENDMDL
MODEL 9
REMARK VINA RESULT:    -3.982      2.033      4.195
REMARK INTER + INTRA:          -5.596
REMARK INTER:                  -5.254
REMARK INTRA:                  -0.342
REMARK UNBOUND:                -0.450
REMARK SMILES CCO[C@H]1O[C@@H](CO)[C@@H](O)[C@H](O)[C@@H]1O
REMARK SMILES IDX 4 1 13 2 11 3 9 4 6 5 5 6 3 7 2 8 1 9 14 10 12 12 7 14 8 15
REMARK SMILES IDX 10 17
REMARK H PARENT 14 11 12 13 8 16 10 18
REMARK Flexibility Score: inf
ROOT
ATOM      1  C   UNL     1      16.510   5.607  41.890  1.00  0.00     0.281 C 
ATOM      2  C   UNL     1      16.202   6.848  41.016  1.00  0.00     0.202 C 
ATOM      3  C   UNL     1      15.971   8.076  41.901  1.00  0.00     0.179 C 
ATOM      4  C   UNL     1      17.233   8.348  42.747  1.00  0.00     0.177 C 
ATOM      5  C   UNL     1      17.921   7.024  43.209  1.00  0.00     0.178 C 
ATOM      6  O   UNL     1      17.029   5.917  43.185  1.00  0.00    -0.341 OA
ENDROOT
BRANCH   1   7
ATOM      7  O   UNL     1      17.393   4.747  41.191  1.00  0.00    -0.350 OA
BRANCH   7   8
ATOM      8  C   UNL     1      16.713   3.589  40.754  1.00  0.00     0.160 C 
ATOM      9  C   UNL     1      17.697   2.432  40.681  1.00  0.00     0.035 C 
ENDBRANCH   7   8
ENDBRANCH   1   7
BRANCH   2  10
ATOM     10  O   UNL     1      15.071   6.600  40.220  1.00  0.00    -0.385 OA
ATOM     11  H   UNL     1      15.122   7.216  39.444  1.00  0.00     0.211 HD
ENDBRANCH   2  10
BRANCH   3  12
ATOM     12  O   UNL     1      14.861   7.852  42.736  1.00  0.00    -0.387 OA
ATOM     13  H   UNL     1      14.438   7.007  42.431  1.00  0.00     0.211 HD
ENDBRANCH   3  12
BRANCH   5  14
ATOM     14  C   UNL     1      19.264   6.707  42.507  1.00  0.00     0.191 C 
BRANCH  14  15
ATOM     15  O   UNL     1      20.309   7.440  43.088  1.00  0.00    -0.394 OA
ATOM     16  H   UNL     1      19.969   7.785  43.954  1.00  0.00     0.210 HD
ENDBRANCH  14  15
ENDBRANCH   5  14
BRANCH   4  17
ATOM     17  O   UNL     1      18.133   9.150  42.021  1.00  0.00    -0.387 OA
ATOM     18  H   UNL     1      18.426   9.881  42.627  1.00  0.00     0.211 HD
ENDBRANCH   4  17
TORSDOF 7
ENDMDL
