MODEL 1
REMARK VINA RESULT:    -3.546      0.000      0.000
REMARK INTER + INTRA:          -5.677
REMARK INTER:                  -5.204
REMARK INTRA:                  -0.473
REMARK UNBOUND:                -0.473
REMARK SMILES O=C([O-])CCCCCCCC(=O)[O-]
REMARK SMILES IDX 7 1 6 2 5 3 4 4 2 5 1 6 3 7 8 8 9 9 10 10 11 11 12 12 13 13
REMARK H PARENT
REMARK Flexibility Score: inf
ROOT
ATOM      1  C   UNL     1      56.300  30.110  50.983  1.00  0.00     0.000 C 
ENDROOT
BRANCH   1   2
ATOM      2  C   UNL     1      57.236  28.956  51.373  1.00  0.00     0.000 C 
BRANCH   2   3
ATOM      3  C   UNL     1      58.696  29.300  51.043  1.00  0.00     0.006 C 
BRANCH   3   4
ATOM      4  C   UNL     1      59.107  28.813  49.647  1.00  0.00     0.053 C 
BRANCH   4   5
ATOM      5  C   UNL     1      59.924  27.559  49.713  1.00  0.00     0.041 C 
ATOM      6  O   UNL     1      59.359  26.441  49.840  1.00  0.00    -0.550 OA
ATOM      7  O   UNL     1      61.311  27.629  49.669  1.00  0.00    -0.550 OA
ENDBRANCH   4   5
ENDBRANCH   3   4
ENDBRANCH   2   3
ENDBRANCH   1   2
BRANCH   1   8
ATOM      8  C   UNL     1      54.837  29.662  50.836  1.00  0.00     0.000 C 
BRANCH   8   9
ATOM      9  C   UNL     1      54.619  28.200  51.254  1.00  0.00     0.006 C 
BRANCH   9  10
ATOM     10  C   UNL     1      54.043  27.379  50.097  1.00  0.00     0.053 C 
BRANCH  10  11
ATOM     11  C   UNL     1      54.719  26.047  50.011  1.00  0.00     0.041 C 
ATOM     12  O   UNL     1      55.970  25.963  50.130  1.00  0.00    -0.550 OA
ATOM     13  O   UNL     1      53.973  24.905  49.750  1.00  0.00    -0.550 OA
ENDBRANCH  10  11
ENDBRANCH   9  10
ENDBRANCH   8   9
ENDBRANCH   1   8
TORSDOF 8
ENDMDL
MODEL 2
REMARK VINA RESULT:    -3.452      0.718      4.709
REMARK INTER + INTRA:          -5.539
REMARK INTER:                  -5.080
REMARK INTRA:                  -0.460
REMARK UNBOUND:                -0.473
REMARK SMILES O=C([O-])CCCCCCCC(=O)[O-]
REMARK SMILES IDX 7 1 6 2 5 3 4 4 2 5 1 6 3 7 8 8 9 9 10 10 11 11 12 12 13 13
REMARK H PARENT
REMARK Flexibility Score: inf
ROOT
ATOM      1  C   UNL     1      55.495  29.366  51.594  1.00  0.00     0.000 C 
ENDROOT
BRANCH   1   2
ATOM      2  C   UNL     1      54.417  29.522  50.511  1.00  0.00     0.000 C 
BRANCH   2   3
ATOM      3  C   UNL     1      53.605  28.228  50.355  1.00  0.00     0.006 C 
BRANCH   3   4
ATOM      4  C   UNL     1      54.264  27.039  51.067  1.00  0.00     0.053 C 
BRANCH   4   5
ATOM      5  C   UNL     1      54.763  26.015  50.094  1.00  0.00     0.041 C 
ATOM      6  O   UNL     1      53.974  25.495  49.261  1.00  0.00    -0.550 OA
ATOM      7  O   UNL     1      56.090  25.609  50.131  1.00  0.00    -0.550 OA
ENDBRANCH   4   5
ENDBRANCH   3   4
ENDBRANCH   2   3
ENDBRANCH   1   2
BRANCH   1   8
ATOM      8  C   UNL     1      56.907  29.687  51.077  1.00  0.00     0.000 C 
BRANCH   8   9
ATOM      9  C   UNL     1      57.721  28.426  50.753  1.00  0.00     0.006 C 
BRANCH   9  10
ATOM     10  C   UNL     1      58.934  28.766  49.882  1.00  0.00     0.053 C 
BRANCH  10  11
ATOM     11  C   UNL     1      59.878  27.606  49.821  1.00  0.00     0.041 C 
ATOM     12  O   UNL     1      61.120  27.803  49.760  1.00  0.00    -0.550 OA
ATOM     13  O   UNL     1      59.382  26.310  49.781  1.00  0.00    -0.550 OA
ENDBRANCH  10  11
ENDBRANCH   9  10
ENDBRANCH   8   9
ENDBRANCH   1   8
TORSDOF 8
ENDMDL
MODEL 3
REMARK VINA RESULT:    -3.421      1.877      2.563
REMARK INTER + INTRA:          -5.493
REMARK INTER:                  -5.057
REMARK INTRA:                  -0.436
REMARK UNBOUND:                -0.473
REMARK SMILES O=C([O-])CCCCCCCC(=O)[O-]
REMARK SMILES IDX 7 1 6 2 5 3 4 4 2 5 1 6 3 7 8 8 9 9 10 10 11 11 12 12 13 13
REMARK H PARENT
REMARK Flexibility Score: inf
ROOT
ATOM      1  C   UNL     1      57.713  28.641  50.703  1.00  0.00     0.000 C 
ENDROOT
BRANCH   1   2
ATOM      2  C   UNL     1      58.975  28.944  49.881  1.00  0.00     0.000 C 
BRANCH   2   3
ATOM      3  C   UNL     1      59.827  27.679  49.701  1.00  0.00     0.006 C 
BRANCH   3   4
ATOM      4  C   UNL     1      59.040  26.398  50.007  1.00  0.00     0.053 C 
BRANCH   4   5
ATOM      5  C   UNL     1      59.697  25.585  51.080  1.00  0.00     0.041 C 
ATOM      6  O   UNL     1      60.351  26.152  51.995  1.00  0.00    -0.550 OA
ATOM      7  O   UNL     1      59.618  24.198  51.049  1.00  0.00    -0.550 OA
ENDBRANCH   4   5
ENDBRANCH   3   4
ENDBRANCH   2   3
ENDBRANCH   1   2
BRANCH   1   8
ATOM      8  C   UNL     1      56.803  29.869  50.867  1.00  0.00     0.000 C 
BRANCH   8   9
ATOM      9  C   UNL     1      55.337  29.491  51.126  1.00  0.00     0.006 C 
BRANCH   9  10
ATOM     10  C   UNL     1      55.028  28.092  50.583  1.00  0.00     0.053 C 
BRANCH  10  11
ATOM     11  C   UNL     1      53.596  27.999  50.160  1.00  0.00     0.041 C 
ATOM     12  O   UNL     1      52.888  29.037  50.088  1.00  0.00    -0.550 OA
ATOM     13  O   UNL     1      53.031  26.759  49.892  1.00  0.00    -0.550 OA
ENDBRANCH  10  11
ENDBRANCH   9  10
ENDBRANCH   8   9
ENDBRANCH   1   8
TORSDOF 8
ENDMDL
MODEL 4
REMARK VINA RESULT:    -3.325      1.469      5.307
REMARK INTER + INTRA:          -5.353
REMARK INTER:                  -4.922
REMARK INTRA:                  -0.431
REMARK UNBOUND:                -0.473
REMARK SMILES O=C([O-])CCCCCCCC(=O)[O-]
REMARK SMILES IDX 7 1 6 2 5 3 4 4 2 5 1 6 3 7 8 8 9 9 10 10 11 11 12 12 13 13
REMARK H PARENT
REMARK Flexibility Score: inf
ROOT
ATOM      1  C   UNL     1      57.551  28.369  50.748  1.00  0.00     0.000 C 
ENDROOT
BRANCH   1   2
ATOM      2  C   UNL     1      56.379  29.355  50.870  1.00  0.00     0.000 C 
BRANCH   2   3
ATOM      3  C   UNL     1      55.034  28.614  50.822  1.00  0.00     0.006 C 
BRANCH   3   4
ATOM      4  C   UNL     1      55.206  27.111  50.568  1.00  0.00     0.053 C 
BRANCH   4   5
ATOM      5  C   UNL     1      54.009  26.521  49.888  1.00  0.00     0.041 C 
ATOM      6  O   UNL     1      52.957  27.200  49.754  1.00  0.00    -0.550 OA
ATOM      7  O   UNL     1      54.043  25.209  49.432  1.00  0.00    -0.550 OA
ENDBRANCH   4   5
ENDBRANCH   3   4
ENDBRANCH   2   3
ENDBRANCH   1   2
BRANCH   1   8
ATOM      8  C   UNL     1      58.758  28.972  50.012  1.00  0.00     0.000 C 
BRANCH   8   9
ATOM      9  C   UNL     1      59.812  27.918  49.639  1.00  0.00     0.006 C 
BRANCH   9  10
ATOM     10  C   UNL     1      59.387  26.526  50.115  1.00  0.00     0.053 C 
BRANCH  10  11
ATOM     11  C   UNL     1      60.316  26.029  51.178  1.00  0.00     0.041 C 
ATOM     12  O   UNL     1      59.873  25.344  52.137  1.00  0.00    -0.550 OA
ATOM     13  O   UNL     1      61.663  26.367  51.136  1.00  0.00    -0.550 OA
ENDBRANCH  10  11
ENDBRANCH   9  10
ENDBRANCH   8   9
ENDBRANCH   1   8
TORSDOF 8
ENDMDL
MODEL 5
REMARK VINA RESULT:    -3.312      2.905      5.397
REMARK INTER + INTRA:          -5.333
REMARK INTER:                  -4.895
REMARK INTRA:                  -0.438
REMARK UNBOUND:                -0.473
REMARK SMILES O=C([O-])CCCCCCCC(=O)[O-]
REMARK SMILES IDX 7 1 6 2 5 3 4 4 2 5 1 6 3 7 8 8 9 9 10 10 11 11 12 12 13 13
REMARK H PARENT
REMARK Flexibility Score: inf
ROOT
ATOM      1  C   UNL     1      55.803  27.467  50.822  1.00  0.00     0.000 C 
ENDROOT
BRANCH   1   2
ATOM      2  C   UNL     1      54.305  27.598  50.508  1.00  0.00     0.000 C 
BRANCH   2   3
ATOM      3  C   UNL     1      53.898  29.073  50.381  1.00  0.00     0.006 C 
BRANCH   3   4
ATOM      4  C   UNL     1      55.016  30.025  50.826  1.00  0.00     0.053 C 
BRANCH   4   5
ATOM      5  C   UNL     1      54.495  31.124  51.701  1.00  0.00     0.041 C 
ATOM      6  O   UNL     1      53.295  31.116  52.081  1.00  0.00    -0.550 OA
ATOM      7  O   UNL     1      55.326  32.175  52.068  1.00  0.00    -0.550 OA
ENDBRANCH   4   5
ENDBRANCH   3   4
ENDBRANCH   2   3
ENDBRANCH   1   2
BRANCH   1   8
ATOM      8  C   UNL     1      56.370  26.090  50.444  1.00  0.00     0.000 C 
BRANCH   8   9
ATOM      9  C   UNL     1      57.901  26.027  50.558  1.00  0.00     0.006 C 
BRANCH   9  10
ATOM     10  C   UNL     1      58.464  27.346  51.094  1.00  0.00     0.053 C 
BRANCH  10  11
ATOM     11  C   UNL     1      59.322  28.009  50.062  1.00  0.00     0.041 C 
ATOM     12  O   UNL     1      58.924  29.055  49.485  1.00  0.00    -0.550 OA
ATOM     13  O   UNL     1      60.537  27.441  49.701  1.00  0.00    -0.550 OA
ENDBRANCH  10  11
ENDBRANCH   9  10
ENDBRANCH   8   9
ENDBRANCH   1   8
TORSDOF 8
ENDMDL
MODEL 6
REMARK VINA RESULT:    -3.286      1.645      4.751
REMARK INTER + INTRA:          -5.296
REMARK INTER:                  -4.957
REMARK INTRA:                  -0.338
REMARK UNBOUND:                -0.473
REMARK SMILES O=C([O-])CCCCCCCC(=O)[O-]
REMARK SMILES IDX 7 1 6 2 5 3 4 4 2 5 1 6 3 7 8 8 9 9 10 10 11 11 12 12 13 13
REMARK H PARENT
REMARK Flexibility Score: inf
ROOT
ATOM      1  C   UNL     1      57.625  28.758  50.752  1.00  0.00     0.000 C 
ENDROOT
BRANCH   1   2
ATOM      2  C   UNL     1      56.893  30.103  50.883  1.00  0.00     0.000 C 
BRANCH   2   3
ATOM      3  C   UNL     1      55.371  29.898  50.906  1.00  0.00     0.006 C 
BRANCH   3   4
ATOM      4  C   UNL     1      54.980  28.496  51.391  1.00  0.00     0.053 C 
BRANCH   4   5
ATOM      5  C   UNL     1      54.188  27.752  50.360  1.00  0.00     0.041 C 
ATOM      6  O   UNL     1      53.110  28.231  49.921  1.00  0.00    -0.550 OA
ATOM      7  O   UNL     1      54.624  26.512  49.909  1.00  0.00    -0.550 OA
ENDBRANCH   4   5
ENDBRANCH   3   4
ENDBRANCH   2   3
ENDBRANCH   1   2
BRANCH   1   8
ATOM      8  C   UNL     1      58.932  28.870  49.951  1.00  0.00     0.000 C 
BRANCH   8   9
ATOM      9  C   UNL     1      59.595  27.506  49.705  1.00  0.00     0.006 C 
BRANCH   9  10
ATOM     10  C   UNL     1      59.665  26.690  51.000  1.00  0.00     0.053 C 
BRANCH  10  11
ATOM     11  C   UNL     1      58.930  25.396  50.844  1.00  0.00     0.041 C 
ATOM     12  O   UNL     1      57.676  25.390  50.733  1.00  0.00    -0.550 OA
ATOM     13  O   UNL     1      59.625  24.195  50.873  1.00  0.00    -0.550 OA
ENDBRANCH  10  11
ENDBRANCH   9  10
ENDBRANCH   8   9
ENDBRANCH   1   8
TORSDOF 8
ENDMDL
MODEL 7
REMARK VINA RESULT:    -3.259      2.338      3.246
REMARK INTER + INTRA:          -5.255
REMARK INTER:                  -4.622
REMARK INTRA:                  -0.634
REMARK UNBOUND:                -0.473
REMARK SMILES O=C([O-])CCCCCCCC(=O)[O-]
REMARK SMILES IDX 7 1 6 2 5 3 4 4 2 5 1 6 3 7 8 8 9 9 10 10 11 11 12 12 13 13
REMARK H PARENT
REMARK Flexibility Score: inf
ROOT
ATOM      1  C   UNL     1      57.851  26.023  51.687  1.00  0.00     0.000 C 
ENDROOT
BRANCH   1   2
ATOM      2  C   UNL     1      58.570  25.778  50.351  1.00  0.00     0.000 C 
BRANCH   2   3
ATOM      3  C   UNL     1      59.744  26.752  50.173  1.00  0.00     0.006 C 
BRANCH   3   4
ATOM      4  C   UNL     1      59.285  28.133  49.684  1.00  0.00     0.053 C 
BRANCH   4   5
ATOM      5  C   UNL     1      59.590  29.206  50.683  1.00  0.00     0.041 C 
ATOM      6  O   UNL     1      60.740  29.718  50.731  1.00  0.00    -0.550 OA
ATOM      7  O   UNL     1      58.616  29.617  51.583  1.00  0.00    -0.550 OA
ENDBRANCH   4   5
ENDBRANCH   3   4
ENDBRANCH   2   3
ENDBRANCH   1   2
BRANCH   1   8
ATOM      8  C   UNL     1      56.333  25.809  51.591  1.00  0.00     0.000 C 
BRANCH   8   9
ATOM      9  C   UNL     1      55.709  26.515  50.377  1.00  0.00     0.006 C 
BRANCH   9  10
ATOM     10  C   UNL     1      55.409  27.983  50.693  1.00  0.00     0.053 C 
BRANCH  10  11
ATOM     11  C   UNL     1      54.005  28.327  50.304  1.00  0.00     0.041 C 
ATOM     12  O   UNL     1      53.238  27.437  49.851  1.00  0.00    -0.550 OA
ATOM     13  O   UNL     1      53.561  29.639  50.397  1.00  0.00    -0.550 OA
ENDBRANCH  10  11
ENDBRANCH   9  10
ENDBRANCH   8   9
ENDBRANCH   1   8
TORSDOF 8
ENDMDL
MODEL 8
REMARK VINA RESULT:    -3.213      1.420      4.485
REMARK INTER + INTRA:          -5.189
REMARK INTER:                  -4.487
REMARK INTRA:                  -0.702
REMARK UNBOUND:                -0.473
REMARK SMILES O=C([O-])CCCCCCCC(=O)[O-]
REMARK SMILES IDX 7 1 6 2 5 3 4 4 2 5 1 6 3 7 8 8 9 9 10 10 11 11 12 12 13 13
REMARK H PARENT
REMARK Flexibility Score: inf
ROOT
ATOM      1  C   UNL     1      55.030  29.433  51.461  1.00  0.00     0.000 C 
ENDROOT
BRANCH   1   2
ATOM      2  C   UNL     1      54.314  28.526  50.448  1.00  0.00     0.000 C 
BRANCH   2   3
ATOM      3  C   UNL     1      54.371  27.057  50.893  1.00  0.00     0.006 C 
BRANCH   3   4
ATOM      4  C   UNL     1      55.533  26.296  50.239  1.00  0.00     0.053 C 
BRANCH   4   5
ATOM      5  C   UNL     1      56.378  25.591  51.255  1.00  0.00     0.041 C 
ATOM      6  O   UNL     1      57.611  25.433  51.054  1.00  0.00    -0.550 OA
ATOM      7  O   UNL     1      55.797  25.077  52.407  1.00  0.00    -0.550 OA
ENDBRANCH   4   5
ENDBRANCH   3   4
ENDBRANCH   2   3
ENDBRANCH   1   2
BRANCH   1   8
ATOM      8  C   UNL     1      56.312  30.061  50.892  1.00  0.00     0.000 C 
BRANCH   8   9
ATOM      9  C   UNL     1      57.580  29.298  51.305  1.00  0.00     0.006 C 
BRANCH   9  10
ATOM     10  C   UNL     1      58.443  28.969  50.084  1.00  0.00     0.053 C 
BRANCH  10  11
ATOM     11  C   UNL     1      59.698  28.270  50.503  1.00  0.00     0.041 C 
ATOM     12  O   UNL     1      60.202  28.496  51.634  1.00  0.00    -0.550 OA
ATOM     13  O   UNL     1      60.339  27.407  49.623  1.00  0.00    -0.550 OA
ENDBRANCH  10  11
ENDBRANCH   9  10
ENDBRANCH   8   9
ENDBRANCH   1   8
TORSDOF 8
ENDMDL
MODEL 9
REMARK VINA RESULT:    -3.141      1.630      5.971
REMARK INTER + INTRA:          -5.083
REMARK INTER:                  -4.607
REMARK INTRA:                  -0.476
REMARK UNBOUND:                -0.473
REMARK SMILES O=C([O-])CCCCCCCC(=O)[O-]
REMARK SMILES IDX 7 1 6 2 5 3 4 4 2 5 1 6 3 7 8 8 9 9 10 10 11 11 12 12 13 13
REMARK H PARENT
REMARK Flexibility Score: inf
ROOT
ATOM      1  C   UNL     1      58.902  29.290  50.532  1.00  0.00     0.000 C 
ENDROOT
BRANCH   1   2
ATOM      2  C   UNL     1      57.387  29.458  50.726  1.00  0.00     0.000 C 
BRANCH   2   3
ATOM      3  C   UNL     1      56.786  28.234  51.433  1.00  0.00     0.006 C 
BRANCH   3   4
ATOM      4  C   UNL     1      55.562  27.677  50.694  1.00  0.00     0.053 C 
BRANCH   4   5
ATOM      5  C   UNL     1      55.725  26.225  50.363  1.00  0.00     0.041 C 
ATOM      6  O   UNL     1      56.745  25.597  50.752  1.00  0.00    -0.550 OA
ATOM      7  O   UNL     1      54.767  25.575  49.595  1.00  0.00    -0.550 OA
ENDBRANCH   4   5
ENDBRANCH   3   4
ENDBRANCH   2   3
ENDBRANCH   1   2
BRANCH   1   8
ATOM      8  C   UNL     1      59.254  28.134  49.583  1.00  0.00     0.000 C 
BRANCH   8   9
ATOM      9  C   UNL     1      60.562  27.427  49.969  1.00  0.00     0.006 C 
BRANCH   9  10
ATOM     10  C   UNL     1      61.460  28.351  50.797  1.00  0.00     0.053 C 
BRANCH  10  11
ATOM     11  C   UNL     1      62.800  28.500  50.147  1.00  0.00     0.041 C 
ATOM     12  O   UNL     1      63.170  27.682  49.265  1.00  0.00    -0.550 OA
ATOM     13  O   UNL     1      63.659  29.512  50.553  1.00  0.00    -0.550 OA
ENDBRANCH  10  11
ENDBRANCH   9  10
ENDBRANCH   8   9
ENDBRANCH   1   8
TORSDOF 8
ENDMDL
