MODEL 1
REMARK VINA RESULT:    -3.776      0.000      0.000
REMARK INTER + INTRA:          -5.889
REMARK INTER:                  -5.321
REMARK INTRA:                  -0.568
REMARK UNBOUND:                -0.568
REMARK SMILES CCCCCCCCC(=O)[O-]
REMARK SMILES IDX 6 1 7 2 8 3 9 4 10 5 11 6 5 7 4 8 3 9 2 10 1 11
REMARK H PARENT
REMARK Flexibility Score: inf
ROOT
ATOM      1  C   UNL     1      -1.837   8.690   7.129  1.00  0.00     0.000 C 
ENDROOT
BRANCH   1   2
ATOM      2  C   UNL     1      -2.399   8.816   8.550  1.00  0.00     0.006 C 
BRANCH   2   3
ATOM      3  C   UNL     1      -3.917   8.611   8.561  1.00  0.00     0.053 C 
BRANCH   3   4
ATOM      4  C   UNL     1      -4.273   7.371   9.318  1.00  0.00     0.041 C 
ATOM      5  O   UNL     1      -5.418   6.862   9.197  1.00  0.00    -0.550 OA
ATOM      6  O   UNL     1      -3.324   6.749  10.119  1.00  0.00    -0.550 OA
ENDBRANCH   3   4
ENDBRANCH   2   3
ENDBRANCH   1   2
BRANCH   1   7
ATOM      7  C   UNL     1      -2.901   9.057   6.083  1.00  0.00     0.000 C 
BRANCH   7   8
ATOM      8  C   UNL     1      -2.865   8.140   4.847  1.00  0.00    -0.000 C 
BRANCH   8   9
ATOM      9  C   UNL     1      -2.102   6.813   5.038  1.00  0.00    -0.000 C 
BRANCH   9  10
ATOM     10  C   UNL     1      -2.937   5.544   4.792  1.00  0.00    -0.003 C 
ATOM     11  C   UNL     1      -3.435   4.900   6.084  1.00  0.00     0.004 C 
ENDBRANCH   9  10
ENDBRANCH   8   9
ENDBRANCH   7   8
ENDBRANCH   1   7
TORSDOF 7
ENDMDL
MODEL 2
REMARK VINA RESULT:    -3.662     13.597     15.290
REMARK INTER + INTRA:          -5.730
REMARK INTER:                  -5.371
REMARK INTRA:                  -0.358
REMARK UNBOUND:                -0.568
REMARK SMILES CCCCCCCCC(=O)[O-]
REMARK SMILES IDX 6 1 7 2 8 3 9 4 10 5 11 6 5 7 4 8 3 9 2 10 1 11
REMARK H PARENT
REMARK Flexibility Score: inf
ROOT
ATOM      1  C   UNL     1       3.730  -6.061   9.140  1.00  0.00     0.000 C 
ENDROOT
BRANCH   1   2
ATOM      2  C   UNL     1       2.618  -5.007   9.093  1.00  0.00     0.006 C 
BRANCH   2   3
ATOM      3  C   UNL     1       2.173  -4.741   7.652  1.00  0.00     0.053 C 
BRANCH   3   4
ATOM      4  C   UNL     1       0.863  -5.409   7.375  1.00  0.00     0.041 C 
ATOM      5  O   UNL     1       0.721  -6.640   7.597  1.00  0.00    -0.550 OA
ATOM      6  O   UNL     1      -0.216  -4.662   6.921  1.00  0.00    -0.550 OA
ENDBRANCH   3   4
ENDBRANCH   2   3
ENDBRANCH   1   2
BRANCH   1   7
ATOM      7  C   UNL     1       4.493  -6.115   7.808  1.00  0.00     0.000 C 
BRANCH   7   8
ATOM      8  C   UNL     1       6.012  -6.277   7.994  1.00  0.00    -0.000 C 
BRANCH   8   9
ATOM      9  C   UNL     1       6.626  -5.431   9.128  1.00  0.00    -0.000 C 
BRANCH   9  10
ATOM     10  C   UNL     1       8.145  -5.207   9.021  1.00  0.00    -0.003 C 
ATOM     11  C   UNL     1       8.563  -4.586   7.689  1.00  0.00     0.004 C 
ENDBRANCH   9  10
ENDBRANCH   8   9
ENDBRANCH   7   8
ENDBRANCH   1   7
TORSDOF 7
ENDMDL
MODEL 3
REMARK VINA RESULT:    -3.559      2.172      4.146
REMARK INTER + INTRA:          -5.583
REMARK INTER:                  -5.120
REMARK INTRA:                  -0.463
REMARK UNBOUND:                -0.568
REMARK SMILES CCCCCCCCC(=O)[O-]
REMARK SMILES IDX 6 1 7 2 8 3 9 4 10 5 11 6 5 7 4 8 3 9 2 10 1 11
REMARK H PARENT
REMARK Flexibility Score: inf
ROOT
ATOM      1  C   UNL     1      -3.116   9.406   6.455  1.00  0.00     0.000 C 
ENDROOT
BRANCH   1   2
ATOM      2  C   UNL     1      -2.171   8.199   6.469  1.00  0.00     0.006 C 
BRANCH   2   3
ATOM      3  C   UNL     1      -2.344   7.350   5.206  1.00  0.00     0.053 C 
BRANCH   3   4
ATOM      4  C   UNL     1      -3.030   6.062   5.530  1.00  0.00     0.041 C 
ATOM      5  O   UNL     1      -3.219   5.201   4.630  1.00  0.00    -0.550 OA
ATOM      6  O   UNL     1      -3.416   5.788   6.836  1.00  0.00    -0.550 OA
ENDBRANCH   3   4
ENDBRANCH   2   3
ENDBRANCH   1   2
BRANCH   1   7
ATOM      7  C   UNL     1      -3.589   9.750   7.875  1.00  0.00     0.000 C 
BRANCH   7   8
ATOM      8  C   UNL     1      -3.217   8.671   8.908  1.00  0.00    -0.000 C 
BRANCH   8   9
ATOM      9  C   UNL     1      -4.348   8.279   9.881  1.00  0.00    -0.000 C 
BRANCH   9  10
ATOM     10  C   UNL     1      -5.177   7.054   9.453  1.00  0.00    -0.003 C 
ATOM     11  C   UNL     1      -6.682   7.316   9.478  1.00  0.00     0.004 C 
ENDBRANCH   9  10
ENDBRANCH   8   9
ENDBRANCH   7   8
ENDBRANCH   1   7
TORSDOF 7
ENDMDL
MODEL 4
REMARK VINA RESULT:    -3.409     15.710     17.018
REMARK INTER + INTRA:          -5.373
REMARK INTER:                  -4.866
REMARK INTRA:                  -0.507
REMARK UNBOUND:                -0.568
REMARK SMILES CCCCCCCCC(=O)[O-]
REMARK SMILES IDX 6 1 7 2 8 3 9 4 10 5 11 6 5 7 4 8 3 9 2 10 1 11
REMARK H PARENT
REMARK Flexibility Score: inf
ROOT
ATOM      1  C   UNL     1      -3.870   2.198  -7.795  1.00  0.00     0.000 C 
ENDROOT
BRANCH   1   2
ATOM      2  C   UNL     1      -3.267   2.984  -8.965  1.00  0.00     0.006 C 
BRANCH   2   3
ATOM      3  C   UNL     1      -2.587   4.266  -8.475  1.00  0.00     0.053 C 
BRANCH   3   4
ATOM      4  C   UNL     1      -3.110   5.454  -9.219  1.00  0.00     0.041 C 
ATOM      5  O   UNL     1      -4.263   5.428  -9.723  1.00  0.00    -0.550 OA
ATOM      6  O   UNL     1      -2.343   6.608  -9.311  1.00  0.00    -0.550 OA
ENDBRANCH   3   4
ENDBRANCH   2   3
ENDBRANCH   1   2
BRANCH   1   7
ATOM      7  C   UNL     1      -4.966   3.014  -7.094  1.00  0.00     0.000 C 
BRANCH   7   8
ATOM      8  C   UNL     1      -6.383   2.642  -7.567  1.00  0.00    -0.000 C 
BRANCH   8   9
ATOM      9  C   UNL     1      -6.452   1.477  -8.575  1.00  0.00    -0.000 C 
BRANCH   9  10
ATOM     10  C   UNL     1      -6.747   1.892 -10.027  1.00  0.00    -0.003 C 
ATOM     11  C   UNL     1      -7.725   3.062 -10.125  1.00  0.00     0.004 C 
ENDBRANCH   9  10
ENDBRANCH   8   9
ENDBRANCH   7   8
ENDBRANCH   1   7
TORSDOF 7
ENDMDL
MODEL 5
REMARK VINA RESULT:    -3.392      3.076      4.812
REMARK INTER + INTRA:          -5.348
REMARK INTER:                  -5.064
REMARK INTRA:                  -0.285
REMARK UNBOUND:                -0.568
REMARK SMILES CCCCCCCCC(=O)[O-]
REMARK SMILES IDX 6 1 7 2 8 3 9 4 10 5 11 6 5 7 4 8 3 9 2 10 1 11
REMARK H PARENT
REMARK Flexibility Score: inf
ROOT
ATOM      1  C   UNL     1      -2.679   9.372   6.410  1.00  0.00     0.000 C 
ENDROOT
BRANCH   1   2
ATOM      2  C   UNL     1      -2.250   7.900   6.388  1.00  0.00     0.006 C 
BRANCH   2   3
ATOM      3  C   UNL     1      -2.615   7.241   5.054  1.00  0.00     0.053 C 
BRANCH   3   4
ATOM      4  C   UNL     1      -2.775   5.764   5.225  1.00  0.00     0.041 C 
ATOM      5  O   UNL     1      -3.456   5.307   6.181  1.00  0.00    -0.550 OA
ATOM      6  O   UNL     1      -2.215   4.892   4.300  1.00  0.00    -0.550 OA
ENDBRANCH   3   4
ENDBRANCH   2   3
ENDBRANCH   1   2
BRANCH   1   7
ATOM      7  C   UNL     1      -2.002  10.124   7.566  1.00  0.00     0.000 C 
BRANCH   7   8
ATOM      8  C   UNL     1      -1.008   9.248   8.349  1.00  0.00    -0.000 C 
BRANCH   8   9
ATOM      9  C   UNL     1       0.335   9.926   8.689  1.00  0.00    -0.000 C 
BRANCH   9  10
ATOM     10  C   UNL     1       1.500   8.958   8.964  1.00  0.00    -0.003 C 
ATOM     11  C   UNL     1       2.616   9.060   7.926  1.00  0.00     0.004 C 
ENDBRANCH   9  10
ENDBRANCH   8   9
ENDBRANCH   7   8
ENDBRANCH   1   7
TORSDOF 7
ENDMDL
MODEL 6
REMARK VINA RESULT:    -3.358      5.226      6.488
REMARK INTER + INTRA:          -5.300
REMARK INTER:                  -5.122
REMARK INTRA:                  -0.178
REMARK UNBOUND:                -0.568
REMARK SMILES CCCCCCCCC(=O)[O-]
REMARK SMILES IDX 6 1 7 2 8 3 9 4 10 5 11 6 5 7 4 8 3 9 2 10 1 11
REMARK H PARENT
REMARK Flexibility Score: inf
ROOT
ATOM      1  C   UNL     1       1.520   9.669   8.320  1.00  0.00     0.000 C 
ENDROOT
BRANCH   1   2
ATOM      2  C   UNL     1       2.718   8.875   8.854  1.00  0.00     0.006 C 
BRANCH   2   3
ATOM      3  C   UNL     1       3.479   8.193   7.713  1.00  0.00     0.053 C 
BRANCH   3   4
ATOM      4  C   UNL     1       4.955   8.326   7.914  1.00  0.00     0.041 C 
ATOM      5  O   UNL     1       5.441   8.302   9.075  1.00  0.00    -0.550 OA
ATOM      6  O   UNL     1       5.800   8.426   6.816  1.00  0.00    -0.550 OA
ENDBRANCH   3   4
ENDBRANCH   2   3
ENDBRANCH   1   2
BRANCH   1   7
ATOM      7  C   UNL     1       0.196   8.991   8.702  1.00  0.00     0.000 C 
BRANCH   7   8
ATOM      8  C   UNL     1      -1.019   9.604   7.985  1.00  0.00    -0.000 C 
BRANCH   8   9
ATOM      9  C   UNL     1      -2.118   8.599   7.584  1.00  0.00    -0.000 C 
BRANCH   9  10
ATOM     10  C   UNL     1      -2.610   8.720   6.131  1.00  0.00    -0.003 C 
ATOM     11  C   UNL     1      -2.217   7.522   5.268  1.00  0.00     0.004 C 
ENDBRANCH   9  10
ENDBRANCH   8   9
ENDBRANCH   7   8
ENDBRANCH   1   7
TORSDOF 7
ENDMDL
MODEL 7
REMARK VINA RESULT:    -3.351      1.690      2.630
REMARK INTER + INTRA:          -5.290
REMARK INTER:                  -4.912
REMARK INTRA:                  -0.379
REMARK UNBOUND:                -0.568
REMARK SMILES CCCCCCCCC(=O)[O-]
REMARK SMILES IDX 6 1 7 2 8 3 9 4 10 5 11 6 5 7 4 8 3 9 2 10 1 11
REMARK H PARENT
REMARK Flexibility Score: inf
ROOT
ATOM      1  C   UNL     1      -3.746   7.610   8.638  1.00  0.00     0.000 C 
ENDROOT
BRANCH   1   2
ATOM      2  C   UNL     1      -4.615   7.984   9.845  1.00  0.00     0.006 C 
BRANCH   2   3
ATOM      3  C   UNL     1      -5.706   8.983   9.448  1.00  0.00     0.053 C 
BRANCH   3   4
ATOM      4  C   UNL     1      -7.038   8.305   9.380  1.00  0.00     0.041 C 
ATOM      5  O   UNL     1      -7.134   7.073   9.619  1.00  0.00    -0.550 OA
ATOM      6  O   UNL     1      -8.180   9.044   9.102  1.00  0.00    -0.550 OA
ENDBRANCH   3   4
ENDBRANCH   2   3
ENDBRANCH   1   2
BRANCH   1   7
ATOM      7  C   UNL     1      -3.098   8.858   8.019  1.00  0.00     0.000 C 
BRANCH   7   8
ATOM      8  C   UNL     1      -2.056   8.518   6.939  1.00  0.00    -0.000 C 
BRANCH   8   9
ATOM      9  C   UNL     1      -2.637   8.225   5.540  1.00  0.00    -0.000 C 
BRANCH   9  10
ATOM     10  C   UNL     1      -2.096   6.950   4.867  1.00  0.00    -0.003 C 
ATOM     11  C   UNL     1      -2.951   5.717   5.155  1.00  0.00     0.004 C 
ENDBRANCH   9  10
ENDBRANCH   8   9
ENDBRANCH   7   8
ENDBRANCH   1   7
TORSDOF 7
ENDMDL
MODEL 8
REMARK VINA RESULT:    -3.290     14.274     16.034
REMARK INTER + INTRA:          -5.205
REMARK INTER:                  -4.863
REMARK INTRA:                  -0.341
REMARK UNBOUND:                -0.568
REMARK SMILES CCCCCCCCC(=O)[O-]
REMARK SMILES IDX 6 1 7 2 8 3 9 4 10 5 11 6 5 7 4 8 3 9 2 10 1 11
REMARK H PARENT
REMARK Flexibility Score: inf
ROOT
ATOM      1  C   UNL     1       4.497  -7.330   8.056  1.00  0.00     0.000 C 
ENDROOT
BRANCH   1   2
ATOM      2  C   UNL     1       3.108  -7.620   8.636  1.00  0.00     0.006 C 
BRANCH   2   3
ATOM      3  C   UNL     1       2.039  -6.755   7.962  1.00  0.00     0.053 C 
BRANCH   3   4
ATOM      4  C   UNL     1       2.360  -5.303   8.124  1.00  0.00     0.041 C 
ATOM      5  O   UNL     1       2.314  -4.530   7.132  1.00  0.00    -0.550 OA
ATOM      6  O   UNL     1       2.660  -4.794   9.381  1.00  0.00    -0.550 OA
ENDBRANCH   3   4
ENDBRANCH   2   3
ENDBRANCH   1   2
BRANCH   1   7
ATOM      7  C   UNL     1       5.492  -6.967   9.168  1.00  0.00     0.000 C 
BRANCH   7   8
ATOM      8  C   UNL     1       6.312  -5.704   8.849  1.00  0.00    -0.000 C 
BRANCH   8   9
ATOM      9  C   UNL     1       7.588  -5.521   9.696  1.00  0.00    -0.000 C 
BRANCH   9  10
ATOM     10  C   UNL     1       8.611  -4.524   9.123  1.00  0.00    -0.003 C 
ATOM     11  C   UNL     1       8.689  -4.562   7.597  1.00  0.00     0.004 C 
ENDBRANCH   9  10
ENDBRANCH   8   9
ENDBRANCH   7   8
ENDBRANCH   1   7
TORSDOF 7
ENDMDL
