MODEL 1
REMARK VINA RESULT:    -4.912      0.000      0.000
REMARK INTER + INTRA:         -10.150
REMARK INTER:                  -9.219
REMARK INTRA:                  -0.932
REMARK UNBOUND:                -0.932
REMARK SMILES O=C([O-])CCCCCCCCCCCCCCC(=O)[O-]
REMARK SMILES IDX 10 1 9 2 8 3 7 4 6 5 5 6 4 7 2 8 1 9 3 10 11 11 12 12 13 13
REMARK SMILES IDX 14 14 15 15 16 16 17 17 18 18 19 19 20 20
REMARK H PARENT
REMARK Flexibility Score: inf
ROOT
ATOM      1  C   UNL     1       8.721   5.239   0.800  1.00  0.00     0.000 C 
ENDROOT
BRANCH   1   2
ATOM      2  C   UNL     1       7.545   6.212   0.606  1.00  0.00     0.000 C 
BRANCH   2   3
ATOM      3  C   UNL     1       7.562   7.365   1.623  1.00  0.00     0.000 C 
BRANCH   3   4
ATOM      4  C   UNL     1       8.982   7.896   1.886  1.00  0.00     0.000 C 
BRANCH   4   5
ATOM      5  C   UNL     1       8.983   9.319   2.468  1.00  0.00     0.000 C 
BRANCH   5   6
ATOM      6  C   UNL     1       7.585   9.783   2.908  1.00  0.00     0.006 C 
BRANCH   6   7
ATOM      7  C   UNL     1       7.376   9.546   4.406  1.00  0.00     0.053 C 
BRANCH   7   8
ATOM      8  C   UNL     1       5.917   9.452   4.722  1.00  0.00     0.041 C 
ATOM      9  O   UNL     1       5.081   9.237   3.804  1.00  0.00    -0.550 OA
ATOM     10  O   UNL     1       5.483   9.547   6.038  1.00  0.00    -0.550 OA
ENDBRANCH   7   8
ENDBRANCH   6   7
ENDBRANCH   5   6
ENDBRANCH   4   5
ENDBRANCH   3   4
ENDBRANCH   2   3
ENDBRANCH   1   2
BRANCH   1  11
ATOM     11  C   UNL     1       8.288   3.765   0.749  1.00  0.00     0.000 C 
BRANCH  11  12
ATOM     12  C   UNL     1       6.906   3.575   0.100  1.00  0.00     0.000 C 
BRANCH  12  13
ATOM     13  C   UNL     1       6.095   2.448   0.761  1.00  0.00     0.000 C 
BRANCH  13  14
ATOM     14  C   UNL     1       5.943   1.216  -0.144  1.00  0.00     0.000 C 
BRANCH  14  15
ATOM     15  C   UNL     1       6.621   1.448  -1.503  1.00  0.00     0.000 C 
BRANCH  15  16
ATOM     16  C   UNL     1       7.839   0.537  -1.721  1.00  0.00     0.006 C 
BRANCH  16  17
ATOM     17  C   UNL     1       8.752   1.032  -2.851  1.00  0.00     0.053 C 
BRANCH  17  18
ATOM     18  C   UNL     1       8.344   0.426  -4.156  1.00  0.00     0.041 C 
ATOM     19  O   UNL     1       8.779   0.900  -5.238  1.00  0.00    -0.550 OA
ATOM     20  O   UNL     1       7.444  -0.632  -4.179  1.00  0.00    -0.550 OA
ENDBRANCH  17  18
ENDBRANCH  16  17
ENDBRANCH  15  16
ENDBRANCH  14  15
ENDBRANCH  13  14
ENDBRANCH  12  13
ENDBRANCH  11  12
ENDBRANCH   1  11
TORSDOF 15
ENDMDL
MODEL 2
REMARK VINA RESULT:    -4.763      1.073      9.773
REMARK INTER + INTRA:          -9.871
REMARK INTER:                  -8.908
REMARK INTRA:                  -0.964
REMARK UNBOUND:                -0.932
REMARK SMILES O=C([O-])CCCCCCCCCCCCCCC(=O)[O-]
REMARK SMILES IDX 10 1 9 2 8 3 7 4 6 5 5 6 4 7 2 8 1 9 3 10 11 11 12 12 13 13
REMARK SMILES IDX 14 14 15 15 16 16 17 17 18 18 19 19 20 20
REMARK H PARENT
REMARK Flexibility Score: inf
ROOT
ATOM      1  C   UNL     1       7.985   5.038   1.576  1.00  0.00     0.000 C 
ENDROOT
BRANCH   1   2
ATOM      2  C   UNL     1       8.779   3.996   0.769  1.00  0.00     0.000 C 
BRANCH   2   3
ATOM      3  C   UNL     1       7.881   3.163  -0.161  1.00  0.00     0.000 C 
BRANCH   3   4
ATOM      4  C   UNL     1       6.469   2.957   0.415  1.00  0.00     0.000 C 
BRANCH   4   5
ATOM      5  C   UNL     1       5.917   1.549   0.140  1.00  0.00     0.000 C 
BRANCH   5   6
ATOM      6  C   UNL     1       6.803   0.741  -0.821  1.00  0.00     0.006 C 
BRANCH   6   7
ATOM      7  C   UNL     1       6.258   0.802  -2.251  1.00  0.00     0.053 C 
BRANCH   7   8
ATOM      8  C   UNL     1       7.356   0.571  -3.240  1.00  0.00     0.041 C 
ATOM      9  O   UNL     1       8.375   1.311  -3.241  1.00  0.00    -0.550 OA
ATOM     10  O   UNL     1       7.280  -0.496  -4.126  1.00  0.00    -0.550 OA
ENDBRANCH   7   8
ENDBRANCH   6   7
ENDBRANCH   5   6
ENDBRANCH   4   5
ENDBRANCH   3   4
ENDBRANCH   2   3
ENDBRANCH   1   2
BRANCH   1  11
ATOM     11  C   UNL     1       8.733   6.374   1.720  1.00  0.00     0.000 C 
BRANCH  11  12
ATOM     12  C   UNL     1       8.037   7.526   0.974  1.00  0.00     0.000 C 
BRANCH  12  13
ATOM     13  C   UNL     1       8.223   8.880   1.679  1.00  0.00     0.000 C 
BRANCH  13  14
ATOM     14  C   UNL     1       8.913   8.748   3.045  1.00  0.00     0.000 C 
BRANCH  14  15
ATOM     15  C   UNL     1       8.540   9.924   3.962  1.00  0.00     0.000 C 
BRANCH  15  16
ATOM     16  C   UNL     1       7.486  10.851   3.338  1.00  0.00     0.006 C 
BRANCH  16  17
ATOM     17  C   UNL     1       6.286  11.089   4.264  1.00  0.00     0.053 C 
BRANCH  17  18
ATOM     18  C   UNL     1       5.661   9.787   4.654  1.00  0.00     0.041 C 
ATOM     19  O   UNL     1       5.757   9.367   5.837  1.00  0.00    -0.550 OA
ATOM     20  O   UNL     1       5.014   9.013   3.699  1.00  0.00    -0.550 OA
ENDBRANCH  17  18
ENDBRANCH  16  17
ENDBRANCH  15  16
ENDBRANCH  14  15
ENDBRANCH  13  14
ENDBRANCH  12  13
ENDBRANCH  11  12
ENDBRANCH   1  11
TORSDOF 15
ENDMDL
MODEL 3
REMARK VINA RESULT:    -4.689      1.056      9.745
REMARK INTER + INTRA:          -9.733
REMARK INTER:                  -8.867
REMARK INTRA:                  -0.866
REMARK UNBOUND:                -0.932
REMARK SMILES O=C([O-])CCCCCCCCCCCCCCC(=O)[O-]
REMARK SMILES IDX 10 1 9 2 8 3 7 4 6 5 5 6 4 7 2 8 1 9 3 10 11 11 12 12 13 13
REMARK SMILES IDX 14 14 15 15 16 16 17 17 18 18 19 19 20 20
REMARK H PARENT
REMARK Flexibility Score: inf
ROOT
ATOM      1  C   UNL     1       7.497   4.332   1.458  1.00  0.00     0.000 C 
ENDROOT
BRANCH   1   2
ATOM      2  C   UNL     1       8.143   3.520   0.321  1.00  0.00     0.000 C 
BRANCH   2   3
ATOM      3  C   UNL     1       7.114   3.042  -0.717  1.00  0.00     0.000 C 
BRANCH   3   4
ATOM      4  C   UNL     1       6.369   1.774  -0.266  1.00  0.00     0.000 C 
BRANCH   4   5
ATOM      5  C   UNL     1       7.034   0.484  -0.774  1.00  0.00     0.000 C 
BRANCH   5   6
ATOM      6  C   UNL     1       8.329   0.752  -1.558  1.00  0.00     0.006 C 
BRANCH   6   7
ATOM      7  C   UNL     1       8.558  -0.326  -2.621  1.00  0.00     0.053 C 
BRANCH   7   8
ATOM      8  C   UNL     1       7.756  -0.029  -3.848  1.00  0.00     0.041 C 
ATOM      9  O   UNL     1       7.338   1.139  -4.066  1.00  0.00    -0.550 OA
ATOM     10  O   UNL     1       7.515  -1.031  -4.781  1.00  0.00    -0.550 OA
ENDBRANCH   7   8
ENDBRANCH   6   7
ENDBRANCH   5   6
ENDBRANCH   4   5
ENDBRANCH   3   4
ENDBRANCH   2   3
ENDBRANCH   1   2
BRANCH   1  11
ATOM     11  C   UNL     1       7.935   5.806   1.458  1.00  0.00     0.000 C 
BRANCH  11  12
ATOM     12  C   UNL     1       7.291   6.616   0.319  1.00  0.00     0.000 C 
BRANCH  12  13
ATOM     13  C   UNL     1       8.103   7.872  -0.040  1.00  0.00     0.000 C 
BRANCH  13  14
ATOM     14  C   UNL     1       8.902   8.424   1.150  1.00  0.00     0.000 C 
BRANCH  14  15
ATOM     15  C   UNL     1       8.653   9.930   1.326  1.00  0.00     0.000 C 
BRANCH  15  16
ATOM     16  C   UNL     1       7.984  10.268   2.667  1.00  0.00     0.006 C 
BRANCH  16  17
ATOM     17  C   UNL     1       7.374   9.036   3.350  1.00  0.00     0.053 C 
BRANCH  17  18
ATOM     18  C   UNL     1       6.245   9.441   4.244  1.00  0.00     0.041 C 
ATOM     19  O   UNL     1       5.236  10.024   3.767  1.00  0.00    -0.550 OA
ATOM     20  O   UNL     1       6.329   9.218   5.613  1.00  0.00    -0.550 OA
ENDBRANCH  17  18
ENDBRANCH  16  17
ENDBRANCH  15  16
ENDBRANCH  14  15
ENDBRANCH  13  14
ENDBRANCH  12  13
ENDBRANCH  11  12
ENDBRANCH   1  11
TORSDOF 15
ENDMDL
MODEL 4
REMARK VINA RESULT:    -4.526      1.286      2.099
REMARK INTER + INTRA:          -9.426
REMARK INTER:                  -8.450
REMARK INTRA:                  -0.976
REMARK UNBOUND:                -0.932
REMARK SMILES O=C([O-])CCCCCCCCCCCCCCC(=O)[O-]
REMARK SMILES IDX 10 1 9 2 8 3 7 4 6 5 5 6 4 7 2 8 1 9 3 10 11 11 12 12 13 13
REMARK SMILES IDX 14 14 15 15 16 16 17 17 18 18 19 19 20 20
REMARK H PARENT
REMARK Flexibility Score: inf
ROOT
ATOM      1  C   UNL     1       7.623   7.299   1.555  1.00  0.00     0.000 C 
ENDROOT
BRANCH   1   2
ATOM      2  C   UNL     1       8.643   8.011   0.650  1.00  0.00     0.000 C 
BRANCH   2   3
ATOM      3  C   UNL     1       8.841   9.487   1.035  1.00  0.00     0.000 C 
BRANCH   3   4
ATOM      4  C   UNL     1       8.422   9.777   2.486  1.00  0.00     0.000 C 
BRANCH   4   5
ATOM      5  C   UNL     1       7.678  11.114   2.631  1.00  0.00     0.000 C 
BRANCH   5   6
ATOM      6  C   UNL     1       6.375  10.985   3.436  1.00  0.00     0.006 C 
BRANCH   6   7
ATOM      7  C   UNL     1       6.298   9.626   4.138  1.00  0.00     0.053 C 
BRANCH   7   8
ATOM      8  C   UNL     1       6.040   9.807   5.600  1.00  0.00     0.041 C 
ATOM      9  O   UNL     1       5.346  10.776   6.007  1.00  0.00    -0.550 OA
ATOM     10  O   UNL     1       6.521   8.875   6.511  1.00  0.00    -0.550 OA
ENDBRANCH   7   8
ENDBRANCH   6   7
ENDBRANCH   5   6
ENDBRANCH   4   5
ENDBRANCH   3   4
ENDBRANCH   2   3
ENDBRANCH   1   2
BRANCH   1  11
ATOM     11  C   UNL     1       7.996   5.833   1.831  1.00  0.00     0.000 C 
BRANCH  11  12
ATOM     12  C   UNL     1       8.646   5.148   0.616  1.00  0.00     0.000 C 
BRANCH  12  13
ATOM     13  C   UNL     1       8.466   3.620   0.636  1.00  0.00     0.000 C 
BRANCH  13  14
ATOM     14  C   UNL     1       7.621   3.107  -0.540  1.00  0.00     0.000 C 
BRANCH  14  15
ATOM     15  C   UNL     1       6.426   2.283  -0.037  1.00  0.00     0.000 C 
BRANCH  15  16
ATOM     16  C   UNL     1       6.364   0.883  -0.667  1.00  0.00     0.006 C 
BRANCH  16  17
ATOM     17  C   UNL     1       7.467   0.654  -1.709  1.00  0.00     0.053 C 
BRANCH  17  18
ATOM     18  C   UNL     1       6.892   0.665  -3.090  1.00  0.00     0.041 C 
ATOM     19  O   UNL     1       6.299   1.689  -3.521  1.00  0.00    -0.550 OA
ATOM     20  O   UNL     1       6.966  -0.474  -3.883  1.00  0.00    -0.550 OA
ENDBRANCH  17  18
ENDBRANCH  16  17
ENDBRANCH  15  16
ENDBRANCH  14  15
ENDBRANCH  13  14
ENDBRANCH  12  13
ENDBRANCH  11  12
ENDBRANCH   1  11
TORSDOF 15
ENDMDL
MODEL 5
REMARK VINA RESULT:    -4.444     10.459     11.952
REMARK INTER + INTRA:          -9.274
REMARK INTER:                  -7.298
REMARK INTRA:                  -1.975
REMARK UNBOUND:                -0.932
REMARK SMILES O=C([O-])CCCCCCCCCCCCCCC(=O)[O-]
REMARK SMILES IDX 10 1 9 2 8 3 7 4 6 5 5 6 4 7 2 8 1 9 3 10 11 11 12 12 13 13
REMARK SMILES IDX 14 14 15 15 16 16 17 17 18 18 19 19 20 20
REMARK H PARENT
REMARK Flexibility Score: inf
ROOT
ATOM      1  C   UNL     1       1.176   3.125  11.193  1.00  0.00     0.000 C 
ENDROOT
BRANCH   1   2
ATOM      2  C   UNL     1       1.584   4.394  10.424  1.00  0.00     0.000 C 
BRANCH   2   3
ATOM      3  C   UNL     1       1.646   5.635  11.329  1.00  0.00     0.000 C 
BRANCH   3   4
ATOM      4  C   UNL     1       1.372   6.939  10.560  1.00  0.00     0.000 C 
BRANCH   4   5
ATOM      5  C   UNL     1       1.656   6.809   9.055  1.00  0.00     0.000 C 
BRANCH   5   6
ATOM      6  C   UNL     1       1.429   8.124   8.291  1.00  0.00     0.006 C 
BRANCH   6   7
ATOM      7  C   UNL     1       2.052   9.306   9.039  1.00  0.00     0.053 C 
BRANCH   7   8
ATOM      8  C   UNL     1       3.328   9.727   8.381  1.00  0.00     0.041 C 
ATOM      9  O   UNL     1       3.856   9.001   7.497  1.00  0.00    -0.550 OA
ATOM     10  O   UNL     1       3.907  10.947   8.704  1.00  0.00    -0.550 OA
ENDBRANCH   7   8
ENDBRANCH   6   7
ENDBRANCH   5   6
ENDBRANCH   4   5
ENDBRANCH   3   4
ENDBRANCH   2   3
ENDBRANCH   1   2
BRANCH   1  11
ATOM     11  C   UNL     1       1.633   1.834  10.494  1.00  0.00     0.000 C 
BRANCH  11  12
ATOM     12  C   UNL     1       2.649   1.036  11.329  1.00  0.00     0.000 C 
BRANCH  12  13
ATOM     13  C   UNL     1       2.806   1.593  12.754  1.00  0.00     0.000 C 
BRANCH  13  14
ATOM     14  C   UNL     1       4.251   2.007  13.074  1.00  0.00     0.000 C 
BRANCH  14  15
ATOM     15  C   UNL     1       4.428   3.527  12.938  1.00  0.00     0.000 C 
BRANCH  15  16
ATOM     16  C   UNL     1       5.134   3.928  11.633  1.00  0.00     0.006 C 
BRANCH  16  17
ATOM     17  C   UNL     1       5.278   5.448  11.482  1.00  0.00     0.053 C 
BRANCH  17  18
ATOM     18  C   UNL     1       5.144   5.845  10.046  1.00  0.00     0.041 C 
ATOM     19  O   UNL     1       4.752   5.007   9.191  1.00  0.00    -0.550 OA
ATOM     20  O   UNL     1       5.500   7.126   9.642  1.00  0.00    -0.550 OA
ENDBRANCH  17  18
ENDBRANCH  16  17
ENDBRANCH  15  16
ENDBRANCH  14  15
ENDBRANCH  13  14
ENDBRANCH  12  13
ENDBRANCH  11  12
ENDBRANCH   1  11
TORSDOF 15
ENDMDL
MODEL 6
REMARK VINA RESULT:    -4.375     10.193     12.690
REMARK INTER + INTRA:          -9.143
REMARK INTER:                  -7.259
REMARK INTRA:                  -1.884
REMARK UNBOUND:                -0.932
REMARK SMILES O=C([O-])CCCCCCCCCCCCCCC(=O)[O-]
REMARK SMILES IDX 10 1 9 2 8 3 7 4 6 5 5 6 4 7 2 8 1 9 3 10 11 11 12 12 13 13
REMARK SMILES IDX 14 14 15 15 16 16 17 17 18 18 19 19 20 20
REMARK H PARENT
REMARK Flexibility Score: inf
ROOT
ATOM      1  C   UNL     1       2.315   2.115  10.525  1.00  0.00     0.000 C 
ENDROOT
BRANCH   1   2
ATOM      2  C   UNL     1       2.554   1.079  11.638  1.00  0.00     0.000 C 
BRANCH   2   3
ATOM      3  C   UNL     1       3.049   1.724  12.943  1.00  0.00     0.000 C 
BRANCH   3   4
ATOM      4  C   UNL     1       4.562   2.002  12.924  1.00  0.00     0.000 C 
BRANCH   4   5
ATOM      5  C   UNL     1       4.889   3.503  12.985  1.00  0.00     0.000 C 
BRANCH   5   6
ATOM      6  C   UNL     1       5.912   3.932  11.922  1.00  0.00     0.006 C 
BRANCH   6   7
ATOM      7  C   UNL     1       5.512   5.267  11.285  1.00  0.00     0.053 C 
BRANCH   7   8
ATOM      8  C   UNL     1       5.642   5.195   9.796  1.00  0.00     0.041 C 
ATOM      9  O   UNL     1       4.734   4.662   9.105  1.00  0.00    -0.550 OA
ATOM     10  O   UNL     1       6.740   5.767   9.166  1.00  0.00    -0.550 OA
ENDBRANCH   7   8
ENDBRANCH   6   7
ENDBRANCH   5   6
ENDBRANCH   4   5
ENDBRANCH   3   4
ENDBRANCH   2   3
ENDBRANCH   1   2
BRANCH   1  11
ATOM     11  C   UNL     1       1.186   3.103  10.865  1.00  0.00     0.000 C 
BRANCH  11  12
ATOM     12  C   UNL     1       1.522   4.549  10.461  1.00  0.00     0.000 C 
BRANCH  12  13
ATOM     13  C   UNL     1       1.998   5.397  11.653  1.00  0.00     0.000 C 
BRANCH  13  14
ATOM     14  C   UNL     1       1.915   6.906  11.378  1.00  0.00     0.000 C 
BRANCH  14  15
ATOM     15  C   UNL     1       0.650   7.247  10.575  1.00  0.00     0.000 C 
BRANCH  15  16
ATOM     16  C   UNL     1       0.927   8.218   9.417  1.00  0.00     0.006 C 
BRANCH  16  17
ATOM     17  C   UNL     1       2.011   7.703   8.460  1.00  0.00     0.053 C 
BRANCH  17  18
ATOM     18  C   UNL     1       3.078   8.735   8.275  1.00  0.00     0.041 C 
ATOM     19  O   UNL     1       4.281   8.453   8.520  1.00  0.00    -0.550 OA
ATOM     20  O   UNL     1       2.739  10.023   7.880  1.00  0.00    -0.550 OA
ENDBRANCH  17  18
ENDBRANCH  16  17
ENDBRANCH  15  16
ENDBRANCH  14  15
ENDBRANCH  13  14
ENDBRANCH  12  13
ENDBRANCH  11  12
ENDBRANCH   1  11
TORSDOF 15
ENDMDL
MODEL 7
REMARK VINA RESULT:    -4.297     10.029     11.844
REMARK INTER + INTRA:          -8.998
REMARK INTER:                  -7.251
REMARK INTRA:                  -1.746
REMARK UNBOUND:                -0.932
REMARK SMILES O=C([O-])CCCCCCCCCCCCCCC(=O)[O-]
REMARK SMILES IDX 10 1 9 2 8 3 7 4 6 5 5 6 4 7 2 8 1 9 3 10 11 11 12 12 13 13
REMARK SMILES IDX 14 14 15 15 16 16 17 17 18 18 19 19 20 20
REMARK H PARENT
REMARK Flexibility Score: inf
ROOT
ATOM      1  C   UNL     1       2.410   6.812   9.062  1.00  0.00     0.000 C 
ENDROOT
BRANCH   1   2
ATOM      2  C   UNL     1       1.563   7.771   8.208  1.00  0.00     0.000 C 
BRANCH   2   3
ATOM      3  C   UNL     1       0.727   8.737   9.065  1.00  0.00     0.000 C 
BRANCH   3   4
ATOM      4  C   UNL     1       1.566   9.443  10.145  1.00  0.00     0.000 C 
BRANCH   4   5
ATOM      5  C   UNL     1       2.037  10.839   9.710  1.00  0.00     0.000 C 
BRANCH   5   6
ATOM      6  C   UNL     1       3.557  10.913   9.492  1.00  0.00     0.006 C 
BRANCH   6   7
ATOM      7  C   UNL     1       3.897  10.889   7.999  1.00  0.00     0.053 C 
BRANCH   7   8
ATOM      8  C   UNL     1       4.750   9.704   7.676  1.00  0.00     0.041 C 
ATOM      9  O   UNL     1       5.102   8.908   8.586  1.00  0.00    -0.550 OA
ATOM     10  O   UNL     1       5.112   9.446   6.360  1.00  0.00    -0.550 OA
ENDBRANCH   7   8
ENDBRANCH   6   7
ENDBRANCH   5   6
ENDBRANCH   4   5
ENDBRANCH   3   4
ENDBRANCH   2   3
ENDBRANCH   1   2
BRANCH   1  11
ATOM     11  C   UNL     1       1.568   5.719   9.740  1.00  0.00     0.000 C 
BRANCH  11  12
ATOM     12  C   UNL     1       1.585   5.824  11.275  1.00  0.00     0.000 C 
BRANCH  12  13
ATOM     13  C   UNL     1       3.012   5.894  11.844  1.00  0.00     0.000 C 
BRANCH  13  14
ATOM     14  C   UNL     1       3.364   4.679  12.717  1.00  0.00     0.000 C 
BRANCH  14  15
ATOM     15  C   UNL     1       3.849   3.506  11.852  1.00  0.00     0.000 C 
BRANCH  15  16
ATOM     16  C   UNL     1       3.497   2.138  12.457  1.00  0.00     0.006 C 
BRANCH  16  17
ATOM     17  C   UNL     1       2.731   1.238  11.478  1.00  0.00     0.053 C 
BRANCH  17  18
ATOM     18  C   UNL     1       1.501   1.932  10.985  1.00  0.00     0.041 C 
ATOM     19  O   UNL     1       1.364   2.186   9.759  1.00  0.00    -0.550 OA
ATOM     20  O   UNL     1       0.526   2.342  11.886  1.00  0.00    -0.550 OA
ENDBRANCH  17  18
ENDBRANCH  16  17
ENDBRANCH  15  16
ENDBRANCH  14  15
ENDBRANCH  13  14
ENDBRANCH  12  13
ENDBRANCH  11  12
ENDBRANCH   1  11
TORSDOF 15
ENDMDL
MODEL 8
REMARK VINA RESULT:    -4.208     10.342     13.200
REMARK INTER + INTRA:          -8.829
REMARK INTER:                  -6.363
REMARK INTRA:                  -2.466
REMARK UNBOUND:                -0.932
REMARK SMILES O=C([O-])CCCCCCCCCCCCCCC(=O)[O-]
REMARK SMILES IDX 10 1 9 2 8 3 7 4 6 5 5 6 4 7 2 8 1 9 3 10 11 11 12 12 13 13
REMARK SMILES IDX 14 14 15 15 16 16 17 17 18 18 19 19 20 20
REMARK H PARENT
REMARK Flexibility Score: inf
ROOT
ATOM      1  C   UNL     1       0.456   7.714  11.243  1.00  0.00     0.000 C 
ENDROOT
BRANCH   1   2
ATOM      2  C   UNL     1       0.978   8.178   9.872  1.00  0.00     0.000 C 
BRANCH   2   3
ATOM      3  C   UNL     1       1.604   7.030   9.062  1.00  0.00     0.000 C 
BRANCH   3   4
ATOM      4  C   UNL     1       1.466   5.669   9.767  1.00  0.00     0.000 C 
BRANCH   4   5
ATOM      5  C   UNL     1       2.797   4.904   9.842  1.00  0.00     0.000 C 
BRANCH   5   6
ATOM      6  C   UNL     1       2.670   3.560  10.577  1.00  0.00     0.006 C 
BRANCH   6   7
ATOM      7  C   UNL     1       1.707   3.674  11.762  1.00  0.00     0.053 C 
BRANCH   7   8
ATOM      8  C   UNL     1       1.120   2.338  12.090  1.00  0.00     0.041 C 
ATOM      9  O   UNL     1      -0.101   2.112  11.880  1.00  0.00    -0.550 OA
ATOM     10  O   UNL     1       1.933   1.322  12.577  1.00  0.00    -0.550 OA
ENDBRANCH   7   8
ENDBRANCH   6   7
ENDBRANCH   5   6
ENDBRANCH   4   5
ENDBRANCH   3   4
ENDBRANCH   2   3
ENDBRANCH   1   2
BRANCH   1  11
ATOM     11  C   UNL     1       1.249   8.316  12.415  1.00  0.00     0.000 C 
BRANCH  11  12
ATOM     12  C   UNL     1       2.395   7.404  12.886  1.00  0.00     0.000 C 
BRANCH  12  13
ATOM     13  C   UNL     1       3.780   8.023  12.636  1.00  0.00     0.000 C 
BRANCH  13  14
ATOM     14  C   UNL     1       4.641   7.186  11.678  1.00  0.00     0.000 C 
BRANCH  14  15
ATOM     15  C   UNL     1       4.952   7.970  10.394  1.00  0.00     0.000 C 
BRANCH  15  16
ATOM     16  C   UNL     1       4.384   9.398  10.419  1.00  0.00     0.006 C 
BRANCH  16  17
ATOM     17  C   UNL     1       4.853  10.241   9.225  1.00  0.00     0.053 C 
BRANCH  17  18
ATOM     18  C   UNL     1       4.108   9.853   7.988  1.00  0.00     0.041 C 
ATOM     19  O   UNL     1       4.670   9.158   7.101  1.00  0.00    -0.550 OA
ATOM     20  O   UNL     1       2.807  10.301   7.790  1.00  0.00    -0.550 OA
ENDBRANCH  17  18
ENDBRANCH  16  17
ENDBRANCH  15  16
ENDBRANCH  14  15
ENDBRANCH  13  14
ENDBRANCH  12  13
ENDBRANCH  11  12
ENDBRANCH   1  11
TORSDOF 15
ENDMDL
MODEL 9
REMARK VINA RESULT:    -4.200      9.662     11.377
REMARK INTER + INTRA:          -8.814
REMARK INTER:                  -6.343
REMARK INTRA:                  -2.471
REMARK UNBOUND:                -0.932
REMARK SMILES O=C([O-])CCCCCCCCCCCCCCC(=O)[O-]
REMARK SMILES IDX 10 1 9 2 8 3 7 4 6 5 5 6 4 7 2 8 1 9 3 10 11 11 12 12 13 13
REMARK SMILES IDX 14 14 15 15 16 16 17 17 18 18 19 19 20 20
REMARK H PARENT
REMARK Flexibility Score: inf
ROOT
ATOM      1  C   UNL     1       1.686   8.295   8.244  1.00  0.00     0.000 C 
ENDROOT
BRANCH   1   2
ATOM      2  C   UNL     1       0.491   8.837   9.048  1.00  0.00     0.000 C 
BRANCH   2   3
ATOM      3  C   UNL     1       0.919   9.838  10.134  1.00  0.00     0.000 C 
BRANCH   3   4
ATOM      4  C   UNL     1       2.156  10.657   9.725  1.00  0.00     0.000 C 
BRANCH   4   5
ATOM      5  C   UNL     1       3.317  10.513  10.721  1.00  0.00     0.000 C 
BRANCH   5   6
ATOM      6  C   UNL     1       4.570   9.887  10.088  1.00  0.00     0.006 C 
BRANCH   6   7
ATOM      7  C   UNL     1       4.901  10.558   8.752  1.00  0.00     0.053 C 
BRANCH   7   8
ATOM      8  C   UNL     1       5.484   9.564   7.798  1.00  0.00     0.041 C 
ATOM      9  O   UNL     1       6.442   8.828   8.156  1.00  0.00    -0.550 OA
ATOM     10  O   UNL     1       4.935   9.411   6.531  1.00  0.00    -0.550 OA
ENDBRANCH   7   8
ENDBRANCH   6   7
ENDBRANCH   5   6
ENDBRANCH   4   5
ENDBRANCH   3   4
ENDBRANCH   2   3
ENDBRANCH   1   2
BRANCH   1  11
ATOM     11  C   UNL     1       2.334   7.064   8.900  1.00  0.00     0.000 C 
BRANCH  11  12
ATOM     12  C   UNL     1       1.316   6.184   9.644  1.00  0.00     0.000 C 
BRANCH  12  13
ATOM     13  C   UNL     1       1.765   5.847  11.077  1.00  0.00     0.000 C 
BRANCH  13  14
ATOM     14  C   UNL     1       2.666   6.931  11.686  1.00  0.00     0.000 C 
BRANCH  14  15
ATOM     15  C   UNL     1       3.977   6.323  12.208  1.00  0.00     0.000 C 
BRANCH  15  16
ATOM     16  C   UNL     1       4.087   4.817  11.922  1.00  0.00     0.006 C 
BRANCH  16  17
ATOM     17  C   UNL     1       5.391   4.446  11.203  1.00  0.00     0.053 C 
BRANCH  17  18
ATOM     18  C   UNL     1       5.317   4.824   9.758  1.00  0.00     0.041 C 
ATOM     19  O   UNL     1       6.125   5.664   9.280  1.00  0.00    -0.550 OA
ATOM     20  O   UNL     1       4.323   4.287   8.949  1.00  0.00    -0.550 OA
ENDBRANCH  17  18
ENDBRANCH  16  17
ENDBRANCH  15  16
ENDBRANCH  14  15
ENDBRANCH  13  14
ENDBRANCH  12  13
ENDBRANCH  11  12
ENDBRANCH   1  11
TORSDOF 15
ENDMDL
