MODEL 1
REMARK VINA RESULT:    -3.397      0.000      0.000
REMARK INTER + INTRA:          -7.608
REMARK INTER:                  -5.185
REMARK INTRA:                  -2.423
REMARK UNBOUND:                -2.423
REMARK SMILES CC(=O)CCC=C(C)CCC=C(C)CCC=C(C)C
REMARK SMILES IDX 10 1 11 2 12 3 13 4 14 5 15 6 16 7 18 8 17 9 19 10 9 11 7 12
REMARK SMILES IDX 6 13 8 14 5 15 4 16 2 17 3 18 1 19
REMARK H PARENT
REMARK Flexibility Score: inf
ROOT
ATOM      1  C   UNL     1      21.600  42.842  91.708  1.00  0.00     0.032 C 
ENDROOT
BRANCH   1   2
ATOM      2  C   UNL     1      20.645  42.622  92.854  1.00  0.00    -0.028 C 
ATOM      3  C   UNL     1      20.773  41.642  93.778  1.00  0.00    -0.077 C 
ATOM      4  C   UNL     1      21.884  40.620  93.710  1.00  0.00     0.039 C 
BRANCH   3   5
ATOM      5  C   UNL     1      19.760  41.552  94.902  1.00  0.00     0.034 C 
BRANCH   5   6
ATOM      6  C   UNL     1      19.042  40.194  94.921  1.00  0.00     0.032 C 
BRANCH   6   7
ATOM      7  C   UNL     1      18.153  40.015  93.713  1.00  0.00    -0.028 C 
ATOM      8  C   UNL     1      19.374  37.984  92.903  1.00  0.00     0.039 C 
ATOM      9  C   UNL     1      18.308  39.047  92.782  1.00  0.00    -0.080 C 
ATOM     10  C   UNL     1      17.370  39.029  91.603  1.00  0.00     0.039 C 
ENDBRANCH   6   7
ENDBRANCH   5   6
ENDBRANCH   3   5
ENDBRANCH   1   2
BRANCH   1  11
ATOM     11  C   UNL     1      20.876  42.702  90.364  1.00  0.00     0.034 C 
BRANCH  11  12
ATOM     12  C   UNL     1      21.226  41.390  89.699  1.00  0.00    -0.077 C 
ATOM     13  C   UNL     1      20.713  40.242  90.201  1.00  0.00    -0.028 C 
ATOM     14  C   UNL     1      22.155  41.395  88.508  1.00  0.00     0.039 C 
BRANCH  13  15
ATOM     15  C   UNL     1      20.952  38.873  89.615  1.00  0.00     0.035 C 
BRANCH  15  16
ATOM     16  C   UNL     1      19.755  38.427  88.769  1.00  0.00     0.079 C 
BRANCH  16  17
ATOM     17  C   UNL     1      19.418  36.986  89.044  1.00  0.00     0.130 C 
ATOM     18  O   UNL     1      18.348  36.534  88.663  1.00  0.00    -0.300 OA
ATOM     19  C   UNL     1      20.373  36.085  89.770  1.00  0.00     0.087 C 
ENDBRANCH  16  17
ENDBRANCH  15  16
ENDBRANCH  13  15
ENDBRANCH  11  12
ENDBRANCH   1  11
TORSDOF 9
ENDMDL
MODEL 2
REMARK VINA RESULT:    -3.258      1.450      4.653
REMARK INTER + INTRA:          -7.395
REMARK INTER:                  -5.319
REMARK INTRA:                  -2.076
REMARK UNBOUND:                -2.423
REMARK SMILES CC(=O)CCC=C(C)CCC=C(C)CCC=C(C)C
REMARK SMILES IDX 10 1 11 2 12 3 13 4 14 5 15 6 16 7 18 8 17 9 19 10 9 11 7 12
REMARK SMILES IDX 6 13 8 14 5 15 4 16 2 17 3 18 1 19
REMARK H PARENT
REMARK Flexibility Score: inf
ROOT
ATOM      1  C   UNL     1      20.377  42.650  92.959  1.00  0.00     0.032 C 
ENDROOT
BRANCH   1   2
ATOM      2  C   UNL     1      20.494  42.291  91.500  1.00  0.00    -0.028 C 
ATOM      3  C   UNL     1      21.447  42.770  90.668  1.00  0.00    -0.077 C 
ATOM      4  C   UNL     1      22.474  43.777  91.127  1.00  0.00     0.039 C 
BRANCH   3   5
ATOM      5  C   UNL     1      21.471  42.300  89.227  1.00  0.00     0.034 C 
BRANCH   5   6
ATOM      6  C   UNL     1      22.006  40.865  89.100  1.00  0.00     0.032 C 
BRANCH   6   7
ATOM      7  C   UNL     1      20.916  39.896  88.706  1.00  0.00    -0.028 C 
ATOM      8  C   UNL     1      20.875  38.770  90.943  1.00  0.00     0.039 C 
ATOM      9  C   UNL     1      20.419  38.931  89.511  1.00  0.00    -0.080 C 
ATOM     10  C   UNL     1      19.368  38.005  88.957  1.00  0.00     0.039 C 
ENDBRANCH   6   7
ENDBRANCH   5   6
ENDBRANCH   3   5
ENDBRANCH   1   2
BRANCH   1  11
ATOM     11  C   UNL     1      21.166  41.664  93.827  1.00  0.00     0.034 C 
BRANCH  11  12
ATOM     12  C   UNL     1      20.270  40.552  94.327  1.00  0.00    -0.077 C 
ATOM     13  C   UNL     1      18.951  40.800  94.502  1.00  0.00    -0.028 C 
ATOM     14  C   UNL     1      20.878  39.204  94.638  1.00  0.00     0.039 C 
BRANCH  13  15
ATOM     15  C   UNL     1      17.944  39.775  94.960  1.00  0.00     0.035 C 
BRANCH  15  16
ATOM     16  C   UNL     1      16.847  39.583  93.907  1.00  0.00     0.079 C 
BRANCH  16  17
ATOM     17  C   UNL     1      17.370  38.802  92.731  1.00  0.00     0.130 C 
ATOM     18  O   UNL     1      17.265  39.266  91.606  1.00  0.00    -0.300 OA
ATOM     19  C   UNL     1      18.027  37.465  92.911  1.00  0.00     0.087 C 
ENDBRANCH  16  17
ENDBRANCH  15  16
ENDBRANCH  13  15
ENDBRANCH  11  12
ENDBRANCH   1  11
TORSDOF 9
ENDMDL
MODEL 3
REMARK VINA RESULT:    -3.226      2.079      4.674
REMARK INTER + INTRA:          -7.347
REMARK INTER:                  -5.383
REMARK INTRA:                  -1.963
REMARK UNBOUND:                -2.423
REMARK SMILES CC(=O)CCC=C(C)CCC=C(C)CCC=C(C)C
REMARK SMILES IDX 10 1 11 2 12 3 13 4 14 5 15 6 16 7 18 8 17 9 19 10 9 11 7 12
REMARK SMILES IDX 6 13 8 14 5 15 4 16 2 17 3 18 1 19
REMARK H PARENT
REMARK Flexibility Score: inf
ROOT
ATOM      1  C   UNL     1      22.266  41.570  88.435  1.00  0.00     0.032 C 
ENDROOT
BRANCH   1   2
ATOM      2  C   UNL     1      21.237  40.488  88.228  1.00  0.00    -0.028 C 
ATOM      3  C   UNL     1      21.045  39.444  89.066  1.00  0.00    -0.077 C 
ATOM      4  C   UNL     1      21.905  39.234  90.290  1.00  0.00     0.039 C 
BRANCH   3   5
ATOM      5  C   UNL     1      19.950  38.442  88.757  1.00  0.00     0.034 C 
BRANCH   5   6
ATOM      6  C   UNL     1      19.528  37.651  90.004  1.00  0.00     0.032 C 
BRANCH   6   7
ATOM      7  C   UNL     1      18.290  38.235  90.644  1.00  0.00    -0.028 C 
ATOM      8  C   UNL     1      18.952  37.545  92.958  1.00  0.00     0.039 C 
ATOM      9  C   UNL     1      18.003  38.169  91.962  1.00  0.00    -0.080 C 
ATOM     10  C   UNL     1      16.701  38.755  92.444  1.00  0.00     0.039 C 
ENDBRANCH   6   7
ENDBRANCH   5   6
ENDBRANCH   3   5
ENDBRANCH   1   2
BRANCH   1  11
ATOM     11  C   UNL     1      21.603  42.867  88.911  1.00  0.00     0.034 C 
BRANCH  11  12
ATOM     12  C   UNL     1      21.585  42.938  90.422  1.00  0.00    -0.077 C 
ATOM     13  C   UNL     1      20.482  42.522  91.086  1.00  0.00    -0.028 C 
ATOM     14  C   UNL     1      22.790  43.493  91.146  1.00  0.00     0.039 C 
BRANCH  13  15
ATOM     15  C   UNL     1      20.345  42.506  92.588  1.00  0.00     0.035 C 
BRANCH  15  16
ATOM     16  C   UNL     1      19.928  41.116  93.081  1.00  0.00     0.079 C 
BRANCH  16  17
ATOM     17  C   UNL     1      19.473  41.175  94.515  1.00  0.00     0.130 C 
ATOM     18  O   UNL     1      18.403  40.675  94.828  1.00  0.00    -0.300 OA
ATOM     19  C   UNL     1      20.311  41.829  95.574  1.00  0.00     0.087 C 
ENDBRANCH  16  17
ENDBRANCH  15  16
ENDBRANCH  13  15
ENDBRANCH  11  12
ENDBRANCH   1  11
TORSDOF 9
ENDMDL
MODEL 4
REMARK VINA RESULT:    -3.190      1.815      3.830
REMARK INTER + INTRA:          -7.291
REMARK INTER:                  -5.226
REMARK INTRA:                  -2.065
REMARK UNBOUND:                -2.423
REMARK SMILES CC(=O)CCC=C(C)CCC=C(C)CCC=C(C)C
REMARK SMILES IDX 10 1 11 2 12 3 13 4 14 5 15 6 16 7 18 8 17 9 19 10 9 11 7 12
REMARK SMILES IDX 6 13 8 14 5 15 4 16 2 17 3 18 1 19
REMARK H PARENT
REMARK Flexibility Score: inf
ROOT
ATOM      1  C   UNL     1      19.851  41.565  94.460  1.00  0.00     0.032 C 
ENDROOT
BRANCH   1   2
ATOM      2  C   UNL     1      18.783  40.616  93.978  1.00  0.00    -0.028 C 
ATOM      3  C   UNL     1      18.910  39.270  93.956  1.00  0.00    -0.077 C 
ATOM      4  C   UNL     1      20.189  38.582  94.372  1.00  0.00     0.039 C 
BRANCH   3   5
ATOM      5  C   UNL     1      17.745  38.427  93.478  1.00  0.00     0.034 C 
BRANCH   5   6
ATOM      6  C   UNL     1      17.182  38.931  92.140  1.00  0.00     0.032 C 
BRANCH   6   7
ATOM      7  C   UNL     1      17.680  38.104  90.978  1.00  0.00    -0.028 C 
ATOM      8  C   UNL     1      19.590  39.645  90.480  1.00  0.00     0.039 C 
ATOM      9  C   UNL     1      18.740  38.427  90.205  1.00  0.00    -0.080 C 
ATOM     10  C   UNL     1      19.084  37.527  89.047  1.00  0.00     0.039 C 
ENDBRANCH   6   7
ENDBRANCH   5   6
ENDBRANCH   3   5
ENDBRANCH   1   2
BRANCH   1  11
ATOM     11  C   UNL     1      20.090  42.679  93.435  1.00  0.00     0.034 C 
BRANCH  11  12
ATOM     12  C   UNL     1      21.247  42.333  92.524  1.00  0.00    -0.077 C 
ATOM     13  C   UNL     1      21.255  42.816  91.260  1.00  0.00    -0.028 C 
ATOM     14  C   UNL     1      22.348  41.438  93.044  1.00  0.00     0.039 C 
BRANCH  13  15
ATOM     15  C   UNL     1      22.360  42.577  90.262  1.00  0.00     0.035 C 
BRANCH  15  16
ATOM     16  C   UNL     1      21.794  42.443  88.845  1.00  0.00     0.079 C 
BRANCH  16  17
ATOM     17  C   UNL     1      22.121  41.091  88.268  1.00  0.00     0.130 C 
ATOM     18  O   UNL     1      23.104  40.487  88.671  1.00  0.00    -0.300 OA
ATOM     19  C   UNL     1      21.260  40.463  87.212  1.00  0.00     0.087 C 
ENDBRANCH  16  17
ENDBRANCH  15  16
ENDBRANCH  13  15
ENDBRANCH  11  12
ENDBRANCH   1  11
TORSDOF 9
ENDMDL
MODEL 5
REMARK VINA RESULT:    -3.134      1.330      4.349
REMARK INTER + INTRA:          -7.206
REMARK INTER:                  -5.244
REMARK INTRA:                  -1.962
REMARK UNBOUND:                -2.423
REMARK SMILES CC(=O)CCC=C(C)CCC=C(C)CCC=C(C)C
REMARK SMILES IDX 10 1 11 2 12 3 13 4 14 5 15 6 16 7 18 8 17 9 19 10 9 11 7 12
REMARK SMILES IDX 6 13 8 14 5 15 4 16 2 17 3 18 1 19
REMARK H PARENT
REMARK Flexibility Score: inf
ROOT
ATOM      1  C   UNL     1      19.469  40.229  95.209  1.00  0.00     0.032 C 
ENDROOT
BRANCH   1   2
ATOM      2  C   UNL     1      20.231  41.527  95.123  1.00  0.00    -0.028 C 
ATOM      3  C   UNL     1      21.447  41.664  94.546  1.00  0.00    -0.077 C 
ATOM      4  C   UNL     1      22.193  40.485  93.968  1.00  0.00     0.039 C 
BRANCH   3   5
ATOM      5  C   UNL     1      22.089  43.036  94.497  1.00  0.00     0.034 C 
BRANCH   5   6
ATOM      6  C   UNL     1      21.496  43.908  93.380  1.00  0.00     0.032 C 
BRANCH   6   7
ATOM      7  C   UNL     1      22.236  43.727  92.077  1.00  0.00    -0.028 C 
ATOM      8  C   UNL     1      20.457  42.280  91.071  1.00  0.00     0.039 C 
ATOM      9  C   UNL     1      21.798  42.975  91.043  1.00  0.00    -0.080 C 
ATOM     10  C   UNL     1      22.674  42.848  89.824  1.00  0.00     0.039 C 
ENDBRANCH   6   7
ENDBRANCH   5   6
ENDBRANCH   3   5
ENDBRANCH   1   2
BRANCH   1  11
ATOM     11  C   UNL     1      18.034  40.406  94.703  1.00  0.00     0.034 C 
BRANCH  11  12
ATOM     12  C   UNL     1      17.776  39.529  93.498  1.00  0.00    -0.077 C 
ATOM     13  C   UNL     1      18.759  39.364  92.583  1.00  0.00    -0.028 C 
ATOM     14  C   UNL     1      16.421  38.880  93.340  1.00  0.00     0.039 C 
BRANCH  13  15
ATOM     15  C   UNL     1      18.647  38.491  91.358  1.00  0.00     0.035 C 
BRANCH  15  16
ATOM     16  C   UNL     1      20.024  38.261  90.727  1.00  0.00     0.079 C 
BRANCH  16  17
ATOM     17  C   UNL     1      19.963  38.452  89.234  1.00  0.00     0.130 C 
ATOM     18  O   UNL     1      19.236  37.732  88.565  1.00  0.00    -0.300 OA
ATOM     19  C   UNL     1      20.769  39.515  88.549  1.00  0.00     0.087 C 
ENDBRANCH  16  17
ENDBRANCH  15  16
ENDBRANCH  13  15
ENDBRANCH  11  12
ENDBRANCH   1  11
TORSDOF 9
ENDMDL
MODEL 6
REMARK VINA RESULT:    -3.113      2.471      5.488
REMARK INTER + INTRA:          -7.175
REMARK INTER:                  -4.810
REMARK INTRA:                  -2.365
REMARK UNBOUND:                -2.423
REMARK SMILES CC(=O)CCC=C(C)CCC=C(C)CCC=C(C)C
REMARK SMILES IDX 10 1 11 2 12 3 13 4 14 5 15 6 16 7 18 8 17 9 19 10 9 11 7 12
REMARK SMILES IDX 6 13 8 14 5 15 4 16 2 17 3 18 1 19
REMARK H PARENT
REMARK Flexibility Score: inf
ROOT
ATOM      1  C   UNL     1      21.169  39.150  88.978  1.00  0.00     0.032 C 
ENDROOT
BRANCH   1   2
ATOM      2  C   UNL     1      19.813  38.503  88.840  1.00  0.00    -0.028 C 
ATOM      3  C   UNL     1      19.556  37.202  89.106  1.00  0.00    -0.077 C 
ATOM      4  C   UNL     1      20.645  36.242  89.525  1.00  0.00     0.039 C 
BRANCH   3   5
ATOM      5  C   UNL     1      18.139  36.685  88.958  1.00  0.00     0.034 C 
BRANCH   5   6
ATOM      6  C   UNL     1      17.539  36.261  90.307  1.00  0.00     0.032 C 
BRANCH   6   7
ATOM      7  C   UNL     1      17.049  37.449  91.099  1.00  0.00    -0.028 C 
ATOM      8  C   UNL     1      18.964  37.379  92.712  1.00  0.00     0.039 C 
ATOM      9  C   UNL     1      17.661  37.944  92.198  1.00  0.00    -0.080 C 
ATOM     10  C   UNL     1      17.021  39.106  92.913  1.00  0.00     0.039 C 
ENDBRANCH   6   7
ENDBRANCH   5   6
ENDBRANCH   3   5
ENDBRANCH   1   2
BRANCH   1  11
ATOM     11  C   UNL     1      21.043  40.550  89.586  1.00  0.00     0.034 C 
BRANCH  11  12
ATOM     12  C   UNL     1      20.975  40.477  91.096  1.00  0.00    -0.077 C 
ATOM     13  C   UNL     1      20.105  41.278  91.754  1.00  0.00    -0.028 C 
ATOM     14  C   UNL     1      21.897  39.529  91.826  1.00  0.00     0.039 C 
BRANCH  13  15
ATOM     15  C   UNL     1      19.912  41.281  93.250  1.00  0.00     0.035 C 
BRANCH  15  16
ATOM     16  C   UNL     1      20.153  42.680  93.826  1.00  0.00     0.079 C 
BRANCH  16  17
ATOM     17  C   UNL     1      21.609  43.050  93.734  1.00  0.00     0.130 C 
ATOM     18  O   UNL     1      22.449  42.320  94.240  1.00  0.00    -0.300 OA
ATOM     19  C   UNL     1      22.056  44.295  93.026  1.00  0.00     0.087 C 
ENDBRANCH  16  17
ENDBRANCH  15  16
ENDBRANCH  13  15
ENDBRANCH  11  12
ENDBRANCH   1  11
TORSDOF 9
ENDMDL
MODEL 7
REMARK VINA RESULT:    -3.078      2.209      5.045
REMARK INTER + INTRA:          -7.121
REMARK INTER:                  -5.550
REMARK INTRA:                  -1.571
REMARK UNBOUND:                -2.423
REMARK SMILES CC(=O)CCC=C(C)CCC=C(C)CCC=C(C)C
REMARK SMILES IDX 10 1 11 2 12 3 13 4 14 5 15 6 16 7 18 8 17 9 19 10 9 11 7 12
REMARK SMILES IDX 6 13 8 14 5 15 4 16 2 17 3 18 1 19
REMARK H PARENT
REMARK Flexibility Score: inf
ROOT
ATOM      1  C   UNL     1      20.128  42.711  94.643  1.00  0.00     0.032 C 
ENDROOT
BRANCH   1   2
ATOM      2  C   UNL     1      20.606  42.644  93.214  1.00  0.00    -0.028 C 
ATOM      3  C   UNL     1      21.599  43.408  92.703  1.00  0.00    -0.077 C 
ATOM      4  C   UNL     1      22.298  44.464  93.528  1.00  0.00     0.039 C 
BRANCH   3   5
ATOM      5  C   UNL     1      22.006  43.217  91.256  1.00  0.00     0.034 C 
BRANCH   5   6
ATOM      6  C   UNL     1      20.860  42.645  90.408  1.00  0.00     0.032 C 
BRANCH   6   7
ATOM      7  C   UNL     1      21.238  41.330  89.770  1.00  0.00    -0.028 C 
ATOM      8  C   UNL     1      19.313  40.089  90.783  1.00  0.00     0.039 C 
ATOM      9  C   UNL     1      20.572  40.168  89.953  1.00  0.00    -0.080 C 
ATOM     10  C   UNL     1      21.103  38.925  89.289  1.00  0.00     0.039 C 
ENDBRANCH   6   7
ENDBRANCH   5   6
ENDBRANCH   3   5
ENDBRANCH   1   2
BRANCH   1  11
ATOM     11  C   UNL     1      20.335  41.367  95.349  1.00  0.00     0.034 C 
BRANCH  11  12
ATOM     12  C   UNL     1      19.550  40.272  94.662  1.00  0.00    -0.077 C 
ATOM     13  C   UNL     1      18.208  40.400  94.546  1.00  0.00    -0.028 C 
ATOM     14  C   UNL     1      20.284  39.056  94.145  1.00  0.00     0.039 C 
BRANCH  13  15
ATOM     15  C   UNL     1      17.312  39.402  93.855  1.00  0.00     0.035 C 
BRANCH  15  16
ATOM     16  C   UNL     1      15.890  39.466  94.420  1.00  0.00     0.079 C 
BRANCH  16  17
ATOM     17  C   UNL     1      14.944  38.658  93.572  1.00  0.00     0.130 C 
ATOM     18  O   UNL     1      13.839  38.371  94.008  1.00  0.00    -0.300 OA
ATOM     19  C   UNL     1      15.325  38.204  92.194  1.00  0.00     0.087 C 
ENDBRANCH  16  17
ENDBRANCH  15  16
ENDBRANCH  13  15
ENDBRANCH  11  12
ENDBRANCH   1  11
TORSDOF 9
ENDMDL
MODEL 8
REMARK VINA RESULT:    -3.060      1.679      2.796
REMARK INTER + INTRA:          -7.093
REMARK INTER:                  -5.349
REMARK INTRA:                  -1.744
REMARK UNBOUND:                -2.423
REMARK SMILES CC(=O)CCC=C(C)CCC=C(C)CCC=C(C)C
REMARK SMILES IDX 10 1 11 2 12 3 13 4 14 5 15 6 16 7 18 8 17 9 19 10 9 11 7 12
REMARK SMILES IDX 6 13 8 14 5 15 4 16 2 17 3 18 1 19
REMARK H PARENT
REMARK Flexibility Score: inf
ROOT
ATOM      1  C   UNL     1      21.737  42.985  88.981  1.00  0.00     0.032 C 
ENDROOT
BRANCH   1   2
ATOM      2  C   UNL     1      21.809  43.330  90.448  1.00  0.00    -0.028 C 
ATOM      3  C   UNL     1      21.117  42.692  91.419  1.00  0.00    -0.077 C 
ATOM      4  C   UNL     1      20.142  41.581  91.106  1.00  0.00     0.039 C 
BRANCH   3   5
ATOM      5  C   UNL     1      21.308  43.117  92.861  1.00  0.00     0.034 C 
BRANCH   5   6
ATOM      6  C   UNL     1      20.111  42.722  93.739  1.00  0.00     0.032 C 
BRANCH   6   7
ATOM      7  C   UNL     1      20.457  41.594  94.682  1.00  0.00    -0.028 C 
ATOM      8  C   UNL     1      18.278  40.410  94.338  1.00  0.00     0.039 C 
ATOM      9  C   UNL     1      19.634  40.565  94.984  1.00  0.00    -0.080 C 
ATOM     10  C   UNL     1      20.103  39.541  95.984  1.00  0.00     0.039 C 
ENDBRANCH   6   7
ENDBRANCH   5   6
ENDBRANCH   3   5
ENDBRANCH   1   2
BRANCH   1  11
ATOM     11  C   UNL     1      22.850  42.005  88.598  1.00  0.00     0.034 C 
BRANCH  11  12
ATOM     12  C   UNL     1      22.292  40.617  88.372  1.00  0.00    -0.077 C 
ATOM     13  C   UNL     1      22.679  39.612  89.192  1.00  0.00    -0.028 C 
ATOM     14  C   UNL     1      21.335  40.388  87.226  1.00  0.00     0.039 C 
BRANCH  13  15
ATOM     15  C   UNL     1      22.174  38.194  89.100  1.00  0.00     0.035 C 
BRANCH  15  16
ATOM     16  C   UNL     1      21.445  37.793  90.387  1.00  0.00     0.079 C 
BRANCH  16  17
ATOM     17  C   UNL     1      19.953  37.874  90.200  1.00  0.00     0.130 C 
ATOM     18  O   UNL     1      19.235  38.069  91.169  1.00  0.00    -0.300 OA
ATOM     19  C   UNL     1      19.327  37.730  88.844  1.00  0.00     0.087 C 
ENDBRANCH  16  17
ENDBRANCH  15  16
ENDBRANCH  13  15
ENDBRANCH  11  12
ENDBRANCH   1  11
TORSDOF 9
ENDMDL
MODEL 9
REMARK VINA RESULT:    -3.022      2.498      6.128
REMARK INTER + INTRA:          -7.035
REMARK INTER:                  -4.464
REMARK INTRA:                  -2.572
REMARK UNBOUND:                -2.423
REMARK SMILES CC(=O)CCC=C(C)CCC=C(C)CCC=C(C)C
REMARK SMILES IDX 10 1 11 2 12 3 13 4 14 5 15 6 16 7 18 8 17 9 19 10 9 11 7 12
REMARK SMILES IDX 6 13 8 14 5 15 4 16 2 17 3 18 1 19
REMARK H PARENT
REMARK Flexibility Score: inf
ROOT
ATOM      1  C   UNL     1      18.507  37.457  93.557  1.00  0.00     0.032 C 
ENDROOT
BRANCH   1   2
ATOM      2  C   UNL     1      18.333  36.900  92.166  1.00  0.00    -0.028 C 
ATOM      3  C   UNL     1      17.559  37.461  91.208  1.00  0.00    -0.077 C 
ATOM      4  C   UNL     1      16.736  38.700  91.472  1.00  0.00     0.039 C 
BRANCH   3   5
ATOM      5  C   UNL     1      17.499  36.817  89.838  1.00  0.00     0.034 C 
BRANCH   5   6
ATOM      6  C   UNL     1      18.886  36.728  89.184  1.00  0.00     0.032 C 
BRANCH   6   7
ATOM      7  C   UNL     1      19.442  38.095  88.865  1.00  0.00    -0.028 C 
ATOM      8  C   UNL     1      21.480  37.786  90.287  1.00  0.00     0.039 C 
ATOM      9  C   UNL     1      20.589  38.596  89.375  1.00  0.00    -0.080 C 
ATOM     10  C   UNL     1      20.987  40.000  89.001  1.00  0.00     0.039 C 
ENDBRANCH   6   7
ENDBRANCH   5   6
ENDBRANCH   3   5
ENDBRANCH   1   2
BRANCH   1  11
ATOM     11  C   UNL     1      19.820  38.238  93.669  1.00  0.00     0.034 C 
BRANCH  11  12
ATOM     12  C   UNL     1      19.580  39.722  93.505  1.00  0.00    -0.077 C 
ATOM     13  C   UNL     1      20.341  40.419  92.630  1.00  0.00    -0.028 C 
ATOM     14  C   UNL     1      18.511  40.389  94.340  1.00  0.00     0.039 C 
BRANCH  13  15
ATOM     15  C   UNL     1      20.184  41.891  92.344  1.00  0.00     0.035 C 
BRANCH  15  16
ATOM     16  C   UNL     1      21.491  42.641  92.618  1.00  0.00     0.079 C 
BRANCH  16  17
ATOM     17  C   UNL     1      21.810  42.634  94.090  1.00  0.00     0.130 C 
ATOM     18  O   UNL     1      22.877  42.178  94.472  1.00  0.00    -0.300 OA
ATOM     19  C   UNL     1      20.847  43.185  95.099  1.00  0.00     0.087 C 
ENDBRANCH  16  17
ENDBRANCH  15  16
ENDBRANCH  13  15
ENDBRANCH  11  12
ENDBRANCH   1  11
TORSDOF 9
ENDMDL
