MODEL 1
REMARK VINA RESULT:    -5.092      0.000      0.000
REMARK INTER + INTRA:         -15.532
REMARK INTER:                 -13.426
REMARK INTRA:                  -2.106
REMARK UNBOUND:                -2.106
REMARK SMILES CCCCCCCCCCCCCCCCCCCCCCCCCCCCCC(=O)[O-]
REMARK SMILES IDX 16 1 17 2 18 3 19 4 20 5 21 6 22 7 23 8 24 9 25 10 26 11
REMARK SMILES IDX 27 12 28 13 29 14 30 15 31 16 32 17 15 18 14 19 13 20 12 21
REMARK SMILES IDX 11 22 10 23 9 24 8 25 7 26 6 27 5 28 4 29 3 30 2 31 1 32
REMARK H PARENT
REMARK Flexibility Score: inf
ROOT
ATOM      1  C   UNL     1      34.639  31.667  13.229  1.00  0.00     0.000 C 
ENDROOT
BRANCH   1   2
ATOM      2  C   UNL     1      33.776  30.488  12.753  1.00  0.00     0.000 C 
BRANCH   2   3
ATOM      3  C   UNL     1      32.799  30.887  11.634  1.00  0.00     0.000 C 
BRANCH   3   4
ATOM      4  C   UNL     1      31.652  29.877  11.456  1.00  0.00     0.000 C 
BRANCH   4   5
ATOM      5  C   UNL     1      30.812  30.168  10.195  1.00  0.00     0.000 C 
BRANCH   5   6
ATOM      6  C   UNL     1      31.574  30.939   9.105  1.00  0.00     0.000 C 
BRANCH   6   7
ATOM      7  C   UNL     1      30.637  31.603   8.084  1.00  0.00     0.000 C 
BRANCH   7   8
ATOM      8  C   UNL     1      30.469  33.118   8.312  1.00  0.00     0.000 C 
BRANCH   8   9
ATOM      9  C   UNL     1      29.098  33.559   8.860  1.00  0.00     0.000 C 
BRANCH   9  10
ATOM     10  C   UNL     1      27.924  32.775   8.249  1.00  0.00     0.000 C 
BRANCH  10  11
ATOM     11  C   UNL     1      27.044  32.102   9.316  1.00  0.00     0.000 C 
BRANCH  11  12
ATOM     12  C   UNL     1      27.737  31.997  10.682  1.00  0.00     0.000 C 
BRANCH  12  13
ATOM     13  C   UNL     1      27.044  32.900  11.716  1.00  0.00     0.006 C 
BRANCH  13  14
ATOM     14  C   UNL     1      27.540  32.637  13.145  1.00  0.00     0.053 C 
BRANCH  14  15
ATOM     15  C   UNL     1      27.467  31.184  13.501  1.00  0.00     0.041 C 
ATOM     16  O   UNL     1      26.350  30.634  13.693  1.00  0.00    -0.550 OA
ATOM     17  O   UNL     1      28.629  30.427  13.584  1.00  0.00    -0.550 OA
ENDBRANCH  14  15
ENDBRANCH  13  14
ENDBRANCH  12  13
ENDBRANCH  11  12
ENDBRANCH  10  11
ENDBRANCH   9  10
ENDBRANCH   8   9
ENDBRANCH   7   8
ENDBRANCH   6   7
ENDBRANCH   5   6
ENDBRANCH   4   5
ENDBRANCH   3   4
ENDBRANCH   2   3
ENDBRANCH   1   2
BRANCH   1  18
ATOM     18  C   UNL     1      36.110  31.251  13.383  1.00  0.00     0.000 C 
BRANCH  18  19
ATOM     19  C   UNL     1      36.770  31.868  14.629  1.00  0.00     0.000 C 
BRANCH  19  20
ATOM     20  C   UNL     1      38.007  31.078  15.091  1.00  0.00     0.000 C 
BRANCH  20  21
ATOM     21  C   UNL     1      38.259  29.812  14.252  1.00  0.00     0.000 C 
BRANCH  21  22
ATOM     22  C   UNL     1      39.691  29.666  13.707  1.00  0.00     0.000 C 
BRANCH  22  23
ATOM     23  C   UNL     1      40.658  29.039  14.722  1.00  0.00     0.000 C 
BRANCH  23  24
ATOM     24  C   UNL     1      41.618  30.092  15.289  1.00  0.00    -0.000 C 
BRANCH  24  25
ATOM     25  C   UNL     1      41.261  30.440  16.739  1.00  0.00    -0.000 C 
BRANCH  25  26
ATOM     26  C   UNL     1      42.452  30.186  17.673  1.00  0.00    -0.000 C 
BRANCH  26  27
ATOM     27  C   UNL     1      42.837  28.698  17.769  1.00  0.00    -0.000 C 
BRANCH  27  28
ATOM     28  C   UNL     1      43.210  28.209  19.181  1.00  0.00    -0.000 C 
BRANCH  28  29
ATOM     29  C   UNL     1      43.962  29.269  20.004  1.00  0.00    -0.000 C 
BRANCH  29  30
ATOM     30  C   UNL     1      44.702  28.662  21.207  1.00  0.00    -0.000 C 
BRANCH  30  31
ATOM     31  C   UNL     1      43.752  28.247  22.339  1.00  0.00    -0.003 C 
ATOM     32  C   UNL     1      43.603  29.364  23.369  1.00  0.00     0.004 C 
ENDBRANCH  30  31
ENDBRANCH  29  30
ENDBRANCH  28  29
ENDBRANCH  27  28
ENDBRANCH  26  27
ENDBRANCH  25  26
ENDBRANCH  24  25
ENDBRANCH  23  24
ENDBRANCH  22  23
ENDBRANCH  21  22
ENDBRANCH  20  21
ENDBRANCH  19  20
ENDBRANCH  18  19
ENDBRANCH   1  18
TORSDOF 28
ENDMDL
MODEL 2
REMARK VINA RESULT:    -4.953      4.390     13.615
REMARK INTER + INTRA:         -15.167
REMARK INTER:                 -11.929
REMARK INTRA:                  -3.238
REMARK UNBOUND:                -2.106
REMARK SMILES CCCCCCCCCCCCCCCCCCCCCCCCCCCCCC(=O)[O-]
REMARK SMILES IDX 16 1 17 2 18 3 19 4 20 5 21 6 22 7 23 8 24 9 25 10 26 11
REMARK SMILES IDX 27 12 28 13 29 14 30 15 31 16 32 17 15 18 14 19 13 20 12 21
REMARK SMILES IDX 11 22 10 23 9 24 8 25 7 26 6 27 5 28 4 29 3 30 2 31 1 32
REMARK H PARENT
REMARK Flexibility Score: inf
ROOT
ATOM      1  C   UNL     1      30.553  28.985  10.493  1.00  0.00     0.000 C 
ENDROOT
BRANCH   1   2
ATOM      2  C   UNL     1      31.086  29.803  11.680  1.00  0.00     0.000 C 
BRANCH   2   3
ATOM      3  C   UNL     1      32.363  30.585  11.332  1.00  0.00     0.000 C 
BRANCH   3   4
ATOM      4  C   UNL     1      33.462  30.437  12.398  1.00  0.00     0.000 C 
BRANCH   4   5
ATOM      5  C   UNL     1      34.082  31.796  12.785  1.00  0.00     0.000 C 
BRANCH   5   6
ATOM      6  C   UNL     1      35.419  31.678  13.536  1.00  0.00     0.000 C 
BRANCH   6   7
ATOM      7  C   UNL     1      35.426  30.530  14.558  1.00  0.00     0.000 C 
BRANCH   7   8
ATOM      8  C   UNL     1      36.755  30.414  15.328  1.00  0.00     0.000 C 
BRANCH   8   9
ATOM      9  C   UNL     1      38.028  30.686  14.502  1.00  0.00     0.000 C 
BRANCH   9  10
ATOM     10  C   UNL     1      38.621  29.413  13.872  1.00  0.00     0.000 C 
BRANCH  10  11
ATOM     11  C   UNL     1      40.147  29.494  13.703  1.00  0.00     0.000 C 
BRANCH  11  12
ATOM     12  C   UNL     1      40.910  29.076  14.968  1.00  0.00     0.000 C 
BRANCH  12  13
ATOM     13  C   UNL     1      41.656  30.275  15.576  1.00  0.00     0.006 C 
BRANCH  13  14
ATOM     14  C   UNL     1      41.457  30.377  17.095  1.00  0.00     0.053 C 
BRANCH  14  15
ATOM     15  C   UNL     1      42.637  29.847  17.849  1.00  0.00     0.041 C 
ATOM     16  O   UNL     1      43.741  30.454  17.805  1.00  0.00    -0.550 OA
ATOM     17  O   UNL     1      42.510  28.706  18.631  1.00  0.00    -0.550 OA
ENDBRANCH  14  15
ENDBRANCH  13  14
ENDBRANCH  12  13
ENDBRANCH  11  12
ENDBRANCH  10  11
ENDBRANCH   9  10
ENDBRANCH   8   9
ENDBRANCH   7   8
ENDBRANCH   6   7
ENDBRANCH   5   6
ENDBRANCH   4   5
ENDBRANCH   3   4
ENDBRANCH   2   3
ENDBRANCH   1   2
BRANCH   1  18
ATOM     18  C   UNL     1      29.202  28.334  10.828  1.00  0.00     0.000 C 
BRANCH  18  19
ATOM     19  C   UNL     1      28.895  28.356  12.335  1.00  0.00     0.000 C 
BRANCH  19  20
ATOM     20  C   UNL     1      27.385  28.334  12.629  1.00  0.00     0.000 C 
BRANCH  20  21
ATOM     21  C   UNL     1      26.861  29.672  13.183  1.00  0.00     0.000 C 
BRANCH  21  22
ATOM     22  C   UNL     1      27.881  30.825  13.175  1.00  0.00     0.000 C 
BRANCH  22  23
ATOM     23  C   UNL     1      27.486  31.969  12.228  1.00  0.00     0.000 C 
BRANCH  23  24
ATOM     24  C   UNL     1      26.922  31.421  10.912  1.00  0.00    -0.000 C 
BRANCH  24  25
ATOM     25  C   UNL     1      27.925  31.596   9.766  1.00  0.00    -0.000 C 
BRANCH  25  26
ATOM     26  C   UNL     1      28.485  33.025   9.740  1.00  0.00    -0.000 C 
BRANCH  26  27
ATOM     27  C   UNL     1      29.304  33.330   8.472  1.00  0.00    -0.000 C 
BRANCH  27  28
ATOM     28  C   UNL     1      30.797  32.962   8.554  1.00  0.00    -0.000 C 
BRANCH  28  29
ATOM     29  C   UNL     1      31.232  31.970   7.462  1.00  0.00    -0.000 C 
BRANCH  29  30
ATOM     30  C   UNL     1      30.225  30.825   7.273  1.00  0.00    -0.000 C 
BRANCH  30  31
ATOM     31  C   UNL     1      29.987  30.484   5.795  1.00  0.00    -0.003 C 
ATOM     32  C   UNL     1      30.809  31.391   4.882  1.00  0.00     0.004 C 
ENDBRANCH  30  31
ENDBRANCH  29  30
ENDBRANCH  28  29
ENDBRANCH  27  28
ENDBRANCH  26  27
ENDBRANCH  25  26
ENDBRANCH  24  25
ENDBRANCH  23  24
ENDBRANCH  22  23
ENDBRANCH  21  22
ENDBRANCH  20  21
ENDBRANCH  19  20
ENDBRANCH  18  19
ENDBRANCH   1  18
TORSDOF 28
ENDMDL
MODEL 3
REMARK VINA RESULT:    -4.895      2.723      6.164
REMARK INTER + INTRA:         -15.013
REMARK INTER:                 -11.596
REMARK INTRA:                  -3.417
REMARK UNBOUND:                -2.106
REMARK SMILES CCCCCCCCCCCCCCCCCCCCCCCCCCCCCC(=O)[O-]
REMARK SMILES IDX 16 1 17 2 18 3 19 4 20 5 21 6 22 7 23 8 24 9 25 10 26 11
REMARK SMILES IDX 27 12 28 13 29 14 30 15 31 16 32 17 15 18 14 19 13 20 12 21
REMARK SMILES IDX 11 22 10 23 9 24 8 25 7 26 6 27 5 28 4 29 3 30 2 31 1 32
REMARK H PARENT
REMARK Flexibility Score: inf
ROOT
ATOM      1  C   UNL     1      29.201  29.605  12.377  1.00  0.00     0.000 C 
ENDROOT
BRANCH   1   2
ATOM      2  C   UNL     1      28.346  28.394  12.785  1.00  0.00     0.000 C 
BRANCH   2   3
ATOM      3  C   UNL     1      27.248  28.074  11.757  1.00  0.00     0.000 C 
BRANCH   3   4
ATOM      4  C   UNL     1      25.906  28.749  12.090  1.00  0.00     0.000 C 
BRANCH   4   5
ATOM      5  C   UNL     1      25.682  28.876  13.611  1.00  0.00     0.000 C 
BRANCH   5   6
ATOM      6  C   UNL     1      25.631  30.329  14.113  1.00  0.00     0.000 C 
BRANCH   6   7
ATOM      7  C   UNL     1      25.633  31.352  12.966  1.00  0.00     0.000 C 
BRANCH   7   8
ATOM      8  C   UNL     1      26.838  32.311  13.013  1.00  0.00     0.000 C 
BRANCH   8   9
ATOM      9  C   UNL     1      27.298  32.865  11.650  1.00  0.00     0.000 C 
BRANCH   9  10
ATOM     10  C   UNL     1      26.536  32.254  10.462  1.00  0.00     0.000 C 
BRANCH  10  11
ATOM     11  C   UNL     1      27.106  32.695   9.103  1.00  0.00     0.000 C 
BRANCH  11  12
ATOM     12  C   UNL     1      28.336  33.603   9.239  1.00  0.00     0.000 C 
BRANCH  12  13
ATOM     13  C   UNL     1      29.584  32.922   8.653  1.00  0.00     0.006 C 
BRANCH  13  14
ATOM     14  C   UNL     1      29.228  31.803   7.665  1.00  0.00     0.053 C 
BRANCH  14  15
ATOM     15  C   UNL     1      29.476  32.213   6.246  1.00  0.00     0.041 C 
ATOM     16  O   UNL     1      28.958  33.268   5.792  1.00  0.00    -0.550 OA
ATOM     17  O   UNL     1      30.307  31.451   5.435  1.00  0.00    -0.550 OA
ENDBRANCH  14  15
ENDBRANCH  13  14
ENDBRANCH  12  13
ENDBRANCH  11  12
ENDBRANCH  10  11
ENDBRANCH   9  10
ENDBRANCH   8   9
ENDBRANCH   7   8
ENDBRANCH   6   7
ENDBRANCH   5   6
ENDBRANCH   4   5
ENDBRANCH   3   4
ENDBRANCH   2   3
ENDBRANCH   1   2
BRANCH   1  18
ATOM     18  C   UNL     1      29.375  29.673  10.852  1.00  0.00     0.000 C 
BRANCH  18  19
ATOM     19  C   UNL     1      30.845  29.846  10.434  1.00  0.00     0.000 C 
BRANCH  19  20
ATOM     20  C   UNL     1      31.811  29.764  11.629  1.00  0.00     0.000 C 
BRANCH  20  21
ATOM     21  C   UNL     1      32.845  30.905  11.645  1.00  0.00     0.000 C 
BRANCH  21  22
ATOM     22  C   UNL     1      33.923  30.792  12.737  1.00  0.00     0.000 C 
BRANCH  22  23
ATOM     23  C   UNL     1      34.537  32.148  13.116  1.00  0.00     0.000 C 
BRANCH  23  24
ATOM     24  C   UNL     1      35.660  31.974  14.146  1.00  0.00    -0.000 C 
BRANCH  24  25
ATOM     25  C   UNL     1      35.733  30.524  14.642  1.00  0.00    -0.000 C 
BRANCH  25  26
ATOM     26  C   UNL     1      37.155  30.174  15.102  1.00  0.00    -0.000 C 
BRANCH  26  27
ATOM     27  C   UNL     1      38.180  30.181  13.953  1.00  0.00    -0.000 C 
BRANCH  27  28
ATOM     28  C   UNL     1      39.509  29.465  14.258  1.00  0.00    -0.000 C 
BRANCH  28  29
ATOM     29  C   UNL     1      40.463  30.309  15.120  1.00  0.00    -0.000 C 
BRANCH  29  30
ATOM     30  C   UNL     1      41.423  29.445  15.952  1.00  0.00    -0.000 C 
BRANCH  30  31
ATOM     31  C   UNL     1      42.001  30.197  17.159  1.00  0.00    -0.003 C 
ATOM     32  C   UNL     1      42.472  29.226  18.238  1.00  0.00     0.004 C 
ENDBRANCH  30  31
ENDBRANCH  29  30
ENDBRANCH  28  29
ENDBRANCH  27  28
ENDBRANCH  26  27
ENDBRANCH  25  26
ENDBRANCH  24  25
ENDBRANCH  23  24
ENDBRANCH  22  23
ENDBRANCH  21  22
ENDBRANCH  20  21
ENDBRANCH  19  20
ENDBRANCH  18  19
ENDBRANCH   1  18
TORSDOF 28
ENDMDL
MODEL 4
REMARK VINA RESULT:    -4.889      2.377      4.490
REMARK INTER + INTRA:         -14.997
REMARK INTER:                 -12.457
REMARK INTRA:                  -2.541
REMARK UNBOUND:                -2.106
REMARK SMILES CCCCCCCCCCCCCCCCCCCCCCCCCCCCCC(=O)[O-]
REMARK SMILES IDX 16 1 17 2 18 3 19 4 20 5 21 6 22 7 23 8 24 9 25 10 26 11
REMARK SMILES IDX 27 12 28 13 29 14 30 15 31 16 32 17 15 18 14 19 13 20 12 21
REMARK SMILES IDX 11 22 10 23 9 24 8 25 7 26 6 27 5 28 4 29 3 30 2 31 1 32
REMARK H PARENT
REMARK Flexibility Score: inf
ROOT
ATOM      1  C   UNL     1      32.731  30.913  11.258  1.00  0.00     0.000 C 
ENDROOT
BRANCH   1   2
ATOM      2  C   UNL     1      31.815  29.750  11.670  1.00  0.00     0.000 C 
BRANCH   2   3
ATOM      3  C   UNL     1      30.493  29.733  10.885  1.00  0.00     0.000 C 
BRANCH   3   4
ATOM      4  C   UNL     1      29.549  28.604  11.332  1.00  0.00     0.000 C 
BRANCH   4   5
ATOM      5  C   UNL     1      28.198  29.145  11.844  1.00  0.00     0.000 C 
BRANCH   5   6
ATOM      6  C   UNL     1      28.162  30.674  12.010  1.00  0.00     0.000 C 
BRANCH   6   7
ATOM      7  C   UNL     1      27.535  31.111  13.343  1.00  0.00     0.000 C 
BRANCH   7   8
ATOM      8  C   UNL     1      26.312  32.030  13.163  1.00  0.00     0.000 C 
BRANCH   8   9
ATOM      9  C   UNL     1      26.631  33.504  12.842  1.00  0.00     0.000 C 
BRANCH   9  10
ATOM     10  C   UNL     1      26.283  33.895  11.396  1.00  0.00     0.000 C 
BRANCH  10  11
ATOM     11  C   UNL     1      27.516  33.918  10.477  1.00  0.00     0.000 C 
BRANCH  11  12
ATOM     12  C   UNL     1      27.379  32.980   9.270  1.00  0.00     0.000 C 
BRANCH  12  13
ATOM     13  C   UNL     1      28.744  32.392   8.878  1.00  0.00     0.006 C 
BRANCH  13  14
ATOM     14  C   UNL     1      29.639  33.417   8.167  1.00  0.00     0.053 C 
BRANCH  14  15
ATOM     15  C   UNL     1      30.994  32.858   7.862  1.00  0.00     0.041 C 
ATOM     16  O   UNL     1      31.927  32.966   8.702  1.00  0.00    -0.550 OA
ATOM     17  O   UNL     1      31.219  32.186   6.667  1.00  0.00    -0.550 OA
ENDBRANCH  14  15
ENDBRANCH  13  14
ENDBRANCH  12  13
ENDBRANCH  11  12
ENDBRANCH  10  11
ENDBRANCH   9  10
ENDBRANCH   8   9
ENDBRANCH   7   8
ENDBRANCH   6   7
ENDBRANCH   5   6
ENDBRANCH   4   5
ENDBRANCH   3   4
ENDBRANCH   2   3
ENDBRANCH   1   2
BRANCH   1  18
ATOM     18  C   UNL     1      33.674  31.311  12.404  1.00  0.00     0.000 C 
BRANCH  18  19
ATOM     19  C   UNL     1      34.254  30.091  13.140  1.00  0.00     0.000 C 
BRANCH  19  20
ATOM     20  C   UNL     1      35.147  30.490  14.327  1.00  0.00     0.000 C 
BRANCH  20  21
ATOM     21  C   UNL     1      35.798  31.875  14.151  1.00  0.00     0.000 C 
BRANCH  21  22
ATOM     22  C   UNL     1      37.248  31.982  14.654  1.00  0.00     0.000 C 
BRANCH  22  23
ATOM     23  C   UNL     1      37.916  30.613  14.855  1.00  0.00     0.000 C 
BRANCH  23  24
ATOM     24  C   UNL     1      38.560  30.121  13.553  1.00  0.00    -0.000 C 
BRANCH  24  25
ATOM     25  C   UNL     1      39.137  28.711  13.722  1.00  0.00    -0.000 C 
BRANCH  25  26
ATOM     26  C   UNL     1      40.401  28.530  12.870  1.00  0.00    -0.000 C 
BRANCH  26  27
ATOM     27  C   UNL     1      41.680  29.013  13.578  1.00  0.00    -0.000 C 
BRANCH  27  28
ATOM     28  C   UNL     1      41.634  28.965  15.116  1.00  0.00    -0.000 C 
BRANCH  28  29
ATOM     29  C   UNL     1      41.599  30.362  15.760  1.00  0.00    -0.000 C 
BRANCH  29  30
ATOM     30  C   UNL     1      41.547  30.300  17.294  1.00  0.00    -0.000 C 
BRANCH  30  31
ATOM     31  C   UNL     1      42.914  29.986  17.920  1.00  0.00    -0.003 C 
ATOM     32  C   UNL     1      42.886  28.651  18.660  1.00  0.00     0.004 C 
ENDBRANCH  30  31
ENDBRANCH  29  30
ENDBRANCH  28  29
ENDBRANCH  27  28
ENDBRANCH  26  27
ENDBRANCH  25  26
ENDBRANCH  24  25
ENDBRANCH  23  24
ENDBRANCH  22  23
ENDBRANCH  21  22
ENDBRANCH  20  21
ENDBRANCH  19  20
ENDBRANCH  18  19
ENDBRANCH   1  18
TORSDOF 28
ENDMDL
MODEL 5
REMARK VINA RESULT:    -4.792      1.895      3.026
REMARK INTER + INTRA:         -14.741
REMARK INTER:                 -12.716
REMARK INTRA:                  -2.026
REMARK UNBOUND:                -2.106
REMARK SMILES CCCCCCCCCCCCCCCCCCCCCCCCCCCCCC(=O)[O-]
REMARK SMILES IDX 16 1 17 2 18 3 19 4 20 5 21 6 22 7 23 8 24 9 25 10 26 11
REMARK SMILES IDX 27 12 28 13 29 14 30 15 31 16 32 17 15 18 14 19 13 20 12 21
REMARK SMILES IDX 11 22 10 23 9 24 8 25 7 26 6 27 5 28 4 29 3 30 2 31 1 32
REMARK H PARENT
REMARK Flexibility Score: inf
ROOT
ATOM      1  C   UNL     1      35.547  32.013  14.150  1.00  0.00     0.000 C 
ENDROOT
BRANCH   1   2
ATOM      2  C   UNL     1      34.414  32.135  13.119  1.00  0.00     0.000 C 
BRANCH   2   3
ATOM      3  C   UNL     1      33.838  30.769  12.711  1.00  0.00     0.000 C 
BRANCH   3   4
ATOM      4  C   UNL     1      32.830  30.870  11.554  1.00  0.00     0.000 C 
BRANCH   4   5
ATOM      5  C   UNL     1      31.730  29.792  11.646  1.00  0.00     0.000 C 
BRANCH   5   6
ATOM      6  C   UNL     1      30.728  29.823  10.479  1.00  0.00     0.000 C 
BRANCH   6   7
ATOM      7  C   UNL     1      29.271  29.944  10.952  1.00  0.00     0.000 C 
BRANCH   7   8
ATOM      8  C   UNL     1      29.113  29.767  12.475  1.00  0.00     0.000 C 
BRANCH   8   9
ATOM      9  C   UNL     1      27.924  30.515  13.110  1.00  0.00     0.000 C 
BRANCH   9  10
ATOM     10  C   UNL     1      27.782  31.961  12.605  1.00  0.00     0.000 C 
BRANCH  10  11
ATOM     11  C   UNL     1      26.470  32.193  11.837  1.00  0.00     0.000 C 
BRANCH  11  12
ATOM     12  C   UNL     1      26.594  33.278  10.759  1.00  0.00     0.000 C 
BRANCH  12  13
ATOM     13  C   UNL     1      27.349  32.743   9.530  1.00  0.00     0.006 C 
BRANCH  13  14
ATOM     14  C   UNL     1      28.671  33.485   9.290  1.00  0.00     0.053 C 
BRANCH  14  15
ATOM     15  C   UNL     1      29.564  32.742   8.345  1.00  0.00     0.041 C 
ATOM     16  O   UNL     1      30.743  33.138   8.144  1.00  0.00    -0.550 OA
ATOM     17  O   UNL     1      29.108  31.592   7.713  1.00  0.00    -0.550 OA
ENDBRANCH  14  15
ENDBRANCH  13  14
ENDBRANCH  12  13
ENDBRANCH  11  12
ENDBRANCH  10  11
ENDBRANCH   9  10
ENDBRANCH   8   9
ENDBRANCH   7   8
ENDBRANCH   6   7
ENDBRANCH   5   6
ENDBRANCH   4   5
ENDBRANCH   3   4
ENDBRANCH   2   3
ENDBRANCH   1   2
BRANCH   1  18
ATOM     18  C   UNL     1      35.767  30.549  14.563  1.00  0.00     0.000 C 
BRANCH  18  19
ATOM     19  C   UNL     1      37.198  30.287  15.064  1.00  0.00     0.000 C 
BRANCH  19  20
ATOM     20  C   UNL     1      38.233  30.310  13.926  1.00  0.00     0.000 C 
BRANCH  20  21
ATOM     21  C   UNL     1      39.121  29.052  13.896  1.00  0.00     0.000 C 
BRANCH  21  22
ATOM     22  C   UNL     1      40.300  29.109  12.908  1.00  0.00     0.000 C 
BRANCH  22  23
ATOM     23  C   UNL     1      41.667  29.004  13.600  1.00  0.00     0.000 C 
BRANCH  23  24
ATOM     24  C   UNL     1      41.540  29.258  15.107  1.00  0.00    -0.000 C 
BRANCH  24  25
ATOM     25  C   UNL     1      42.919  29.299  15.778  1.00  0.00    -0.000 C 
BRANCH  25  26
ATOM     26  C   UNL     1      42.882  28.612  17.150  1.00  0.00    -0.000 C 
BRANCH  26  27
ATOM     27  C   UNL     1      44.100  28.953  18.028  1.00  0.00    -0.000 C 
BRANCH  27  28
ATOM     28  C   UNL     1      43.840  29.998  19.129  1.00  0.00    -0.000 C 
BRANCH  28  29
ATOM     29  C   UNL     1      44.486  29.628  20.474  1.00  0.00    -0.000 C 
BRANCH  29  30
ATOM     30  C   UNL     1      43.988  28.278  21.013  1.00  0.00    -0.000 C 
BRANCH  30  31
ATOM     31  C   UNL     1      44.314  28.077  22.500  1.00  0.00    -0.003 C 
ATOM     32  C   UNL     1      43.737  29.208  23.347  1.00  0.00     0.004 C 
ENDBRANCH  30  31
ENDBRANCH  29  30
ENDBRANCH  28  29
ENDBRANCH  27  28
ENDBRANCH  26  27
ENDBRANCH  25  26
ENDBRANCH  24  25
ENDBRANCH  23  24
ENDBRANCH  22  23
ENDBRANCH  21  22
ENDBRANCH  20  21
ENDBRANCH  19  20
ENDBRANCH  18  19
ENDBRANCH   1  18
TORSDOF 28
ENDMDL
MODEL 6
REMARK VINA RESULT:    -4.772      4.130     13.772
REMARK INTER + INTRA:         -14.691
REMARK INTER:                 -11.882
REMARK INTRA:                  -2.809
REMARK UNBOUND:                -2.106
REMARK SMILES CCCCCCCCCCCCCCCCCCCCCCCCCCCCCC(=O)[O-]
REMARK SMILES IDX 16 1 17 2 18 3 19 4 20 5 21 6 22 7 23 8 24 9 25 10 26 11
REMARK SMILES IDX 27 12 28 13 29 14 30 15 31 16 32 17 15 18 14 19 13 20 12 21
REMARK SMILES IDX 11 22 10 23 9 24 8 25 7 26 6 27 5 28 4 29 3 30 2 31 1 32
REMARK H PARENT
REMARK Flexibility Score: inf
ROOT
ATOM      1  C   UNL     1      32.571  30.888  11.484  1.00  0.00     0.000 C 
ENDROOT
BRANCH   1   2
ATOM      2  C   UNL     1      33.694  30.722  12.521  1.00  0.00     0.000 C 
BRANCH   2   3
ATOM      3  C   UNL     1      34.278  32.069  12.978  1.00  0.00     0.000 C 
BRANCH   3   4
ATOM      4  C   UNL     1      35.531  31.908  13.855  1.00  0.00     0.000 C 
BRANCH   4   5
ATOM      5  C   UNL     1      35.641  30.491  14.456  1.00  0.00     0.000 C 
BRANCH   5   6
ATOM      6  C   UNL     1      36.854  30.299  15.381  1.00  0.00     0.000 C 
BRANCH   6   7
ATOM      7  C   UNL     1      38.105  31.035  14.878  1.00  0.00     0.000 C 
BRANCH   7   8
ATOM      8  C   UNL     1      39.303  30.097  14.636  1.00  0.00     0.000 C 
BRANCH   8   9
ATOM      9  C   UNL     1      39.065  28.966  13.615  1.00  0.00     0.000 C 
BRANCH   9  10
ATOM     10  C   UNL     1      40.298  28.672  12.744  1.00  0.00     0.000 C 
BRANCH  10  11
ATOM     11  C   UNL     1      41.583  29.302  13.306  1.00  0.00     0.000 C 
BRANCH  11  12
ATOM     12  C   UNL     1      42.556  28.262  13.880  1.00  0.00     0.000 C 
BRANCH  12  13
ATOM     13  C   UNL     1      42.464  28.219  15.415  1.00  0.00     0.006 C 
BRANCH  13  14
ATOM     14  C   UNL     1      42.931  29.529  16.064  1.00  0.00     0.053 C 
BRANCH  14  15
ATOM     15  C   UNL     1      42.163  29.837  17.312  1.00  0.00     0.041 C 
ATOM     16  O   UNL     1      41.254  30.709  17.298  1.00  0.00    -0.550 OA
ATOM     17  O   UNL     1      42.425  29.137  18.483  1.00  0.00    -0.550 OA
ENDBRANCH  14  15
ENDBRANCH  13  14
ENDBRANCH  12  13
ENDBRANCH  11  12
ENDBRANCH  10  11
ENDBRANCH   9  10
ENDBRANCH   8   9
ENDBRANCH   7   8
ENDBRANCH   6   7
ENDBRANCH   5   6
ENDBRANCH   4   5
ENDBRANCH   3   4
ENDBRANCH   2   3
ENDBRANCH   1   2
BRANCH   1  18
ATOM     18  C   UNL     1      31.546  29.748  11.589  1.00  0.00     0.000 C 
BRANCH  18  19
ATOM     19  C   UNL     1      30.479  29.811  10.483  1.00  0.00     0.000 C 
BRANCH  19  20
ATOM     20  C   UNL     1      29.138  29.199  10.923  1.00  0.00     0.000 C 
BRANCH  20  21
ATOM     21  C   UNL     1      28.922  29.259  12.446  1.00  0.00     0.000 C 
BRANCH  21  22
ATOM     22  C   UNL     1      27.481  28.981  12.912  1.00  0.00     0.000 C 
BRANCH  22  23
ATOM     23  C   UNL     1      26.859  30.161  13.674  1.00  0.00     0.000 C 
BRANCH  23  24
ATOM     24  C   UNL     1      26.362  31.239  12.705  1.00  0.00    -0.000 C 
BRANCH  24  25
ATOM     25  C   UNL     1      27.281  32.467  12.726  1.00  0.00    -0.000 C 
BRANCH  25  26
ATOM     26  C   UNL     1      27.209  33.230  11.396  1.00  0.00    -0.000 C 
BRANCH  26  27
ATOM     27  C   UNL     1      27.873  32.474  10.231  1.00  0.00    -0.000 C 
BRANCH  27  28
ATOM     28  C   UNL     1      28.157  33.325   8.979  1.00  0.00    -0.000 C 
BRANCH  28  29
ATOM     29  C   UNL     1      29.657  33.429   8.651  1.00  0.00    -0.000 C 
BRANCH  29  30
ATOM     30  C   UNL     1      29.980  32.962   7.224  1.00  0.00    -0.000 C 
BRANCH  30  31
ATOM     31  C   UNL     1      30.683  31.598   7.192  1.00  0.00    -0.003 C 
ATOM     32  C   UNL     1      29.688  30.473   6.919  1.00  0.00     0.004 C 
ENDBRANCH  30  31
ENDBRANCH  29  30
ENDBRANCH  28  29
ENDBRANCH  27  28
ENDBRANCH  26  27
ENDBRANCH  25  26
ENDBRANCH  24  25
ENDBRANCH  23  24
ENDBRANCH  22  23
ENDBRANCH  21  22
ENDBRANCH  20  21
ENDBRANCH  19  20
ENDBRANCH  18  19
ENDBRANCH   1  18
TORSDOF 28
ENDMDL
MODEL 7
REMARK VINA RESULT:    -4.749      2.135      3.783
REMARK INTER + INTRA:         -14.630
REMARK INTER:                 -11.770
REMARK INTRA:                  -2.860
REMARK UNBOUND:                -2.106
REMARK SMILES CCCCCCCCCCCCCCCCCCCCCCCCCCCCCC(=O)[O-]
REMARK SMILES IDX 16 1 17 2 18 3 19 4 20 5 21 6 22 7 23 8 24 9 25 10 26 11
REMARK SMILES IDX 27 12 28 13 29 14 30 15 31 16 32 17 15 18 14 19 13 20 12 21
REMARK SMILES IDX 11 22 10 23 9 24 8 25 7 26 6 27 5 28 4 29 3 30 2 31 1 32
REMARK H PARENT
REMARK Flexibility Score: inf
ROOT
ATOM      1  C   UNL     1      35.468  32.004  14.126  1.00  0.00     0.000 C 
ENDROOT
BRANCH   1   2
ATOM      2  C   UNL     1      34.345  32.128  13.083  1.00  0.00     0.000 C 
BRANCH   2   3
ATOM      3  C   UNL     1      33.782  30.762  12.657  1.00  0.00     0.000 C 
BRANCH   3   4
ATOM      4  C   UNL     1      32.768  30.870  11.506  1.00  0.00     0.000 C 
BRANCH   4   5
ATOM      5  C   UNL     1      31.647  29.815  11.619  1.00  0.00     0.000 C 
BRANCH   5   6
ATOM      6  C   UNL     1      30.569  29.934  10.529  1.00  0.00     0.000 C 
BRANCH   6   7
ATOM      7  C   UNL     1      29.151  29.686  11.068  1.00  0.00     0.000 C 
BRANCH   7   8
ATOM      8  C   UNL     1      29.061  29.790  12.603  1.00  0.00     0.000 C 
BRANCH   8   9
ATOM      9  C   UNL     1      27.661  30.108  13.166  1.00  0.00     0.000 C 
BRANCH   9  10
ATOM     10  C   UNL     1      26.855  31.065  12.271  1.00  0.00     0.000 C 
BRANCH  10  11
ATOM     11  C   UNL     1      26.813  32.499  12.827  1.00  0.00     0.000 C 
BRANCH  11  12
ATOM     12  C   UNL     1      26.981  33.566  11.737  1.00  0.00     0.000 C 
BRANCH  12  13
ATOM     13  C   UNL     1      27.295  32.915  10.379  1.00  0.00     0.006 C 
BRANCH  13  14
ATOM     14  C   UNL     1      28.252  33.765   9.532  1.00  0.00     0.053 C 
BRANCH  14  15
ATOM     15  C   UNL     1      28.934  32.952   8.475  1.00  0.00     0.041 C 
ATOM     16  O   UNL     1      28.559  31.771   8.245  1.00  0.00    -0.550 OA
ATOM     17  O   UNL     1      29.958  33.508   7.719  1.00  0.00    -0.550 OA
ENDBRANCH  14  15
ENDBRANCH  13  14
ENDBRANCH  12  13
ENDBRANCH  11  12
ENDBRANCH  10  11
ENDBRANCH   9  10
ENDBRANCH   8   9
ENDBRANCH   7   8
ENDBRANCH   6   7
ENDBRANCH   5   6
ENDBRANCH   4   5
ENDBRANCH   3   4
ENDBRANCH   2   3
ENDBRANCH   1   2
BRANCH   1  18
ATOM     18  C   UNL     1      35.785  30.531  14.428  1.00  0.00     0.000 C 
BRANCH  18  19
ATOM     19  C   UNL     1      37.208  30.335  14.979  1.00  0.00     0.000 C 
BRANCH  19  20
ATOM     20  C   UNL     1      38.263  30.238  13.863  1.00  0.00     0.000 C 
BRANCH  20  21
ATOM     21  C   UNL     1      39.622  29.719  14.365  1.00  0.00     0.000 C 
BRANCH  21  22
ATOM     22  C   UNL     1      39.980  28.290  13.919  1.00  0.00     0.000 C 
BRANCH  22  23
ATOM     23  C   UNL     1      39.859  28.089  12.400  1.00  0.00     0.000 C 
BRANCH  23  24
ATOM     24  C   UNL     1      41.125  28.568  11.681  1.00  0.00    -0.000 C 
BRANCH  24  25
ATOM     25  C   UNL     1      42.377  28.287  12.521  1.00  0.00    -0.000 C 
BRANCH  25  26
ATOM     26  C   UNL     1      43.158  29.580  12.793  1.00  0.00    -0.000 C 
BRANCH  26  27
ATOM     27  C   UNL     1      43.531  29.759  14.276  1.00  0.00    -0.000 C 
BRANCH  27  28
ATOM     28  C   UNL     1      43.823  28.453  15.038  1.00  0.00    -0.000 C 
BRANCH  28  29
ATOM     29  C   UNL     1      42.888  28.238  16.241  1.00  0.00    -0.000 C 
BRANCH  29  30
ATOM     30  C   UNL     1      42.301  29.555  16.771  1.00  0.00    -0.000 C 
BRANCH  30  31
ATOM     31  C   UNL     1      43.024  30.061  18.028  1.00  0.00    -0.003 C 
ATOM     32  C   UNL     1      43.376  28.907  18.962  1.00  0.00     0.004 C 
ENDBRANCH  30  31
ENDBRANCH  29  30
ENDBRANCH  28  29
ENDBRANCH  27  28
ENDBRANCH  26  27
ENDBRANCH  25  26
ENDBRANCH  24  25
ENDBRANCH  23  24
ENDBRANCH  22  23
ENDBRANCH  21  22
ENDBRANCH  20  21
ENDBRANCH  19  20
ENDBRANCH  18  19
ENDBRANCH   1  18
TORSDOF 28
ENDMDL
MODEL 8
REMARK VINA RESULT:    -4.749      1.998      4.189
REMARK INTER + INTRA:         -14.630
REMARK INTER:                 -11.204
REMARK INTRA:                  -3.426
REMARK UNBOUND:                -2.106
REMARK SMILES CCCCCCCCCCCCCCCCCCCCCCCCCCCCCC(=O)[O-]
REMARK SMILES IDX 16 1 17 2 18 3 19 4 20 5 21 6 22 7 23 8 24 9 25 10 26 11
REMARK SMILES IDX 27 12 28 13 29 14 30 15 31 16 32 17 15 18 14 19 13 20 12 21
REMARK SMILES IDX 11 22 10 23 9 24 8 25 7 26 6 27 5 28 4 29 3 30 2 31 1 32
REMARK H PARENT
REMARK Flexibility Score: inf
ROOT
ATOM      1  C   UNL     1      30.854  30.307   9.786  1.00  0.00     0.000 C 
ENDROOT
BRANCH   1   2
ATOM      2  C   UNL     1      30.606  28.848  10.200  1.00  0.00     0.000 C 
BRANCH   2   3
ATOM      3  C   UNL     1      29.659  28.114   9.236  1.00  0.00     0.000 C 
BRANCH   3   4
ATOM      4  C   UNL     1      28.873  29.074   8.327  1.00  0.00     0.000 C 
BRANCH   4   5
ATOM      5  C   UNL     1      29.036  28.724   6.833  1.00  0.00     0.000 C 
BRANCH   5   6
ATOM      6  C   UNL     1      28.947  29.939   5.896  1.00  0.00     0.000 C 
BRANCH   6   7
ATOM      7  C   UNL     1      30.138  30.897   6.053  1.00  0.00     0.000 C 
BRANCH   7   8
ATOM      8  C   UNL     1      29.712  32.351   6.333  1.00  0.00     0.000 C 
BRANCH   8   9
ATOM      9  C   UNL     1      30.507  33.075   7.439  1.00  0.00     0.000 C 
BRANCH   9  10
ATOM     10  C   UNL     1      29.625  33.530   8.614  1.00  0.00     0.000 C 
BRANCH  10  11
ATOM     11  C   UNL     1      28.276  32.794   8.661  1.00  0.00     0.000 C 
BRANCH  11  12
ATOM     12  C   UNL     1      27.582  32.906  10.026  1.00  0.00     0.000 C 
BRANCH  12  13
ATOM     13  C   UNL     1      27.219  31.514  10.569  1.00  0.00     0.006 C 
BRANCH  13  14
ATOM     14  C   UNL     1      28.120  31.090  11.738  1.00  0.00     0.053 C 
BRANCH  14  15
ATOM     15  C   UNL     1      27.531  31.471  13.061  1.00  0.00     0.041 C 
ATOM     16  O   UNL     1      26.372  31.088  13.373  1.00  0.00    -0.550 OA
ATOM     17  O   UNL     1      28.275  32.217  13.966  1.00  0.00    -0.550 OA
ENDBRANCH  14  15
ENDBRANCH  13  14
ENDBRANCH  12  13
ENDBRANCH  11  12
ENDBRANCH  10  11
ENDBRANCH   9  10
ENDBRANCH   8   9
ENDBRANCH   7   8
ENDBRANCH   6   7
ENDBRANCH   5   6
ENDBRANCH   4   5
ENDBRANCH   3   4
ENDBRANCH   2   3
ENDBRANCH   1   2
BRANCH   1  18
ATOM     18  C   UNL     1      32.153  30.847  10.403  1.00  0.00     0.000 C 
BRANCH  18  19
ATOM     19  C   UNL     1      32.275  30.518  11.901  1.00  0.00     0.000 C 
BRANCH  19  20
ATOM     20  C   UNL     1      33.736  30.507  12.383  1.00  0.00     0.000 C 
BRANCH  20  21
ATOM     21  C   UNL     1      34.223  31.890  12.854  1.00  0.00     0.000 C 
BRANCH  21  22
ATOM     22  C   UNL     1      35.364  31.863  13.886  1.00  0.00     0.000 C 
BRANCH  22  23
ATOM     23  C   UNL     1      35.394  30.568  14.713  1.00  0.00     0.000 C 
BRANCH  23  24
ATOM     24  C   UNL     1      36.773  29.900  14.636  1.00  0.00    -0.000 C 
BRANCH  24  25
ATOM     25  C   UNL     1      37.886  30.947  14.506  1.00  0.00    -0.000 C 
BRANCH  25  26
ATOM     26  C   UNL     1      39.247  30.350  14.889  1.00  0.00    -0.000 C 
BRANCH  26  27
ATOM     27  C   UNL     1      39.634  29.131  14.032  1.00  0.00    -0.000 C 
BRANCH  27  28
ATOM     28  C   UNL     1      41.148  28.888  13.887  1.00  0.00    -0.000 C 
BRANCH  28  29
ATOM     29  C   UNL     1      41.985  29.700  14.891  1.00  0.00    -0.000 C 
BRANCH  29  30
ATOM     30  C   UNL     1      42.516  28.837  16.046  1.00  0.00    -0.000 C 
BRANCH  30  31
ATOM     31  C   UNL     1      42.365  29.521  17.413  1.00  0.00    -0.003 C 
ATOM     32  C   UNL     1      41.832  30.943  17.260  1.00  0.00     0.004 C 
ENDBRANCH  30  31
ENDBRANCH  29  30
ENDBRANCH  28  29
ENDBRANCH  27  28
ENDBRANCH  26  27
ENDBRANCH  25  26
ENDBRANCH  24  25
ENDBRANCH  23  24
ENDBRANCH  22  23
ENDBRANCH  21  22
ENDBRANCH  20  21
ENDBRANCH  19  20
ENDBRANCH  18  19
ENDBRANCH   1  18
TORSDOF 28
ENDMDL
MODEL 9
REMARK VINA RESULT:    -4.618     10.086     12.024
REMARK INTER + INTRA:         -14.282
REMARK INTER:                  -8.595
REMARK INTRA:                  -5.687
REMARK UNBOUND:                -2.106
REMARK SMILES CCCCCCCCCCCCCCCCCCCCCCCCCCCCCC(=O)[O-]
REMARK SMILES IDX 16 1 17 2 18 3 19 4 20 5 21 6 22 7 23 8 24 9 25 10 26 11
REMARK SMILES IDX 27 12 28 13 29 14 30 15 31 16 32 17 15 18 14 19 13 20 12 21
REMARK SMILES IDX 11 22 10 23 9 24 8 25 7 26 6 27 5 28 4 29 3 30 2 31 1 32
REMARK H PARENT
REMARK Flexibility Score: inf
ROOT
ATOM      1  C   UNL     1      29.944  33.473   8.622  1.00  0.00     0.000 C 
ENDROOT
BRANCH   1   2
ATOM      2  C   UNL     1      28.547  33.705   9.219  1.00  0.00     0.000 C 
BRANCH   2   3
ATOM      3  C   UNL     1      27.476  32.801   8.585  1.00  0.00     0.000 C 
BRANCH   3   4
ATOM      4  C   UNL     1      26.131  33.520   8.390  1.00  0.00     0.000 C 
BRANCH   4   5
ATOM      5  C   UNL     1      24.964  32.757   9.052  1.00  0.00     0.000 C 
BRANCH   5   6
ATOM      6  C   UNL     1      25.384  31.906  10.262  1.00  0.00     0.000 C 
BRANCH   6   7
ATOM      7  C   UNL     1      24.877  32.480  11.595  1.00  0.00     0.000 C 
BRANCH   7   8
ATOM      8  C   UNL     1      25.899  33.407  12.282  1.00  0.00     0.000 C 
BRANCH   8   9
ATOM      9  C   UNL     1      25.298  34.566  13.101  1.00  0.00     0.000 C 
BRANCH   9  10
ATOM     10  C   UNL     1      25.064  35.836  12.266  1.00  0.00     0.000 C 
BRANCH  10  11
ATOM     11  C   UNL     1      26.167  36.068  11.220  1.00  0.00     0.000 C 
BRANCH  11  12
ATOM     12  C   UNL     1      27.127  37.202  11.607  1.00  0.00     0.000 C 
BRANCH  12  13
ATOM     13  C   UNL     1      26.347  38.476  11.972  1.00  0.00     0.006 C 
BRANCH  13  14
ATOM     14  C   UNL     1      27.271  39.619  12.416  1.00  0.00     0.053 C 
BRANCH  14  15
ATOM     15  C   UNL     1      26.520  40.900  12.609  1.00  0.00     0.041 C 
ATOM     16  O   UNL     1      26.968  41.786  13.385  1.00  0.00    -0.550 OA
ATOM     17  O   UNL     1      25.345  41.134  11.904  1.00  0.00    -0.550 OA
ENDBRANCH  14  15
ENDBRANCH  13  14
ENDBRANCH  12  13
ENDBRANCH  11  12
ENDBRANCH  10  11
ENDBRANCH   9  10
ENDBRANCH   8   9
ENDBRANCH   7   8
ENDBRANCH   6   7
ENDBRANCH   5   6
ENDBRANCH   4   5
ENDBRANCH   3   4
ENDBRANCH   2   3
ENDBRANCH   1   2
BRANCH   1  18
ATOM     18  C   UNL     1      29.856  33.092   7.136  1.00  0.00     0.000 C 
BRANCH  18  19
ATOM     19  C   UNL     1      30.686  31.842   6.798  1.00  0.00     0.000 C 
BRANCH  19  20
ATOM     20  C   UNL     1      29.975  30.918   5.794  1.00  0.00     0.000 C 
BRANCH  20  21
ATOM     21  C   UNL     1      28.571  31.417   5.408  1.00  0.00     0.000 C 
BRANCH  21  22
ATOM     22  C   UNL     1      27.428  30.424   5.680  1.00  0.00     0.000 C 
BRANCH  22  23
ATOM     23  C   UNL     1      27.802  29.347   6.711  1.00  0.00     0.000 C 
BRANCH  23  24
ATOM     24  C   UNL     1      26.766  29.285   7.839  1.00  0.00    -0.000 C 
BRANCH  24  25
ATOM     25  C   UNL     1      27.446  29.253   9.213  1.00  0.00    -0.000 C 
BRANCH  25  26
ATOM     26  C   UNL     1      28.969  29.387   9.074  1.00  0.00    -0.000 C 
BRANCH  26  27
ATOM     27  C   UNL     1      29.639  29.982  10.327  1.00  0.00    -0.000 C 
BRANCH  27  28
ATOM     28  C   UNL     1      28.675  30.626  11.340  1.00  0.00    -0.000 C 
BRANCH  28  29
ATOM     29  C   UNL     1      28.556  29.826  12.648  1.00  0.00    -0.000 C 
BRANCH  29  30
ATOM     30  C   UNL     1      27.329  30.236  13.478  1.00  0.00    -0.000 C 
BRANCH  30  31
ATOM     31  C   UNL     1      26.366  29.067  13.728  1.00  0.00    -0.003 C 
ATOM     32  C   UNL     1      25.391  28.899  12.565  1.00  0.00     0.004 C 
ENDBRANCH  30  31
ENDBRANCH  29  30
ENDBRANCH  28  29
ENDBRANCH  27  28
ENDBRANCH  26  27
ENDBRANCH  25  26
ENDBRANCH  24  25
ENDBRANCH  23  24
ENDBRANCH  22  23
ENDBRANCH  21  22
ENDBRANCH  20  21
ENDBRANCH  19  20
ENDBRANCH  18  19
ENDBRANCH   1  18
TORSDOF 28
ENDMDL
