MODEL 1
REMARK VINA RESULT:    -6.883      0.000      0.000
REMARK INTER + INTRA:          -9.669
REMARK INTER:                  -9.700
REMARK INTRA:                   0.031
REMARK UNBOUND:                 0.031
REMARK SMILES C[C@@H](CO)CCC(=O)[C@H](C)[C@@H]1C(=O)C[C@@H]2[C@H]3CC=C4C[C@H](O)CC[C@@]4(C)[C@@H]3CC[C@@]21C
REMARK SMILES IDX 6 1 5 2 2 3 1 4 3 5 4 6 7 8 8 9 9 10 10 11 11 12 12 13 30 14
REMARK SMILES IDX 13 15 14 16 15 17 29 18 31 19 16 20 28 21 27 22 17 23 25 24
REMARK SMILES IDX 18 25 19 26 24 27 26 28 20 29 23 30 21 31 22 32
REMARK H PARENT 4 7 22 33
REMARK Flexibility Score: inf
ROOT
ATOM      1  C   UNL     1     119.267 128.696 129.530  1.00  0.00     0.076 C 
ENDROOT
BRANCH   1   2
ATOM      2  C   UNL     1     119.296 130.235 129.509  1.00  0.00     0.013 C 
BRANCH   2   3
ATOM      3  C   UNL     1     120.063 130.841 128.308  1.00  0.00     0.012 C 
ATOM      4  C   UNL     1     119.666 132.304 128.053  1.00  0.00     0.010 C 
BRANCH   3   5
ATOM      5  C   UNL     1     121.586 130.729 128.520  1.00  0.00     0.159 C 
BRANCH   5   6
ATOM      6  O   UNL     1     122.293 131.399 127.508  1.00  0.00    -0.396 OA
ATOM      7  H   UNL     1     122.326 130.787 126.727  1.00  0.00     0.210 HD
ENDBRANCH   5   6
ENDBRANCH   3   5
ENDBRANCH   2   3
ENDBRANCH   1   2
BRANCH   1   8
ATOM      8  C   UNL     1     118.042 128.133 130.219  1.00  0.00     0.136 C 
ATOM      9  O   UNL     1     117.208 128.905 130.671  1.00  0.00    -0.299 OA
BRANCH   8  10
ATOM     10  C   UNL     1     117.782 126.636 130.312  1.00  0.00     0.064 C 
ATOM     11  C   UNL     1     118.420 126.092 131.597  1.00  0.00     0.017 C 
BRANCH  10  12
ATOM     12  C   UNL     1     118.271 125.898 129.015  1.00  0.00     0.072 C 
ATOM     13  C   UNL     1     117.221 125.845 127.945  1.00  0.00     0.137 C 
ATOM     14  C   UNL     1     118.743 124.395 129.096  1.00  0.00    -0.019 C 
ATOM     15  O   UNL     1     116.459 126.764 127.689  1.00  0.00    -0.299 OA
ATOM     16  C   UNL     1     117.244 124.593 127.154  1.00  0.00     0.080 C 
ATOM     17  C   UNL     1     118.528 123.898 127.627  1.00  0.00     0.007 C 
ATOM     18  C   UNL     1     117.902 123.542 130.125  1.00  0.00     0.008 C 
ATOM     19  C   UNL     1     120.257 124.335 129.440  1.00  0.00     0.012 C 
ATOM     20  C   UNL     1     118.497 122.350 127.386  1.00  0.00     0.001 C 
ATOM     21  C   UNL     1     117.403 122.174 129.629  1.00  0.00     0.005 C 
ATOM     22  C   UNL     1     118.413 121.518 128.682  1.00  0.00     0.003 C 
ATOM     23  C   UNL     1     119.709 121.870 126.579  1.00  0.00     0.031 C 
ATOM     24  C   UNL     1     118.153 119.994 128.372  1.00  0.00    -0.008 C 
ATOM     25  C   UNL     1     119.707 120.376 126.397  1.00  0.00    -0.027 C 
ATOM     26  C   UNL     1     119.084 119.518 127.240  1.00  0.00    -0.065 C 
ATOM     27  C   UNL     1     118.468 119.153 129.652  1.00  0.00     0.014 C 
ATOM     28  C   UNL     1     116.680 119.746 127.946  1.00  0.00     0.016 C 
ATOM     29  C   UNL     1     119.227 118.028 127.003  1.00  0.00     0.063 C 
ATOM     30  C   UNL     1     118.546 117.639 129.399  1.00  0.00     0.033 C 
ATOM     31  C   UNL     1     119.576 117.309 128.309  1.00  0.00     0.118 C 
BRANCH  31  32
ATOM     32  O   UNL     1     119.599 115.926 128.078  1.00  0.00    -0.393 OA
ATOM     33  H   UNL     1     120.483 115.598 128.392  1.00  0.00     0.210 HD
ENDBRANCH  31  32
ENDBRANCH  10  12
ENDBRANCH   8  10
ENDBRANCH   1   8
TORSDOF 8
ENDMDL
MODEL 2
REMARK VINA RESULT:    -6.844      1.604      2.926
REMARK INTER + INTRA:          -9.614
REMARK INTER:                  -9.971
REMARK INTRA:                   0.357
REMARK UNBOUND:                 0.031
REMARK SMILES C[C@@H](CO)CCC(=O)[C@H](C)[C@@H]1C(=O)C[C@@H]2[C@H]3CC=C4C[C@H](O)CC[C@@]4(C)[C@@H]3CC[C@@]21C
REMARK SMILES IDX 6 1 5 2 2 3 1 4 3 5 4 6 7 8 8 9 9 10 10 11 11 12 12 13 30 14
REMARK SMILES IDX 13 15 14 16 15 17 29 18 31 19 16 20 28 21 27 22 17 23 25 24
REMARK SMILES IDX 18 25 19 26 24 27 26 28 20 29 23 30 21 31 22 32
REMARK H PARENT 4 7 22 33
REMARK Flexibility Score: inf
ROOT
ATOM      1  C   UNL     1     119.489 130.923 129.165  1.00  0.00     0.076 C 
ENDROOT
BRANCH   1   2
ATOM      2  C   UNL     1     120.716 131.310 130.011  1.00  0.00     0.013 C 
BRANCH   2   3
ATOM      3  C   UNL     1     121.553 132.472 129.424  1.00  0.00     0.012 C 
ATOM      4  C   UNL     1     122.632 131.968 128.451  1.00  0.00     0.010 C 
BRANCH   3   5
ATOM      5  C   UNL     1     120.644 133.504 128.727  1.00  0.00     0.159 C 
BRANCH   5   6
ATOM      6  O   UNL     1     120.880 133.540 127.343  1.00  0.00    -0.396 OA
ATOM      7  H   UNL     1     121.415 132.734 127.121  1.00  0.00     0.210 HD
ENDBRANCH   5   6
ENDBRANCH   3   5
ENDBRANCH   2   3
ENDBRANCH   1   2
BRANCH   1   8
ATOM      8  C   UNL     1     118.685 129.790 129.767  1.00  0.00     0.136 C 
ATOM      9  O   UNL     1     117.577 130.029 130.227  1.00  0.00    -0.299 OA
BRANCH   8  10
ATOM     10  C   UNL     1     119.183 128.351 129.761  1.00  0.00     0.064 C 
ATOM     11  C   UNL     1     120.138 128.155 128.576  1.00  0.00     0.017 C 
BRANCH  10  12
ATOM     12  C   UNL     1     117.982 127.340 129.767  1.00  0.00     0.072 C 
ATOM     13  C   UNL     1     117.614 126.883 131.148  1.00  0.00     0.137 C 
ATOM     14  C   UNL     1     118.100 125.976 128.984  1.00  0.00    -0.019 C 
ATOM     15  O   UNL     1     117.605 127.610 132.129  1.00  0.00    -0.299 OA
ATOM     16  C   UNL     1     117.172 125.470 131.206  1.00  0.00     0.080 C 
ATOM     17  C   UNL     1     117.060 125.072 129.729  1.00  0.00     0.007 C 
ATOM     18  C   UNL     1     119.551 125.358 129.041  1.00  0.00     0.008 C 
ATOM     19  C   UNL     1     117.644 126.172 127.511  1.00  0.00     0.012 C 
ATOM     20  C   UNL     1     117.166 123.524 129.514  1.00  0.00     0.001 C 
ATOM     21  C   UNL     1     119.642 123.861 129.388  1.00  0.00     0.005 C 
ATOM     22  C   UNL     1     118.461 123.078 128.804  1.00  0.00     0.003 C 
ATOM     23  C   UNL     1     115.969 122.970 128.733  1.00  0.00     0.031 C 
ATOM     24  C   UNL     1     118.618 121.510 128.824  1.00  0.00    -0.008 C 
ATOM     25  C   UNL     1     116.100 121.491 128.479  1.00  0.00    -0.027 C 
ATOM     26  C   UNL     1     117.286 120.840 128.434  1.00  0.00    -0.065 C 
ATOM     27  C   UNL     1     119.701 121.093 127.776  1.00  0.00     0.014 C 
ATOM     28  C   UNL     1     119.042 121.001 130.228  1.00  0.00     0.016 C 
ATOM     29  C   UNL     1     117.296 119.366 128.081  1.00  0.00     0.063 C 
ATOM     30  C   UNL     1     119.735 119.585 127.481  1.00  0.00     0.033 C 
ATOM     31  C   UNL     1     118.362 119.076 127.020  1.00  0.00     0.118 C 
BRANCH  31  32
ATOM     32  O   UNL     1     118.416 117.694 126.792  1.00  0.00    -0.393 OA
ATOM     33  H   UNL     1     119.300 117.384 127.124  1.00  0.00     0.210 HD
ENDBRANCH  31  32
ENDBRANCH  10  12
ENDBRANCH   8  10
ENDBRANCH   1   8
TORSDOF 8
ENDMDL
MODEL 3
REMARK VINA RESULT:    -6.814      2.514      3.082
REMARK INTER + INTRA:          -9.571
REMARK INTER:                  -9.827
REMARK INTRA:                   0.255
REMARK UNBOUND:                 0.031
REMARK SMILES C[C@@H](CO)CCC(=O)[C@H](C)[C@@H]1C(=O)C[C@@H]2[C@H]3CC=C4C[C@H](O)CC[C@@]4(C)[C@@H]3CC[C@@]21C
REMARK SMILES IDX 6 1 5 2 2 3 1 4 3 5 4 6 7 8 8 9 9 10 10 11 11 12 12 13 30 14
REMARK SMILES IDX 13 15 14 16 15 17 29 18 31 19 16 20 28 21 27 22 17 23 25 24
REMARK SMILES IDX 18 25 19 26 24 27 26 28 20 29 23 30 21 31 22 32
REMARK H PARENT 4 7 22 33
REMARK Flexibility Score: inf
ROOT
ATOM      1  C   UNL     1     120.181 128.737 128.820  1.00  0.00     0.076 C 
ENDROOT
BRANCH   1   2
ATOM      2  C   UNL     1     121.011 129.910 129.374  1.00  0.00     0.013 C 
BRANCH   2   3
ATOM      3  C   UNL     1     121.236 131.063 128.366  1.00  0.00     0.012 C 
ATOM      4  C   UNL     1     120.209 132.192 128.547  1.00  0.00     0.010 C 
BRANCH   3   5
ATOM      5  C   UNL     1     122.669 131.619 128.482  1.00  0.00     0.159 C 
BRANCH   5   6
ATOM      6  O   UNL     1     123.009 132.395 127.362  1.00  0.00    -0.396 OA
ATOM      7  H   UNL     1     123.292 131.764 126.651  1.00  0.00     0.210 HD
ENDBRANCH   5   6
ENDBRANCH   3   5
ENDBRANCH   2   3
ENDBRANCH   1   2
BRANCH   1   8
ATOM      8  C   UNL     1     118.839 128.582 129.504  1.00  0.00     0.136 C 
ATOM      9  O   UNL     1     118.435 129.481 130.228  1.00  0.00    -0.299 OA
BRANCH   8  10
ATOM     10  C   UNL     1     117.948 127.370 129.271  1.00  0.00     0.064 C 
ATOM     11  C   UNL     1     117.040 127.170 130.491  1.00  0.00     0.017 C 
BRANCH  10  12
ATOM     12  C   UNL     1     118.803 126.102 128.916  1.00  0.00     0.072 C 
ATOM     13  C   UNL     1     118.188 125.271 127.829  1.00  0.00     0.137 C 
ATOM     14  C   UNL     1     119.109 125.025 130.027  1.00  0.00    -0.019 C 
ATOM     15  O   UNL     1     117.629 125.735 126.847  1.00  0.00    -0.299 OA
ATOM     16  C   UNL     1     118.395 123.815 128.007  1.00  0.00     0.080 C 
ATOM     17  C   UNL     1     119.382 123.738 129.178  1.00  0.00     0.007 C 
ATOM     18  C   UNL     1     117.905 124.815 131.027  1.00  0.00     0.008 C 
ATOM     19  C   UNL     1     120.401 125.414 130.798  1.00  0.00     0.012 C 
ATOM     20  C   UNL     1     119.327 122.359 129.920  1.00  0.00     0.001 C 
ATOM     21  C   UNL     1     117.512 123.357 131.324  1.00  0.00     0.005 C 
ATOM     22  C   UNL     1     118.739 122.439 131.345  1.00  0.00     0.003 C 
ATOM     23  C   UNL     1     120.706 121.695 130.002  1.00  0.00     0.031 C 
ATOM     24  C   UNL     1     118.495 121.003 131.948  1.00  0.00    -0.008 C 
ATOM     25  C   UNL     1     120.661 120.397 130.764  1.00  0.00    -0.027 C 
ATOM     26  C   UNL     1     119.725 120.109 131.698  1.00  0.00    -0.065 C 
ATOM     27  C   UNL     1     118.286 121.129 133.492  1.00  0.00     0.014 C 
ATOM     28  C   UNL     1     117.248 120.327 131.316  1.00  0.00     0.016 C 
ATOM     29  C   UNL     1     119.835 118.805 132.464  1.00  0.00     0.063 C 
ATOM     30  C   UNL     1     118.339 119.787 134.240  1.00  0.00     0.033 C 
ATOM     31  C   UNL     1     119.657 119.048 133.965  1.00  0.00     0.118 C 
BRANCH  31  32
ATOM     32  O   UNL     1     119.661 117.814 134.632  1.00  0.00    -0.393 OA
ATOM     33  H   UNL     1     119.388 117.129 133.968  1.00  0.00     0.210 HD
ENDBRANCH  31  32
ENDBRANCH  10  12
ENDBRANCH   8  10
ENDBRANCH   1   8
TORSDOF 8
ENDMDL
MODEL 4
REMARK VINA RESULT:    -6.779      1.616      3.020
REMARK INTER + INTRA:          -9.522
REMARK INTER:                  -9.435
REMARK INTRA:                  -0.087
REMARK UNBOUND:                 0.031
REMARK SMILES C[C@@H](CO)CCC(=O)[C@H](C)[C@@H]1C(=O)C[C@@H]2[C@H]3CC=C4C[C@H](O)CC[C@@]4(C)[C@@H]3CC[C@@]21C
REMARK SMILES IDX 6 1 5 2 2 3 1 4 3 5 4 6 7 8 8 9 9 10 10 11 11 12 12 13 30 14
REMARK SMILES IDX 13 15 14 16 15 17 29 18 31 19 16 20 28 21 27 22 17 23 25 24
REMARK SMILES IDX 18 25 19 26 24 27 26 28 20 29 23 30 21 31 22 32
REMARK H PARENT 4 7 22 33
REMARK Flexibility Score: inf
ROOT
ATOM      1  C   UNL     1     118.681 128.463 129.824  1.00  0.00     0.076 C 
ENDROOT
BRANCH   1   2
ATOM      2  C   UNL     1     120.049 128.620 129.135  1.00  0.00     0.013 C 
BRANCH   2   3
ATOM      3  C   UNL     1     120.267 129.995 128.459  1.00  0.00     0.012 C 
ATOM      4  C   UNL     1     119.347 131.076 129.048  1.00  0.00     0.010 C 
BRANCH   3   5
ATOM      5  C   UNL     1     121.742 130.430 128.566  1.00  0.00     0.159 C 
BRANCH   5   6
ATOM      6  O   UNL     1     122.086 131.326 127.541  1.00  0.00    -0.396 OA
ATOM      7  H   UNL     1     122.568 132.081 127.969  1.00  0.00     0.210 HD
ENDBRANCH   5   6
ENDBRANCH   3   5
ENDBRANCH   2   3
ENDBRANCH   1   2
BRANCH   1   8
ATOM      8  C   UNL     1     117.892 127.275 129.315  1.00  0.00     0.136 C 
ATOM      9  O   UNL     1     116.692 127.217 129.546  1.00  0.00    -0.299 OA
BRANCH   8  10
ATOM     10  C   UNL     1     118.531 126.182 128.469  1.00  0.00     0.064 C 
ATOM     11  C   UNL     1     118.062 126.333 127.015  1.00  0.00     0.017 C 
BRANCH  10  12
ATOM     12  C   UNL     1     118.241 124.762 129.072  1.00  0.00     0.072 C 
ATOM     13  C   UNL     1     119.244 124.356 130.110  1.00  0.00     0.137 C 
ATOM     14  C   UNL     1     118.207 123.499 128.127  1.00  0.00    -0.019 C 
ATOM     15  O   UNL     1     119.717 125.118 130.940  1.00  0.00    -0.299 OA
ATOM     16  C   UNL     1     119.556 122.908 130.099  1.00  0.00     0.080 C 
ATOM     17  C   UNL     1     118.524 122.331 129.120  1.00  0.00     0.007 C 
ATOM     18  C   UNL     1     119.271 123.575 126.963  1.00  0.00     0.008 C 
ATOM     19  C   UNL     1     116.776 123.308 127.552  1.00  0.00     0.012 C 
ATOM     20  C   UNL     1     118.979 120.964 128.504  1.00  0.00     0.001 C 
ATOM     21  C   UNL     1     120.122 122.313 126.734  1.00  0.00     0.005 C 
ATOM     22  C   UNL     1     119.316 121.037 127.000  1.00  0.00     0.003 C 
ATOM     23  C   UNL     1     117.933 119.863 128.714  1.00  0.00     0.031 C 
ATOM     24  C   UNL     1     119.984 119.702 126.494  1.00  0.00    -0.008 C 
ATOM     25  C   UNL     1     118.348 118.565 128.073  1.00  0.00    -0.027 C 
ATOM     26  C   UNL     1     119.200 118.485 127.024  1.00  0.00    -0.065 C 
ATOM     27  C   UNL     1     119.939 119.671 124.932  1.00  0.00     0.014 C 
ATOM     28  C   UNL     1     121.459 119.592 126.966  1.00  0.00     0.016 C 
ATOM     29  C   UNL     1     119.472 117.128 126.406  1.00  0.00     0.063 C 
ATOM     30  C   UNL     1     120.280 118.300 124.325  1.00  0.00     0.033 C 
ATOM     31  C   UNL     1     119.362 117.202 124.880  1.00  0.00     0.118 C 
BRANCH  31  32
ATOM     32  O   UNL     1     119.719 115.960 124.335  1.00  0.00    -0.393 OA
ATOM     33  H   UNL     1     120.662 116.041 124.032  1.00  0.00     0.210 HD
ENDBRANCH  31  32
ENDBRANCH  10  12
ENDBRANCH   8  10
ENDBRANCH   1   8
TORSDOF 8
ENDMDL
MODEL 5
REMARK VINA RESULT:    -6.701      4.618      9.186
REMARK INTER + INTRA:          -9.411
REMARK INTER:                  -9.252
REMARK INTRA:                  -0.159
REMARK UNBOUND:                 0.031
REMARK SMILES C[C@@H](CO)CCC(=O)[C@H](C)[C@@H]1C(=O)C[C@@H]2[C@H]3CC=C4C[C@H](O)CC[C@@]4(C)[C@@H]3CC[C@@]21C
REMARK SMILES IDX 6 1 5 2 2 3 1 4 3 5 4 6 7 8 8 9 9 10 10 11 11 12 12 13 30 14
REMARK SMILES IDX 13 15 14 16 15 17 29 18 31 19 16 20 28 21 27 22 17 23 25 24
REMARK SMILES IDX 18 25 19 26 24 27 26 28 20 29 23 30 21 31 22 32
REMARK H PARENT 4 7 22 33
REMARK Flexibility Score: inf
ROOT
ATOM      1  C   UNL     1     124.602 119.553 123.190  1.00  0.00     0.076 C 
ENDROOT
BRANCH   1   2
ATOM      2  C   UNL     1     123.680 119.375 121.970  1.00  0.00     0.013 C 
BRANCH   2   3
ATOM      3  C   UNL     1     124.418 119.375 120.609  1.00  0.00     0.012 C 
ATOM      4  C   UNL     1     125.903 119.012 120.762  1.00  0.00     0.010 C 
BRANCH   3   5
ATOM      5  C   UNL     1     123.731 118.418 119.614  1.00  0.00     0.159 C 
BRANCH   5   6
ATOM      6  O   UNL     1     122.552 117.880 120.155  1.00  0.00    -0.396 OA
ATOM      7  H   UNL     1     122.448 118.269 121.062  1.00  0.00     0.210 HD
ENDBRANCH   5   6
ENDBRANCH   3   5
ENDBRANCH   2   3
ENDBRANCH   1   2
BRANCH   1   8
ATOM      8  C   UNL     1     124.343 118.539 124.284  1.00  0.00     0.136 C 
ATOM      9  O   UNL     1     125.138 117.624 124.446  1.00  0.00    -0.299 OA
BRANCH   8  10
ATOM     10  C   UNL     1     123.157 118.657 125.232  1.00  0.00     0.064 C 
ATOM     11  C   UNL     1     122.075 117.653 124.812  1.00  0.00     0.017 C 
BRANCH  10  12
ATOM     12  C   UNL     1     122.638 120.137 125.302  1.00  0.00     0.072 C 
ATOM     13  C   UNL     1     123.263 120.920 126.419  1.00  0.00     0.137 C 
ATOM     14  C   UNL     1     121.101 120.422 125.513  1.00  0.00    -0.019 C 
ATOM     15  O   UNL     1     124.437 120.831 126.743  1.00  0.00    -0.299 OA
ATOM     16  C   UNL     1     122.340 121.891 127.051  1.00  0.00     0.080 C 
ATOM     17  C   UNL     1     121.110 121.860 126.134  1.00  0.00     0.007 C 
ATOM     18  C   UNL     1     120.410 119.380 126.476  1.00  0.00     0.008 C 
ATOM     19  C   UNL     1     120.378 120.463 124.138  1.00  0.00     0.012 C 
ATOM     20  C   UNL     1     119.808 122.341 126.859  1.00  0.00     0.001 C 
ATOM     21  C   UNL     1     119.511 119.963 127.580  1.00  0.00     0.005 C 
ATOM     22  C   UNL     1     118.776 121.219 127.100  1.00  0.00     0.003 C 
ATOM     23  C   UNL     1     119.116 123.481 126.103  1.00  0.00     0.031 C 
ATOM     24  C   UNL     1     117.601 121.707 128.030  1.00  0.00    -0.008 C 
ATOM     25  C   UNL     1     117.835 123.903 126.772  1.00  0.00    -0.027 C 
ATOM     26  C   UNL     1     117.103 123.091 127.570  1.00  0.00    -0.065 C 
ATOM     27  C   UNL     1     116.412 120.698 127.921  1.00  0.00     0.014 C 
ATOM     28  C   UNL     1     118.054 121.806 129.512  1.00  0.00     0.016 C 
ATOM     29  C   UNL     1     115.783 123.600 128.115  1.00  0.00     0.063 C 
ATOM     30  C   UNL     1     115.100 121.211 128.536  1.00  0.00     0.033 C 
ATOM     31  C   UNL     1     114.683 122.553 127.920  1.00  0.00     0.118 C 
BRANCH  31  32
ATOM     32  O   UNL     1     113.503 123.011 128.525  1.00  0.00    -0.393 OA
ATOM     33  H   UNL     1     113.777 123.626 129.255  1.00  0.00     0.210 HD
ENDBRANCH  31  32
ENDBRANCH  10  12
ENDBRANCH   8  10
ENDBRANCH   1   8
TORSDOF 8
ENDMDL
MODEL 6
REMARK VINA RESULT:    -6.657      3.099      4.815
REMARK INTER + INTRA:          -9.350
REMARK INTER:                  -8.466
REMARK INTRA:                  -0.885
REMARK UNBOUND:                 0.031
REMARK SMILES C[C@@H](CO)CCC(=O)[C@H](C)[C@@H]1C(=O)C[C@@H]2[C@H]3CC=C4C[C@H](O)CC[C@@]4(C)[C@@H]3CC[C@@]21C
REMARK SMILES IDX 6 1 5 2 2 3 1 4 3 5 4 6 7 8 8 9 9 10 10 11 11 12 12 13 30 14
REMARK SMILES IDX 13 15 14 16 15 17 29 18 31 19 16 20 28 21 27 22 17 23 25 24
REMARK SMILES IDX 18 25 19 26 24 27 26 28 20 29 23 30 21 31 22 32
REMARK H PARENT 4 7 22 33
REMARK Flexibility Score: inf
ROOT
ATOM      1  C   UNL     1     117.971 126.022 130.048  1.00  0.00     0.076 C 
ENDROOT
BRANCH   1   2
ATOM      2  C   UNL     1     117.031 125.978 128.829  1.00  0.00     0.013 C 
BRANCH   2   3
ATOM      3  C   UNL     1     117.753 126.079 127.464  1.00  0.00     0.012 C 
ATOM      4  C   UNL     1     119.252 126.377 127.629  1.00  0.00     0.010 C 
BRANCH   3   5
ATOM      5  C   UNL     1     117.551 124.791 126.642  1.00  0.00     0.159 C 
BRANCH   5   6
ATOM      6  O   UNL     1     118.651 124.540 125.806  1.00  0.00    -0.396 OA
ATOM      7  H   UNL     1     118.841 125.384 125.320  1.00  0.00     0.210 HD
ENDBRANCH   5   6
ENDBRANCH   3   5
ENDBRANCH   2   3
ENDBRANCH   1   2
BRANCH   1   8
ATOM      8  C   UNL     1     117.748 124.877 131.013  1.00  0.00     0.136 C 
ATOM      9  O   UNL     1     116.611 124.631 131.389  1.00  0.00    -0.299 OA
BRANCH   8  10
ATOM     10  C   UNL     1     118.886 123.981 131.481  1.00  0.00     0.064 C 
ATOM     11  C   UNL     1     120.218 124.552 130.975  1.00  0.00     0.017 C 
BRANCH  10  12
ATOM     12  C   UNL     1     118.644 122.491 131.048  1.00  0.00     0.072 C 
ATOM     13  C   UNL     1     119.672 121.550 131.603  1.00  0.00     0.137 C 
ATOM     14  C   UNL     1     118.632 122.110 129.518  1.00  0.00    -0.019 C 
ATOM     15  O   UNL     1     120.134 121.629 132.730  1.00  0.00    -0.299 OA
ATOM     16  C   UNL     1     120.023 120.445 130.680  1.00  0.00     0.080 C 
ATOM     17  C   UNL     1     118.995 120.587 129.550  1.00  0.00     0.007 C 
ATOM     18  C   UNL     1     119.678 122.936 128.671  1.00  0.00     0.008 C 
ATOM     19  C   UNL     1     117.200 122.283 128.941  1.00  0.00     0.012 C 
ATOM     20  C   UNL     1     119.479 119.931 128.212  1.00  0.00     0.001 C 
ATOM     21  C   UNL     1     120.560 122.129 127.702  1.00  0.00     0.005 C 
ATOM     22  C   UNL     1     119.794 120.949 127.096  1.00  0.00     0.003 C 
ATOM     23  C   UNL     1     118.467 118.915 127.671  1.00  0.00     0.031 C 
ATOM     24  C   UNL     1     120.491 120.255 125.864  1.00  0.00    -0.008 C 
ATOM     25  C   UNL     1     118.908 118.328 126.356  1.00  0.00    -0.027 C 
ATOM     26  C   UNL     1     119.748 118.955 125.499  1.00  0.00    -0.065 C 
ATOM     27  C   UNL     1     120.426 121.218 124.633  1.00  0.00     0.014 C 
ATOM     28  C   UNL     1     121.975 119.915 126.170  1.00  0.00     0.016 C 
ATOM     29  C   UNL     1     120.049 118.303 124.164  1.00  0.00     0.063 C 
ATOM     30  C   UNL     1     120.797 120.550 123.299  1.00  0.00     0.033 C 
ATOM     31  C   UNL     1     119.917 119.322 123.028  1.00  0.00     0.118 C 
BRANCH  31  32
ATOM     32  O   UNL     1     120.301 118.716 121.823  1.00  0.00    -0.393 OA
ATOM     33  H   UNL     1     120.961 118.010 122.055  1.00  0.00     0.210 HD
ENDBRANCH  31  32
ENDBRANCH  10  12
ENDBRANCH   8  10
ENDBRANCH   1   8
TORSDOF 8
ENDMDL
MODEL 7
REMARK VINA RESULT:    -6.571      2.257      8.208
REMARK INTER + INTRA:          -9.229
REMARK INTER:                  -9.302
REMARK INTRA:                   0.073
REMARK UNBOUND:                 0.031
REMARK SMILES C[C@@H](CO)CCC(=O)[C@H](C)[C@@H]1C(=O)C[C@@H]2[C@H]3CC=C4C[C@H](O)CC[C@@]4(C)[C@@H]3CC[C@@]21C
REMARK SMILES IDX 6 1 5 2 2 3 1 4 3 5 4 6 7 8 8 9 9 10 10 11 11 12 12 13 30 14
REMARK SMILES IDX 13 15 14 16 15 17 29 18 31 19 16 20 28 21 27 22 17 23 25 24
REMARK SMILES IDX 18 25 19 26 24 27 26 28 20 29 23 30 21 31 22 32
REMARK H PARENT 4 7 22 33
REMARK Flexibility Score: inf
ROOT
ATOM      1  C   UNL     1     116.495 119.487 131.061  1.00  0.00     0.076 C 
ENDROOT
BRANCH   1   2
ATOM      2  C   UNL     1     115.108 119.886 131.598  1.00  0.00     0.013 C 
BRANCH   2   3
ATOM      3  C   UNL     1     115.100 121.191 132.430  1.00  0.00     0.012 C 
ATOM      4  C   UNL     1     116.482 121.498 133.028  1.00  0.00     0.010 C 
BRANCH   3   5
ATOM      5  C   UNL     1     114.608 122.379 131.579  1.00  0.00     0.159 C 
BRANCH   5   6
ATOM      6  O   UNL     1     115.401 123.520 131.789  1.00  0.00    -0.396 OA
ATOM      7  H   UNL     1     115.608 123.894 130.893  1.00  0.00     0.210 HD
ENDBRANCH   5   6
ENDBRANCH   3   5
ENDBRANCH   2   3
ENDBRANCH   1   2
BRANCH   1   8
ATOM      8  C   UNL     1     116.455 118.966 129.639  1.00  0.00     0.136 C 
ATOM      9  O   UNL     1     115.382 118.625 129.162  1.00  0.00    -0.299 OA
BRANCH   8  10
ATOM     10  C   UNL     1     117.698 118.913 128.762  1.00  0.00     0.064 C 
ATOM     11  C   UNL     1     118.933 118.712 129.651  1.00  0.00     0.017 C 
BRANCH  10  12
ATOM     12  C   UNL     1     117.793 120.183 127.843  1.00  0.00     0.072 C 
ATOM     13  C   UNL     1     119.175 120.411 127.308  1.00  0.00     0.137 C 
ATOM     14  C   UNL     1     117.419 121.601 128.422  1.00  0.00    -0.019 C 
ATOM     15  O   UNL     1     119.920 119.519 126.933  1.00  0.00    -0.299 OA
ATOM     16  C   UNL     1     119.536 121.843 127.191  1.00  0.00     0.080 C 
ATOM     17  C   UNL     1     118.214 122.567 127.479  1.00  0.00     0.007 C 
ATOM     18  C   UNL     1     117.848 121.782 129.931  1.00  0.00     0.008 C 
ATOM     19  C   UNL     1     115.896 121.857 128.250  1.00  0.00     0.012 C 
ATOM     20  C   UNL     1     118.429 124.039 127.970  1.00  0.00     0.001 C 
ATOM     21  C   UNL     1     118.583 123.088 130.279  1.00  0.00     0.005 C 
ATOM     22  C   UNL     1     118.058 124.265 129.450  1.00  0.00     0.003 C 
ATOM     23  C   UNL     1     117.654 125.048 127.116  1.00  0.00     0.031 C 
ATOM     24  C   UNL     1     118.510 125.691 129.946  1.00  0.00    -0.008 C 
ATOM     25  C   UNL     1     117.817 126.456 127.623  1.00  0.00    -0.027 C 
ATOM     26  C   UNL     1     118.118 126.761 128.908  1.00  0.00    -0.065 C 
ATOM     27  C   UNL     1     117.778 126.020 131.288  1.00  0.00     0.014 C 
ATOM     28  C   UNL     1     120.045 125.752 130.172  1.00  0.00     0.016 C 
ATOM     29  C   UNL     1     118.168 128.218 129.320  1.00  0.00     0.063 C 
ATOM     30  C   UNL     1     117.895 127.491 131.718  1.00  0.00     0.033 C 
ATOM     31  C   UNL     1     117.388 128.435 130.619  1.00  0.00     0.118 C 
BRANCH  31  32
ATOM     32  O   UNL     1     117.539 129.768 131.028  1.00  0.00    -0.393 OA
ATOM     33  H   UNL     1     116.948 130.315 130.446  1.00  0.00     0.210 HD
ENDBRANCH  31  32
ENDBRANCH  10  12
ENDBRANCH   8  10
ENDBRANCH   1   8
TORSDOF 8
ENDMDL
MODEL 8
REMARK VINA RESULT:    -6.503      5.756      8.240
REMARK INTER + INTRA:          -9.133
REMARK INTER:                  -8.856
REMARK INTRA:                  -0.277
REMARK UNBOUND:                 0.031
REMARK SMILES C[C@@H](CO)CCC(=O)[C@H](C)[C@@H]1C(=O)C[C@@H]2[C@H]3CC=C4C[C@H](O)CC[C@@]4(C)[C@@H]3CC[C@@]21C
REMARK SMILES IDX 6 1 5 2 2 3 1 4 3 5 4 6 7 8 8 9 9 10 10 11 11 12 12 13 30 14
REMARK SMILES IDX 13 15 14 16 15 17 29 18 31 19 16 20 28 21 27 22 17 23 25 24
REMARK SMILES IDX 18 25 19 26 24 27 26 28 20 29 23 30 21 31 22 32
REMARK H PARENT 4 7 22 33
REMARK Flexibility Score: inf
ROOT
ATOM      1  C   UNL     1     115.815 121.890 128.594  1.00  0.00     0.076 C 
ENDROOT
BRANCH   1   2
ATOM      2  C   UNL     1     115.085 121.910 127.238  1.00  0.00     0.013 C 
BRANCH   2   3
ATOM      3  C   UNL     1     113.543 121.996 127.347  1.00  0.00     0.012 C 
ATOM      4  C   UNL     1     113.071 123.421 127.681  1.00  0.00     0.010 C 
BRANCH   3   5
ATOM      5  C   UNL     1     112.875 121.500 126.049  1.00  0.00     0.159 C 
BRANCH   5   6
ATOM      6  O   UNL     1     113.634 120.489 125.439  1.00  0.00    -0.396 OA
ATOM      7  H   UNL     1     113.006 119.945 124.896  1.00  0.00     0.210 HD
ENDBRANCH   5   6
ENDBRANCH   3   5
ENDBRANCH   2   3
ENDBRANCH   1   2
BRANCH   1   8
ATOM      8  C   UNL     1     115.341 120.780 129.508  1.00  0.00     0.136 C 
ATOM      9  O   UNL     1     115.255 119.643 129.066  1.00  0.00    -0.299 OA
BRANCH   8  10
ATOM     10  C   UNL     1     115.028 121.021 130.979  1.00  0.00     0.064 C 
ATOM     11  C   UNL     1     115.119 122.525 131.272  1.00  0.00     0.017 C 
BRANCH  10  12
ATOM     12  C   UNL     1     115.953 120.150 131.901  1.00  0.00     0.072 C 
ATOM     13  C   UNL     1     115.627 120.298 133.358  1.00  0.00     0.137 C 
ATOM     14  C   UNL     1     117.515 120.374 131.884  1.00  0.00    -0.019 C 
ATOM     15  O   UNL     1     114.491 120.384 133.799  1.00  0.00    -0.299 OA
ATOM     16  C   UNL     1     116.815 120.245 134.240  1.00  0.00     0.080 C 
ATOM     17  C   UNL     1     117.945 119.830 133.288  1.00  0.00     0.007 C 
ATOM     18  C   UNL     1     117.916 121.890 131.702  1.00  0.00     0.008 C 
ATOM     19  C   UNL     1     118.162 119.498 130.776  1.00  0.00     0.012 C 
ATOM     20  C   UNL     1     119.360 120.244 133.819  1.00  0.00     0.001 C 
ATOM     21  C   UNL     1     118.989 122.432 132.663  1.00  0.00     0.005 C 
ATOM     22  C   UNL     1     120.034 121.362 132.996  1.00  0.00     0.003 C 
ATOM     23  C   UNL     1     120.318 119.049 133.892  1.00  0.00     0.031 C 
ATOM     24  C   UNL     1     121.338 121.893 133.706  1.00  0.00    -0.008 C 
ATOM     25  C   UNL     1     121.693 119.459 134.349  1.00  0.00    -0.027 C 
ATOM     26  C   UNL     1     122.193 120.708 134.196  1.00  0.00    -0.065 C 
ATOM     27  C   UNL     1     122.181 122.713 132.676  1.00  0.00     0.014 C 
ATOM     28  C   UNL     1     120.993 122.797 134.921  1.00  0.00     0.016 C 
ATOM     29  C   UNL     1     123.625 120.977 134.615  1.00  0.00     0.063 C 
ATOM     30  C   UNL     1     123.609 123.028 133.149  1.00  0.00     0.033 C 
ATOM     31  C   UNL     1     124.368 121.747 133.519  1.00  0.00     0.118 C 
BRANCH  31  32
ATOM     32  O   UNL     1     125.654 122.069 133.978  1.00  0.00    -0.393 OA
ATOM     33  H   UNL     1     126.174 122.366 133.186  1.00  0.00     0.210 HD
ENDBRANCH  31  32
ENDBRANCH  10  12
ENDBRANCH   8  10
ENDBRANCH   1   8
TORSDOF 8
ENDMDL
MODEL 9
REMARK VINA RESULT:    -6.448      4.625      7.450
REMARK INTER + INTRA:          -9.056
REMARK INTER:                  -8.295
REMARK INTRA:                  -0.760
REMARK UNBOUND:                 0.031
REMARK SMILES C[C@@H](CO)CCC(=O)[C@H](C)[C@@H]1C(=O)C[C@@H]2[C@H]3CC=C4C[C@H](O)CC[C@@]4(C)[C@@H]3CC[C@@]21C
REMARK SMILES IDX 6 1 5 2 2 3 1 4 3 5 4 6 7 8 8 9 9 10 10 11 11 12 12 13 30 14
REMARK SMILES IDX 13 15 14 16 15 17 29 18 31 19 16 20 28 21 27 22 17 23 25 24
REMARK SMILES IDX 18 25 19 26 24 27 26 28 20 29 23 30 21 31 22 32
REMARK H PARENT 4 7 22 33
REMARK Flexibility Score: inf
ROOT
ATOM      1  C   UNL     1     115.561 122.128 128.631  1.00  0.00     0.076 C 
ENDROOT
BRANCH   1   2
ATOM      2  C   UNL     1     116.962 121.963 128.013  1.00  0.00     0.013 C 
BRANCH   2   3
ATOM      3  C   UNL     1     117.788 123.271 127.948  1.00  0.00     0.012 C 
ATOM      4  C   UNL     1     119.226 123.066 128.449  1.00  0.00     0.010 C 
BRANCH   3   5
ATOM      5  C   UNL     1     117.795 123.842 126.516  1.00  0.00     0.159 C 
BRANCH   5   6
ATOM      6  O   UNL     1     117.801 125.247 126.527  1.00  0.00    -0.396 OA
ATOM      7  H   UNL     1     117.784 125.527 127.479  1.00  0.00     0.210 HD
ENDBRANCH   5   6
ENDBRANCH   3   5
ENDBRANCH   2   3
ENDBRANCH   1   2
BRANCH   1   8
ATOM      8  C   UNL     1     115.183 120.993 129.559  1.00  0.00     0.136 C 
ATOM      9  O   UNL     1     115.113 119.858 129.110  1.00  0.00    -0.299 OA
BRANCH   8  10
ATOM     10  C   UNL     1     114.951 121.209 131.049  1.00  0.00     0.064 C 
ATOM     11  C   UNL     1     115.108 122.701 131.371  1.00  0.00     0.017 C 
BRANCH  10  12
ATOM     12  C   UNL     1     115.890 120.286 131.904  1.00  0.00     0.072 C 
ATOM     13  C   UNL     1     115.600 120.366 133.374  1.00  0.00     0.137 C 
ATOM     14  C   UNL     1     117.452 120.496 131.859  1.00  0.00    -0.019 C 
ATOM     15  O   UNL     1     114.477 120.440 133.847  1.00  0.00    -0.299 OA
ATOM     16  C   UNL     1     116.810 120.259 134.223  1.00  0.00     0.080 C 
ATOM     17  C   UNL     1     117.912 119.881 133.224  1.00  0.00     0.007 C 
ATOM     18  C   UNL     1     117.865 122.016 131.741  1.00  0.00     0.008 C 
ATOM     19  C   UNL     1     118.063 119.669 130.694  1.00  0.00     0.012 C 
ATOM     20  C   UNL     1     119.343 120.256 133.739  1.00  0.00     0.001 C 
ATOM     21  C   UNL     1     118.966 122.500 132.699  1.00  0.00     0.005 C 
ATOM     22  C   UNL     1     120.008 121.406 132.955  1.00  0.00     0.003 C 
ATOM     23  C   UNL     1     120.290 119.051 133.729  1.00  0.00     0.031 C 
ATOM     24  C   UNL     1     121.334 121.890 133.656  1.00  0.00    -0.008 C 
ATOM     25  C   UNL     1     121.680 119.425 134.171  1.00  0.00    -0.027 C 
ATOM     26  C   UNL     1     122.189 120.675 134.067  1.00  0.00    -0.065 C 
ATOM     27  C   UNL     1     122.160 122.752 132.646  1.00  0.00     0.014 C 
ATOM     28  C   UNL     1     121.029 122.737 134.922  1.00  0.00     0.016 C 
ATOM     29  C   UNL     1     123.633 120.911 134.462  1.00  0.00     0.063 C 
ATOM     30  C   UNL     1     123.602 123.031 133.098  1.00  0.00     0.033 C 
ATOM     31  C   UNL     1     124.358 121.726 133.387  1.00  0.00     0.118 C 
BRANCH  31  32
ATOM     32  O   UNL     1     125.657 122.015 133.829  1.00  0.00    -0.393 OA
ATOM     33  H   UNL     1     126.275 121.736 133.103  1.00  0.00     0.210 HD
ENDBRANCH  31  32
ENDBRANCH  10  12
ENDBRANCH   8  10
ENDBRANCH   1   8
TORSDOF 8
ENDMDL
