MODEL 1
REMARK VINA RESULT:    -4.437      0.000      0.000
REMARK INTER + INTRA:          -5.277
REMARK INTER:                  -5.215
REMARK INTRA:                  -0.062
REMARK UNBOUND:                -0.062
REMARK SMILES C=C(C)[C@@H]1CC[C@]2(CO)CC[C@@]3(C)[C@H](CC[C@H]4[C@@]5(C)CC[C@H](O)C(C)(C)[C@@H]5CC[C@@]43C)[C@@H]12
REMARK SMILES IDX 4 1 5 2 6 3 7 4 32 5 14 6 15 7 16 8 17 9 18 10 20 11 21 12
REMARK SMILES IDX 22 13 24 14 27 15 28 16 29 17 30 18 12 19 11 20 10 21 13 22
REMARK SMILES IDX 31 23 25 24 26 25 19 26 2 27 3 28 1 29 8 30 9 31 23 33
REMARK H PARENT 9 32 23 34
REMARK Flexibility Score: inf
ROOT
ATOM      1  C   UNL     1      -3.801  -6.550 -26.116  1.00  0.00     0.018 C 
ATOM      2  C   UNL     1      -4.489  -5.267 -26.644  1.00  0.00     0.009 C 
ATOM      3  C   UNL     1      -4.452  -4.252 -25.498  1.00  0.00     0.010 C 
ATOM      4  C   UNL     1      -3.817  -4.995 -24.309  1.00  0.00    -0.003 C 
ATOM      5  C   UNL     1      -2.863  -5.979 -25.011  1.00  0.00     0.008 C 
ATOM      6  C   UNL     1      -2.069  -6.911 -24.018  1.00  0.00    -0.000 C 
ATOM      7  C   UNL     1      -0.828  -7.491 -24.762  1.00  0.00     0.005 C 
ATOM      8  C   UNL     1       0.212  -8.252 -23.924  1.00  0.00     0.005 C 
ATOM      9  C   UNL     1       0.519  -7.651 -22.520  1.00  0.00     0.002 C 
ATOM     10  C   UNL     1       1.982  -7.977 -21.898  1.00  0.00    -0.026 C 
ATOM     11  C   UNL     1       2.997  -8.511 -22.954  1.00  0.00     0.010 C 
ATOM     12  C   UNL     1       4.411  -8.736 -22.383  1.00  0.00     0.033 C 
ATOM     13  C   UNL     1       5.004  -7.429 -21.821  1.00  0.00     0.120 C 
ATOM     14  C   UNL     1       4.109  -6.704 -20.761  1.00  0.00    -0.006 C 
ATOM     15  C   UNL     1       2.607  -6.663 -21.279  1.00  0.00     0.003 C 
ATOM     16  C   UNL     1       1.636  -6.041 -20.267  1.00  0.00     0.005 C 
ATOM     17  C   UNL     1       0.290  -5.623 -20.897  1.00  0.00     0.008 C 
ATOM     18  C   UNL     1      -0.075  -6.193 -22.339  1.00  0.00    -0.024 C 
ATOM     19  C   UNL     1      -1.687  -6.270 -22.573  1.00  0.00    -0.024 C 
ATOM     20  C   UNL     1      -2.300  -4.827 -22.298  1.00  0.00     0.008 C 
ATOM     21  C   UNL     1      -2.955  -4.071 -23.453  1.00  0.00     0.010 C 
ATOM     22  C   UNL     1      -2.338  -7.249 -21.503  1.00  0.00     0.012 C 
ATOM     23  C   UNL     1       0.566  -5.215 -23.386  1.00  0.00     0.012 C 
ATOM     24  C   UNL     1       4.257  -7.359 -19.355  1.00  0.00     0.014 C 
ATOM     25  C   UNL     1       4.662  -5.234 -20.632  1.00  0.00     0.014 C 
ATOM     26  C   UNL     1       1.762  -9.123 -20.839  1.00  0.00     0.012 C 
ENDROOT
BRANCH   1  27
ATOM     27  C   UNL     1      -3.239  -7.480 -27.198  1.00  0.00    -0.077 C 
ATOM     28  C   UNL     1      -2.873  -7.018 -28.596  1.00  0.00     0.039 C 
ATOM     29  C   UNL     1      -3.383  -8.813 -27.021  1.00  0.00     0.008 C 
ENDBRANCH   1  27
BRANCH   4  30
ATOM     30  C   UNL     1      -4.946  -5.663 -23.436  1.00  0.00     0.163 C 
BRANCH  30  31
ATOM     31  O   UNL     1      -5.125  -5.033 -22.186  1.00  0.00    -0.396 OA
ATOM     32  H   UNL     1      -5.042  -4.051 -22.320  1.00  0.00     0.210 HD
ENDBRANCH  30  31
ENDBRANCH   4  30
BRANCH  13  33
ATOM     33  O   UNL     1       6.320  -7.630 -21.336  1.00  0.00    -0.393 OA
ATOM     34  H   UNL     1       6.345  -7.321 -20.389  1.00  0.00     0.210 HD
ENDBRANCH  13  33
TORSDOF 4
ENDMDL
MODEL 2
REMARK VINA RESULT:    -4.083      2.542      7.775
REMARK INTER + INTRA:          -4.861
REMARK INTER:                  -4.308
REMARK INTRA:                  -0.553
REMARK UNBOUND:                -0.062
REMARK SMILES C=C(C)[C@@H]1CC[C@]2(CO)CC[C@@]3(C)[C@H](CC[C@H]4[C@@]5(C)CC[C@H](O)C(C)(C)[C@@H]5CC[C@@]43C)[C@@H]12
REMARK SMILES IDX 4 1 5 2 6 3 7 4 32 5 14 6 15 7 16 8 17 9 18 10 20 11 21 12
REMARK SMILES IDX 22 13 24 14 27 15 28 16 29 17 30 18 12 19 11 20 10 21 13 22
REMARK SMILES IDX 31 23 25 24 26 25 19 26 2 27 3 28 1 29 8 30 9 31 23 33
REMARK H PARENT 9 32 23 34
REMARK Flexibility Score: inf
ROOT
ATOM      1  C   UNL     1       0.624  -6.468 -20.121  1.00  0.00     0.018 C 
ATOM      2  C   UNL     1       1.108  -7.665 -19.266  1.00  0.00     0.009 C 
ATOM      3  C   UNL     1       0.010  -8.730 -19.349  1.00  0.00     0.010 C 
ATOM      4  C   UNL     1      -1.117  -8.096 -20.184  1.00  0.00    -0.003 C 
ATOM      5  C   UNL     1      -0.338  -7.163 -21.130  1.00  0.00     0.008 C 
ATOM      6  C   UNL     1      -1.258  -6.345 -22.115  1.00  0.00    -0.000 C 
ATOM      7  C   UNL     1      -0.388  -5.837 -23.305  1.00  0.00     0.005 C 
ATOM      8  C   UNL     1      -1.117  -5.203 -24.499  1.00  0.00     0.005 C 
ATOM      9  C   UNL     1      -2.452  -5.888 -24.917  1.00  0.00     0.002 C 
ATOM     10  C   UNL     1      -2.902  -5.712 -26.466  1.00  0.00    -0.026 C 
ATOM     11  C   UNL     1      -1.749  -5.217 -27.392  1.00  0.00     0.010 C 
ATOM     12  C   UNL     1      -2.150  -5.136 -28.877  1.00  0.00     0.033 C 
ATOM     13  C   UNL     1      -2.590  -6.511 -29.417  1.00  0.00     0.120 C 
ATOM     14  C   UNL     1      -3.726  -7.205 -28.594  1.00  0.00    -0.006 C 
ATOM     15  C   UNL     1      -3.394  -7.099 -27.044  1.00  0.00     0.003 C 
ATOM     16  C   UNL     1      -4.495  -7.683 -26.149  1.00  0.00     0.005 C 
ATOM     17  C   UNL     1      -4.020  -7.961 -24.707  1.00  0.00     0.008 C 
ATOM     18  C   UNL     1      -2.654  -7.299 -24.224  1.00  0.00    -0.024 C 
ATOM     19  C   UNL     1      -2.622  -7.079 -22.608  1.00  0.00    -0.024 C 
ATOM     20  C   UNL     1      -2.920  -8.477 -21.909  1.00  0.00     0.008 C 
ATOM     21  C   UNL     1      -1.829  -9.125 -21.058  1.00  0.00     0.010 C 
ATOM     22  C   UNL     1      -3.796  -6.098 -22.177  1.00  0.00     0.012 C 
ATOM     23  C   UNL     1      -1.504  -8.279 -24.648  1.00  0.00     0.012 C 
ATOM     24  C   UNL     1      -5.125  -6.628 -28.965  1.00  0.00     0.014 C 
ATOM     25  C   UNL     1      -3.736  -8.721 -29.028  1.00  0.00     0.014 C 
ATOM     26  C   UNL     1      -4.018  -4.600 -26.474  1.00  0.00     0.012 C 
ENDROOT
BRANCH   1  27
ATOM     27  C   UNL     1       1.735  -5.540 -20.629  1.00  0.00    -0.077 C 
ATOM     28  C   UNL     1       2.923  -6.019 -21.441  1.00  0.00     0.039 C 
ATOM     29  C   UNL     1       1.843  -4.317 -20.063  1.00  0.00     0.008 C 
ENDBRANCH   1  27
BRANCH   4  30
ATOM     30  C   UNL     1      -2.144  -7.376 -19.230  1.00  0.00     0.163 C 
BRANCH  30  31
ATOM     31  O   UNL     1      -2.244  -7.987 -17.962  1.00  0.00    -0.396 OA
ATOM     32  H   UNL     1      -2.625  -8.897 -18.087  1.00  0.00     0.210 HD
ENDBRANCH  30  31
ENDBRANCH   4  30
BRANCH  13  33
ATOM     33  O   UNL     1      -2.917  -6.440 -30.793  1.00  0.00    -0.393 OA
ATOM     34  H   UNL     1      -3.703  -7.033 -30.950  1.00  0.00     0.210 HD
ENDBRANCH  13  33
TORSDOF 4
ENDMDL
MODEL 3
REMARK VINA RESULT:    -4.042      2.809      9.570
REMARK INTER + INTRA:          -4.813
REMARK INTER:                  -4.332
REMARK INTRA:                  -0.481
REMARK UNBOUND:                -0.062
REMARK SMILES C=C(C)[C@@H]1CC[C@]2(CO)CC[C@@]3(C)[C@H](CC[C@H]4[C@@]5(C)CC[C@H](O)C(C)(C)[C@@H]5CC[C@@]43C)[C@@H]12
REMARK SMILES IDX 4 1 5 2 6 3 7 4 32 5 14 6 15 7 16 8 17 9 18 10 20 11 21 12
REMARK SMILES IDX 22 13 24 14 27 15 28 16 29 17 30 18 12 19 11 20 10 21 13 22
REMARK SMILES IDX 31 23 25 24 26 25 19 26 2 27 3 28 1 29 8 30 9 31 23 33
REMARK H PARENT 9 32 23 34
REMARK Flexibility Score: inf
ROOT
ATOM      1  C   UNL     1       8.165  -5.310 -19.186  1.00  0.00     0.018 C 
ATOM      2  C   UNL     1       9.588  -5.597 -19.723  1.00  0.00     0.009 C 
ATOM      3  C   UNL     1       9.557  -7.016 -20.298  1.00  0.00     0.010 C 
ATOM      4  C   UNL     1       8.141  -7.547 -20.010  1.00  0.00    -0.003 C 
ATOM      5  C   UNL     1       7.294  -6.261 -20.060  1.00  0.00     0.008 C 
ATOM      6  C   UNL     1       5.762  -6.499 -19.773  1.00  0.00    -0.000 C 
ATOM      7  C   UNL     1       4.958  -5.278 -20.315  1.00  0.00     0.005 C 
ATOM      8  C   UNL     1       3.426  -5.391 -20.343  1.00  0.00     0.005 C 
ATOM      9  C   UNL     1       2.858  -6.780 -20.764  1.00  0.00     0.002 C 
ATOM     10  C   UNL     1       1.377  -6.787 -21.425  1.00  0.00    -0.026 C 
ATOM     11  C   UNL     1       0.903  -5.377 -21.894  1.00  0.00     0.010 C 
ATOM     12  C   UNL     1      -0.465  -5.397 -22.603  1.00  0.00     0.033 C 
ATOM     13  C   UNL     1      -0.436  -6.293 -23.856  1.00  0.00     0.120 C 
ATOM     14  C   UNL     1       0.056  -7.757 -23.603  1.00  0.00    -0.006 C 
ATOM     15  C   UNL     1       1.360  -7.727 -22.696  1.00  0.00     0.003 C 
ATOM     16  C   UNL     1       1.871  -9.125 -22.326  1.00  0.00     0.005 C 
ATOM     17  C   UNL     1       3.326  -9.121 -21.812  1.00  0.00     0.008 C 
ATOM     18  C   UNL     1       3.969  -7.729 -21.380  1.00  0.00    -0.024 C 
ATOM     19  C   UNL     1       5.146  -7.921 -20.268  1.00  0.00    -0.024 C 
ATOM     20  C   UNL     1       6.215  -8.948 -20.846  1.00  0.00     0.008 C 
ATOM     21  C   UNL     1       7.634  -8.458 -21.125  1.00  0.00     0.010 C 
ATOM     22  C   UNL     1       4.542  -8.585 -18.956  1.00  0.00     0.012 C 
ATOM     23  C   UNL     1       4.567  -7.086 -22.680  1.00  0.00     0.012 C 
ATOM     24  C   UNL     1      -1.084  -8.642 -23.015  1.00  0.00     0.014 C 
ATOM     25  C   UNL     1       0.411  -8.365 -25.014  1.00  0.00     0.014 C 
ATOM     26  C   UNL     1       0.392  -7.255 -20.287  1.00  0.00     0.012 C 
ENDROOT
BRANCH   1  27
ATOM     27  C   UNL     1       7.800  -3.824 -19.068  1.00  0.00    -0.077 C 
ATOM     28  C   UNL     1       7.582  -2.916 -20.263  1.00  0.00     0.039 C 
ATOM     29  C   UNL     1       8.004  -3.218 -17.877  1.00  0.00     0.008 C 
ENDBRANCH   1  27
BRANCH   4  30
ATOM     30  C   UNL     1       8.128  -8.304 -18.628  1.00  0.00     0.163 C 
BRANCH  30  31
ATOM     31  O   UNL     1       9.373  -8.882 -18.303  1.00  0.00    -0.396 OA
ATOM     32  H   UNL     1       9.473  -8.868 -17.314  1.00  0.00     0.210 HD
ENDBRANCH  30  31
ENDBRANCH   4  30
BRANCH  13  33
ATOM     33  O   UNL     1      -1.683  -6.275 -24.528  1.00  0.00    -0.393 OA
ATOM     34  H   UNL     1      -2.328  -5.772 -23.958  1.00  0.00     0.210 HD
ENDBRANCH  13  33
TORSDOF 4
ENDMDL
MODEL 4
REMARK VINA RESULT:    -3.814     11.280     14.635
REMARK INTER + INTRA:          -4.544
REMARK INTER:                  -4.048
REMARK INTRA:                  -0.496
REMARK UNBOUND:                -0.062
REMARK SMILES C=C(C)[C@@H]1CC[C@]2(CO)CC[C@@]3(C)[C@H](CC[C@H]4[C@@]5(C)CC[C@H](O)C(C)(C)[C@@H]5CC[C@@]43C)[C@@H]12
REMARK SMILES IDX 4 1 5 2 6 3 7 4 32 5 14 6 15 7 16 8 17 9 18 10 20 11 21 12
REMARK SMILES IDX 22 13 24 14 27 15 28 16 29 17 30 18 12 19 11 20 10 21 13 22
REMARK SMILES IDX 31 23 25 24 26 25 19 26 2 27 3 28 1 29 8 30 9 31 23 33
REMARK H PARENT 9 32 23 34
REMARK Flexibility Score: inf
ROOT
ATOM      1  C   UNL     1      11.171  -3.364 -19.386  1.00  0.00     0.018 C 
ATOM      2  C   UNL     1      11.153  -1.831 -19.168  1.00  0.00     0.009 C 
ATOM      3  C   UNL     1      12.425  -1.285 -19.823  1.00  0.00     0.010 C 
ATOM      4  C   UNL     1      13.189  -2.520 -20.335  1.00  0.00    -0.003 C 
ATOM      5  C   UNL     1      12.045  -3.495 -20.669  1.00  0.00     0.008 C 
ATOM      6  C   UNL     1      12.539  -4.891 -21.211  1.00  0.00    -0.000 C 
ATOM      7  C   UNL     1      11.357  -5.584 -21.955  1.00  0.00     0.005 C 
ATOM      8  C   UNL     1      11.669  -6.859 -22.754  1.00  0.00     0.005 C 
ATOM      9  C   UNL     1      13.014  -6.850 -23.540  1.00  0.00     0.002 C 
ATOM     10  C   UNL     1      13.094  -7.807 -24.849  1.00  0.00    -0.026 C 
ATOM     11  C   UNL     1      11.697  -8.291 -25.346  1.00  0.00     0.010 C 
ATOM     12  C   UNL     1      11.765  -9.125 -26.640  1.00  0.00     0.033 C 
ATOM     13  C   UNL     1      12.390  -8.319 -27.795  1.00  0.00     0.120 C 
ATOM     14  C   UNL     1      13.795  -7.705 -27.481  1.00  0.00    -0.006 C 
ATOM     15  C   UNL     1      13.764  -7.023 -26.047  1.00  0.00     0.003 C 
ATOM     16  C   UNL     1      15.125  -6.461 -25.615  1.00  0.00     0.005 C 
ATOM     17  C   UNL     1      15.023  -5.458 -24.447  1.00  0.00     0.008 C 
ATOM     18  C   UNL     1      13.667  -5.408 -23.613  1.00  0.00    -0.024 C 
ATOM     19  C   UNL     1      13.908  -4.883 -22.089  1.00  0.00    -0.024 C 
ATOM     20  C   UNL     1      14.650  -3.477 -22.157  1.00  0.00     0.008 C 
ATOM     21  C   UNL     1      13.928  -2.234 -21.640  1.00  0.00     0.010 C 
ATOM     22  C   UNL     1      14.889  -5.876 -21.328  1.00  0.00     0.012 C 
ATOM     23  C   UNL     1      12.709  -4.420 -24.369  1.00  0.00     0.012 C 
ATOM     24  C   UNL     1      14.923  -8.769 -27.633  1.00  0.00     0.014 C 
ATOM     25  C   UNL     1      14.065  -6.608 -28.581  1.00  0.00     0.014 C 
ATOM     26  C   UNL     1      13.902  -9.085 -24.408  1.00  0.00     0.012 C 
ENDROOT
BRANCH   1  27
ATOM     27  C   UNL     1       9.799  -4.048 -19.316  1.00  0.00    -0.077 C 
ATOM     28  C   UNL     1       8.483  -3.308 -19.466  1.00  0.00     0.039 C 
ATOM     29  C   UNL     1       9.739  -5.285 -18.773  1.00  0.00     0.008 C 
ENDBRANCH   1  27
BRANCH   4  30
ATOM     30  C   UNL     1      14.193  -3.020 -19.228  1.00  0.00     0.163 C 
BRANCH  30  31
ATOM     31  O   UNL     1      14.813  -1.964 -18.526  1.00  0.00    -0.396 OA
ATOM     32  H   UNL     1      14.573  -2.049 -17.565  1.00  0.00     0.210 HD
ENDBRANCH  30  31
ENDBRANCH   4  30
BRANCH  13  33
ATOM     33  O   UNL     1      12.412  -9.075 -28.994  1.00  0.00    -0.393 OA
ATOM     34  H   UNL     1      13.360  -9.144 -29.292  1.00  0.00     0.210 HD
ENDBRANCH  13  33
TORSDOF 4
ENDMDL
MODEL 5
REMARK VINA RESULT:    -3.503      1.940      3.808
REMARK INTER + INTRA:          -4.179
REMARK INTER:                  -3.583
REMARK INTRA:                  -0.597
REMARK UNBOUND:                -0.062
REMARK SMILES C=C(C)[C@@H]1CC[C@]2(CO)CC[C@@]3(C)[C@H](CC[C@H]4[C@@]5(C)CC[C@H](O)C(C)(C)[C@@H]5CC[C@@]43C)[C@@H]12
REMARK SMILES IDX 4 1 5 2 6 3 7 4 32 5 14 6 15 7 16 8 17 9 18 10 20 11 21 12
REMARK SMILES IDX 22 13 24 14 27 15 28 16 29 17 30 18 12 19 11 20 10 21 13 22
REMARK SMILES IDX 31 23 25 24 26 25 19 26 2 27 3 28 1 29 8 30 9 31 23 33
REMARK H PARENT 9 32 23 34
REMARK Flexibility Score: inf
ROOT
ATOM      1  C   UNL     1      -4.157  -7.400 -23.031  1.00  0.00     0.018 C 
ATOM      2  C   UNL     1      -4.766  -8.211 -24.201  1.00  0.00     0.009 C 
ATOM      3  C   UNL     1      -3.720  -8.214 -25.319  1.00  0.00     0.010 C 
ATOM      4  C   UNL     1      -2.563  -7.339 -24.802  1.00  0.00    -0.003 C 
ATOM      5  C   UNL     1      -2.630  -7.574 -23.282  1.00  0.00     0.008 C 
ATOM      6  C   UNL     1      -1.547  -6.768 -22.467  1.00  0.00    -0.000 C 
ATOM      7  C   UNL     1      -1.384  -7.429 -21.064  1.00  0.00     0.005 C 
ATOM      8  C   UNL     1      -0.225  -6.945 -20.180  1.00  0.00     0.005 C 
ATOM      9  C   UNL     1       1.115  -6.657 -20.921  1.00  0.00     0.002 C 
ATOM     10  C   UNL     1       2.472  -6.786 -20.040  1.00  0.00    -0.026 C 
ATOM     11  C   UNL     1       2.266  -7.551 -18.696  1.00  0.00     0.010 C 
ATOM     12  C   UNL     1       3.570  -7.752 -17.901  1.00  0.00     0.033 C 
ATOM     13  C   UNL     1       4.604  -8.556 -18.713  1.00  0.00     0.120 C 
ATOM     14  C   UNL     1       4.926  -7.971 -20.129  1.00  0.00    -0.006 C 
ATOM     15  C   UNL     1       3.570  -7.577 -20.857  1.00  0.00     0.003 C 
ATOM     16  C   UNL     1       3.789  -6.917 -22.225  1.00  0.00     0.005 C 
ATOM     17  C   UNL     1       2.520  -6.909 -23.103  1.00  0.00     0.008 C 
ATOM     18  C   UNL     1       1.120  -7.210 -22.406  1.00  0.00    -0.024 C 
ATOM     19  C   UNL     1      -0.121  -6.520 -23.208  1.00  0.00    -0.024 C 
ATOM     20  C   UNL     1      -0.063  -6.998 -24.725  1.00  0.00     0.008 C 
ATOM     21  C   UNL     1      -1.204  -7.852 -25.274  1.00  0.00     0.010 C 
ATOM     22  C   UNL     1       0.063  -4.941 -23.224  1.00  0.00     0.012 C 
ATOM     23  C   UNL     1       0.945  -8.770 -22.402  1.00  0.00     0.012 C 
ATOM     24  C   UNL     1       5.940  -6.791 -20.035  1.00  0.00     0.014 C 
ATOM     25  C   UNL     1       5.646  -9.116 -20.938  1.00  0.00     0.014 C 
ATOM     26  C   UNL     1       2.901  -5.314 -19.679  1.00  0.00     0.012 C 
ENDROOT
BRANCH   1  27
ATOM     27  C   UNL     1      -4.750  -7.704 -21.649  1.00  0.00    -0.077 C 
ATOM     28  C   UNL     1      -4.895  -6.667 -20.551  1.00  0.00     0.039 C 
ATOM     29  C   UNL     1      -4.841  -8.999 -21.273  1.00  0.00     0.008 C 
ENDBRANCH   1  27
BRANCH   4  30
ATOM     30  C   UNL     1      -2.780  -5.847 -25.260  1.00  0.00     0.163 C 
BRANCH  30  31
ATOM     31  O   UNL     1      -2.811  -5.698 -26.662  1.00  0.00    -0.396 OA
ATOM     32  H   UNL     1      -2.251  -4.912 -26.903  1.00  0.00     0.210 HD
ENDBRANCH  30  31
ENDBRANCH   4  30
BRANCH  13  33
ATOM     33  O   UNL     1       5.786  -8.775 -17.963  1.00  0.00    -0.393 OA
ATOM     34  H   UNL     1       5.671  -9.624 -17.455  1.00  0.00     0.210 HD
ENDBRANCH  13  33
TORSDOF 4
ENDMDL
MODEL 6
REMARK VINA RESULT:    -3.372      3.532      6.237
REMARK INTER + INTRA:          -4.025
REMARK INTER:                  -4.180
REMARK INTRA:                   0.155
REMARK UNBOUND:                -0.062
REMARK SMILES C=C(C)[C@@H]1CC[C@]2(CO)CC[C@@]3(C)[C@H](CC[C@H]4[C@@]5(C)CC[C@H](O)C(C)(C)[C@@H]5CC[C@@]43C)[C@@H]12
REMARK SMILES IDX 4 1 5 2 6 3 7 4 32 5 14 6 15 7 16 8 17 9 18 10 20 11 21 12
REMARK SMILES IDX 22 13 24 14 27 15 28 16 29 17 30 18 12 19 11 20 10 21 13 22
REMARK SMILES IDX 31 23 25 24 26 25 19 26 2 27 3 28 1 29 8 30 9 31 23 33
REMARK H PARENT 9 32 23 34
REMARK Flexibility Score: inf
ROOT
ATOM      1  C   UNL     1      -3.326  -5.749 -30.029  1.00  0.00     0.018 C 
ATOM      2  C   UNL     1      -4.500  -5.998 -31.007  1.00  0.00     0.009 C 
ATOM      3  C   UNL     1      -5.124  -7.337 -30.605  1.00  0.00     0.010 C 
ATOM      4  C   UNL     1      -4.250  -7.871 -29.456  1.00  0.00    -0.003 C 
ATOM      5  C   UNL     1      -3.768  -6.573 -28.783  1.00  0.00     0.008 C 
ATOM      6  C   UNL     1      -2.812  -6.813 -27.552  1.00  0.00    -0.000 C 
ATOM      7  C   UNL     1      -2.786  -5.520 -26.680  1.00  0.00     0.005 C 
ATOM      8  C   UNL     1      -2.092  -5.600 -25.312  1.00  0.00     0.005 C 
ATOM      9  C   UNL     1      -2.324  -6.917 -24.512  1.00  0.00     0.002 C 
ATOM     10  C   UNL     1      -2.198  -6.815 -22.897  1.00  0.00    -0.026 C 
ATOM     11  C   UNL     1      -2.248  -5.350 -22.365  1.00  0.00     0.010 C 
ATOM     12  C   UNL     1      -2.219  -5.259 -20.827  1.00  0.00     0.033 C 
ATOM     13  C   UNL     1      -3.415  -5.999 -20.197  1.00  0.00     0.120 C 
ATOM     14  C   UNL     1      -3.569  -7.492 -20.640  1.00  0.00    -0.006 C 
ATOM     15  C   UNL     1      -3.392  -7.596 -22.215  1.00  0.00     0.003 C 
ATOM     16  C   UNL     1      -3.446  -9.038 -22.736  1.00  0.00     0.005 C 
ATOM     17  C   UNL     1      -3.688  -9.124 -24.258  1.00  0.00     0.008 C 
ATOM     18  C   UNL     1      -3.482  -7.807 -25.128  1.00  0.00    -0.024 C 
ATOM     19  C   UNL     1      -3.088  -8.153 -26.672  1.00  0.00    -0.024 C 
ATOM     20  C   UNL     1      -4.200  -9.124 -27.265  1.00  0.00     0.008 C 
ATOM     21  C   UNL     1      -5.072  -8.632 -28.419  1.00  0.00     0.010 C 
ATOM     22  C   UNL     1      -1.717  -8.957 -26.709  1.00  0.00     0.012 C 
ATOM     23  C   UNL     1      -4.842  -7.024 -25.092  1.00  0.00     0.012 C 
ATOM     24  C   UNL     1      -2.597  -8.419 -19.849  1.00  0.00     0.014 C 
ATOM     25  C   UNL     1      -5.029  -7.933 -20.244  1.00  0.00     0.014 C 
ATOM     26  C   UNL     1      -0.780  -7.397 -22.532  1.00  0.00     0.012 C 
ENDROOT
BRANCH   1  27
ATOM     27  C   UNL     1      -2.906  -4.282 -29.874  1.00  0.00    -0.077 C 
ATOM     28  C   UNL     1      -3.432  -3.161 -30.751  1.00  0.00     0.039 C 
ATOM     29  C   UNL     1      -1.789  -4.017 -29.161  1.00  0.00     0.008 C 
ENDBRANCH   1  27
BRANCH   4  30
ATOM     30  C   UNL     1      -3.108  -8.788 -30.038  1.00  0.00     0.163 C 
BRANCH  30  31
ATOM     31  O   UNL     1      -3.259  -9.050 -31.416  1.00  0.00    -0.396 OA
ATOM     32  H   UNL     1      -2.553  -9.695 -31.688  1.00  0.00     0.210 HD
ENDBRANCH  30  31
ENDBRANCH   4  30
BRANCH  13  33
ATOM     33  O   UNL     1      -3.407  -5.876 -18.785  1.00  0.00    -0.393 OA
ATOM     34  H   UNL     1      -3.897  -5.041 -18.550  1.00  0.00     0.210 HD
ENDBRANCH  13  33
TORSDOF 4
ENDMDL
MODEL 7
REMARK VINA RESULT:    -3.128      2.243      7.761
REMARK INTER + INTRA:          -3.738
REMARK INTER:                  -4.531
REMARK INTRA:                   0.793
REMARK UNBOUND:                -0.062
REMARK SMILES C=C(C)[C@@H]1CC[C@]2(CO)CC[C@@]3(C)[C@H](CC[C@H]4[C@@]5(C)CC[C@H](O)C(C)(C)[C@@H]5CC[C@@]43C)[C@@H]12
REMARK SMILES IDX 4 1 5 2 6 3 7 4 32 5 14 6 15 7 16 8 17 9 18 10 20 11 21 12
REMARK SMILES IDX 22 13 24 14 27 15 28 16 29 17 30 18 12 19 11 20 10 21 13 22
REMARK SMILES IDX 31 23 25 24 26 25 19 26 2 27 3 28 1 29 8 30 9 31 23 33
REMARK H PARENT 9 32 23 34
REMARK Flexibility Score: inf
ROOT
ATOM      1  C   UNL     1       2.941  -6.513 -19.820  1.00  0.00     0.018 C 
ATOM      2  C   UNL     1       3.575  -7.670 -19.010  1.00  0.00     0.009 C 
ATOM      3  C   UNL     1       2.436  -8.633 -18.663  1.00  0.00     0.010 C 
ATOM      4  C   UNL     1       1.158  -7.973 -19.210  1.00  0.00    -0.003 C 
ATOM      5  C   UNL     1       1.686  -7.202 -20.434  1.00  0.00     0.008 C 
ATOM      6  C   UNL     1       0.573  -6.392 -21.203  1.00  0.00    -0.000 C 
ATOM      7  C   UNL     1       1.090  -6.072 -22.638  1.00  0.00     0.005 C 
ATOM      8  C   UNL     1       0.087  -5.480 -23.640  1.00  0.00     0.005 C 
ATOM      9  C   UNL     1      -1.352  -6.074 -23.587  1.00  0.00     0.002 C 
ATOM     10  C   UNL     1      -2.220  -5.994 -24.956  1.00  0.00    -0.026 C 
ATOM     11  C   UNL     1      -1.356  -5.689 -26.218  1.00  0.00     0.010 C 
ATOM     12  C   UNL     1      -2.165  -5.701 -27.529  1.00  0.00     0.033 C 
ATOM     13  C   UNL     1      -2.827  -7.072 -27.768  1.00  0.00     0.120 C 
ATOM     14  C   UNL     1      -3.717  -7.585 -26.586  1.00  0.00    -0.006 C 
ATOM     15  C   UNL     1      -2.944  -7.375 -25.214  1.00  0.00     0.003 C 
ATOM     16  C   UNL     1      -3.773  -7.775 -23.987  1.00  0.00     0.005 C 
ATOM     17  C   UNL     1      -2.918  -7.968 -22.716  1.00  0.00     0.008 C 
ATOM     18  C   UNL     1      -1.432  -7.395 -22.714  1.00  0.00    -0.024 C 
ATOM     19  C   UNL     1      -0.919  -7.038 -21.208  1.00  0.00    -0.024 C 
ATOM     20  C   UNL     1      -1.089  -8.337 -20.303  1.00  0.00     0.008 C 
ATOM     21  C   UNL     1       0.159  -9.005 -19.729  1.00  0.00     0.010 C 
ATOM     22  C   UNL     1      -1.853  -5.919 -20.573  1.00  0.00     0.012 C 
ATOM     23  C   UNL     1      -0.518  -8.509 -23.335  1.00  0.00     0.012 C 
ATOM     24  C   UNL     1      -5.125  -6.917 -26.608  1.00  0.00     0.014 C 
ATOM     25  C   UNL     1      -3.949  -9.125 -26.830  1.00  0.00     0.014 C 
ATOM     26  C   UNL     1      -3.218  -4.789 -24.771  1.00  0.00     0.012 C 
ENDROOT
BRANCH   1  27
ATOM     27  C   UNL     1       3.912  -5.738 -20.721  1.00  0.00    -0.077 C 
ATOM     28  C   UNL     1       4.074  -6.005 -22.206  1.00  0.00     0.039 C 
ATOM     29  C   UNL     1       4.894  -5.027 -20.124  1.00  0.00     0.008 C 
ENDBRANCH   1  27
BRANCH   4  30
ATOM     30  C   UNL     1       0.499  -7.081 -18.090  1.00  0.00     0.163 C 
BRANCH  30  31
ATOM     31  O   UNL     1       1.105  -5.813 -17.965  1.00  0.00    -0.396 OA
ATOM     32  H   UNL     1       0.407  -5.120 -18.112  1.00  0.00     0.210 HD
ENDBRANCH  30  31
ENDBRANCH   4  30
BRANCH  13  33
ATOM     33  O   UNL     1      -3.535  -7.092 -28.995  1.00  0.00    -0.393 OA
ATOM     34  H   UNL     1      -4.053  -6.244 -29.061  1.00  0.00     0.210 HD
ENDBRANCH  13  33
TORSDOF 4
ENDMDL
MODEL 8
REMARK VINA RESULT:    -2.990     10.229     13.446
REMARK INTER + INTRA:          -3.576
REMARK INTER:                  -3.496
REMARK INTRA:                  -0.080
REMARK UNBOUND:                -0.062
REMARK SMILES C=C(C)[C@@H]1CC[C@]2(CO)CC[C@@]3(C)[C@H](CC[C@H]4[C@@]5(C)CC[C@H](O)C(C)(C)[C@@H]5CC[C@@]43C)[C@@H]12
REMARK SMILES IDX 4 1 5 2 6 3 7 4 32 5 14 6 15 7 16 8 17 9 18 10 20 11 21 12
REMARK SMILES IDX 22 13 24 14 27 15 28 16 29 17 30 18 12 19 11 20 10 21 13 22
REMARK SMILES IDX 31 23 25 24 26 25 19 26 2 27 3 28 1 29 8 30 9 31 23 33
REMARK H PARENT 9 32 23 34
REMARK Flexibility Score: inf
ROOT
ATOM      1  C   UNL     1      10.276  -7.950 -22.996  1.00  0.00     0.018 C 
ATOM      2  C   UNL     1       8.886  -8.608 -22.817  1.00  0.00     0.009 C 
ATOM      3  C   UNL     1       8.534  -8.483 -21.332  1.00  0.00     0.010 C 
ATOM      4  C   UNL     1       9.761  -7.829 -20.671  1.00  0.00    -0.003 C 
ATOM      5  C   UNL     1      10.310  -6.945 -21.806  1.00  0.00     0.008 C 
ATOM      6  C   UNL     1      11.613  -6.148 -21.416  1.00  0.00    -0.000 C 
ATOM      7  C   UNL     1      11.791  -4.963 -22.414  1.00  0.00     0.005 C 
ATOM      8  C   UNL     1      12.873  -3.920 -22.094  1.00  0.00     0.005 C 
ATOM      9  C   UNL     1      13.013  -3.531 -20.592  1.00  0.00     0.002 C 
ATOM     10  C   UNL     1      13.617  -2.057 -20.279  1.00  0.00    -0.026 C 
ATOM     11  C   UNL     1      13.604  -1.109 -21.517  1.00  0.00     0.010 C 
ATOM     12  C   UNL     1      14.093   0.317 -21.199  1.00  0.00     0.033 C 
ATOM     13  C   UNL     1      13.216   0.985 -20.121  1.00  0.00     0.120 C 
ATOM     14  C   UNL     1      13.066   0.164 -18.797  1.00  0.00    -0.006 C 
ATOM     15  C   UNL     1      12.762  -1.355 -19.150  1.00  0.00     0.003 C 
ATOM     16  C   UNL     1      12.679  -2.258 -17.912  1.00  0.00     0.005 C 
ATOM     17  C   UNL     1      11.991  -3.611 -18.194  1.00  0.00     0.008 C 
ATOM     18  C   UNL     1      11.805  -4.058 -19.711  1.00  0.00    -0.024 C 
ATOM     19  C   UNL     1      11.738  -5.680 -19.864  1.00  0.00    -0.024 C 
ATOM     20  C   UNL     1      10.588  -6.224 -18.907  1.00  0.00     0.008 C 
ATOM     21  C   UNL     1       9.365  -6.896 -19.530  1.00  0.00     0.010 C 
ATOM     22  C   UNL     1      13.097  -6.325 -19.349  1.00  0.00     0.012 C 
ATOM     23  C   UNL     1      10.458  -3.423 -20.207  1.00  0.00     0.012 C 
ATOM     24  C   UNL     1      14.311   0.345 -17.876  1.00  0.00     0.014 C 
ATOM     25  C   UNL     1      11.841   0.780 -18.020  1.00  0.00     0.014 C 
ATOM     26  C   UNL     1      15.124  -2.278 -19.876  1.00  0.00     0.012 C 
ENDROOT
BRANCH   1  27
ATOM     27  C   UNL     1      10.592  -7.471 -24.419  1.00  0.00    -0.077 C 
ATOM     28  C   UNL     1       9.579  -6.789 -25.319  1.00  0.00     0.039 C 
ATOM     29  C   UNL     1      11.699  -7.962 -25.018  1.00  0.00     0.008 C 
ENDBRANCH   1  27
BRANCH   4  30
ATOM     30  C   UNL     1      10.746  -8.946 -20.156  1.00  0.00     0.163 C 
BRANCH  30  31
ATOM     31  O   UNL     1      10.782  -9.044 -18.749  1.00  0.00    -0.396 OA
ATOM     32  H   UNL     1      11.380  -8.329 -18.404  1.00  0.00     0.210 HD
ENDBRANCH  30  31
ENDBRANCH   4  30
BRANCH  13  33
ATOM     33  O   UNL     1      13.644   2.311 -19.862  1.00  0.00    -0.393 OA
ATOM     34  H   UNL     1      13.015   2.929 -20.326  1.00  0.00     0.210 HD
ENDBRANCH  13  33
TORSDOF 4
ENDMDL
