MODEL 1
REMARK VINA RESULT:    -4.626      0.000      0.000
REMARK INTER + INTRA:         -13.631
REMARK INTER:                 -10.035
REMARK INTRA:                  -3.595
REMARK UNBOUND:                -3.595
REMARK SMILES CCCCCCCCCCCCCCCCCCCCCC(=O)[O-]
REMARK SMILES IDX 12 1 11 2 10 3 9 4 8 5 7 6 6 7 5 8 4 9 3 10 2 11 1 12 13 13
REMARK SMILES IDX 14 14 15 15 16 16 17 17 18 18 19 19 20 20 21 21 22 22 23 23
REMARK SMILES IDX 24 24
REMARK H PARENT
REMARK Flexibility Score: inf
ROOT
ATOM      1  C   UNL     1      62.005  28.637   9.057  1.00  0.00     0.000 C 
ENDROOT
BRANCH   1   2
ATOM      2  C   UNL     1      60.941  29.723   9.290  1.00  0.00     0.000 C 
BRANCH   2   3
ATOM      3  C   UNL     1      59.843  29.281  10.269  1.00  0.00     0.000 C 
BRANCH   3   4
ATOM      4  C   UNL     1      60.361  28.186  11.214  1.00  0.00    -0.000 C 
BRANCH   4   5
ATOM      5  C   UNL     1      59.815  28.329  12.644  1.00  0.00    -0.000 C 
BRANCH   5   6
ATOM      6  C   UNL     1      60.932  28.517  13.685  1.00  0.00    -0.000 C 
BRANCH   6   7
ATOM      7  C   UNL     1      62.325  28.619  13.044  1.00  0.00    -0.000 C 
BRANCH   7   8
ATOM      8  C   UNL     1      63.057  29.918  13.414  1.00  0.00    -0.000 C 
BRANCH   8   9
ATOM      9  C   UNL     1      62.066  30.989  13.895  1.00  0.00    -0.000 C 
BRANCH   9  10
ATOM     10  C   UNL     1      61.626  31.937  12.769  1.00  0.00    -0.000 C 
BRANCH  10  11
ATOM     11  C   UNL     1      60.112  32.194  12.770  1.00  0.00    -0.003 C 
ATOM     12  C   UNL     1      59.494  31.830  14.117  1.00  0.00     0.004 C 
ENDBRANCH  10  11
ENDBRANCH   9  10
ENDBRANCH   8   9
ENDBRANCH   7   8
ENDBRANCH   6   7
ENDBRANCH   5   6
ENDBRANCH   4   5
ENDBRANCH   3   4
ENDBRANCH   2   3
ENDBRANCH   1   2
BRANCH   1  13
ATOM     13  C   UNL     1      63.440  29.180   9.177  1.00  0.00     0.000 C 
BRANCH  13  14
ATOM     14  C   UNL     1      63.502  30.526   9.915  1.00  0.00     0.000 C 
BRANCH  14  15
ATOM     15  C   UNL     1      64.546  31.484   9.314  1.00  0.00     0.000 C 
BRANCH  15  16
ATOM     16  C   UNL     1      65.520  32.038  10.369  1.00  0.00     0.000 C 
BRANCH  16  17
ATOM     17  C   UNL     1      64.846  32.684  11.596  1.00  0.00     0.000 C 
BRANCH  17  18
ATOM     18  C   UNL     1      65.503  33.987  12.096  1.00  0.00     0.000 C 
BRANCH  18  19
ATOM     19  C   UNL     1      65.633  34.104  13.624  1.00  0.00     0.000 C 
BRANCH  19  20
ATOM     20  C   UNL     1      64.305  33.849  14.359  1.00  0.00     0.006 C 
BRANCH  20  21
ATOM     21  C   UNL     1      64.512  33.618  15.862  1.00  0.00     0.053 C 
BRANCH  21  22
ATOM     22  C   UNL     1      63.292  33.983  16.653  1.00  0.00     0.041 C 
ATOM     23  O   UNL     1      62.244  33.291  16.556  1.00  0.00    -0.550 OA
ATOM     24  O   UNL     1      63.302  35.110  17.466  1.00  0.00    -0.550 OA
ENDBRANCH  21  22
ENDBRANCH  20  21
ENDBRANCH  19  20
ENDBRANCH  18  19
ENDBRANCH  17  18
ENDBRANCH  16  17
ENDBRANCH  15  16
ENDBRANCH  14  15
ENDBRANCH  13  14
ENDBRANCH   1  13
TORSDOF 20
ENDMDL
MODEL 2
REMARK VINA RESULT:    -4.617      1.338      4.324
REMARK INTER + INTRA:         -13.611
REMARK INTER:                 -10.497
REMARK INTRA:                  -3.114
REMARK UNBOUND:                -3.595
REMARK SMILES CCCCCCCCCCCCCCCCCCCCCC(=O)[O-]
REMARK SMILES IDX 12 1 11 2 10 3 9 4 8 5 7 6 6 7 5 8 4 9 3 10 2 11 1 12 13 13
REMARK SMILES IDX 14 14 15 15 16 16 17 17 18 18 19 19 20 20 21 21 22 22 23 23
REMARK SMILES IDX 24 24
REMARK H PARENT
REMARK Flexibility Score: inf
ROOT
ATOM      1  C   UNL     1      59.801  29.659  10.855  1.00  0.00     0.000 C 
ENDROOT
BRANCH   1   2
ATOM      2  C   UNL     1      60.699  29.713   9.608  1.00  0.00     0.000 C 
BRANCH   2   3
ATOM      3  C   UNL     1      61.650  28.511   9.506  1.00  0.00     0.000 C 
BRANCH   3   4
ATOM      4  C   UNL     1      63.106  28.979   9.354  1.00  0.00    -0.000 C 
BRANCH   4   5
ATOM      5  C   UNL     1      63.434  30.194  10.236  1.00  0.00    -0.000 C 
BRANCH   5   6
ATOM      6  C   UNL     1      64.448  31.145   9.576  1.00  0.00    -0.000 C 
BRANCH   6   7
ATOM      7  C   UNL     1      64.908  32.267  10.521  1.00  0.00    -0.000 C 
BRANCH   7   8
ATOM      8  C   UNL     1      64.147  32.270  11.856  1.00  0.00    -0.000 C 
BRANCH   8   9
ATOM      9  C   UNL     1      64.774  33.266  12.844  1.00  0.00    -0.000 C 
BRANCH   9  10
ATOM     10  C   UNL     1      64.008  33.344  14.173  1.00  0.00    -0.000 C 
BRANCH  10  11
ATOM     11  C   UNL     1      64.412  32.234  15.154  1.00  0.00    -0.003 C 
ATOM     12  C   UNL     1      65.651  32.631  15.952  1.00  0.00     0.004 C 
ENDBRANCH  10  11
ENDBRANCH   9  10
ENDBRANCH   8   9
ENDBRANCH   7   8
ENDBRANCH   6   7
ENDBRANCH   5   6
ENDBRANCH   4   5
ENDBRANCH   3   4
ENDBRANCH   2   3
ENDBRANCH   1   2
BRANCH   1  13
ATOM     13  C   UNL     1      59.778  28.266  11.508  1.00  0.00     0.000 C 
BRANCH  13  14
ATOM     14  C   UNL     1      60.239  28.294  12.975  1.00  0.00     0.000 C 
BRANCH  14  15
ATOM     15  C   UNL     1      61.741  28.594  13.118  1.00  0.00     0.000 C 
BRANCH  15  16
ATOM     16  C   UNL     1      62.016  29.873  13.929  1.00  0.00     0.000 C 
BRANCH  16  17
ATOM     17  C   UNL     1      60.762  30.697  14.282  1.00  0.00     0.000 C 
BRANCH  17  18
ATOM     18  C   UNL     1      60.577  31.995  13.469  1.00  0.00     0.000 C 
BRANCH  18  19
ATOM     19  C   UNL     1      60.432  33.275  14.310  1.00  0.00     0.000 C 
BRANCH  19  20
ATOM     20  C   UNL     1      60.819  33.068  15.785  1.00  0.00     0.006 C 
BRANCH  20  21
ATOM     21  C   UNL     1      60.734  34.370  16.593  1.00  0.00     0.053 C 
BRANCH  21  22
ATOM     22  C   UNL     1      61.533  34.292  17.858  1.00  0.00     0.041 C 
ATOM     23  O   UNL     1      62.686  34.797  17.911  1.00  0.00    -0.550 OA
ATOM     24  O   UNL     1      61.020  33.627  18.965  1.00  0.00    -0.550 OA
ENDBRANCH  21  22
ENDBRANCH  20  21
ENDBRANCH  19  20
ENDBRANCH  18  19
ENDBRANCH  17  18
ENDBRANCH  16  17
ENDBRANCH  15  16
ENDBRANCH  14  15
ENDBRANCH  13  14
ENDBRANCH   1  13
TORSDOF 20
ENDMDL
MODEL 3
REMARK VINA RESULT:    -4.599      1.168      1.693
REMARK INTER + INTRA:         -13.572
REMARK INTER:                 -10.353
REMARK INTRA:                  -3.219
REMARK UNBOUND:                -3.595
REMARK SMILES CCCCCCCCCCCCCCCCCCCCCC(=O)[O-]
REMARK SMILES IDX 12 1 11 2 10 3 9 4 8 5 7 6 6 7 5 8 4 9 3 10 2 11 1 12 13 13
REMARK SMILES IDX 14 14 15 15 16 16 17 17 18 18 19 19 20 20 21 21 22 22 23 23
REMARK SMILES IDX 24 24
REMARK H PARENT
REMARK Flexibility Score: inf
ROOT
ATOM      1  C   UNL     1      63.050  28.876   9.215  1.00  0.00     0.000 C 
ENDROOT
BRANCH   1   2
ATOM      2  C   UNL     1      61.604  28.469   9.539  1.00  0.00     0.000 C 
BRANCH   2   3
ATOM      3  C   UNL     1      60.652  29.672   9.634  1.00  0.00     0.000 C 
BRANCH   3   4
ATOM      4  C   UNL     1      60.101  29.822  11.060  1.00  0.00    -0.000 C 
BRANCH   4   5
ATOM      5  C   UNL     1      59.775  28.470  11.716  1.00  0.00    -0.000 C 
BRANCH   5   6
ATOM      6  C   UNL     1      60.354  28.349  13.136  1.00  0.00    -0.000 C 
BRANCH   6   7
ATOM      7  C   UNL     1      61.875  28.575  13.175  1.00  0.00    -0.000 C 
BRANCH   7   8
ATOM      8  C   UNL     1      62.287  29.676  14.164  1.00  0.00    -0.000 C 
BRANCH   8   9
ATOM      9  C   UNL     1      61.093  30.118  15.023  1.00  0.00    -0.000 C 
BRANCH   9  10
ATOM     10  C   UNL     1      61.093  31.629  15.305  1.00  0.00    -0.000 C 
BRANCH  10  11
ATOM     11  C   UNL     1      59.992  32.374  14.536  1.00  0.00    -0.003 C 
ATOM     12  C   UNL     1      60.441  32.706  13.116  1.00  0.00     0.004 C 
ENDBRANCH  10  11
ENDBRANCH   9  10
ENDBRANCH   8   9
ENDBRANCH   7   8
ENDBRANCH   6   7
ENDBRANCH   5   6
ENDBRANCH   4   5
ENDBRANCH   3   4
ENDBRANCH   2   3
ENDBRANCH   1   2
BRANCH   1  13
ATOM     13  C   UNL     1      63.343  30.347   9.561  1.00  0.00     0.000 C 
BRANCH  13  14
ATOM     14  C   UNL     1      64.035  30.505  10.924  1.00  0.00     0.000 C 
BRANCH  14  15
ATOM     15  C   UNL     1      63.706  31.846  11.603  1.00  0.00     0.000 C 
BRANCH  15  16
ATOM     16  C   UNL     1      64.815  32.896  11.415  1.00  0.00     0.000 C 
BRANCH  16  17
ATOM     17  C   UNL     1      65.282  33.584  12.713  1.00  0.00     0.000 C 
BRANCH  17  18
ATOM     18  C   UNL     1      64.509  33.179  13.985  1.00  0.00     0.000 C 
BRANCH  18  19
ATOM     19  C   UNL     1      64.601  34.182  15.148  1.00  0.00     0.000 C 
BRANCH  19  20
ATOM     20  C   UNL     1      63.323  34.227  16.003  1.00  0.00     0.006 C 
BRANCH  20  21
ATOM     21  C   UNL     1      63.505  33.519  17.353  1.00  0.00     0.053 C 
BRANCH  21  22
ATOM     22  C   UNL     1      62.406  33.860  18.312  1.00  0.00     0.041 C 
ATOM     23  O   UNL     1      61.262  34.165  17.883  1.00  0.00    -0.550 OA
ATOM     24  O   UNL     1      62.657  33.881  19.679  1.00  0.00    -0.550 OA
ENDBRANCH  21  22
ENDBRANCH  20  21
ENDBRANCH  19  20
ENDBRANCH  18  19
ENDBRANCH  17  18
ENDBRANCH  16  17
ENDBRANCH  15  16
ENDBRANCH  14  15
ENDBRANCH  13  14
ENDBRANCH   1  13
TORSDOF 20
ENDMDL
MODEL 4
REMARK VINA RESULT:    -4.587      2.354      5.597
REMARK INTER + INTRA:         -13.545
REMARK INTER:                 -10.281
REMARK INTRA:                  -3.265
REMARK UNBOUND:                -3.595
REMARK SMILES CCCCCCCCCCCCCCCCCCCCCC(=O)[O-]
REMARK SMILES IDX 12 1 11 2 10 3 9 4 8 5 7 6 6 7 5 8 4 9 3 10 2 11 1 12 13 13
REMARK SMILES IDX 14 14 15 15 16 16 17 17 18 18 19 19 20 20 21 21 22 22 23 23
REMARK SMILES IDX 24 24
REMARK H PARENT
REMARK Flexibility Score: inf
ROOT
ATOM      1  C   UNL     1      61.596  28.371  12.941  1.00  0.00     0.000 C 
ENDROOT
BRANCH   1   2
ATOM      2  C   UNL     1      61.784  29.721  13.651  1.00  0.00     0.000 C 
BRANCH   2   3
ATOM      3  C   UNL     1      62.386  30.798  12.736  1.00  0.00     0.000 C 
BRANCH   3   4
ATOM      4  C   UNL     1      61.444  32.005  12.620  1.00  0.00    -0.000 C 
BRANCH   4   5
ATOM      5  C   UNL     1      59.995  31.669  13.011  1.00  0.00    -0.000 C 
BRANCH   5   6
ATOM      6  C   UNL     1      59.594  32.276  14.366  1.00  0.00    -0.000 C 
BRANCH   6   7
ATOM      7  C   UNL     1      60.486  33.462  14.769  1.00  0.00    -0.000 C 
BRANCH   7   8
ATOM      8  C   UNL     1      61.138  33.275  16.147  1.00  0.00    -0.000 C 
BRANCH   8   9
ATOM      9  C   UNL     1      62.638  32.970  16.008  1.00  0.00    -0.000 C 
BRANCH   9  10
ATOM     10  C   UNL     1      63.522  34.185  16.329  1.00  0.00    -0.000 C 
BRANCH  10  11
ATOM     11  C   UNL     1      64.768  34.262  15.435  1.00  0.00    -0.003 C 
ATOM     12  C   UNL     1      64.489  33.681  14.052  1.00  0.00     0.004 C 
ENDBRANCH  10  11
ENDBRANCH   9  10
ENDBRANCH   8   9
ENDBRANCH   7   8
ENDBRANCH   6   7
ENDBRANCH   5   6
ENDBRANCH   4   5
ENDBRANCH   3   4
ENDBRANCH   2   3
ENDBRANCH   1   2
BRANCH   1  13
ATOM     13  C   UNL     1      60.146  27.861  13.012  1.00  0.00     0.000 C 
BRANCH  13  14
ATOM     14  C   UNL     1      59.251  28.475  11.923  1.00  0.00     0.000 C 
BRANCH  14  15
ATOM     15  C   UNL     1      59.833  28.301  10.510  1.00  0.00     0.000 C 
BRANCH  15  16
ATOM     16  C   UNL     1      60.024  29.641   9.777  1.00  0.00     0.000 C 
BRANCH  16  17
ATOM     17  C   UNL     1      61.316  29.743   8.941  1.00  0.00     0.000 C 
BRANCH  17  18
ATOM     18  C   UNL     1      62.315  28.584   9.132  1.00  0.00     0.000 C 
BRANCH  18  19
ATOM     19  C   UNL     1      63.798  28.978   9.017  1.00  0.00     0.000 C 
BRANCH  19  20
ATOM     20  C   UNL     1      64.060  30.441   9.415  1.00  0.00     0.006 C 
BRANCH  20  21
ATOM     21  C   UNL     1      65.551  30.800   9.352  1.00  0.00     0.053 C 
BRANCH  21  22
ATOM     22  C   UNL     1      65.834  32.115  10.010  1.00  0.00     0.041 C 
ATOM     23  O   UNL     1      64.977  32.643  10.767  1.00  0.00    -0.550 OA
ATOM     24  O   UNL     1      67.029  32.777   9.755  1.00  0.00    -0.550 OA
ENDBRANCH  21  22
ENDBRANCH  20  21
ENDBRANCH  19  20
ENDBRANCH  18  19
ENDBRANCH  17  18
ENDBRANCH  16  17
ENDBRANCH  15  16
ENDBRANCH  14  15
ENDBRANCH  13  14
ENDBRANCH   1  13
TORSDOF 20
ENDMDL
MODEL 5
REMARK VINA RESULT:    -4.578      1.447      2.543
REMARK INTER + INTRA:         -13.526
REMARK INTER:                 -10.438
REMARK INTRA:                  -3.087
REMARK UNBOUND:                -3.595
REMARK SMILES CCCCCCCCCCCCCCCCCCCCCC(=O)[O-]
REMARK SMILES IDX 12 1 11 2 10 3 9 4 8 5 7 6 6 7 5 8 4 9 3 10 2 11 1 12 13 13
REMARK SMILES IDX 14 14 15 15 16 16 17 17 18 18 19 19 20 20 21 21 22 22 23 23
REMARK SMILES IDX 24 24
REMARK H PARENT
REMARK Flexibility Score: inf
ROOT
ATOM      1  C   UNL     1      60.713  28.044  10.115  1.00  0.00     0.000 C 
ENDROOT
BRANCH   1   2
ATOM      2  C   UNL     1      59.530  28.742  10.806  1.00  0.00     0.000 C 
BRANCH   2   3
ATOM      3  C   UNL     1      59.407  28.376  12.293  1.00  0.00     0.000 C 
BRANCH   3   4
ATOM      4  C   UNL     1      60.795  28.233  12.937  1.00  0.00    -0.000 C 
BRANCH   4   5
ATOM      5  C   UNL     1      61.106  29.362  13.934  1.00  0.00    -0.000 C 
BRANCH   5   6
ATOM      6  C   UNL     1      61.919  30.503  13.299  1.00  0.00    -0.000 C 
BRANCH   6   7
ATOM      7  C   UNL     1      61.027  31.567  12.638  1.00  0.00    -0.000 C 
BRANCH   7   8
ATOM      8  C   UNL     1      60.108  32.280  13.642  1.00  0.00    -0.000 C 
BRANCH   8   9
ATOM      9  C   UNL     1      60.893  33.312  14.466  1.00  0.00    -0.000 C 
BRANCH   9  10
ATOM     10  C   UNL     1      60.966  32.949  15.957  1.00  0.00    -0.000 C 
BRANCH  10  11
ATOM     11  C   UNL     1      61.153  34.179  16.857  1.00  0.00    -0.003 C 
ATOM     12  C   UNL     1      61.284  33.774  18.322  1.00  0.00     0.004 C 
ENDBRANCH  10  11
ENDBRANCH   9  10
ENDBRANCH   8   9
ENDBRANCH   7   8
ENDBRANCH   6   7
ENDBRANCH   5   6
ENDBRANCH   4   5
ENDBRANCH   3   4
ENDBRANCH   2   3
ENDBRANCH   1   2
BRANCH   1  13
ATOM     13  C   UNL     1      61.693  29.040   9.471  1.00  0.00     0.000 C 
BRANCH  13  14
ATOM     14  C   UNL     1      63.087  28.997  10.118  1.00  0.00     0.000 C 
BRANCH  14  15
ATOM     15  C   UNL     1      64.155  29.712   9.272  1.00  0.00     0.000 C 
BRANCH  15  16
ATOM     16  C   UNL     1      64.169  31.235   9.495  1.00  0.00     0.000 C 
BRANCH  16  17
ATOM     17  C   UNL     1      64.583  31.677  10.913  1.00  0.00     0.000 C 
BRANCH  17  18
ATOM     18  C   UNL     1      65.322  33.029  10.990  1.00  0.00     0.000 C 
BRANCH  18  19
ATOM     19  C   UNL     1      65.519  33.581  12.412  1.00  0.00     0.000 C 
BRANCH  19  20
ATOM     20  C   UNL     1      64.307  33.329  13.325  1.00  0.00     0.006 C 
BRANCH  20  21
ATOM     21  C   UNL     1      64.522  33.886  14.739  1.00  0.00     0.053 C 
BRANCH  21  22
ATOM     22  C   UNL     1      64.540  32.798  15.768  1.00  0.00     0.041 C 
ATOM     23  O   UNL     1      64.509  31.589  15.414  1.00  0.00    -0.550 OA
ATOM     24  O   UNL     1      64.550  33.119  17.120  1.00  0.00    -0.550 OA
ENDBRANCH  21  22
ENDBRANCH  20  21
ENDBRANCH  19  20
ENDBRANCH  18  19
ENDBRANCH  17  18
ENDBRANCH  16  17
ENDBRANCH  15  16
ENDBRANCH  14  15
ENDBRANCH  13  14
ENDBRANCH   1  13
TORSDOF 20
ENDMDL
MODEL 6
REMARK VINA RESULT:    -4.505      1.040      4.201
REMARK INTER + INTRA:         -13.368
REMARK INTER:                 -10.341
REMARK INTRA:                  -3.026
REMARK UNBOUND:                -3.595
REMARK SMILES CCCCCCCCCCCCCCCCCCCCCC(=O)[O-]
REMARK SMILES IDX 12 1 11 2 10 3 9 4 8 5 7 6 6 7 5 8 4 9 3 10 2 11 1 12 13 13
REMARK SMILES IDX 14 14 15 15 16 16 17 17 18 18 19 19 20 20 21 21 22 22 23 23
REMARK SMILES IDX 24 24
REMARK H PARENT
REMARK Flexibility Score: inf
ROOT
ATOM      1  C   UNL     1      59.991  28.225  11.264  1.00  0.00     0.000 C 
ENDROOT
BRANCH   1   2
ATOM      2  C   UNL     1      59.466  29.376  10.391  1.00  0.00     0.000 C 
BRANCH   2   3
ATOM      3  C   UNL     1      60.198  29.487   9.046  1.00  0.00     0.000 C 
BRANCH   3   4
ATOM      4  C   UNL     1      61.628  28.937   9.155  1.00  0.00    -0.000 C 
BRANCH   4   5
ATOM      5  C   UNL     1      62.700  30.013   8.916  1.00  0.00    -0.000 C 
BRANCH   5   6
ATOM      6  C   UNL     1      64.026  29.693   9.626  1.00  0.00    -0.000 C 
BRANCH   6   7
ATOM      7  C   UNL     1      65.248  30.249   8.875  1.00  0.00    -0.000 C 
BRANCH   7   8
ATOM      8  C   UNL     1      65.302  31.784   8.882  1.00  0.00    -0.000 C 
BRANCH   8   9
ATOM      9  C   UNL     1      65.939  32.304  10.181  1.00  0.00    -0.000 C 
BRANCH   9  10
ATOM     10  C   UNL     1      64.899  32.832  11.180  1.00  0.00    -0.000 C 
BRANCH  10  11
ATOM     11  C   UNL     1      65.520  33.732  12.259  1.00  0.00    -0.003 C 
ATOM     12  C   UNL     1      65.077  33.302  13.655  1.00  0.00     0.004 C 
ENDBRANCH  10  11
ENDBRANCH   9  10
ENDBRANCH   8   9
ENDBRANCH   7   8
ENDBRANCH   6   7
ENDBRANCH   5   6
ENDBRANCH   4   5
ENDBRANCH   3   4
ENDBRANCH   2   3
ENDBRANCH   1   2
BRANCH   1  13
ATOM     13  C   UNL     1      59.573  28.362  12.738  1.00  0.00     0.000 C 
BRANCH  13  14
ATOM     14  C   UNL     1      60.721  28.852  13.635  1.00  0.00     0.000 C 
BRANCH  14  15
ATOM     15  C   UNL     1      62.065  28.923  12.890  1.00  0.00     0.000 C 
BRANCH  15  16
ATOM     16  C   UNL     1      62.699  30.325  12.940  1.00  0.00     0.000 C 
BRANCH  16  17
ATOM     17  C   UNL     1      61.817  31.454  12.372  1.00  0.00     0.000 C 
BRANCH  17  18
ATOM     18  C   UNL     1      61.707  32.711  13.259  1.00  0.00     0.000 C 
BRANCH  18  19
ATOM     19  C   UNL     1      60.337  32.916  13.929  1.00  0.00     0.000 C 
BRANCH  19  20
ATOM     20  C   UNL     1      60.447  33.469  15.360  1.00  0.00     0.006 C 
BRANCH  20  21
ATOM     21  C   UNL     1      61.902  33.530  15.846  1.00  0.00     0.053 C 
BRANCH  21  22
ATOM     22  C   UNL     1      62.006  34.118  17.219  1.00  0.00     0.041 C 
ATOM     23  O   UNL     1      61.130  33.860  18.088  1.00  0.00    -0.550 OA
ATOM     24  O   UNL     1      63.047  34.985  17.528  1.00  0.00    -0.550 OA
ENDBRANCH  21  22
ENDBRANCH  20  21
ENDBRANCH  19  20
ENDBRANCH  18  19
ENDBRANCH  17  18
ENDBRANCH  16  17
ENDBRANCH  15  16
ENDBRANCH  14  15
ENDBRANCH  13  14
ENDBRANCH   1  13
TORSDOF 20
ENDMDL
MODEL 7
REMARK VINA RESULT:    -4.500     10.810     14.510
REMARK INTER + INTRA:         -13.358
REMARK INTER:                 -10.355
REMARK INTRA:                  -3.002
REMARK UNBOUND:                -3.595
REMARK SMILES CCCCCCCCCCCCCCCCCCCCCC(=O)[O-]
REMARK SMILES IDX 12 1 11 2 10 3 9 4 8 5 7 6 6 7 5 8 4 9 3 10 2 11 1 12 13 13
REMARK SMILES IDX 14 14 15 15 16 16 17 17 18 18 19 19 20 20 21 21 22 22 23 23
REMARK SMILES IDX 24 24
REMARK H PARENT
REMARK Flexibility Score: inf
ROOT
ATOM      1  C   UNL     1      60.755  28.536  28.274  1.00  0.00     0.000 C 
ENDROOT
BRANCH   1   2
ATOM      2  C   UNL     1      61.918  29.128  29.087  1.00  0.00     0.000 C 
BRANCH   2   3
ATOM      3  C   UNL     1      62.910  29.919  28.221  1.00  0.00     0.000 C 
BRANCH   3   4
ATOM      4  C   UNL     1      64.209  30.195  28.992  1.00  0.00    -0.000 C 
BRANCH   4   5
ATOM      5  C   UNL     1      65.161  31.137  28.235  1.00  0.00    -0.000 C 
BRANCH   5   6
ATOM      6  C   UNL     1      66.601  30.599  28.178  1.00  0.00    -0.000 C 
BRANCH   6   7
ATOM      7  C   UNL     1      67.088  30.368  26.738  1.00  0.00    -0.000 C 
BRANCH   7   8
ATOM      8  C   UNL     1      66.380  29.190  26.052  1.00  0.00    -0.000 C 
BRANCH   8   9
ATOM      9  C   UNL     1      66.674  29.175  24.544  1.00  0.00    -0.000 C 
BRANCH   9  10
ATOM     10  C   UNL     1      65.838  30.204  23.768  1.00  0.00    -0.000 C 
BRANCH  10  11
ATOM     11  C   UNL     1      64.369  29.781  23.619  1.00  0.00    -0.003 C 
ATOM     12  C   UNL     1      63.451  30.685  24.436  1.00  0.00     0.004 C 
ENDBRANCH  10  11
ENDBRANCH   9  10
ENDBRANCH   8   9
ENDBRANCH   7   8
ENDBRANCH   6   7
ENDBRANCH   5   6
ENDBRANCH   4   5
ENDBRANCH   3   4
ENDBRANCH   2   3
ENDBRANCH   1   2
BRANCH   1  13
ATOM     13  C   UNL     1      61.158  27.267  27.503  1.00  0.00     0.000 C 
BRANCH  13  14
ATOM     14  C   UNL     1      60.965  27.413  25.985  1.00  0.00     0.000 C 
BRANCH  14  15
ATOM     15  C   UNL     1      62.284  27.281  25.204  1.00  0.00     0.000 C 
BRANCH  15  16
ATOM     16  C   UNL     1      63.355  26.492  25.977  1.00  0.00     0.000 C 
BRANCH  16  17
ATOM     17  C   UNL     1      64.648  26.209  25.185  1.00  0.00     0.000 C 
BRANCH  17  18
ATOM     18  C   UNL     1      64.440  25.812  23.709  1.00  0.00     0.000 C 
BRANCH  18  19
ATOM     19  C   UNL     1      65.728  25.724  22.872  1.00  0.00     0.000 C 
BRANCH  19  20
ATOM     20  C   UNL     1      65.807  26.806  21.781  1.00  0.00     0.006 C 
BRANCH  20  21
ATOM     21  C   UNL     1      66.796  26.433  20.668  1.00  0.00     0.053 C 
BRANCH  21  22
ATOM     22  C   UNL     1      66.172  26.541  19.311  1.00  0.00     0.041 C 
ATOM     23  O   UNL     1      66.660  27.319  18.448  1.00  0.00    -0.550 OA
ATOM     24  O   UNL     1      65.027  25.812  19.012  1.00  0.00    -0.550 OA
ENDBRANCH  21  22
ENDBRANCH  20  21
ENDBRANCH  19  20
ENDBRANCH  18  19
ENDBRANCH  17  18
ENDBRANCH  16  17
ENDBRANCH  15  16
ENDBRANCH  14  15
ENDBRANCH  13  14
ENDBRANCH   1  13
TORSDOF 20
ENDMDL
MODEL 8
REMARK VINA RESULT:    -4.427      1.262      5.081
REMARK INTER + INTRA:         -13.197
REMARK INTER:                  -9.882
REMARK INTRA:                  -3.315
REMARK UNBOUND:                -3.595
REMARK SMILES CCCCCCCCCCCCCCCCCCCCCC(=O)[O-]
REMARK SMILES IDX 12 1 11 2 10 3 9 4 8 5 7 6 6 7 5 8 4 9 3 10 2 11 1 12 13 13
REMARK SMILES IDX 14 14 15 15 16 16 17 17 18 18 19 19 20 20 21 21 22 22 23 23
REMARK SMILES IDX 24 24
REMARK H PARENT
REMARK Flexibility Score: inf
ROOT
ATOM      1  C   UNL     1      64.277  33.236  13.170  1.00  0.00     0.000 C 
ENDROOT
BRANCH   1   2
ATOM      2  C   UNL     1      65.482  34.035  12.648  1.00  0.00     0.000 C 
BRANCH   2   3
ATOM      3  C   UNL     1      66.154  33.375  11.434  1.00  0.00     0.000 C 
BRANCH   3   4
ATOM      4  C   UNL     1      65.197  32.387  10.750  1.00  0.00    -0.000 C 
BRANCH   4   5
ATOM      5  C   UNL     1      65.865  31.609   9.604  1.00  0.00    -0.000 C 
BRANCH   5   6
ATOM      6  C   UNL     1      64.941  30.536   9.003  1.00  0.00    -0.000 C 
BRANCH   6   7
ATOM      7  C   UNL     1      63.599  30.428   9.746  1.00  0.00    -0.000 C 
BRANCH   7   8
ATOM      8  C   UNL     1      62.955  29.040   9.613  1.00  0.00    -0.000 C 
BRANCH   8   9
ATOM      9  C   UNL     1      61.426  29.131   9.738  1.00  0.00    -0.000 C 
BRANCH   9  10
ATOM     10  C   UNL     1      60.865  28.205  10.828  1.00  0.00    -0.000 C 
BRANCH  10  11
ATOM     11  C   UNL     1      59.414  28.542  11.201  1.00  0.00    -0.003 C 
ATOM     12  C   UNL     1      59.096  28.103  12.627  1.00  0.00     0.004 C 
ENDBRANCH  10  11
ENDBRANCH   9  10
ENDBRANCH   8   9
ENDBRANCH   7   8
ENDBRANCH   6   7
ENDBRANCH   5   6
ENDBRANCH   4   5
ENDBRANCH   3   4
ENDBRANCH   2   3
ENDBRANCH   1   2
BRANCH   1  13
ATOM     13  C   UNL     1      64.480  32.730  14.609  1.00  0.00     0.000 C 
BRANCH  13  14
ATOM     14  C   UNL     1      63.859  31.344  14.841  1.00  0.00     0.000 C 
BRANCH  14  15
ATOM     15  C   UNL     1      63.339  30.703  13.542  1.00  0.00     0.000 C 
BRANCH  15  16
ATOM     16  C   UNL     1      61.808  30.543  13.531  1.00  0.00     0.000 C 
BRANCH  16  17
ATOM     17  C   UNL     1      61.063  31.517  12.597  1.00  0.00     0.000 C 
BRANCH  17  18
ATOM     18  C   UNL     1      60.636  32.851  13.245  1.00  0.00     0.000 C 
BRANCH  18  19
ATOM     19  C   UNL     1      60.223  32.752  14.724  1.00  0.00     0.000 C 
BRANCH  19  20
ATOM     20  C   UNL     1      60.911  33.806  15.608  1.00  0.00     0.006 C 
BRANCH  20  21
ATOM     21  C   UNL     1      61.140  33.300  17.039  1.00  0.00     0.053 C 
BRANCH  21  22
ATOM     22  C   UNL     1      62.187  34.101  17.751  1.00  0.00     0.041 C 
ATOM     23  O   UNL     1      62.168  34.196  19.007  1.00  0.00    -0.550 OA
ATOM     24  O   UNL     1      63.161  34.775  17.024  1.00  0.00    -0.550 OA
ENDBRANCH  21  22
ENDBRANCH  20  21
ENDBRANCH  19  20
ENDBRANCH  18  19
ENDBRANCH  17  18
ENDBRANCH  16  17
ENDBRANCH  15  16
ENDBRANCH  14  15
ENDBRANCH  13  14
ENDBRANCH   1  13
TORSDOF 20
ENDMDL
MODEL 9
REMARK VINA RESULT:    -4.301      1.407      5.147
REMARK INTER + INTRA:         -12.926
REMARK INTER:                  -9.612
REMARK INTRA:                  -3.314
REMARK UNBOUND:                -3.595
REMARK SMILES CCCCCCCCCCCCCCCCCCCCCC(=O)[O-]
REMARK SMILES IDX 12 1 11 2 10 3 9 4 8 5 7 6 6 7 5 8 4 9 3 10 2 11 1 12 13 13
REMARK SMILES IDX 14 14 15 15 16 16 17 17 18 18 19 19 20 20 21 21 22 22 23 23
REMARK SMILES IDX 24 24
REMARK H PARENT
REMARK Flexibility Score: inf
ROOT
ATOM      1  C   UNL     1      63.007  29.114  13.706  1.00  0.00     0.000 C 
ENDROOT
BRANCH   1   2
ATOM      2  C   UNL     1      63.692  30.389  13.188  1.00  0.00     0.000 C 
BRANCH   2   3
ATOM      3  C   UNL     1      63.694  31.527  14.220  1.00  0.00     0.000 C 
BRANCH   3   4
ATOM      4  C   UNL     1      64.126  32.851  13.573  1.00  0.00    -0.000 C 
BRANCH   4   5
ATOM      5  C   UNL     1      64.308  32.737  12.050  1.00  0.00    -0.000 C 
BRANCH   5   6
ATOM      6  C   UNL     1      65.615  33.385  11.562  1.00  0.00    -0.000 C 
BRANCH   6   7
ATOM      7  C   UNL     1      66.152  32.736  10.276  1.00  0.00    -0.000 C 
BRANCH   7   8
ATOM      8  C   UNL     1      65.061  32.005   9.478  1.00  0.00    -0.000 C 
BRANCH   8   9
ATOM      9  C   UNL     1      65.340  30.495   9.423  1.00  0.00    -0.000 C 
BRANCH   9  10
ATOM     10  C   UNL     1      64.149  29.693   8.875  1.00  0.00    -0.000 C 
BRANCH  10  11
ATOM     11  C   UNL     1      63.305  29.054   9.988  1.00  0.00    -0.003 C 
ATOM     12  C   UNL     1      61.819  29.098   9.645  1.00  0.00     0.004 C 
ENDBRANCH  10  11
ENDBRANCH   9  10
ENDBRANCH   8   9
ENDBRANCH   7   8
ENDBRANCH   6   7
ENDBRANCH   5   6
ENDBRANCH   4   5
ENDBRANCH   3   4
ENDBRANCH   2   3
ENDBRANCH   1   2
BRANCH   1  13
ATOM     13  C   UNL     1      61.576  29.374  14.208  1.00  0.00     0.000 C 
BRANCH  13  14
ATOM     14  C   UNL     1      60.516  29.125  13.124  1.00  0.00     0.000 C 
BRANCH  14  15
ATOM     15  C   UNL     1      59.608  30.346  12.891  1.00  0.00     0.000 C 
BRANCH  15  16
ATOM     16  C   UNL     1      60.311  31.467  12.105  1.00  0.00     0.000 C 
BRANCH  16  17
ATOM     17  C   UNL     1      60.654  32.721  12.934  1.00  0.00     0.000 C 
BRANCH  17  18
ATOM     18  C   UNL     1      59.998  32.786  14.329  1.00  0.00     0.000 C 
BRANCH  18  19
ATOM     19  C   UNL     1      60.623  33.808  15.294  1.00  0.00     0.000 C 
BRANCH  19  20
ATOM     20  C   UNL     1      61.146  33.165  16.590  1.00  0.00     0.006 C 
BRANCH  20  21
ATOM     21  C   UNL     1      61.636  34.213  17.599  1.00  0.00     0.053 C 
BRANCH  21  22
ATOM     22  C   UNL     1      62.996  33.879  18.130  1.00  0.00     0.041 C 
ATOM     23  O   UNL     1      63.902  33.481  17.350  1.00  0.00    -0.550 OA
ATOM     24  O   UNL     1      63.252  33.970  19.493  1.00  0.00    -0.550 OA
ENDBRANCH  21  22
ENDBRANCH  20  21
ENDBRANCH  19  20
ENDBRANCH  18  19
ENDBRANCH  17  18
ENDBRANCH  16  17
ENDBRANCH  15  16
ENDBRANCH  14  15
ENDBRANCH  13  14
ENDBRANCH   1  13
TORSDOF 20
ENDMDL
