MODEL 1
REMARK VINA RESULT:    -3.995      0.000      0.000
REMARK INTER + INTRA:          -6.892
REMARK INTER:                  -6.097
REMARK INTRA:                  -0.795
REMARK UNBOUND:                -0.795
REMARK SMILES O=C([O-])CCCCCCCCC(=O)[O-]
REMARK SMILES IDX 7 1 6 2 5 3 4 4 2 5 1 6 3 7 8 8 9 9 10 10 11 11 12 12 13 13
REMARK SMILES IDX 14 14
REMARK H PARENT
REMARK Flexibility Score: inf
ROOT
ATOM      1  C   UNL     1      -5.475  -7.694 -15.988  1.00  0.00     0.000 C 
ENDROOT
BRANCH   1   2
ATOM      2  C   UNL     1      -4.560  -8.379 -14.957  1.00  0.00     0.000 C 
BRANCH   2   3
ATOM      3  C   UNL     1      -4.665  -9.917 -14.910  1.00  0.00     0.006 C 
BRANCH   3   4
ATOM      4  C   UNL     1      -5.981 -10.483 -15.467  1.00  0.00     0.053 C 
BRANCH   4   5
ATOM      5  C   UNL     1      -6.899 -10.940 -14.376  1.00  0.00     0.041 C 
ATOM      6  O   UNL     1      -6.864 -10.387 -13.245  1.00  0.00    -0.550 OA
ATOM      7  O   UNL     1      -7.772 -11.997 -14.598  1.00  0.00    -0.550 OA
ENDBRANCH   4   5
ENDBRANCH   3   4
ENDBRANCH   2   3
ENDBRANCH   1   2
BRANCH   1   8
ATOM      8  C   UNL     1      -4.697  -6.868 -17.022  1.00  0.00     0.000 C 
BRANCH   8   9
ATOM      9  C   UNL     1      -4.049  -7.774 -18.075  1.00  0.00     0.000 C 
BRANCH   9  10
ATOM     10  C   UNL     1      -2.570  -7.420 -18.272  1.00  0.00     0.006 C 
BRANCH  10  11
ATOM     11  C   UNL     1      -2.063  -6.526 -17.138  1.00  0.00     0.053 C 
BRANCH  11  12
ATOM     12  C   UNL     1      -1.211  -7.311 -16.192  1.00  0.00     0.041 C 
ATOM     13  O   UNL     1      -0.598  -6.729 -15.258  1.00  0.00    -0.550 OA
ATOM     14  O   UNL     1      -1.131  -8.693 -16.311  1.00  0.00    -0.550 OA
ENDBRANCH  11  12
ENDBRANCH  10  11
ENDBRANCH   9  10
ENDBRANCH   8   9
ENDBRANCH   1   8
TORSDOF 9
ENDMDL
MODEL 2
REMARK VINA RESULT:    -3.963      1.936      5.375
REMARK INTER + INTRA:          -6.843
REMARK INTER:                  -5.889
REMARK INTRA:                  -0.954
REMARK UNBOUND:                -0.795
REMARK SMILES O=C([O-])CCCCCCCCC(=O)[O-]
REMARK SMILES IDX 7 1 6 2 5 3 4 4 2 5 1 6 3 7 8 8 9 9 10 10 11 11 12 12 13 13
REMARK SMILES IDX 14 14
REMARK H PARENT
REMARK Flexibility Score: inf
ROOT
ATOM      1  C   UNL     1      -1.754  -8.004 -14.622  1.00  0.00     0.000 C 
ENDROOT
BRANCH   1   2
ATOM      2  C   UNL     1      -1.004  -7.474 -15.857  1.00  0.00     0.000 C 
BRANCH   2   3
ATOM      3  C   UNL     1      -1.856  -6.628 -16.826  1.00  0.00     0.006 C 
BRANCH   3   4
ATOM      4  C   UNL     1      -2.277  -7.360 -18.110  1.00  0.00     0.053 C 
BRANCH   4   5
ATOM      5  C   UNL     1      -3.765  -7.482 -18.222  1.00  0.00     0.041 C 
ATOM      6  O   UNL     1      -4.511  -6.572 -17.773  1.00  0.00    -0.550 OA
ATOM      7  O   UNL     1      -4.330  -8.615 -18.793  1.00  0.00    -0.550 OA
ENDBRANCH   4   5
ENDBRANCH   3   4
ENDBRANCH   2   3
ENDBRANCH   1   2
BRANCH   1   8
ATOM      8  C   UNL     1      -2.122  -9.490 -14.737  1.00  0.00     0.000 C 
BRANCH   8   9
ATOM      9  C   UNL     1      -3.578  -9.663 -15.186  1.00  0.00     0.000 C 
BRANCH   9  10
ATOM     10  C   UNL     1      -4.434  -8.465 -14.756  1.00  0.00     0.006 C 
BRANCH  10  11
ATOM     11  C   UNL     1      -5.889  -8.644 -15.197  1.00  0.00     0.053 C 
BRANCH  11  12
ATOM     12  C   UNL     1      -6.456  -9.908 -14.634  1.00  0.00     0.041 C 
ATOM     13  O   UNL     1      -6.778 -10.855 -15.401  1.00  0.00    -0.550 OA
ATOM     14  O   UNL     1      -6.584 -10.063 -13.260  1.00  0.00    -0.550 OA
ENDBRANCH  11  12
ENDBRANCH  10  11
ENDBRANCH   9  10
ENDBRANCH   8   9
ENDBRANCH   1   8
TORSDOF 9
ENDMDL
MODEL 3
REMARK VINA RESULT:    -3.918      1.448      2.672
REMARK INTER + INTRA:          -6.774
REMARK INTER:                  -5.727
REMARK INTRA:                  -1.048
REMARK UNBOUND:                -0.795
REMARK SMILES O=C([O-])CCCCCCCCC(=O)[O-]
REMARK SMILES IDX 7 1 6 2 5 3 4 4 2 5 1 6 3 7 8 8 9 9 10 10 11 11 12 12 13 13
REMARK SMILES IDX 14 14
REMARK H PARENT
REMARK Flexibility Score: inf
ROOT
ATOM      1  C   UNL     1      -3.596  -7.704 -18.074  1.00  0.00     0.000 C 
ENDROOT
BRANCH   1   2
ATOM      2  C   UNL     1      -4.497  -6.893 -17.125  1.00  0.00     0.000 C 
BRANCH   2   3
ATOM      3  C   UNL     1      -5.222  -7.722 -16.046  1.00  0.00     0.006 C 
BRANCH   3   4
ATOM      4  C   UNL     1      -5.196  -9.241 -16.283  1.00  0.00     0.053 C 
BRANCH   4   5
ATOM      5  C   UNL     1      -5.981  -9.983 -15.247  1.00  0.00     0.041 C 
ATOM      6  O   UNL     1      -6.515 -11.088 -15.526  1.00  0.00    -0.550 OA
ATOM      7  O   UNL     1      -6.151  -9.438 -13.980  1.00  0.00    -0.550 OA
ENDBRANCH   4   5
ENDBRANCH   3   4
ENDBRANCH   2   3
ENDBRANCH   1   2
BRANCH   1   8
ATOM      8  C   UNL     1      -2.135  -7.233 -18.060  1.00  0.00     0.000 C 
BRANCH   8   9
ATOM      9  C   UNL     1      -1.796  -6.534 -16.738  1.00  0.00     0.000 C 
BRANCH   9  10
ATOM     10  C   UNL     1      -0.831  -7.380 -15.900  1.00  0.00     0.006 C 
BRANCH  10  11
ATOM     11  C   UNL     1      -1.539  -7.974 -14.679  1.00  0.00     0.053 C 
BRANCH  11  12
ATOM     12  C   UNL     1      -1.855  -9.418 -14.907  1.00  0.00     0.041 C 
ATOM     13  O   UNL     1      -2.558 -10.053 -14.077  1.00  0.00    -0.550 OA
ATOM     14  O   UNL     1      -1.414 -10.053 -16.062  1.00  0.00    -0.550 OA
ENDBRANCH  11  12
ENDBRANCH  10  11
ENDBRANCH   9  10
ENDBRANCH   8   9
ENDBRANCH   1   8
TORSDOF 9
ENDMDL
MODEL 4
REMARK VINA RESULT:    -3.914      2.394      3.347
REMARK INTER + INTRA:          -6.769
REMARK INTER:                  -5.731
REMARK INTRA:                  -1.037
REMARK UNBOUND:                -0.795
REMARK SMILES O=C([O-])CCCCCCCCC(=O)[O-]
REMARK SMILES IDX 7 1 6 2 5 3 4 4 2 5 1 6 3 7 8 8 9 9 10 10 11 11 12 12 13 13
REMARK SMILES IDX 14 14
REMARK H PARENT
REMARK Flexibility Score: inf
ROOT
ATOM      1  C   UNL     1      -1.470  -8.016 -14.170  1.00  0.00     0.000 C 
ENDROOT
BRANCH   1   2
ATOM      2  C   UNL     1      -1.986  -9.429 -14.497  1.00  0.00     0.000 C 
BRANCH   2   3
ATOM      3  C   UNL     1      -3.491  -9.515 -14.822  1.00  0.00     0.006 C 
BRANCH   3   4
ATOM      4  C   UNL     1      -3.836 -10.434 -16.005  1.00  0.00     0.053 C 
BRANCH   4   5
ATOM      5  C   UNL     1      -5.254 -10.261 -16.453  1.00  0.00     0.041 C 
ATOM      6  O   UNL     1      -5.556 -10.398 -17.668  1.00  0.00    -0.550 OA
ATOM      7  O   UNL     1      -6.238  -9.916 -15.534  1.00  0.00    -0.550 OA
ENDBRANCH   4   5
ENDBRANCH   3   4
ENDBRANCH   2   3
ENDBRANCH   1   2
BRANCH   1   8
ATOM      8  C   UNL     1      -0.947  -7.269 -15.405  1.00  0.00     0.000 C 
BRANCH   8   9
ATOM      9  C   UNL     1      -0.681  -8.239 -16.562  1.00  0.00     0.000 C 
BRANCH   9  10
ATOM     10  C   UNL     1      -1.595  -7.939 -17.755  1.00  0.00     0.006 C 
BRANCH  10  11
ATOM     11  C   UNL     1      -2.452  -6.697 -17.493  1.00  0.00     0.053 C 
BRANCH  11  12
ATOM     12  C   UNL     1      -3.892  -6.984 -17.773  1.00  0.00     0.041 C 
ATOM     13  O   UNL     1      -4.249  -7.382 -18.914  1.00  0.00    -0.550 OA
ATOM     14  O   UNL     1      -4.837  -6.861 -16.762  1.00  0.00    -0.550 OA
ENDBRANCH  11  12
ENDBRANCH  10  11
ENDBRANCH   9  10
ENDBRANCH   8   9
ENDBRANCH   1   8
TORSDOF 9
ENDMDL
MODEL 5
REMARK VINA RESULT:    -3.913      1.078      5.659
REMARK INTER + INTRA:          -6.767
REMARK INTER:                  -5.934
REMARK INTRA:                  -0.833
REMARK UNBOUND:                -0.795
REMARK SMILES O=C([O-])CCCCCCCCC(=O)[O-]
REMARK SMILES IDX 7 1 6 2 5 3 4 4 2 5 1 6 3 7 8 8 9 9 10 10 11 11 12 12 13 13
REMARK SMILES IDX 14 14
REMARK H PARENT
REMARK Flexibility Score: inf
ROOT
ATOM      1  C   UNL     1      -4.410  -6.858 -17.000  1.00  0.00     0.000 C 
ENDROOT
BRANCH   1   2
ATOM      2  C   UNL     1      -3.417  -7.562 -17.942  1.00  0.00     0.000 C 
BRANCH   2   3
ATOM      3  C   UNL     1      -1.929  -7.269 -17.661  1.00  0.00     0.006 C 
BRANCH   3   4
ATOM      4  C   UNL     1      -1.280  -8.202 -16.627  1.00  0.00     0.053 C 
BRANCH   4   5
ATOM      5  C   UNL     1      -1.047  -7.512 -15.319  1.00  0.00     0.041 C 
ATOM      6  O   UNL     1      -1.298  -8.104 -14.236  1.00  0.00    -0.550 OA
ATOM      7  O   UNL     1      -0.583  -6.203 -15.296  1.00  0.00    -0.550 OA
ENDBRANCH   4   5
ENDBRANCH   3   4
ENDBRANCH   2   3
ENDBRANCH   1   2
BRANCH   1   8
ATOM      8  C   UNL     1      -5.377  -7.833 -16.313  1.00  0.00     0.000 C 
BRANCH   8   9
ATOM      9  C   UNL     1      -4.809  -8.318 -14.974  1.00  0.00     0.000 C 
BRANCH   9  10
ATOM     10  C   UNL     1      -4.300  -9.760 -15.080  1.00  0.00     0.006 C 
BRANCH  10  11
ATOM     11  C   UNL     1      -5.225 -10.726 -14.334  1.00  0.00     0.053 C 
BRANCH  11  12
ATOM     12  C   UNL     1      -6.304 -11.225 -15.242  1.00  0.00     0.041 C 
ATOM     13  O   UNL     1      -6.055 -11.458 -16.454  1.00  0.00    -0.550 OA
ATOM     14  O   UNL     1      -7.574 -11.480 -14.740  1.00  0.00    -0.550 OA
ENDBRANCH  11  12
ENDBRANCH  10  11
ENDBRANCH   9  10
ENDBRANCH   8   9
ENDBRANCH   1   8
TORSDOF 9
ENDMDL
MODEL 6
REMARK VINA RESULT:    -3.905      1.609      5.917
REMARK INTER + INTRA:          -6.754
REMARK INTER:                  -5.803
REMARK INTRA:                  -0.951
REMARK UNBOUND:                -0.795
REMARK SMILES O=C([O-])CCCCCCCCC(=O)[O-]
REMARK SMILES IDX 7 1 6 2 5 3 4 4 2 5 1 6 3 7 8 8 9 9 10 10 11 11 12 12 13 13
REMARK SMILES IDX 14 14
REMARK H PARENT
REMARK Flexibility Score: inf
ROOT
ATOM      1  C   UNL     1      -5.193  -7.618 -16.142  1.00  0.00     0.000 C 
ENDROOT
BRANCH   1   2
ATOM      2  C   UNL     1      -4.265  -6.846 -17.097  1.00  0.00     0.000 C 
BRANCH   2   3
ATOM      3  C   UNL     1      -4.333  -7.286 -18.573  1.00  0.00     0.006 C 
BRANCH   3   4
ATOM      4  C   UNL     1      -3.608  -8.606 -18.879  1.00  0.00     0.053 C 
BRANCH   4   5
ATOM      5  C   UNL     1      -2.165  -8.556 -18.482  1.00  0.00     0.041 C 
ATOM      6  O   UNL     1      -1.709  -9.377 -17.642  1.00  0.00    -0.550 OA
ATOM      7  O   UNL     1      -1.329  -7.582 -19.014  1.00  0.00    -0.550 OA
ENDBRANCH   4   5
ENDBRANCH   3   4
ENDBRANCH   2   3
ENDBRANCH   1   2
BRANCH   1   8
ATOM      8  C   UNL     1      -4.428  -8.417 -15.078  1.00  0.00     0.000 C 
BRANCH   8   9
ATOM      9  C   UNL     1      -4.404  -9.911 -15.423  1.00  0.00     0.000 C 
BRANCH   9  10
ATOM     10  C   UNL     1      -5.635 -10.306 -16.247  1.00  0.00     0.006 C 
BRANCH  10  11
ATOM     11  C   UNL     1      -6.303 -11.558 -15.671  1.00  0.00     0.053 C 
BRANCH  11  12
ATOM     12  C   UNL     1      -7.308 -11.183 -14.628  1.00  0.00     0.041 C 
ATOM     13  O   UNL     1      -7.732 -12.048 -13.817  1.00  0.00    -0.550 OA
ATOM     14  O   UNL     1      -7.742  -9.868 -14.520  1.00  0.00    -0.550 OA
ENDBRANCH  11  12
ENDBRANCH  10  11
ENDBRANCH   9  10
ENDBRANCH   8   9
ENDBRANCH   1   8
TORSDOF 9
ENDMDL
MODEL 7
REMARK VINA RESULT:    -3.903      1.896      2.803
REMARK INTER + INTRA:          -6.751
REMARK INTER:                  -5.790
REMARK INTRA:                  -0.961
REMARK UNBOUND:                -0.795
REMARK SMILES O=C([O-])CCCCCCCCC(=O)[O-]
REMARK SMILES IDX 7 1 6 2 5 3 4 4 2 5 1 6 3 7 8 8 9 9 10 10 11 11 12 12 13 13
REMARK SMILES IDX 14 14
REMARK H PARENT
REMARK Flexibility Score: inf
ROOT
ATOM      1  C   UNL     1      -2.008  -9.444 -15.028  1.00  0.00     0.000 C 
ENDROOT
BRANCH   1   2
ATOM      2  C   UNL     1      -3.520  -9.720 -14.961  1.00  0.00     0.000 C 
BRANCH   2   3
ATOM      3  C   UNL     1      -4.408  -8.466 -14.824  1.00  0.00     0.006 C 
BRANCH   3   4
ATOM      4  C   UNL     1      -5.883  -8.686 -15.197  1.00  0.00     0.053 C 
BRANCH   4   5
ATOM      5  C   UNL     1      -6.438  -9.929 -14.573  1.00  0.00     0.041 C 
ATOM      6  O   UNL     1      -6.610  -9.990 -13.327  1.00  0.00    -0.550 OA
ATOM      7  O   UNL     1      -6.736 -11.031 -15.364  1.00  0.00    -0.550 OA
ENDBRANCH   4   5
ENDBRANCH   3   4
ENDBRANCH   2   3
ENDBRANCH   1   2
BRANCH   1   8
ATOM      8  C   UNL     1      -1.657  -7.971 -14.776  1.00  0.00     0.000 C 
BRANCH   8   9
ATOM      9  C   UNL     1      -0.973  -7.351 -16.002  1.00  0.00     0.000 C 
BRANCH   9  10
ATOM     10  C   UNL     1      -1.975  -6.557 -16.849  1.00  0.00     0.006 C 
BRANCH  10  11
ATOM     11  C   UNL     1      -2.149  -7.191 -18.232  1.00  0.00     0.053 C 
BRANCH  11  12
ATOM     12  C   UNL     1      -3.517  -7.781 -18.368  1.00  0.00     0.041 C 
ATOM     13  O   UNL     1      -4.526  -7.031 -18.447  1.00  0.00    -0.550 OA
ATOM     14  O   UNL     1      -3.676  -9.159 -18.459  1.00  0.00    -0.550 OA
ENDBRANCH  11  12
ENDBRANCH  10  11
ENDBRANCH   9  10
ENDBRANCH   8   9
ENDBRANCH   1   8
TORSDOF 9
ENDMDL
MODEL 8
REMARK VINA RESULT:    -3.877      2.559      5.173
REMARK INTER + INTRA:          -6.712
REMARK INTER:                  -5.590
REMARK INTRA:                  -1.122
REMARK UNBOUND:                -0.795
REMARK SMILES O=C([O-])CCCCCCCCC(=O)[O-]
REMARK SMILES IDX 7 1 6 2 5 3 4 4 2 5 1 6 3 7 8 8 9 9 10 10 11 11 12 12 13 13
REMARK SMILES IDX 14 14
REMARK H PARENT
REMARK Flexibility Score: inf
ROOT
ATOM      1  C   UNL     1      -6.491  -9.153 -15.134  1.00  0.00     0.000 C 
ENDROOT
BRANCH   1   2
ATOM      2  C   UNL     1      -5.170  -8.667 -14.511  1.00  0.00     0.000 C 
BRANCH   2   3
ATOM      3  C   UNL     1      -4.157  -8.069 -15.509  1.00  0.00     0.006 C 
BRANCH   3   4
ATOM      4  C   UNL     1      -4.791  -7.259 -16.651  1.00  0.00     0.053 C 
BRANCH   4   5
ATOM      5  C   UNL     1      -3.806  -6.964 -17.740  1.00  0.00     0.041 C 
ATOM      6  O   UNL     1      -4.132  -7.115 -18.947  1.00  0.00    -0.550 OA
ATOM      7  O   UNL     1      -2.518  -6.554 -17.422  1.00  0.00    -0.550 OA
ENDBRANCH   4   5
ENDBRANCH   3   4
ENDBRANCH   2   3
ENDBRANCH   1   2
BRANCH   1   8
ATOM      8  C   UNL     1      -6.942 -10.516 -14.593  1.00  0.00     0.000 C 
BRANCH   8   9
ATOM      9  C   UNL     1      -5.912 -11.605 -14.916  1.00  0.00     0.000 C 
BRANCH   9  10
ATOM     10  C   UNL     1      -5.816 -11.842 -16.427  1.00  0.00     0.006 C 
BRANCH  10  11
ATOM     11  C   UNL     1      -4.377 -11.668 -16.921  1.00  0.00     0.053 C 
BRANCH  11  12
ATOM     12  C   UNL     1      -4.330 -10.718 -18.076  1.00  0.00     0.041 C 
ATOM     13  O   UNL     1      -5.390 -10.195 -18.509  1.00  0.00    -0.550 OA
ATOM     14  O   UNL     1      -3.110 -10.372 -18.644  1.00  0.00    -0.550 OA
ENDBRANCH  11  12
ENDBRANCH  10  11
ENDBRANCH   9  10
ENDBRANCH   8   9
ENDBRANCH   1   8
TORSDOF 9
ENDMDL
MODEL 9
REMARK VINA RESULT:    -3.870      1.535      5.278
REMARK INTER + INTRA:          -6.701
REMARK INTER:                  -5.846
REMARK INTRA:                  -0.855
REMARK UNBOUND:                -0.795
REMARK SMILES O=C([O-])CCCCCCCCC(=O)[O-]
REMARK SMILES IDX 7 1 6 2 5 3 4 4 2 5 1 6 3 7 8 8 9 9 10 10 11 11 12 12 13 13
REMARK SMILES IDX 14 14
REMARK H PARENT
REMARK Flexibility Score: inf
ROOT
ATOM      1  C   UNL     1      -4.865  -8.725 -18.625  1.00  0.00     0.000 C 
ENDROOT
BRANCH   1   2
ATOM      2  C   UNL     1      -4.153  -7.360 -18.626  1.00  0.00     0.000 C 
BRANCH   2   3
ATOM      3  C   UNL     1      -3.709  -6.853 -17.238  1.00  0.00     0.006 C 
BRANCH   3   4
ATOM      4  C   UNL     1      -2.192  -6.667 -17.083  1.00  0.00     0.053 C 
BRANCH   4   5
ATOM      5  C   UNL     1      -1.625  -7.558 -16.021  1.00  0.00     0.041 C 
ATOM      6  O   UNL     1      -0.565  -7.236 -15.423  1.00  0.00    -0.550 OA
ATOM      7  O   UNL     1      -2.249  -8.761 -15.716  1.00  0.00    -0.550 OA
ENDBRANCH   4   5
ENDBRANCH   3   4
ENDBRANCH   2   3
ENDBRANCH   1   2
BRANCH   1   8
ATOM      8  C   UNL     1      -3.891  -9.908 -18.712  1.00  0.00     0.000 C 
BRANCH   8   9
ATOM      9  C   UNL     1      -4.248 -10.990 -17.686  1.00  0.00     0.000 C 
BRANCH   9  10
ATOM     10  C   UNL     1      -5.559 -10.655 -16.965  1.00  0.00     0.006 C 
BRANCH  10  11
ATOM     11  C   UNL     1      -5.345 -10.562 -15.451  1.00  0.00     0.053 C 
BRANCH  11  12
ATOM     12  C   UNL     1      -6.220  -9.501 -14.862  1.00  0.00     0.041 C 
ATOM     13  O   UNL     1      -5.783  -8.329 -14.714  1.00  0.00    -0.550 OA
ATOM     14  O   UNL     1      -7.535  -9.793 -14.522  1.00  0.00    -0.550 OA
ENDBRANCH  11  12
ENDBRANCH  10  11
ENDBRANCH   9  10
ENDBRANCH   8   9
ENDBRANCH   1   8
TORSDOF 9
ENDMDL
