MODEL 1
REMARK VINA RESULT:    -4.738      0.000      0.000
REMARK INTER + INTRA:          -9.724
REMARK INTER:                  -8.893
REMARK INTRA:                  -0.831
REMARK UNBOUND:                -0.831
REMARK SMILES O=C([O-])CCCCCCCCCCCCCCC(=O)[O-]
REMARK SMILES IDX 10 1 9 2 8 3 7 4 6 5 5 6 4 7 2 8 1 9 3 10 11 11 12 12 13 13
REMARK SMILES IDX 14 14 15 15 16 16 17 17 18 18 19 19 20 20
REMARK H PARENT
REMARK Flexibility Score: inf
ROOT
ATOM      1  C   UNL     1       2.986  20.078  32.877  1.00  0.00     0.000 C 
ENDROOT
BRANCH   1   2
ATOM      2  C   UNL     1       3.838  19.783  34.124  1.00  0.00     0.000 C 
BRANCH   2   3
ATOM      3  C   UNL     1       3.486  18.434  34.771  1.00  0.00     0.000 C 
BRANCH   3   4
ATOM      4  C   UNL     1       4.444  17.308  34.346  1.00  0.00     0.000 C 
BRANCH   4   5
ATOM      5  C   UNL     1       5.907  17.772  34.275  1.00  0.00     0.000 C 
BRANCH   5   6
ATOM      6  C   UNL     1       6.530  17.550  32.888  1.00  0.00     0.006 C 
BRANCH   6   7
ATOM      7  C   UNL     1       6.260  16.128  32.389  1.00  0.00     0.053 C 
BRANCH   7   8
ATOM      8  C   UNL     1       7.413  15.628  31.578  1.00  0.00     0.041 C 
ATOM      9  O   UNL     1       8.411  16.368  31.374  1.00  0.00    -0.550 OA
ATOM     10  O   UNL     1       7.364  14.364  31.004  1.00  0.00    -0.550 OA
ENDBRANCH   7   8
ENDBRANCH   6   7
ENDBRANCH   5   6
ENDBRANCH   4   5
ENDBRANCH   3   4
ENDBRANCH   2   3
ENDBRANCH   1   2
BRANCH   1  11
ATOM     11  C   UNL     1       1.477  20.032  33.168  1.00  0.00     0.000 C 
BRANCH  11  12
ATOM     12  C   UNL     1       0.851  21.431  33.263  1.00  0.00     0.000 C 
BRANCH  12  13
ATOM     13  C   UNL     1      -0.355  21.557  32.322  1.00  0.00     0.000 C 
BRANCH  13  14
ATOM     14  C   UNL     1      -0.398  20.389  31.326  1.00  0.00     0.000 C 
BRANCH  14  15
ATOM     15  C   UNL     1      -1.158  20.739  30.037  1.00  0.00     0.000 C 
BRANCH  15  16
ATOM     16  C   UNL     1      -1.548  19.495  29.223  1.00  0.00     0.006 C 
BRANCH  16  17
ATOM     17  C   UNL     1      -1.809  19.856  27.759  1.00  0.00     0.053 C 
BRANCH  17  18
ATOM     18  C   UNL     1      -3.277  19.871  27.476  1.00  0.00     0.041 C 
ATOM     19  O   UNL     1      -3.950  20.918  27.669  1.00  0.00    -0.550 OA
ATOM     20  O   UNL     1      -3.895  18.743  26.950  1.00  0.00    -0.550 OA
ENDBRANCH  17  18
ENDBRANCH  16  17
ENDBRANCH  15  16
ENDBRANCH  14  15
ENDBRANCH  13  14
ENDBRANCH  12  13
ENDBRANCH  11  12
ENDBRANCH   1  11
TORSDOF 15
ENDMDL
MODEL 2
REMARK VINA RESULT:    -4.693      1.219      8.849
REMARK INTER + INTRA:          -9.639
REMARK INTER:                  -8.672
REMARK INTRA:                  -0.967
REMARK UNBOUND:                -0.831
REMARK SMILES O=C([O-])CCCCCCCCCCCCCCC(=O)[O-]
REMARK SMILES IDX 10 1 9 2 8 3 7 4 6 5 5 6 4 7 2 8 1 9 3 10 11 11 12 12 13 13
REMARK SMILES IDX 14 14 15 15 16 16 17 17 18 18 19 19 20 20
REMARK H PARENT
REMARK Flexibility Score: inf
ROOT
ATOM      1  C   UNL     1       0.014  21.279  34.338  1.00  0.00     0.000 C 
ENDROOT
BRANCH   1   2
ATOM      2  C   UNL     1       0.265  22.095  33.058  1.00  0.00     0.000 C 
BRANCH   2   3
ATOM      3  C   UNL     1      -0.800  21.839  31.979  1.00  0.00     0.000 C 
BRANCH   3   4
ATOM      4  C   UNL     1      -0.447  20.646  31.074  1.00  0.00     0.000 C 
BRANCH   4   5
ATOM      5  C   UNL     1      -1.583  20.286  30.102  1.00  0.00     0.000 C 
BRANCH   5   6
ATOM      6  C   UNL     1      -1.120  19.353  28.974  1.00  0.00     0.006 C 
BRANCH   6   7
ATOM      7  C   UNL     1      -1.562  19.885  27.608  1.00  0.00     0.053 C 
BRANCH   7   8
ATOM      8  C   UNL     1      -3.035  19.701  27.424  1.00  0.00     0.041 C 
ATOM      9  O   UNL     1      -3.493  18.588  27.056  1.00  0.00    -0.550 OA
ATOM     10  O   UNL     1      -3.898  20.774  27.609  1.00  0.00    -0.550 OA
ENDBRANCH   7   8
ENDBRANCH   6   7
ENDBRANCH   5   6
ENDBRANCH   4   5
ENDBRANCH   3   4
ENDBRANCH   2   3
ENDBRANCH   1   2
BRANCH   1  11
ATOM     11  C   UNL     1       1.317  20.808  35.004  1.00  0.00     0.000 C 
BRANCH  11  12
ATOM     12  C   UNL     1       1.502  19.285  34.927  1.00  0.00     0.000 C 
BRANCH  12  13
ATOM     13  C   UNL     1       1.942  18.857  33.520  1.00  0.00     0.000 C 
BRANCH  13  14
ATOM     14  C   UNL     1       3.076  19.754  33.003  1.00  0.00     0.000 C 
BRANCH  14  15
ATOM     15  C   UNL     1       4.335  19.684  33.883  1.00  0.00     0.000 C 
BRANCH  15  16
ATOM     16  C   UNL     1       4.899  18.259  33.997  1.00  0.00     0.006 C 
BRANCH  16  17
ATOM     17  C   UNL     1       5.733  17.899  32.765  1.00  0.00     0.053 C 
BRANCH  17  18
ATOM     18  C   UNL     1       6.557  16.678  33.028  1.00  0.00     0.041 C 
ATOM     19  O   UNL     1       6.853  16.356  34.209  1.00  0.00    -0.550 OA
ATOM     20  O   UNL     1       6.956  15.868  31.973  1.00  0.00    -0.550 OA
ENDBRANCH  17  18
ENDBRANCH  16  17
ENDBRANCH  15  16
ENDBRANCH  14  15
ENDBRANCH  13  14
ENDBRANCH  12  13
ENDBRANCH  11  12
ENDBRANCH   1  11
TORSDOF 15
ENDMDL
MODEL 3
REMARK VINA RESULT:    -4.617     14.796     17.080
REMARK INTER + INTRA:          -9.496
REMARK INTER:                  -8.715
REMARK INTRA:                  -0.782
REMARK UNBOUND:                -0.831
REMARK SMILES O=C([O-])CCCCCCCCCCCCCCC(=O)[O-]
REMARK SMILES IDX 10 1 9 2 8 3 7 4 6 5 5 6 4 7 2 8 1 9 3 10 11 11 12 12 13 13
REMARK SMILES IDX 14 14 15 15 16 16 17 17 18 18 19 19 20 20
REMARK H PARENT
REMARK Flexibility Score: inf
ROOT
ATOM      1  C   UNL     1       4.767   9.689  15.984  1.00  0.00     0.000 C 
ENDROOT
BRANCH   1   2
ATOM      2  C   UNL     1       6.142   9.862  15.316  1.00  0.00     0.000 C 
BRANCH   2   3
ATOM      3  C   UNL     1       6.479  11.336  15.038  1.00  0.00     0.000 C 
BRANCH   3   4
ATOM      4  C   UNL     1       7.885  11.723  15.527  1.00  0.00     0.000 C 
BRANCH   4   5
ATOM      5  C   UNL     1       8.486  10.679  16.481  1.00  0.00     0.000 C 
BRANCH   5   6
ATOM      6  C   UNL     1       8.893  11.281  17.835  1.00  0.00     0.006 C 
BRANCH   6   7
ATOM      7  C   UNL     1       8.197  12.626  18.066  1.00  0.00     0.053 C 
BRANCH   7   8
ATOM      8  C   UNL     1       9.051  13.521  18.907  1.00  0.00     0.041 C 
ATOM      9  O   UNL     1      10.247  13.209  19.151  1.00  0.00    -0.550 OA
ATOM     10  O   UNL     1       8.513  14.674  19.464  1.00  0.00    -0.550 OA
ENDBRANCH   7   8
ENDBRANCH   6   7
ENDBRANCH   5   6
ENDBRANCH   4   5
ENDBRANCH   3   4
ENDBRANCH   2   3
ENDBRANCH   1   2
BRANCH   1  11
ATOM     11  C   UNL     1       3.607  10.110  15.068  1.00  0.00     0.000 C 
BRANCH  11  12
ATOM     12  C   UNL     1       2.451   9.099  15.076  1.00  0.00     0.000 C 
BRANCH  12  13
ATOM     13  C   UNL     1       1.834   8.983  16.477  1.00  0.00     0.000 C 
BRANCH  13  14
ATOM     14  C   UNL     1       0.300   8.993  16.404  1.00  0.00     0.000 C 
BRANCH  14  15
ATOM     15  C   UNL     1      -0.358   9.082  17.790  1.00  0.00     0.000 C 
BRANCH  15  16
ATOM     16  C   UNL     1      -1.024  10.444  18.043  1.00  0.00     0.006 C 
BRANCH  16  17
ATOM     17  C   UNL     1      -1.096  10.750  19.541  1.00  0.00     0.053 C 
BRANCH  17  18
ATOM     18  C   UNL     1      -2.037   9.809  20.224  1.00  0.00     0.041 C 
ATOM     19  O   UNL     1      -3.220   9.682  19.808  1.00  0.00    -0.550 OA
ATOM     20  O   UNL     1      -1.595   9.035  21.288  1.00  0.00    -0.550 OA
ENDBRANCH  17  18
ENDBRANCH  16  17
ENDBRANCH  15  16
ENDBRANCH  14  15
ENDBRANCH  13  14
ENDBRANCH  12  13
ENDBRANCH  11  12
ENDBRANCH   1  11
TORSDOF 15
ENDMDL
MODEL 4
REMARK VINA RESULT:    -4.524      1.278      1.974
REMARK INTER + INTRA:          -9.322
REMARK INTER:                  -8.299
REMARK INTRA:                  -1.023
REMARK UNBOUND:                -0.831
REMARK SMILES O=C([O-])CCCCCCCCCCCCCCC(=O)[O-]
REMARK SMILES IDX 10 1 9 2 8 3 7 4 6 5 5 6 4 7 2 8 1 9 3 10 11 11 12 12 13 13
REMARK SMILES IDX 14 14 15 15 16 16 17 17 18 18 19 19 20 20
REMARK H PARENT
REMARK Flexibility Score: inf
ROOT
ATOM      1  C   UNL     1       0.566  20.871  34.735  1.00  0.00     0.000 C 
ENDROOT
BRANCH   1   2
ATOM      2  C   UNL     1       2.026  20.550  35.100  1.00  0.00     0.000 C 
BRANCH   2   3
ATOM      3  C   UNL     1       2.848  20.090  33.884  1.00  0.00     0.000 C 
BRANCH   3   4
ATOM      4  C   UNL     1       2.640  18.599  33.562  1.00  0.00     0.000 C 
BRANCH   4   5
ATOM      5  C   UNL     1       3.263  17.674  34.620  1.00  0.00     0.000 C 
BRANCH   5   6
ATOM      6  C   UNL     1       4.747  17.981  34.872  1.00  0.00     0.006 C 
BRANCH   6   7
ATOM      7  C   UNL     1       5.631  16.819  34.412  1.00  0.00     0.053 C 
BRANCH   7   8
ATOM      8  C   UNL     1       6.173  17.082  33.042  1.00  0.00     0.041 C 
ATOM      9  O   UNL     1       6.058  18.224  32.524  1.00  0.00    -0.550 OA
ATOM     10  O   UNL     1       6.758  16.052  32.316  1.00  0.00    -0.550 OA
ENDBRANCH   7   8
ENDBRANCH   6   7
ENDBRANCH   5   6
ENDBRANCH   4   5
ENDBRANCH   3   4
ENDBRANCH   2   3
ENDBRANCH   1   2
BRANCH   1  11
ATOM     11  C   UNL     1       0.416  22.231  34.035  1.00  0.00     0.000 C 
BRANCH  11  12
ATOM     12  C   UNL     1      -0.451  22.151  32.770  1.00  0.00     0.000 C 
BRANCH  12  13
ATOM     13  C   UNL     1       0.024  21.019  31.850  1.00  0.00     0.000 C 
BRANCH  13  14
ATOM     14  C   UNL     1      -1.079  20.616  30.860  1.00  0.00     0.000 C 
BRANCH  14  15
ATOM     15  C   UNL     1      -0.598  19.590  29.822  1.00  0.00     0.000 C 
BRANCH  15  16
ATOM     16  C   UNL     1      -1.717  19.142  28.870  1.00  0.00     0.006 C 
BRANCH  16  17
ATOM     17  C   UNL     1      -1.943  20.175  27.762  1.00  0.00     0.053 C 
BRANCH  17  18
ATOM     18  C   UNL     1      -3.390  20.238  27.391  1.00  0.00     0.041 C 
ATOM     19  O   UNL     1      -3.968  21.352  27.278  1.00  0.00    -0.550 OA
ATOM     20  O   UNL     1      -4.090  19.069  27.119  1.00  0.00    -0.550 OA
ENDBRANCH  17  18
ENDBRANCH  16  17
ENDBRANCH  15  16
ENDBRANCH  14  15
ENDBRANCH  13  14
ENDBRANCH  12  13
ENDBRANCH  11  12
ENDBRANCH   1  11
TORSDOF 15
ENDMDL
MODEL 5
REMARK VINA RESULT:    -4.439      0.523      9.290
REMARK INTER + INTRA:          -9.162
REMARK INTER:                  -8.393
REMARK INTRA:                  -0.769
REMARK UNBOUND:                -0.831
REMARK SMILES O=C([O-])CCCCCCCCCCCCCCC(=O)[O-]
REMARK SMILES IDX 10 1 9 2 8 3 7 4 6 5 5 6 4 7 2 8 1 9 3 10 11 11 12 12 13 13
REMARK SMILES IDX 14 14 15 15 16 16 17 17 18 18 19 19 20 20
REMARK H PARENT
REMARK Flexibility Score: inf
ROOT
ATOM      1  C   UNL     1       1.930  19.756  32.339  1.00  0.00     0.000 C 
ENDROOT
BRANCH   1   2
ATOM      2  C   UNL     1       1.008  20.741  33.079  1.00  0.00     0.000 C 
BRANCH   2   3
ATOM      3  C   UNL     1       0.087  21.516  32.122  1.00  0.00     0.000 C 
BRANCH   3   4
ATOM      4  C   UNL     1      -0.930  20.604  31.414  1.00  0.00     0.000 C 
BRANCH   4   5
ATOM      5  C   UNL     1      -0.915  20.776  29.887  1.00  0.00     0.000 C 
BRANCH   5   6
ATOM      6  C   UNL     1      -1.550  19.585  29.153  1.00  0.00     0.006 C 
BRANCH   6   7
ATOM      7  C   UNL     1      -1.746  19.901  27.667  1.00  0.00     0.053 C 
BRANCH   7   8
ATOM      8  C   UNL     1      -3.203  19.950  27.329  1.00  0.00     0.041 C 
ATOM      9  O   UNL     1      -3.877  20.983  27.583  1.00  0.00    -0.550 OA
ATOM     10  O   UNL     1      -3.827  18.837  26.781  1.00  0.00    -0.550 OA
ENDBRANCH   7   8
ENDBRANCH   6   7
ENDBRANCH   5   6
ENDBRANCH   4   5
ENDBRANCH   3   4
ENDBRANCH   2   3
ENDBRANCH   1   2
BRANCH   1  11
ATOM     11  C   UNL     1       3.213  19.443  33.126  1.00  0.00     0.000 C 
BRANCH  11  12
ATOM     12  C   UNL     1       2.943  18.622  34.395  1.00  0.00     0.000 C 
BRANCH  12  13
ATOM     13  C   UNL     1       4.112  17.673  34.693  1.00  0.00     0.000 C 
BRANCH  13  14
ATOM     14  C   UNL     1       5.407  18.460  34.943  1.00  0.00     0.000 C 
BRANCH  14  15
ATOM     15  C   UNL     1       6.639  17.784  34.322  1.00  0.00     0.000 C 
BRANCH  15  16
ATOM     16  C   UNL     1       6.514  17.607  32.801  1.00  0.00     0.006 C 
BRANCH  16  17
ATOM     17  C   UNL     1       6.335  16.131  32.433  1.00  0.00     0.053 C 
BRANCH  17  18
ATOM     18  C   UNL     1       7.457  15.669  31.559  1.00  0.00     0.041 C 
ATOM     19  O   UNL     1       8.465  16.403  31.379  1.00  0.00    -0.550 OA
ATOM     20  O   UNL     1       7.414  14.406  30.982  1.00  0.00    -0.550 OA
ENDBRANCH  17  18
ENDBRANCH  16  17
ENDBRANCH  15  16
ENDBRANCH  14  15
ENDBRANCH  13  14
ENDBRANCH  12  13
ENDBRANCH  11  12
ENDBRANCH   1  11
TORSDOF 15
ENDMDL
MODEL 6
REMARK VINA RESULT:    -4.023     13.897     17.692
REMARK INTER + INTRA:          -8.382
REMARK INTER:                  -7.747
REMARK INTRA:                  -0.635
REMARK UNBOUND:                -0.831
REMARK SMILES O=C([O-])CCCCCCCCCCCCCCC(=O)[O-]
REMARK SMILES IDX 10 1 9 2 8 3 7 4 6 5 5 6 4 7 2 8 1 9 3 10 11 11 12 12 13 13
REMARK SMILES IDX 14 14 15 15 16 16 17 17 18 18 19 19 20 20
REMARK H PARENT
REMARK Flexibility Score: inf
ROOT
ATOM      1  C   UNL     1       7.242  11.521  17.094  1.00  0.00     0.000 C 
ENDROOT
BRANCH   1   2
ATOM      2  C   UNL     1       6.631  11.598  15.684  1.00  0.00     0.000 C 
BRANCH   2   3
ATOM      3  C   UNL     1       6.572  10.226  14.992  1.00  0.00     0.000 C 
BRANCH   3   4
ATOM      4  C   UNL     1       5.381   9.376  15.468  1.00  0.00     0.000 C 
BRANCH   4   5
ATOM      5  C   UNL     1       4.090  10.197  15.612  1.00  0.00     0.000 C 
BRANCH   5   6
ATOM      6  C   UNL     1       2.940   9.385  16.227  1.00  0.00     0.006 C 
BRANCH   6   7
ATOM      7  C   UNL     1       2.172   8.619  15.145  1.00  0.00     0.053 C 
BRANCH   7   8
ATOM      8  C   UNL     1       0.812   8.238  15.638  1.00  0.00     0.041 C 
ATOM      9  O   UNL     1       0.259   8.905  16.551  1.00  0.00    -0.550 OA
ATOM     10  O   UNL     1       0.176   7.114  15.124  1.00  0.00    -0.550 OA
ENDBRANCH   7   8
ENDBRANCH   6   7
ENDBRANCH   5   6
ENDBRANCH   4   5
ENDBRANCH   3   4
ENDBRANCH   2   3
ENDBRANCH   1   2
BRANCH   1  11
ATOM     11  C   UNL     1       8.532  12.345  17.225  1.00  0.00     0.000 C 
BRANCH  11  12
ATOM     12  C   UNL     1       9.191  12.196  18.604  1.00  0.00     0.000 C 
BRANCH  12  13
ATOM     13  C   UNL     1       9.615  13.562  19.160  1.00  0.00     0.000 C 
BRANCH  13  14
ATOM     14  C   UNL     1       8.434  14.266  19.846  1.00  0.00     0.000 C 
BRANCH  14  15
ATOM     15  C   UNL     1       8.876  15.152  21.022  1.00  0.00     0.000 C 
BRANCH  15  16
ATOM     16  C   UNL     1       9.454  14.340  22.191  1.00  0.00     0.006 C 
BRANCH  16  17
ATOM     17  C   UNL     1       9.492  15.175  23.473  1.00  0.00     0.053 C 
BRANCH  17  18
ATOM     18  C   UNL     1       8.497  14.661  24.464  1.00  0.00     0.041 C 
ATOM     19  O   UNL     1       8.886  14.149  25.547  1.00  0.00    -0.550 OA
ATOM     20  O   UNL     1       7.137  14.793  24.215  1.00  0.00    -0.550 OA
ENDBRANCH  17  18
ENDBRANCH  16  17
ENDBRANCH  15  16
ENDBRANCH  14  15
ENDBRANCH  13  14
ENDBRANCH  12  13
ENDBRANCH  11  12
ENDBRANCH   1  11
TORSDOF 15
ENDMDL
MODEL 7
REMARK VINA RESULT:    -3.923      1.797      9.121
REMARK INTER + INTRA:          -8.195
REMARK INTER:                  -7.594
REMARK INTRA:                  -0.601
REMARK UNBOUND:                -0.831
REMARK SMILES O=C([O-])CCCCCCCCCCCCCCC(=O)[O-]
REMARK SMILES IDX 10 1 9 2 8 3 7 4 6 5 5 6 4 7 2 8 1 9 3 10 11 11 12 12 13 13
REMARK SMILES IDX 14 14 15 15 16 16 17 17 18 18 19 19 20 20
REMARK H PARENT
REMARK Flexibility Score: inf
ROOT
ATOM      1  C   UNL     1      -0.610  20.254  30.553  1.00  0.00     0.000 C 
ENDROOT
BRANCH   1   2
ATOM      2  C   UNL     1      -1.619  20.594  29.442  1.00  0.00     0.000 C 
BRANCH   2   3
ATOM      3  C   UNL     1      -1.020  20.437  28.035  1.00  0.00     0.000 C 
BRANCH   3   4
ATOM      4  C   UNL     1      -2.083  20.537  26.927  1.00  0.00     0.000 C 
BRANCH   4   5
ATOM      5  C   UNL     1      -3.516  20.541  27.482  1.00  0.00     0.000 C 
BRANCH   5   6
ATOM      6  C   UNL     1      -4.119  19.131  27.571  1.00  0.00     0.006 C 
BRANCH   6   7
ATOM      7  C   UNL     1      -3.183  18.096  26.941  1.00  0.00     0.053 C 
BRANCH   7   8
ATOM      8  C   UNL     1      -2.764  17.081  27.956  1.00  0.00     0.041 C 
ATOM      9  O   UNL     1      -1.803  17.322  28.734  1.00  0.00    -0.550 OA
ATOM     10  O   UNL     1      -3.400  15.847  28.011  1.00  0.00    -0.550 OA
ENDBRANCH   7   8
ENDBRANCH   6   7
ENDBRANCH   5   6
ENDBRANCH   4   5
ENDBRANCH   3   4
ENDBRANCH   2   3
ENDBRANCH   1   2
BRANCH   1  11
ATOM     11  C   UNL     1      -0.659  21.251  31.721  1.00  0.00     0.000 C 
BRANCH  11  12
ATOM     12  C   UNL     1       0.489  21.048  32.720  1.00  0.00     0.000 C 
BRANCH  12  13
ATOM     13  C   UNL     1       1.653  20.287  32.070  1.00  0.00     0.000 C 
BRANCH  13  14
ATOM     14  C   UNL     1       2.157  19.165  32.990  1.00  0.00     0.000 C 
BRANCH  14  15
ATOM     15  C   UNL     1       3.655  19.288  33.308  1.00  0.00     0.000 C 
BRANCH  15  16
ATOM     16  C   UNL     1       4.155  18.175  34.242  1.00  0.00     0.006 C 
BRANCH  16  17
ATOM     17  C   UNL     1       5.683  18.186  34.341  1.00  0.00     0.053 C 
BRANCH  17  18
ATOM     18  C   UNL     1       6.293  17.596  33.109  1.00  0.00     0.041 C 
ATOM     19  O   UNL     1       5.742  16.620  32.534  1.00  0.00    -0.550 OA
ATOM     20  O   UNL     1       7.442  18.155  32.566  1.00  0.00    -0.550 OA
ENDBRANCH  17  18
ENDBRANCH  16  17
ENDBRANCH  15  16
ENDBRANCH  14  15
ENDBRANCH  13  14
ENDBRANCH  12  13
ENDBRANCH  11  12
ENDBRANCH   1  11
TORSDOF 15
ENDMDL
MODEL 8
REMARK VINA RESULT:    -3.884      1.778      9.082
REMARK INTER + INTRA:          -8.121
REMARK INTER:                  -7.343
REMARK INTRA:                  -0.778
REMARK UNBOUND:                -0.831
REMARK SMILES O=C([O-])CCCCCCCCCCCCCCC(=O)[O-]
REMARK SMILES IDX 10 1 9 2 8 3 7 4 6 5 5 6 4 7 2 8 1 9 3 10 11 11 12 12 13 13
REMARK SMILES IDX 14 14 15 15 16 16 17 17 18 18 19 19 20 20
REMARK H PARENT
REMARK Flexibility Score: inf
ROOT
ATOM      1  C   UNL     1       0.364  21.364  32.039  1.00  0.00     0.000 C 
ENDROOT
BRANCH   1   2
ATOM      2  C   UNL     1      -0.678  20.333  31.571  1.00  0.00     0.000 C 
BRANCH   2   3
ATOM      3  C   UNL     1      -1.219  20.640  30.165  1.00  0.00     0.000 C 
BRANCH   3   4
ATOM      4  C   UNL     1      -1.516  19.366  29.355  1.00  0.00     0.000 C 
BRANCH   4   5
ATOM      5  C   UNL     1      -0.831  19.366  27.980  1.00  0.00     0.000 C 
BRANCH   5   6
ATOM      6  C   UNL     1      -1.265  20.551  27.104  1.00  0.00     0.006 C 
BRANCH   6   7
ATOM      7  C   UNL     1      -2.475  20.179  26.242  1.00  0.00     0.053 C 
BRANCH   7   8
ATOM      8  C   UNL     1      -3.688  19.984  27.095  1.00  0.00     0.041 C 
ATOM      9  O   UNL     1      -4.221  18.847  27.189  1.00  0.00    -0.550 OA
ATOM     10  O   UNL     1      -4.261  21.069  27.746  1.00  0.00    -0.550 OA
ENDBRANCH   7   8
ENDBRANCH   6   7
ENDBRANCH   5   6
ENDBRANCH   4   5
ENDBRANCH   3   4
ENDBRANCH   2   3
ENDBRANCH   1   2
BRANCH   1  11
ATOM     11  C   UNL     1      -0.163  22.266  33.166  1.00  0.00     0.000 C 
BRANCH  11  12
ATOM     12  C   UNL     1       0.678  22.164  34.447  1.00  0.00     0.000 C 
BRANCH  12  13
ATOM     13  C   UNL     1       0.750  20.713  34.941  1.00  0.00     0.000 C 
BRANCH  13  14
ATOM     14  C   UNL     1       2.209  20.265  35.117  1.00  0.00     0.000 C 
BRANCH  14  15
ATOM     15  C   UNL     1       2.642  19.234  34.063  1.00  0.00     0.000 C 
BRANCH  15  16
ATOM     16  C   UNL     1       3.975  19.598  33.391  1.00  0.00     0.006 C 
BRANCH  16  17
ATOM     17  C   UNL     1       4.717  18.343  32.925  1.00  0.00     0.053 C 
BRANCH  17  18
ATOM     18  C   UNL     1       5.729  17.924  33.943  1.00  0.00     0.041 C 
ATOM     19  O   UNL     1       6.126  16.729  33.989  1.00  0.00    -0.550 OA
ATOM     20  O   UNL     1       6.273  18.863  34.810  1.00  0.00    -0.550 OA
ENDBRANCH  17  18
ENDBRANCH  16  17
ENDBRANCH  15  16
ENDBRANCH  14  15
ENDBRANCH  13  14
ENDBRANCH  12  13
ENDBRANCH  11  12
ENDBRANCH   1  11
TORSDOF 15
ENDMDL
