MODEL 1
REMARK VINA RESULT:    -6.368      0.000      0.000
REMARK INTER + INTRA:          -9.215
REMARK INTER:                  -8.602
REMARK INTRA:                  -0.613
REMARK UNBOUND:                -0.613
REMARK SMILES COc1ccc(-c2cc(=O)c3c(OC)c(OC)c(OC)cc3o2)cc1OC
REMARK SMILES IDX 7 1 8 2 9 3 10 4 11 5 12 6 15 7 18 8 21 9 22 10 23 11 6 12
REMARK SMILES IDX 3 13 25 14 4 15 24 16 5 17 2 18 1 19 26 20 27 21 13 22 14 23
REMARK SMILES IDX 19 24 20 25 16 26 17 27
REMARK H PARENT
REMARK Flexibility Score: inf
ROOT
ATOM      1  C   UNL     1     137.242 136.267 142.092  1.00  0.00     0.138 A 
ATOM      2  C   UNL     1     136.763 136.991 143.194  1.00  0.00     0.100 A 
ATOM      3  C   UNL     1     135.391 137.020 143.452  1.00  0.00     0.197 A 
ATOM      4  O   UNL     1     134.971 137.705 144.424  1.00  0.00    -0.289 OA
ATOM      5  C   UNL     1     134.507 136.311 142.611  1.00  0.00     0.111 A 
ATOM      6  C   UNL     1     133.105 136.259 142.822  1.00  0.00     0.179 A 
ATOM      7  C   UNL     1     132.273 135.628 141.862  1.00  0.00     0.204 A 
ATOM      8  C   UNL     1     132.849 134.959 140.772  1.00  0.00     0.168 A 
ATOM      9  C   UNL     1     134.243 134.957 140.607  1.00  0.00     0.098 A 
ATOM     10  C   UNL     1     135.065 135.636 141.504  1.00  0.00     0.146 A 
ATOM     11  O   UNL     1     136.379 135.640 141.298  1.00  0.00    -0.456 OA
ENDROOT
BRANCH   1  12
ATOM     12  C   UNL     1     138.690 136.199 141.770  1.00  0.00     0.021 A 
ATOM     13  C   UNL     1     141.453 136.041 141.208  1.00  0.00     0.160 A 
ATOM     14  C   UNL     1     140.672 137.039 140.605  1.00  0.00     0.161 A 
ATOM     15  C   UNL     1     140.851 135.134 142.098  1.00  0.00     0.051 A 
ATOM     16  C   UNL     1     139.295 137.117 140.891  1.00  0.00     0.062 A 
ATOM     17  C   UNL     1     139.486 135.217 142.378  1.00  0.00     0.016 A 
BRANCH  13  18
ATOM     18  O   UNL     1     142.821 135.988 140.901  1.00  0.00    -0.493 OA
ATOM     19  C   UNL     1     143.774 135.194 141.600  1.00  0.00     0.278 C 
ENDBRANCH  13  18
BRANCH  14  20
ATOM     20  O   UNL     1     141.304 137.937 139.730  1.00  0.00    -0.493 OA
ATOM     21  C   UNL     1     141.650 139.279 140.059  1.00  0.00     0.278 C 
ENDBRANCH  14  20
ENDBRANCH   1  12
BRANCH   6  22
ATOM     22  O   UNL     1     132.551 136.795 143.985  1.00  0.00    -0.492 OA
ATOM     23  C   UNL     1     132.073 135.951 145.029  1.00  0.00     0.278 C 
ENDBRANCH   6  22
BRANCH   8  24
ATOM     24  O   UNL     1     131.994 134.311 139.864  1.00  0.00    -0.493 OA
ATOM     25  C   UNL     1     131.455 134.911 138.690  1.00  0.00     0.278 C 
ENDBRANCH   8  24
BRANCH   7  26
ATOM     26  O   UNL     1     130.867 135.630 141.936  1.00  0.00    -0.490 OA
ATOM     27  C   UNL     1     130.012 136.721 141.608  1.00  0.00     0.278 C 
ENDBRANCH   7  26
TORSDOF 6
ENDMDL
MODEL 2
REMARK VINA RESULT:    -6.153      2.058      2.797
REMARK INTER + INTRA:          -8.924
REMARK INTER:                  -8.251
REMARK INTRA:                  -0.673
REMARK UNBOUND:                -0.613
REMARK SMILES COc1ccc(-c2cc(=O)c3c(OC)c(OC)c(OC)cc3o2)cc1OC
REMARK SMILES IDX 7 1 8 2 9 3 10 4 11 5 12 6 15 7 18 8 21 9 22 10 23 11 6 12
REMARK SMILES IDX 3 13 25 14 4 15 24 16 5 17 2 18 1 19 26 20 27 21 13 22 14 23
REMARK SMILES IDX 19 24 20 25 16 26 17 27
REMARK H PARENT
REMARK Flexibility Score: inf
ROOT
ATOM      1  C   UNL     1     136.520 136.324 141.723  1.00  0.00     0.138 A 
ATOM      2  C   UNL     1     135.792 135.161 142.014  1.00  0.00     0.100 A 
ATOM      3  C   UNL     1     134.404 135.235 142.145  1.00  0.00     0.197 A 
ATOM      4  O   UNL     1     133.766 134.189 142.443  1.00  0.00    -0.289 OA
ATOM      5  C   UNL     1     133.750 136.473 141.968  1.00  0.00     0.111 A 
ATOM      6  C   UNL     1     132.343 136.630 142.048  1.00  0.00     0.179 A 
ATOM      7  C   UNL     1     131.775 137.928 141.981  1.00  0.00     0.204 A 
ATOM      8  C   UNL     1     132.595 139.036 141.720  1.00  0.00     0.168 A 
ATOM      9  C   UNL     1     133.981 138.864 141.574  1.00  0.00     0.098 A 
ATOM     10  C   UNL     1     134.558 137.603 141.711  1.00  0.00     0.146 A 
ATOM     11  O   UNL     1     135.877 137.483 141.599  1.00  0.00    -0.456 OA
ENDROOT
BRANCH   1  12
ATOM     12  C   UNL     1     137.997 136.307 141.572  1.00  0.00     0.021 A 
ATOM     13  C   UNL     1     140.810 136.248 141.341  1.00  0.00     0.160 A 
ATOM     14  C   UNL     1     140.065 137.157 140.575  1.00  0.00     0.161 A 
ATOM     15  C   UNL     1     140.148 135.380 142.226  1.00  0.00     0.051 A 
ATOM     16  C   UNL     1     138.661 137.186 140.697  1.00  0.00     0.062 A 
ATOM     17  C   UNL     1     138.757 135.414 142.343  1.00  0.00     0.016 A 
BRANCH  13  18
ATOM     18  O   UNL     1     142.206 136.242 141.196  1.00  0.00    -0.493 OA
ATOM     19  C   UNL     1     143.041 135.123 141.474  1.00  0.00     0.278 C 
ENDBRANCH  13  18
BRANCH  14  20
ATOM     20  O   UNL     1     140.755 138.019 139.709  1.00  0.00    -0.493 OA
ATOM     21  C   UNL     1     140.529 138.105 138.304  1.00  0.00     0.278 C 
ENDBRANCH  14  20
ENDBRANCH   1  12
BRANCH   6  22
ATOM     22  O   UNL     1     131.518 135.509 142.156  1.00  0.00    -0.492 OA
ATOM     23  C   UNL     1     130.761 135.043 141.043  1.00  0.00     0.278 C 
ENDBRANCH   6  22
BRANCH   8  24
ATOM     24  O   UNL     1     131.990 140.300 141.620  1.00  0.00    -0.493 OA
ATOM     25  C   UNL     1     132.363 141.303 140.679  1.00  0.00     0.278 C 
ENDBRANCH   8  24
BRANCH   7  26
ATOM     26  O   UNL     1     130.403 138.183 142.164  1.00  0.00    -0.490 OA
ATOM     27  C   UNL     1     129.723 138.255 143.414  1.00  0.00     0.278 C 
ENDBRANCH   7  26
TORSDOF 6
ENDMDL
MODEL 3
REMARK VINA RESULT:    -6.090      1.282      2.949
REMARK INTER + INTRA:          -8.840
REMARK INTER:                  -8.327
REMARK INTRA:                  -0.513
REMARK UNBOUND:                -0.613
REMARK SMILES COc1ccc(-c2cc(=O)c3c(OC)c(OC)c(OC)cc3o2)cc1OC
REMARK SMILES IDX 7 1 8 2 9 3 10 4 11 5 12 6 15 7 18 8 21 9 22 10 23 11 6 12
REMARK SMILES IDX 3 13 25 14 4 15 24 16 5 17 2 18 1 19 26 20 27 21 13 22 14 23
REMARK SMILES IDX 19 24 20 25 16 26 17 27
REMARK H PARENT
REMARK Flexibility Score: inf
ROOT
ATOM      1  C   UNL     1     136.800 136.451 141.095  1.00  0.00     0.138 A 
ATOM      2  C   UNL     1     136.162 136.289 139.856  1.00  0.00     0.100 A 
ATOM      3  C   UNL     1     134.767 136.294 139.797  1.00  0.00     0.197 A 
ATOM      4  O   UNL     1     134.206 136.110 138.683  1.00  0.00    -0.289 OA
ATOM      5  C   UNL     1     134.018 136.476 140.979  1.00  0.00     0.111 A 
ATOM      6  C   UNL     1     132.602 136.530 141.004  1.00  0.00     0.179 A 
ATOM      7  C   UNL     1     131.921 136.591 142.247  1.00  0.00     0.204 A 
ATOM      8  C   UNL     1     132.653 136.717 143.437  1.00  0.00     0.168 A 
ATOM      9  C   UNL     1     134.056 136.732 143.399  1.00  0.00     0.098 A 
ATOM     10  C   UNL     1     134.736 136.597 142.190  1.00  0.00     0.146 A 
ATOM     11  O   UNL     1     136.065 136.584 142.195  1.00  0.00    -0.456 OA
ENDROOT
BRANCH   1  12
ATOM     12  C   UNL     1     138.280 136.455 141.219  1.00  0.00     0.021 A 
ATOM     13  C   UNL     1     141.088 136.440 141.511  1.00  0.00     0.160 A 
ATOM     14  C   UNL     1     140.487 137.301 140.581  1.00  0.00     0.161 A 
ATOM     15  C   UNL     1     140.283 135.598 142.298  1.00  0.00     0.051 A 
ATOM     16  C   UNL     1     139.084 137.308 140.441  1.00  0.00     0.062 A 
ATOM     17  C   UNL     1     138.894 135.610 142.156  1.00  0.00     0.016 A 
BRANCH  13  18
ATOM     18  O   UNL     1     142.487 136.454 141.625  1.00  0.00    -0.493 OA
ATOM     19  C   UNL     1     143.338 135.375 141.250  1.00  0.00     0.278 C 
ENDBRANCH  13  18
BRANCH  14  20
ATOM     20  O   UNL     1     141.316 138.137 139.817  1.00  0.00    -0.493 OA
ATOM     21  C   UNL     1     141.664 137.906 138.455  1.00  0.00     0.278 C 
ENDBRANCH  14  20
ENDBRANCH   1  12
BRANCH   6  22
ATOM     22  O   UNL     1     131.880 136.558 139.809  1.00  0.00    -0.492 OA
ATOM     23  C   UNL     1     131.126 135.428 139.379  1.00  0.00     0.278 C 
ENDBRANCH   6  22
BRANCH   8  24
ATOM     24  O   UNL     1     131.943 136.816 144.645  1.00  0.00    -0.493 OA
ATOM     25  C   UNL     1     131.770 135.748 145.572  1.00  0.00     0.278 C 
ENDBRANCH   8  24
BRANCH   7  26
ATOM     26  O   UNL     1     130.520 136.534 142.366  1.00  0.00    -0.490 OA
ATOM     27  C   UNL     1     129.619 137.625 142.203  1.00  0.00     0.278 C 
ENDBRANCH   7  26
TORSDOF 6
ENDMDL
MODEL 4
REMARK VINA RESULT:    -6.086      2.082      8.839
REMARK INTER + INTRA:          -8.833
REMARK INTER:                  -8.124
REMARK INTRA:                  -0.709
REMARK UNBOUND:                -0.613
REMARK SMILES COc1ccc(-c2cc(=O)c3c(OC)c(OC)c(OC)cc3o2)cc1OC
REMARK SMILES IDX 7 1 8 2 9 3 10 4 11 5 12 6 15 7 18 8 21 9 22 10 23 11 6 12
REMARK SMILES IDX 3 13 25 14 4 15 24 16 5 17 2 18 1 19 26 20 27 21 13 22 14 23
REMARK SMILES IDX 19 24 20 25 16 26 17 27
REMARK H PARENT
REMARK Flexibility Score: inf
ROOT
ATOM      1  C   UNL     1     138.206 137.186 140.971  1.00  0.00     0.138 A 
ATOM      2  C   UNL     1     138.202 138.543 141.326  1.00  0.00     0.100 A 
ATOM      3  C   UNL     1     139.415 139.203 141.530  1.00  0.00     0.197 A 
ATOM      4  O   UNL     1     139.395 140.413 141.885  1.00  0.00    -0.289 OA
ATOM      5  C   UNL     1     140.628 138.503 141.362  1.00  0.00     0.111 A 
ATOM      6  C   UNL     1     141.903 139.105 141.514  1.00  0.00     0.179 A 
ATOM      7  C   UNL     1     143.072 138.304 141.450  1.00  0.00     0.204 A 
ATOM      8  C   UNL     1     142.968 136.944 141.122  1.00  0.00     0.168 A 
ATOM      9  C   UNL     1     141.705 136.369 140.905  1.00  0.00     0.098 A 
ATOM     10  C   UNL     1     140.546 137.131 141.038  1.00  0.00     0.146 A 
ATOM     11  O   UNL     1     139.366 136.545 140.857  1.00  0.00    -0.456 OA
ENDROOT
BRANCH   1  12
ATOM     12  C   UNL     1     136.948 136.433 140.741  1.00  0.00     0.021 A 
ATOM     13  C   UNL     1     134.550 135.025 140.250  1.00  0.00     0.160 A 
ATOM     14  C   UNL     1     134.961 135.265 141.569  1.00  0.00     0.161 A 
ATOM     15  C   UNL     1     135.332 135.499 139.182  1.00  0.00     0.051 A 
ATOM     16  C   UNL     1     136.157 135.972 141.810  1.00  0.00     0.062 A 
ATOM     17  C   UNL     1     136.515 136.199 139.427  1.00  0.00     0.016 A 
BRANCH  13  18
ATOM     18  O   UNL     1     133.356 134.317 140.042  1.00  0.00    -0.493 OA
ATOM     19  C   UNL     1     132.109 134.918 139.709  1.00  0.00     0.278 C 
ENDBRANCH  13  18
BRANCH  14  20
ATOM     20  O   UNL     1     134.154 134.788 142.614  1.00  0.00    -0.493 OA
ATOM     21  C   UNL     1     133.206 135.578 143.328  1.00  0.00     0.278 C 
ENDBRANCH  14  20
ENDBRANCH   1  12
BRANCH   6  22
ATOM     22  O   UNL     1     142.009 140.486 141.690  1.00  0.00    -0.492 OA
ATOM     23  C   UNL     1     142.384 141.338 140.612  1.00  0.00     0.278 C 
ENDBRANCH   6  22
BRANCH   8  24
ATOM     24  O   UNL     1     144.151 136.192 141.028  1.00  0.00    -0.493 OA
ATOM     25  C   UNL     1     144.558 135.203 141.970  1.00  0.00     0.278 C 
ENDBRANCH   8  24
BRANCH   7  26
ATOM     26  O   UNL     1     144.365 138.800 141.702  1.00  0.00    -0.490 OA
ATOM     27  C   UNL     1     144.935 139.041 142.984  1.00  0.00     0.278 C 
ENDBRANCH   7  26
TORSDOF 6
ENDMDL
MODEL 5
REMARK VINA RESULT:    -5.970      2.667      8.469
REMARK INTER + INTRA:          -8.678
REMARK INTER:                  -8.006
REMARK INTRA:                  -0.672
REMARK UNBOUND:                -0.613
REMARK SMILES COc1ccc(-c2cc(=O)c3c(OC)c(OC)c(OC)cc3o2)cc1OC
REMARK SMILES IDX 7 1 8 2 9 3 10 4 11 5 12 6 15 7 18 8 21 9 22 10 23 11 6 12
REMARK SMILES IDX 3 13 25 14 4 15 24 16 5 17 2 18 1 19 26 20 27 21 13 22 14 23
REMARK SMILES IDX 19 24 20 25 16 26 17 27
REMARK H PARENT
REMARK Flexibility Score: inf
ROOT
ATOM      1  C   UNL     1     136.792 137.148 141.958  1.00  0.00     0.138 A 
ATOM      2  C   UNL     1     137.977 136.504 141.572  1.00  0.00     0.100 A 
ATOM      3  C   UNL     1     139.122 137.264 141.327  1.00  0.00     0.197 A 
ATOM      4  O   UNL     1     140.170 136.676 140.945  1.00  0.00    -0.289 OA
ATOM      5  C   UNL     1     139.078 138.666 141.484  1.00  0.00     0.111 A 
ATOM      6  C   UNL     1     140.202 139.507 141.289  1.00  0.00     0.179 A 
ATOM      7  C   UNL     1     140.045 140.916 141.345  1.00  0.00     0.204 A 
ATOM      8  C   UNL     1     138.806 141.466 141.707  1.00  0.00     0.168 A 
ATOM      9  C   UNL     1     137.713 140.622 141.965  1.00  0.00     0.098 A 
ATOM     10  C   UNL     1     137.838 139.240 141.840  1.00  0.00     0.146 A 
ATOM     11  O   UNL     1     136.773 138.474 142.061  1.00  0.00    -0.456 OA
ENDROOT
BRANCH   1  12
ATOM     12  C   UNL     1     135.544 136.393 142.233  1.00  0.00     0.021 A 
ATOM     13  C   UNL     1     133.172 134.932 142.699  1.00  0.00     0.160 A 
ATOM     14  C   UNL     1     133.441 136.087 143.450  1.00  0.00     0.161 A 
ATOM     15  C   UNL     1     134.084 134.519 141.711  1.00  0.00     0.051 A 
ATOM     16  C   UNL     1     134.624 136.815 143.210  1.00  0.00     0.062 A 
ATOM     17  C   UNL     1     135.253 135.245 141.479  1.00  0.00     0.016 A 
BRANCH  13  18
ATOM     18  O   UNL     1     131.987 134.227 142.962  1.00  0.00    -0.493 OA
ATOM     19  C   UNL     1     130.803 134.320 142.177  1.00  0.00     0.278 C 
ENDBRANCH  13  18
BRANCH  14  20
ATOM     20  O   UNL     1     132.507 136.480 144.421  1.00  0.00    -0.493 OA
ATOM     21  C   UNL     1     131.479 137.444 144.210  1.00  0.00     0.278 C 
ENDBRANCH  14  20
ENDBRANCH   1  12
BRANCH   6  22
ATOM     22  O   UNL     1     141.466 138.952 141.079  1.00  0.00    -0.492 OA
ATOM     23  C   UNL     1     142.445 138.939 142.114  1.00  0.00     0.278 C 
ENDBRANCH   6  22
BRANCH   8  24
ATOM     24  O   UNL     1     138.699 142.864 141.792  1.00  0.00    -0.493 OA
ATOM     25  C   UNL     1     137.903 143.558 142.748  1.00  0.00     0.278 C 
ENDBRANCH   8  24
BRANCH   7  26
ATOM     26  O   UNL     1     141.081 141.823 141.054  1.00  0.00    -0.490 OA
ATOM     27  C   UNL     1     141.660 142.051 139.772  1.00  0.00     0.278 C 
ENDBRANCH   7  26
TORSDOF 6
ENDMDL
MODEL 6
REMARK VINA RESULT:    -5.912      4.975     10.353
REMARK INTER + INTRA:          -8.599
REMARK INTER:                  -8.103
REMARK INTRA:                  -0.496
REMARK UNBOUND:                -0.613
REMARK SMILES COc1ccc(-c2cc(=O)c3c(OC)c(OC)c(OC)cc3o2)cc1OC
REMARK SMILES IDX 7 1 8 2 9 3 10 4 11 5 12 6 15 7 18 8 21 9 22 10 23 11 6 12
REMARK SMILES IDX 3 13 25 14 4 15 24 16 5 17 2 18 1 19 26 20 27 21 13 22 14 23
REMARK SMILES IDX 19 24 20 25 16 26 17 27
REMARK H PARENT
REMARK Flexibility Score: inf
ROOT
ATOM      1  C   UNL     1     138.735 141.511 141.389  1.00  0.00     0.138 A 
ATOM      2  C   UNL     1     138.872 140.251 141.991  1.00  0.00     0.100 A 
ATOM      3  C   UNL     1     140.108 139.605 141.957  1.00  0.00     0.197 A 
ATOM      4  O   UNL     1     140.207 138.457 142.469  1.00  0.00    -0.289 OA
ATOM      5  C   UNL     1     141.208 140.231 141.332  1.00  0.00     0.111 A 
ATOM      6  C   UNL     1     142.505 139.662 141.284  1.00  0.00     0.179 A 
ATOM      7  C   UNL     1     143.525 140.297 140.530  1.00  0.00     0.204 A 
ATOM      8  C   UNL     1     143.279 141.543 139.934  1.00  0.00     0.168 A 
ATOM      9  C   UNL     1     142.010 142.134 140.044  1.00  0.00     0.098 A 
ATOM     10  C   UNL     1     140.979 141.483 140.720  1.00  0.00     0.146 A 
ATOM     11  O   UNL     1     139.781 142.058 140.776  1.00  0.00    -0.456 OA
ENDROOT
BRANCH   1  12
ATOM     12  C   UNL     1     137.445 142.246 141.394  1.00  0.00     0.021 A 
ATOM     13  C   UNL     1     135.019 143.689 141.431  1.00  0.00     0.160 A 
ATOM     14  C   UNL     1     134.998 142.290 141.328  1.00  0.00     0.161 A 
ATOM     15  C   UNL     1     136.251 144.360 141.527  1.00  0.00     0.051 A 
ATOM     16  C   UNL     1     136.212 141.573 141.314  1.00  0.00     0.062 A 
ATOM     17  C   UNL     1     137.449 143.644 141.513  1.00  0.00     0.016 A 
BRANCH  13  18
ATOM     18  O   UNL     1     133.794 144.375 141.441  1.00  0.00    -0.493 OA
ATOM     19  C   UNL     1     133.161 144.910 140.283  1.00  0.00     0.278 C 
ENDBRANCH  13  18
BRANCH  14  20
ATOM     20  O   UNL     1     133.752 141.649 141.246  1.00  0.00    -0.493 OA
ATOM     21  C   UNL     1     133.203 141.098 140.052  1.00  0.00     0.278 C 
ENDBRANCH  14  20
ENDBRANCH   1  12
BRANCH   6  22
ATOM     22  O   UNL     1     142.788 138.500 142.004  1.00  0.00    -0.492 OA
ATOM     23  C   UNL     1     143.141 137.290 141.339  1.00  0.00     0.278 C 
ENDBRANCH   6  22
BRANCH   8  24
ATOM     24  O   UNL     1     144.325 142.161 139.230  1.00  0.00    -0.493 OA
ATOM     25  C   UNL     1     144.244 142.595 137.875  1.00  0.00     0.278 C 
ENDBRANCH   8  24
BRANCH   7  26
ATOM     26  O   UNL     1     144.805 139.743 140.337  1.00  0.00    -0.490 OA
ATOM     27  C   UNL     1     145.904 139.838 141.238  1.00  0.00     0.278 C 
ENDBRANCH   7  26
TORSDOF 6
ENDMDL
MODEL 7
REMARK VINA RESULT:    -5.907      1.883      8.909
REMARK INTER + INTRA:          -8.592
REMARK INTER:                  -8.131
REMARK INTRA:                  -0.461
REMARK UNBOUND:                -0.613
REMARK SMILES COc1ccc(-c2cc(=O)c3c(OC)c(OC)c(OC)cc3o2)cc1OC
REMARK SMILES IDX 7 1 8 2 9 3 10 4 11 5 12 6 15 7 18 8 21 9 22 10 23 11 6 12
REMARK SMILES IDX 3 13 25 14 4 15 24 16 5 17 2 18 1 19 26 20 27 21 13 22 14 23
REMARK SMILES IDX 19 24 20 25 16 26 17 27
REMARK H PARENT
REMARK Flexibility Score: inf
ROOT
ATOM      1  C   UNL     1     138.198 136.798 142.236  1.00  0.00     0.138 A 
ATOM      2  C   UNL     1     139.107 135.733 142.150  1.00  0.00     0.100 A 
ATOM      3  C   UNL     1     140.452 135.999 141.884  1.00  0.00     0.197 A 
ATOM      4  O   UNL     1     141.251 135.030 141.773  1.00  0.00    -0.289 OA
ATOM      5  C   UNL     1     140.881 137.333 141.719  1.00  0.00     0.111 A 
ATOM      6  C   UNL     1     142.232 137.693 141.483  1.00  0.00     0.179 A 
ATOM      7  C   UNL     1     142.562 139.044 141.205  1.00  0.00     0.204 A 
ATOM      8  C   UNL     1     141.571 140.034 141.282  1.00  0.00     0.168 A 
ATOM      9  C   UNL     1     140.247 139.678 141.585  1.00  0.00     0.098 A 
ATOM     10  C   UNL     1     139.898 138.344 141.786  1.00  0.00     0.146 A 
ATOM     11  O   UNL     1     138.628 138.041 142.039  1.00  0.00    -0.456 OA
ENDROOT
BRANCH   1  12
ATOM     12  C   UNL     1     136.757 136.576 142.516  1.00  0.00     0.021 A 
ATOM     13  C   UNL     1     134.025 136.175 143.107  1.00  0.00     0.160 A 
ATOM     14  C   UNL     1     134.628 135.454 142.066  1.00  0.00     0.161 A 
ATOM     15  C   UNL     1     134.792 137.085 143.856  1.00  0.00     0.051 A 
ATOM     16  C   UNL     1     135.993 135.654 141.778  1.00  0.00     0.062 A 
ATOM     17  C   UNL     1     136.144 137.279 143.565  1.00  0.00     0.016 A 
BRANCH  13  18
ATOM     18  O   UNL     1     132.664 135.955 143.369  1.00  0.00    -0.493 OA
ATOM     19  C   UNL     1     131.896 136.691 144.316  1.00  0.00     0.278 C 
ENDBRANCH  13  18
BRANCH  14  20
ATOM     20  O   UNL     1     133.839 134.544 141.344  1.00  0.00    -0.493 OA
ATOM     21  C   UNL     1     133.819 134.441 139.923  1.00  0.00     0.278 C 
ENDBRANCH  14  20
ENDBRANCH   1  12
BRANCH   6  22
ATOM     22  O   UNL     1     143.238 136.728 141.557  1.00  0.00    -0.492 OA
ATOM     23  C   UNL     1     143.956 136.323 140.395  1.00  0.00     0.278 C 
ENDBRANCH   6  22
BRANCH   8  24
ATOM     24  O   UNL     1     141.943 141.367 141.041  1.00  0.00    -0.493 OA
ATOM     25  C   UNL     1     141.706 142.066 139.822  1.00  0.00     0.278 C 
ENDBRANCH   8  24
BRANCH   7  26
ATOM     26  O   UNL     1     143.856 139.468 140.849  1.00  0.00    -0.490 OA
ATOM     27  C   UNL     1     144.907 139.801 141.750  1.00  0.00     0.278 C 
ENDBRANCH   7  26
TORSDOF 6
ENDMDL
MODEL 8
REMARK VINA RESULT:    -5.879      1.912      8.459
REMARK INTER + INTRA:          -8.554
REMARK INTER:                  -7.814
REMARK INTRA:                  -0.740
REMARK UNBOUND:                -0.613
REMARK SMILES COc1ccc(-c2cc(=O)c3c(OC)c(OC)c(OC)cc3o2)cc1OC
REMARK SMILES IDX 7 1 8 2 9 3 10 4 11 5 12 6 15 7 18 8 21 9 22 10 23 11 6 12
REMARK SMILES IDX 3 13 25 14 4 15 24 16 5 17 2 18 1 19 26 20 27 21 13 22 14 23
REMARK SMILES IDX 19 24 20 25 16 26 17 27
REMARK H PARENT
REMARK Flexibility Score: inf
ROOT
ATOM      1  C   UNL     1     136.644 137.321 142.311  1.00  0.00     0.138 A 
ATOM      2  C   UNL     1     136.700 138.689 142.620  1.00  0.00     0.100 A 
ATOM      3  C   UNL     1     137.885 139.393 142.404  1.00  0.00     0.197 A 
ATOM      4  O   UNL     1     137.932 140.613 142.720  1.00  0.00    -0.289 OA
ATOM      5  C   UNL     1     139.006 138.726 141.865  1.00  0.00     0.111 A 
ATOM      6  C   UNL     1     140.235 139.373 141.581  1.00  0.00     0.179 A 
ATOM      7  C   UNL     1     141.352 138.609 141.157  1.00  0.00     0.204 A 
ATOM      8  C   UNL     1     141.203 137.235 140.909  1.00  0.00     0.168 A 
ATOM      9  C   UNL     1     139.963 136.614 141.127  1.00  0.00     0.098 A 
ATOM     10  C   UNL     1     138.879 137.343 141.614  1.00  0.00     0.146 A 
ATOM     11  O   UNL     1     137.729 136.714 141.840  1.00  0.00    -0.456 OA
ENDROOT
BRANCH   1  12
ATOM     12  C   UNL     1     135.411 136.521 142.519  1.00  0.00     0.021 A 
ATOM     13  C   UNL     1     133.070 134.978 142.859  1.00  0.00     0.160 A 
ATOM     14  C   UNL     1     133.287 136.106 143.664  1.00  0.00     0.161 A 
ATOM     15  C   UNL     1     134.019 134.633 141.880  1.00  0.00     0.051 A 
ATOM     16  C   UNL     1     134.454 136.876 143.488  1.00  0.00     0.062 A 
ATOM     17  C   UNL     1     135.173 135.399 141.710  1.00  0.00     0.016 A 
BRANCH  13  18
ATOM     18  O   UNL     1     131.899 134.231 143.059  1.00  0.00    -0.493 OA
ATOM     19  C   UNL     1     130.752 134.288 142.217  1.00  0.00     0.278 C 
ENDBRANCH  13  18
BRANCH  14  20
ATOM     20  O   UNL     1     132.317 136.432 144.625  1.00  0.00    -0.493 OA
ATOM     21  C   UNL     1     131.315 137.431 144.456  1.00  0.00     0.278 C 
ENDBRANCH  14  20
ENDBRANCH   1  12
BRANCH   6  22
ATOM     22  O   UNL     1     140.337 140.762 141.684  1.00  0.00    -0.492 OA
ATOM     23  C   UNL     1     140.369 141.585 140.522  1.00  0.00     0.278 C 
ENDBRANCH   6  22
BRANCH   8  24
ATOM     24  O   UNL     1     142.321 136.518 140.451  1.00  0.00    -0.493 OA
ATOM     25  C   UNL     1     143.111 135.649 141.258  1.00  0.00     0.278 C 
ENDBRANCH   8  24
BRANCH   7  26
ATOM     26  O   UNL     1     142.635 139.153 140.964  1.00  0.00    -0.490 OA
ATOM     27  C   UNL     1     143.588 139.436 141.984  1.00  0.00     0.278 C 
ENDBRANCH   7  26
TORSDOF 6
ENDMDL
MODEL 9
REMARK VINA RESULT:    -5.781      1.518      8.464
REMARK INTER + INTRA:          -8.422
REMARK INTER:                  -8.043
REMARK INTRA:                  -0.379
REMARK UNBOUND:                -0.613
REMARK SMILES COc1ccc(-c2cc(=O)c3c(OC)c(OC)c(OC)cc3o2)cc1OC
REMARK SMILES IDX 7 1 8 2 9 3 10 4 11 5 12 6 15 7 18 8 21 9 22 10 23 11 6 12
REMARK SMILES IDX 3 13 25 14 4 15 24 16 5 17 2 18 1 19 26 20 27 21 13 22 14 23
REMARK SMILES IDX 19 24 20 25 16 26 17 27
REMARK H PARENT
REMARK Flexibility Score: inf
ROOT
ATOM      1  C   UNL     1     136.961 135.976 141.362  1.00  0.00     0.138 A 
ATOM      2  C   UNL     1     137.940 135.358 142.154  1.00  0.00     0.100 A 
ATOM      3  C   UNL     1     139.279 135.723 142.000  1.00  0.00     0.197 A 
ATOM      4  O   UNL     1     140.152 135.134 142.692  1.00  0.00    -0.289 OA
ATOM      5  C   UNL     1     139.628 136.719 141.063  1.00  0.00     0.111 A 
ATOM      6  C   UNL     1     140.957 137.174 140.869  1.00  0.00     0.179 A 
ATOM      7  C   UNL     1     141.242 138.087 139.822  1.00  0.00     0.204 A 
ATOM      8  C   UNL     1     140.194 138.624 139.059  1.00  0.00     0.168 A 
ATOM      9  C   UNL     1     138.871 138.220 139.303  1.00  0.00     0.098 A 
ATOM     10  C   UNL     1     138.588 137.267 140.280  1.00  0.00     0.146 A 
ATOM     11  O   UNL     1     137.328 136.884 140.461  1.00  0.00    -0.456 OA
ENDROOT
BRANCH   1  12
ATOM     12  C   UNL     1     135.523 135.628 141.481  1.00  0.00     0.021 A 
ATOM     13  C   UNL     1     132.783 134.967 141.647  1.00  0.00     0.160 A 
ATOM     14  C   UNL     1     133.415 135.605 142.725  1.00  0.00     0.161 A 
ATOM     15  C   UNL     1     133.520 134.673 140.487  1.00  0.00     0.051 A 
ATOM     16  C   UNL     1     134.782 135.938 142.636  1.00  0.00     0.062 A 
ATOM     17  C   UNL     1     134.874 135.005 140.405  1.00  0.00     0.016 A 
BRANCH  13  18
ATOM     18  O   UNL     1     131.421 134.647 141.767  1.00  0.00    -0.493 OA
ATOM     19  C   UNL     1     130.363 135.389 141.169  1.00  0.00     0.278 C 
ENDBRANCH  13  18
BRANCH  14  20
ATOM     20  O   UNL     1     132.650 135.896 143.866  1.00  0.00    -0.493 OA
ATOM     21  C   UNL     1     132.015 137.146 144.117  1.00  0.00     0.278 C 
ENDBRANCH  14  20
ENDBRANCH   1  12
BRANCH   6  22
ATOM     22  O   UNL     1     141.975 136.753 141.727  1.00  0.00    -0.492 OA
ATOM     23  C   UNL     1     142.948 135.804 141.303  1.00  0.00     0.278 C 
ENDBRANCH   6  22
BRANCH   8  24
ATOM     24  O   UNL     1     140.510 139.557 138.058  1.00  0.00    -0.493 OA
ATOM     25  C   UNL     1     140.505 140.970 138.238  1.00  0.00     0.278 C 
ENDBRANCH   8  24
BRANCH   7  26
ATOM     26  O   UNL     1     142.545 138.502 139.489  1.00  0.00    -0.490 OA
ATOM     27  C   UNL     1     143.355 137.966 138.446  1.00  0.00     0.278 C 
ENDBRANCH   7  26
TORSDOF 6
ENDMDL
