MODEL 1
REMARK VINA RESULT:     1.804      0.000      0.000
REMARK INTER + INTRA:           2.705
REMARK INTER:                   2.015
REMARK INTRA:                   0.690
REMARK UNBOUND:                 0.690
REMARK SMILES COc1cc2ccc(=O)oc2cc1OC
REMARK SMILES IDX 3 1 13 2 12 3 11 4 5 5 4 6 6 7 7 8 8 9 9 10 10 11 2 12 1 13
REMARK SMILES IDX 14 14 15 15
REMARK H PARENT
REMARK Flexibility Score: inf
ROOT
ATOM      1  C   UNL     1      20.394  14.831   0.655  1.00  0.00     0.161 A 
ATOM      2  C   UNL     1      20.301  14.510   2.021  1.00  0.00     0.164 A 
ATOM      3  C   UNL     1      21.474  14.260   2.761  1.00  0.00     0.098 A 
ATOM      4  C   UNL     1      22.727  14.330   2.147  1.00  0.00     0.142 A 
ATOM      5  C   UNL     1      22.820  14.652   0.778  1.00  0.00     0.022 A 
ATOM      6  C   UNL     1      21.658  14.902   0.036  1.00  0.00     0.062 A 
ATOM      7  C   UNL     1      24.089  14.714   0.193  1.00  0.00     0.019 A 
ATOM      8  C   UNL     1      25.216  14.457   0.973  1.00  0.00     0.094 A 
ATOM      9  C   UNL     1      25.046  14.143   2.326  1.00  0.00     0.336 A 
ATOM     10  O   UNL     1      26.050  13.908   3.047  1.00  0.00    -0.246 OA
ATOM     11  O   UNL     1      23.828  14.091   2.857  1.00  0.00    -0.423 OA
ENDROOT
BRANCH   1  12
ATOM     12  O   UNL     1      19.206  15.074  -0.052  1.00  0.00    -0.493 OA
ATOM     13  C   UNL     1      18.106  14.172  -0.120  1.00  0.00     0.278 C 
ENDBRANCH   1  12
BRANCH   2  14
ATOM     14  O   UNL     1      19.025  14.449   2.604  1.00  0.00    -0.493 OA
ATOM     15  C   UNL     1      18.214  15.583   2.891  1.00  0.00     0.278 C 
ENDBRANCH   2  14
TORSDOF 2
ENDMDL
