MODEL 1
REMARK VINA RESULT:    -3.723      0.000      0.000
REMARK INTER + INTRA:          -3.832
REMARK INTER:                  -3.832
REMARK INTRA:                   0.000
REMARK UNBOUND:                 0.000
REMARK SMILES Oc1ccc2[nH]ccc2c1
REMARK SMILES IDX 3 1 4 2 5 3 9 4 8 5 7 6 6 7 10 8 2 9 1 11
REMARK H PARENT 6 10 1 12
REMARK Flexibility Score: inf
ROOT
ATOM      1  C   UNL     1     144.797 136.268 143.978  1.00  0.00     0.048 A 
ATOM      2  C   UNL     1     145.597 135.183 144.381  1.00  0.00     0.030 A 
ATOM      3  C   UNL     1     145.019 133.915 144.391  1.00  0.00     0.046 A 
ATOM      4  C   UNL     1     143.715 133.716 144.023  1.00  0.00     0.003 A 
ATOM      5  C   UNL     1     143.455 132.369 144.141  1.00  0.00     0.028 A 
ATOM      6  C   UNL     1     144.647 131.805 144.586  1.00  0.00     0.083 A 
ATOM      7  N   UNL     1     145.599 132.755 144.737  1.00  0.00    -0.361 N 
ATOM      8  C   UNL     1     142.895 134.767 143.619  1.00  0.00     0.056 A 
ATOM      9  C   UNL     1     143.449 136.064 143.598  1.00  0.00     0.116 A 
ATOM     10  H   UNL     1     146.582 132.610 145.058  1.00  0.00     0.166 HD
ENDROOT
BRANCH   9  11
ATOM     11  O   UNL     1     142.678 137.156 143.203  1.00  0.00    -0.508 OA
ATOM     12  H   UNL     1     142.484 137.339 142.226  1.00  0.00     0.293 HD
ENDBRANCH   9  11
TORSDOF 1
ENDMDL
MODEL 2
REMARK VINA RESULT:    -3.720      9.451     10.657
REMARK INTER + INTRA:          -3.828
REMARK INTER:                  -3.828
REMARK INTRA:                   0.000
REMARK UNBOUND:                 0.000
REMARK SMILES Oc1ccc2[nH]ccc2c1
REMARK SMILES IDX 3 1 4 2 5 3 9 4 8 5 7 6 6 7 10 8 2 9 1 11
REMARK H PARENT 6 10 1 12
REMARK Flexibility Score: inf
ROOT
ATOM      1  C   UNL     1     145.479 144.884 143.814  1.00  0.00     0.048 A 
ATOM      2  C   UNL     1     146.585 145.670 144.192  1.00  0.00     0.030 A 
ATOM      3  C   UNL     1     147.823 145.041 144.304  1.00  0.00     0.046 A 
ATOM      4  C   UNL     1     147.975 143.702 144.058  1.00  0.00     0.003 A 
ATOM      5  C   UNL     1     149.304 143.396 144.254  1.00  0.00     0.028 A 
ATOM      6  C   UNL     1     149.904 144.597 144.619  1.00  0.00     0.083 A 
ATOM      7  N   UNL     1     148.995 145.599 144.648  1.00  0.00    -0.361 N 
ATOM      8  C   UNL     1     146.903 142.896 143.681  1.00  0.00     0.056 A 
ATOM      9  C   UNL     1     145.635 143.501 143.558  1.00  0.00     0.116 A 
ATOM     10  H   UNL     1     149.172 146.599 144.890  1.00  0.00     0.166 HD
ENDROOT
BRANCH   9  11
ATOM     11  O   UNL     1     144.525 142.746 143.185  1.00  0.00    -0.508 OA
ATOM     12  H   UNL     1     144.389 142.444 142.228  1.00  0.00     0.293 HD
ENDBRANCH   9  11
TORSDOF 1
ENDMDL
MODEL 3
REMARK VINA RESULT:    -3.719     13.359     15.117
REMARK INTER + INTRA:          -3.827
REMARK INTER:                  -3.827
REMARK INTRA:                   0.000
REMARK UNBOUND:                 0.000
REMARK SMILES Oc1ccc2[nH]ccc2c1
REMARK SMILES IDX 3 1 4 2 5 3 9 4 8 5 7 6 6 7 10 8 2 9 1 11
REMARK H PARENT 6 10 1 12
REMARK Flexibility Score: inf
ROOT
ATOM      1  C   UNL     1     136.718 145.470 143.814  1.00  0.00     0.048 A 
ATOM      2  C   UNL     1     135.934 146.575 144.199  1.00  0.00     0.030 A 
ATOM      3  C   UNL     1     136.559 147.816 144.290  1.00  0.00     0.046 A 
ATOM      4  C   UNL     1     137.892 147.973 144.018  1.00  0.00     0.003 A 
ATOM      5  C   UNL     1     138.196 149.304 144.199  1.00  0.00     0.028 A 
ATOM      6  C   UNL     1     136.999 149.902 144.582  1.00  0.00     0.083 A 
ATOM      7  N   UNL     1     136.002 148.988 144.636  1.00  0.00    -0.361 N 
ATOM      8  C   UNL     1     138.696 146.902 143.634  1.00  0.00     0.056 A 
ATOM      9  C   UNL     1     138.095 145.630 143.532  1.00  0.00     0.116 A 
ATOM     10  H   UNL     1     135.006 149.163 144.895  1.00  0.00     0.166 HD
ENDROOT
BRANCH   9  11
ATOM     11  O   UNL     1     138.849 144.521 143.153  1.00  0.00    -0.508 OA
ATOM     12  H   UNL     1     139.789 144.378 143.501  1.00  0.00     0.293 HD
ENDBRANCH   9  11
TORSDOF 1
ENDMDL
MODEL 4
REMARK VINA RESULT:    -3.714      9.522     10.717
REMARK INTER + INTRA:          -3.823
REMARK INTER:                  -3.823
REMARK INTRA:                   0.000
REMARK UNBOUND:                 0.000
REMARK SMILES Oc1ccc2[nH]ccc2c1
REMARK SMILES IDX 3 1 4 2 5 3 9 4 8 5 7 6 6 7 10 8 2 9 1 11
REMARK H PARENT 6 10 1 12
REMARK Flexibility Score: inf
ROOT
ATOM      1  C   UNL     1     136.139 136.735 143.888  1.00  0.00     0.048 A 
ATOM      2  C   UNL     1     135.047 135.939 144.282  1.00  0.00     0.030 A 
ATOM      3  C   UNL     1     133.791 136.538 144.339  1.00  0.00     0.046 A 
ATOM      4  C   UNL     1     133.609 137.859 144.025  1.00  0.00     0.003 A 
ATOM      5  C   UNL     1     132.268 138.138 144.179  1.00  0.00     0.028 A 
ATOM      6  C   UNL     1     131.692 136.939 144.590  1.00  0.00     0.083 A 
ATOM      7  N   UNL     1     132.627 135.965 144.686  1.00  0.00    -0.361 N 
ATOM      8  C   UNL     1     134.667 138.675 143.631  1.00  0.00     0.056 A 
ATOM      9  C   UNL     1     135.953 138.100 143.563  1.00  0.00     0.116 A 
ATOM     10  H   UNL     1     132.470 134.974 144.972  1.00  0.00     0.166 HD
ENDROOT
BRANCH   9  11
ATOM     11  O   UNL     1     137.050 138.866 143.176  1.00  0.00    -0.508 OA
ATOM     12  H   UNL     1     137.658 139.301 143.860  1.00  0.00     0.293 HD
ENDBRANCH   9  11
TORSDOF 1
ENDMDL
MODEL 5
REMARK VINA RESULT:    -3.516      2.116      3.402
REMARK INTER + INTRA:          -3.619
REMARK INTER:                  -3.619
REMARK INTRA:                   0.000
REMARK UNBOUND:                 0.000
REMARK SMILES Oc1ccc2[nH]ccc2c1
REMARK SMILES IDX 3 1 4 2 5 3 9 4 8 5 7 6 6 7 10 8 2 9 1 11
REMARK H PARENT 6 10 1 12
REMARK Flexibility Score: inf
ROOT
ATOM      1  C   UNL     1     144.791 132.237 144.461  1.00  0.00     0.048 A 
ATOM      2  C   UNL     1     145.753 133.224 144.751  1.00  0.00     0.030 A 
ATOM      3  C   UNL     1     145.410 134.554 144.519  1.00  0.00     0.046 A 
ATOM      4  C   UNL     1     144.183 134.906 144.025  1.00  0.00     0.003 A 
ATOM      5  C   UNL     1     144.162 136.279 143.912  1.00  0.00     0.028 A 
ATOM      6  C   UNL     1     145.412 136.699 144.356  1.00  0.00     0.083 A 
ATOM      7  N   UNL     1     146.171 135.642 144.726  1.00  0.00    -0.361 N 
ATOM      8  C   UNL     1     143.209 133.956 143.728  1.00  0.00     0.056 A 
ATOM      9  C   UNL     1     143.522 132.599 143.951  1.00  0.00     0.116 A 
ATOM     10  H   UNL     1     147.147 135.670 145.094  1.00  0.00     0.166 HD
ENDROOT
BRANCH   9  11
ATOM     11  O   UNL     1     142.588 131.603 143.672  1.00  0.00    -0.508 OA
ATOM     12  H   UNL     1     141.792 131.779 143.072  1.00  0.00     0.293 HD
ENDBRANCH   9  11
TORSDOF 1
ENDMDL
MODEL 6
REMARK VINA RESULT:    -3.493     13.487     14.980
REMARK INTER + INTRA:          -3.595
REMARK INTER:                  -3.595
REMARK INTRA:                   0.000
REMARK UNBOUND:                 0.000
REMARK SMILES Oc1ccc2[nH]ccc2c1
REMARK SMILES IDX 3 1 4 2 5 3 9 4 8 5 7 6 6 7 10 8 2 9 1 11
REMARK H PARENT 6 10 1 12
REMARK Flexibility Score: inf
ROOT
ATOM      1  C   UNL     1     136.643 149.270 144.451  1.00  0.00     0.048 A 
ATOM      2  C   UNL     1     135.692 148.276 144.746  1.00  0.00     0.030 A 
ATOM      3  C   UNL     1     136.057 146.946 144.548  1.00  0.00     0.046 A 
ATOM      4  C   UNL     1     137.298 146.602 144.082  1.00  0.00     0.003 A 
ATOM      5  C   UNL     1     137.341 145.228 143.999  1.00  0.00     0.028 A 
ATOM      6  C   UNL     1     136.090 144.798 144.431  1.00  0.00     0.083 A 
ATOM      7  N   UNL     1     135.309 145.852 144.765  1.00  0.00    -0.361 N 
ATOM      8  C   UNL     1     138.263 147.561 143.781  1.00  0.00     0.056 A 
ATOM      9  C   UNL     1     137.926 148.917 143.970  1.00  0.00     0.116 A 
ATOM     10  H   UNL     1     134.327 145.817 145.118  1.00  0.00     0.166 HD
ENDROOT
BRANCH   9  11
ATOM     11  O   UNL     1     138.850 149.921 143.685  1.00  0.00    -0.508 OA
ATOM     12  H   UNL     1     139.061 150.189 142.731  1.00  0.00     0.293 HD
ENDBRANCH   9  11
TORSDOF 1
ENDMDL
MODEL 7
REMARK VINA RESULT:    -3.436     10.154     11.193
REMARK INTER + INTRA:          -3.536
REMARK INTER:                  -3.536
REMARK INTRA:                   0.000
REMARK UNBOUND:                 0.000
REMARK SMILES Oc1ccc2[nH]ccc2c1
REMARK SMILES IDX 3 1 4 2 5 3 9 4 8 5 7 6 6 7 10 8 2 9 1 11
REMARK H PARENT 6 10 1 12
REMARK Flexibility Score: inf
ROOT
ATOM      1  C   UNL     1     149.093 145.153 144.069  1.00  0.00     0.048 A 
ATOM      2  C   UNL     1     148.052 146.070 144.308  1.00  0.00     0.030 A 
ATOM      3  C   UNL     1     146.752 145.574 144.381  1.00  0.00     0.046 A 
ATOM      4  C   UNL     1     146.480 144.241 144.226  1.00  0.00     0.003 A 
ATOM      5  C   UNL     1     145.117 144.081 144.352  1.00  0.00     0.028 A 
ATOM      6  C   UNL     1     144.621 145.360 144.582  1.00  0.00     0.083 A 
ATOM      7  N   UNL     1     145.623 146.269 144.598  1.00  0.00    -0.361 N 
ATOM      8  C   UNL     1     147.486 143.307 143.990  1.00  0.00     0.056 A 
ATOM      9  C   UNL     1     148.814 143.775 143.910  1.00  0.00     0.116 A 
ATOM     10  H   UNL     1     145.533 147.298 144.749  1.00  0.00     0.166 HD
ENDROOT
BRANCH   9  11
ATOM     11  O   UNL     1     149.863 142.888 143.675  1.00  0.00    -0.508 OA
ATOM     12  H   UNL     1     150.732 142.949 144.190  1.00  0.00     0.293 HD
ENDBRANCH   9  11
TORSDOF 1
ENDMDL
MODEL 8
REMARK VINA RESULT:    -3.393      9.298     10.472
REMARK INTER + INTRA:          -3.492
REMARK INTER:                  -3.492
REMARK INTRA:                   0.000
REMARK UNBOUND:                 0.000
REMARK SMILES Oc1ccc2[nH]ccc2c1
REMARK SMILES IDX 3 1 4 2 5 3 9 4 8 5 7 6 6 7 10 8 2 9 1 11
REMARK H PARENT 6 10 1 12
REMARK Flexibility Score: inf
ROOT
ATOM      1  C   UNL     1     132.409 136.490 144.024  1.00  0.00     0.048 A 
ATOM      2  C   UNL     1     133.454 135.580 144.276  1.00  0.00     0.030 A 
ATOM      3  C   UNL     1     134.749 136.085 144.370  1.00  0.00     0.046 A 
ATOM      4  C   UNL     1     135.012 137.421 144.223  1.00  0.00     0.003 A 
ATOM      5  C   UNL     1     136.372 137.591 144.370  1.00  0.00     0.028 A 
ATOM      6  C   UNL     1     136.875 136.314 144.604  1.00  0.00     0.083 A 
ATOM      7  N   UNL     1     135.879 135.398 144.602  1.00  0.00    -0.361 N 
ATOM      8  C   UNL     1     134.003 138.348 143.975  1.00  0.00     0.056 A 
ATOM      9  C   UNL     1     132.680 137.870 143.874  1.00  0.00     0.116 A 
ATOM     10  H   UNL     1     135.974 134.369 144.752  1.00  0.00     0.166 HD
ENDROOT
BRANCH   9  11
ATOM     11  O   UNL     1     131.628 138.750 143.625  1.00  0.00    -0.508 OA
ATOM     12  H   UNL     1     131.272 138.896 142.688  1.00  0.00     0.293 HD
ENDBRANCH   9  11
TORSDOF 1
ENDMDL
MODEL 9
REMARK VINA RESULT:    -3.308      1.557      1.881
REMARK INTER + INTRA:          -3.404
REMARK INTER:                  -3.404
REMARK INTRA:                   0.000
REMARK UNBOUND:                 0.000
REMARK SMILES Oc1ccc2[nH]ccc2c1
REMARK SMILES IDX 3 1 4 2 5 3 9 4 8 5 7 6 6 7 10 8 2 9 1 11
REMARK H PARENT 6 10 1 12
REMARK Flexibility Score: inf
ROOT
ATOM      1  C   UNL     1     142.870 136.453 144.234  1.00  0.00     0.048 A 
ATOM      2  C   UNL     1     144.187 136.243 143.785  1.00  0.00     0.030 A 
ATOM      3  C   UNL     1     144.702 134.951 143.859  1.00  0.00     0.046 A 
ATOM      4  C   UNL     1     143.962 133.909 144.351  1.00  0.00     0.003 A 
ATOM      5  C   UNL     1     144.749 132.779 144.290  1.00  0.00     0.028 A 
ATOM      6  C   UNL     1     145.958 133.208 143.749  1.00  0.00     0.083 A 
ATOM      7  N   UNL     1     145.923 134.535 143.487  1.00  0.00    -0.361 N 
ATOM      8  C   UNL     1     142.656 134.081 144.804  1.00  0.00     0.056 A 
ATOM      9  C   UNL     1     142.104 135.378 144.743  1.00  0.00     0.116 A 
ATOM     10  H   UNL     1     146.692 135.113 143.081  1.00  0.00     0.166 HD
ENDROOT
BRANCH   9  11
ATOM     11  O   UNL     1     140.802 135.612 145.181  1.00  0.00    -0.508 OA
ATOM     12  H   UNL     1     140.003 135.237 144.686  1.00  0.00     0.293 HD
ENDBRANCH   9  11
TORSDOF 1
ENDMDL
