MODEL 1
REMARK VINA RESULT:    -6.936      0.000      0.000
REMARK INTER + INTRA:          -8.327
REMARK INTER:                  -8.152
REMARK INTRA:                  -0.175
REMARK UNBOUND:                -0.175
REMARK SMILES O=c1c(O)c(-c2ccc(O)cc2)oc2cc(O)cc(O)c12
REMARK SMILES IDX 5 1 3 2 2 3 1 4 21 5 19 6 18 7 16 8 15 9 14 10 13 11 6 12
REMARK SMILES IDX 7 13 8 14 9 15 12 16 11 17 10 18 4 20 20 22 17 24
REMARK H PARENT 10 19 4 21 20 23 17 25
REMARK Flexibility Score: inf
ROOT
ATOM      1  C   UNL     1      12.763  10.474  12.869  1.00  0.00     0.180 A 
ATOM      2  C   UNL     1      12.457  10.680  14.228  1.00  0.00     0.208 A 
ATOM      3  C   UNL     1      11.193  10.298  14.703  1.00  0.00     0.238 A 
ATOM      4  O   UNL     1      10.903  10.486  15.916  1.00  0.00    -0.285 OA
ATOM      5  C   UNL     1      10.268   9.700  13.822  1.00  0.00     0.111 A 
ATOM      6  C   UNL     1       8.976   9.283  14.223  1.00  0.00     0.134 A 
ATOM      7  C   UNL     1       8.116   8.688  13.286  1.00  0.00     0.093 A 
ATOM      8  C   UNL     1       8.524   8.503  11.961  1.00  0.00     0.123 A 
ATOM      9  C   UNL     1       9.797   8.913  11.562  1.00  0.00     0.094 A 
ATOM     10  C   UNL     1      10.669   9.509  12.479  1.00  0.00     0.146 A 
ATOM     11  O   UNL     1      11.872   9.895  12.070  1.00  0.00    -0.452 OA
ENDROOT
BRANCH   1  12
ATOM     12  C   UNL     1      14.068  10.868  12.289  1.00  0.00     0.021 A 
ATOM     13  C   UNL     1      15.257  10.202  12.638  1.00  0.00     0.016 A 
ATOM     14  C   UNL     1      16.480  10.609  12.095  1.00  0.00     0.047 A 
ATOM     15  C   UNL     1      16.532  11.693  11.209  1.00  0.00     0.115 A 
ATOM     16  C   UNL     1      14.131  11.968  11.416  1.00  0.00     0.016 A 
ATOM     17  C   UNL     1      15.356  12.372  10.874  1.00  0.00     0.047 A 
BRANCH  15  18
ATOM     18  O   UNL     1      17.744  12.105  10.661  1.00  0.00    -0.508 OA
ATOM     19  H   UNL     1      18.541  11.481  10.609  1.00  0.00     0.293 HD
ENDBRANCH  15  18
ENDBRANCH   1  12
BRANCH   2  20
ATOM     20  O   UNL     1      13.409  11.228  15.092  1.00  0.00    -0.502 OA
ATOM     21  H   UNL     1      13.715  10.753  15.933  1.00  0.00     0.293 HD
ENDBRANCH   2  20
BRANCH   6  22
ATOM     22  O   UNL     1       8.541   9.453  15.537  1.00  0.00    -0.507 OA
ATOM     23  H   UNL     1       9.170   9.349  16.325  1.00  0.00     0.293 HD
ENDBRANCH   6  22
BRANCH   8  24
ATOM     24  O   UNL     1       7.671   7.911  11.032  1.00  0.00    -0.508 OA
ATOM     25  H   UNL     1       7.244   7.008  11.203  1.00  0.00     0.293 HD
ENDBRANCH   8  24
TORSDOF 5
ENDMDL
MODEL 2
REMARK VINA RESULT:    -6.885      0.872      1.329
REMARK INTER + INTRA:          -8.267
REMARK INTER:                  -8.023
REMARK INTRA:                  -0.244
REMARK UNBOUND:                -0.175
REMARK SMILES O=c1c(O)c(-c2ccc(O)cc2)oc2cc(O)cc(O)c12
REMARK SMILES IDX 5 1 3 2 2 3 1 4 21 5 19 6 18 7 16 8 15 9 14 10 13 11 6 12
REMARK SMILES IDX 7 13 8 14 9 15 12 16 11 17 10 18 4 20 20 22 17 24
REMARK H PARENT 10 19 4 21 20 23 17 25
REMARK Flexibility Score: inf
ROOT
ATOM      1  C   UNL     1      12.879   9.880  12.833  1.00  0.00     0.180 A 
ATOM      2  C   UNL     1      12.642  10.254  14.170  1.00  0.00     0.208 A 
ATOM      3  C   UNL     1      11.338  10.156  14.680  1.00  0.00     0.238 A 
ATOM      4  O   UNL     1      11.111  10.498  15.873  1.00  0.00    -0.285 OA
ATOM      5  C   UNL     1      10.302   9.667  13.857  1.00  0.00     0.111 A 
ATOM      6  C   UNL     1       8.963   9.533  14.296  1.00  0.00     0.134 A 
ATOM      7  C   UNL     1       7.990   9.031  13.418  1.00  0.00     0.093 A 
ATOM      8  C   UNL     1       8.333   8.660  12.112  1.00  0.00     0.123 A 
ATOM      9  C   UNL     1       9.651   8.791  11.676  1.00  0.00     0.094 A 
ATOM     10  C   UNL     1      10.635   9.291  12.535  1.00  0.00     0.146 A 
ATOM     11  O   UNL     1      11.881   9.410  12.091  1.00  0.00    -0.452 OA
ENDROOT
BRANCH   1  12
ATOM     12  C   UNL     1      14.223   9.973  12.217  1.00  0.00     0.021 A 
ATOM     13  C   UNL     1      14.772  11.213  11.840  1.00  0.00     0.016 A 
ATOM     14  C   UNL     1      16.033  11.273  11.238  1.00  0.00     0.047 A 
ATOM     15  C   UNL     1      16.753  10.097  10.991  1.00  0.00     0.115 A 
ATOM     16  C   UNL     1      14.942   8.797  11.948  1.00  0.00     0.016 A 
ATOM     17  C   UNL     1      16.203   8.860  11.346  1.00  0.00     0.047 A 
BRANCH  15  18
ATOM     18  O   UNL     1      18.009  10.145  10.394  1.00  0.00    -0.508 OA
ATOM     19  H   UNL     1      18.172  10.677   9.547  1.00  0.00     0.293 HD
ENDBRANCH  15  18
ENDBRANCH   1  12
BRANCH   2  20
ATOM     20  O   UNL     1      13.695  10.687  14.980  1.00  0.00    -0.502 OA
ATOM     21  H   UNL     1      14.646  10.363  14.854  1.00  0.00     0.293 HD
ENDBRANCH   2  20
BRANCH   6  22
ATOM     22  O   UNL     1       8.592   9.893  15.592  1.00  0.00    -0.507 OA
ATOM     23  H   UNL     1       9.088  10.609  16.110  1.00  0.00     0.293 HD
ENDBRANCH   6  22
BRANCH   8  24
ATOM     24  O   UNL     1       7.367   8.160  11.241  1.00  0.00    -0.508 OA
ATOM     25  H   UNL     1       6.603   7.582  11.571  1.00  0.00     0.293 HD
ENDBRANCH   8  24
TORSDOF 5
ENDMDL
MODEL 3
REMARK VINA RESULT:    -6.430      1.263      3.138
REMARK INTER + INTRA:          -7.733
REMARK INTER:                  -7.534
REMARK INTRA:                  -0.200
REMARK UNBOUND:                -0.175
REMARK SMILES O=c1c(O)c(-c2ccc(O)cc2)oc2cc(O)cc(O)c12
REMARK SMILES IDX 5 1 3 2 2 3 1 4 21 5 19 6 18 7 16 8 15 9 14 10 13 11 6 12
REMARK SMILES IDX 7 13 8 14 9 15 12 16 11 17 10 18 4 20 20 22 17 24
REMARK H PARENT 10 19 4 21 20 23 17 25
REMARK Flexibility Score: inf
ROOT
ATOM      1  C   UNL     1      12.902  10.627  12.355  1.00  0.00     0.180 A 
ATOM      2  C   UNL     1      12.044   9.978  11.446  1.00  0.00     0.208 A 
ATOM      3  C   UNL     1      10.843   9.429  11.921  1.00  0.00     0.238 A 
ATOM      4  O   UNL     1      10.071   8.836  11.118  1.00  0.00    -0.285 OA
ATOM      5  C   UNL     1      10.510   9.556  13.285  1.00  0.00     0.111 A 
ATOM      6  C   UNL     1       9.317   9.035  13.843  1.00  0.00     0.134 A 
ATOM      7  C   UNL     1       9.054   9.210  15.210  1.00  0.00     0.093 A 
ATOM      8  C   UNL     1       9.960   9.895  16.028  1.00  0.00     0.123 A 
ATOM      9  C   UNL     1      11.137  10.410  15.483  1.00  0.00     0.094 A 
ATOM     10  C   UNL     1      11.418  10.245  14.123  1.00  0.00     0.146 A 
ATOM     11  O   UNL     1      12.549  10.740  13.632  1.00  0.00    -0.452 OA
ENDROOT
BRANCH   1  12
ATOM     12  C   UNL     1      14.195  11.214  11.934  1.00  0.00     0.021 A 
ATOM     13  C   UNL     1      14.250  12.378  11.145  1.00  0.00     0.016 A 
ATOM     14  C   UNL     1      15.483  12.899  10.740  1.00  0.00     0.047 A 
ATOM     15  C   UNL     1      16.673  12.257  11.105  1.00  0.00     0.115 A 
ATOM     16  C   UNL     1      15.392  10.565  12.278  1.00  0.00     0.016 A 
ATOM     17  C   UNL     1      16.624  11.089  11.872  1.00  0.00     0.047 A 
BRANCH  15  18
ATOM     18  O   UNL     1      17.906  12.768  10.708  1.00  0.00    -0.508 OA
ATOM     19  H   UNL     1      18.458  13.357  11.322  1.00  0.00     0.293 HD
ENDBRANCH  15  18
ENDBRANCH   1  12
BRANCH   2  20
ATOM     20  O   UNL     1      12.373   9.910  10.089  1.00  0.00    -0.502 OA
ATOM     21  H   UNL     1      12.294   9.053   9.554  1.00  0.00     0.293 HD
ENDBRANCH   2  20
BRANCH   6  22
ATOM     22  O   UNL     1       8.395   8.349  13.053  1.00  0.00    -0.507 OA
ATOM     23  H   UNL     1       8.572   8.152  12.074  1.00  0.00     0.293 HD
ENDBRANCH   6  22
BRANCH   8  24
ATOM     24  O   UNL     1       9.698  10.070  17.385  1.00  0.00    -0.508 OA
ATOM     25  H   UNL     1      10.048  10.874  17.894  1.00  0.00     0.293 HD
ENDBRANCH   8  24
TORSDOF 5
ENDMDL
MODEL 4
REMARK VINA RESULT:    -6.158      1.846      6.758
REMARK INTER + INTRA:          -7.413
REMARK INTER:                  -7.135
REMARK INTRA:                  -0.278
REMARK UNBOUND:                -0.175
REMARK SMILES O=c1c(O)c(-c2ccc(O)cc2)oc2cc(O)cc(O)c12
REMARK SMILES IDX 5 1 3 2 2 3 1 4 21 5 19 6 18 7 16 8 15 9 14 10 13 11 6 12
REMARK SMILES IDX 7 13 8 14 9 15 12 16 11 17 10 18 4 20 20 22 17 24
REMARK H PARENT 10 19 4 21 20 23 17 25
REMARK Flexibility Score: inf
ROOT
ATOM      1  C   UNL     1      12.581  10.366  12.475  1.00  0.00     0.180 A 
ATOM      2  C   UNL     1      12.873  11.677  12.051  1.00  0.00     0.208 A 
ATOM      3  C   UNL     1      14.102  11.928  11.421  1.00  0.00     0.238 A 
ATOM      4  O   UNL     1      14.379  13.099  11.046  1.00  0.00    -0.285 OA
ATOM      5  C   UNL     1      15.006  10.866  11.208  1.00  0.00     0.111 A 
ATOM      6  C   UNL     1      16.262  11.034  10.578  1.00  0.00     0.134 A 
ATOM      7  C   UNL     1      17.103   9.924  10.395  1.00  0.00     0.093 A 
ATOM      8  C   UNL     1      16.709   8.654  10.830  1.00  0.00     0.123 A 
ATOM      9  C   UNL     1      15.471   8.484  11.452  1.00  0.00     0.094 A 
ATOM     10  C   UNL     1      14.620   9.577  11.645  1.00  0.00     0.146 A 
ATOM     11  O   UNL     1      13.451   9.387  12.245  1.00  0.00    -0.452 OA
ENDROOT
BRANCH   1  12
ATOM     12  C   UNL     1      11.314  10.026  13.164  1.00  0.00     0.021 A 
ATOM     13  C   UNL     1      11.133  10.284  14.535  1.00  0.00     0.016 A 
ATOM     14  C   UNL     1       9.937   9.931  15.168  1.00  0.00     0.047 A 
ATOM     15  C   UNL     1       8.914   9.305  14.444  1.00  0.00     0.115 A 
ATOM     16  C   UNL     1      10.292   9.379  12.449  1.00  0.00     0.016 A 
ATOM     17  C   UNL     1       9.097   9.028  13.085  1.00  0.00     0.047 A 
BRANCH  15  18
ATOM     18  O   UNL     1       7.719   8.951  15.063  1.00  0.00    -0.508 OA
ATOM     19  H   UNL     1       6.849   9.422  14.843  1.00  0.00     0.293 HD
ENDBRANCH  15  18
ENDBRANCH   1  12
BRANCH   2  20
ATOM     20  O   UNL     1      11.939  12.702  12.228  1.00  0.00    -0.502 OA
ATOM     21  H   UNL     1      12.147  13.539  12.759  1.00  0.00     0.293 HD
ENDBRANCH   2  20
BRANCH   6  22
ATOM     22  O   UNL     1      16.681  12.288  10.133  1.00  0.00    -0.507 OA
ATOM     23  H   UNL     1      17.663  12.518  10.032  1.00  0.00     0.293 HD
ENDBRANCH   6  22
BRANCH   8  24
ATOM     24  O   UNL     1      17.542   7.552  10.647  1.00  0.00    -0.508 OA
ATOM     25  H   UNL     1      17.540   6.772  11.293  1.00  0.00     0.293 HD
ENDBRANCH   8  24
TORSDOF 5
ENDMDL
MODEL 5
REMARK VINA RESULT:    -5.769      3.499      5.328
REMARK INTER + INTRA:          -6.956
REMARK INTER:                  -6.933
REMARK INTRA:                  -0.023
REMARK UNBOUND:                -0.175
REMARK SMILES O=c1c(O)c(-c2ccc(O)cc2)oc2cc(O)cc(O)c12
REMARK SMILES IDX 5 1 3 2 2 3 1 4 21 5 19 6 18 7 16 8 15 9 14 10 13 11 6 12
REMARK SMILES IDX 7 13 8 14 9 15 12 16 11 17 10 18 4 20 20 22 17 24
REMARK H PARENT 10 19 4 21 20 23 17 25
REMARK Flexibility Score: inf
ROOT
ATOM      1  C   UNL     1      14.764   8.404  12.790  1.00  0.00     0.180 A 
ATOM      2  C   UNL     1      15.208   9.456  11.965  1.00  0.00     0.208 A 
ATOM      3  C   UNL     1      14.507  10.672  11.981  1.00  0.00     0.238 A 
ATOM      4  O   UNL     1      14.889  11.618  11.239  1.00  0.00    -0.285 OA
ATOM      5  C   UNL     1      13.392  10.823  12.832  1.00  0.00     0.111 A 
ATOM      6  C   UNL     1      12.635  12.017  12.910  1.00  0.00     0.134 A 
ATOM      7  C   UNL     1      11.543  12.092  13.788  1.00  0.00     0.093 A 
ATOM      8  C   UNL     1      11.197  10.997  14.588  1.00  0.00     0.123 A 
ATOM      9  C   UNL     1      11.940   9.818  14.515  1.00  0.00     0.094 A 
ATOM     10  C   UNL     1      13.031   9.723  13.644  1.00  0.00     0.146 A 
ATOM     11  O   UNL     1      13.717   8.588  13.590  1.00  0.00    -0.452 OA
ENDROOT
BRANCH   1  12
ATOM     12  C   UNL     1      15.439   7.086  12.815  1.00  0.00     0.021 A 
ATOM     13  C   UNL     1      15.677   6.362  11.633  1.00  0.00     0.016 A 
ATOM     14  C   UNL     1      16.294   5.108  11.685  1.00  0.00     0.047 A 
ATOM     15  C   UNL     1      16.666   4.556  12.918  1.00  0.00     0.115 A 
ATOM     16  C   UNL     1      15.796   6.517  14.049  1.00  0.00     0.016 A 
ATOM     17  C   UNL     1      16.413   5.263  14.098  1.00  0.00     0.047 A 
BRANCH  15  18
ATOM     18  O   UNL     1      17.282   3.310  12.981  1.00  0.00    -0.508 OA
ATOM     19  H   UNL     1      17.203   2.721  13.802  1.00  0.00     0.293 HD
ENDBRANCH  15  18
ENDBRANCH   1  12
BRANCH   2  20
ATOM     20  O   UNL     1      16.345   9.298  11.169  1.00  0.00    -0.502 OA
ATOM     21  H   UNL     1      16.515   8.460  10.626  1.00  0.00     0.293 HD
ENDBRANCH   2  20
BRANCH   6  22
ATOM     22  O   UNL     1      12.957  13.125  12.125  1.00  0.00    -0.507 OA
ATOM     23  H   UNL     1      13.864  13.574  12.183  1.00  0.00     0.293 HD
ENDBRANCH   6  22
BRANCH   8  24
ATOM     24  O   UNL     1      10.114  11.072  15.462  1.00  0.00    -0.508 OA
ATOM     25  H   UNL     1       9.797  11.957  15.840  1.00  0.00     0.293 HD
ENDBRANCH   8  24
TORSDOF 5
ENDMDL
MODEL 6
REMARK VINA RESULT:    -5.646     13.799     15.575
REMARK INTER + INTRA:          -6.811
REMARK INTER:                  -6.774
REMARK INTRA:                  -0.036
REMARK UNBOUND:                -0.175
REMARK SMILES O=c1c(O)c(-c2ccc(O)cc2)oc2cc(O)cc(O)c12
REMARK SMILES IDX 5 1 3 2 2 3 1 4 21 5 19 6 18 7 16 8 15 9 14 10 13 11 6 12
REMARK SMILES IDX 7 13 8 14 9 15 12 16 11 17 10 18 4 20 20 22 17 24
REMARK H PARENT 10 19 4 21 20 23 17 25
REMARK Flexibility Score: inf
ROOT
ATOM      1  C   UNL     1       3.885   6.204  24.330  1.00  0.00     0.180 A 
ATOM      2  C   UNL     1       3.849   6.235  22.923  1.00  0.00     0.208 A 
ATOM      3  C   UNL     1       3.645   5.035  22.223  1.00  0.00     0.238 A 
ATOM      4  O   UNL     1       3.621   5.049  20.963  1.00  0.00    -0.285 OA
ATOM      5  C   UNL     1       3.461   3.834  22.939  1.00  0.00     0.111 A 
ATOM      6  C   UNL     1       3.247   2.584  22.310  1.00  0.00     0.134 A 
ATOM      7  C   UNL     1       3.065   1.433  23.093  1.00  0.00     0.093 A 
ATOM      8  C   UNL     1       3.092   1.511  24.490  1.00  0.00     0.123 A 
ATOM      9  C   UNL     1       3.303   2.741  25.114  1.00  0.00     0.094 A 
ATOM     10  C   UNL     1       3.489   3.899  24.351  1.00  0.00     0.146 A 
ATOM     11  O   UNL     1       3.694   5.055  24.972  1.00  0.00    -0.452 OA
ENDROOT
BRANCH   1  12
ATOM     12  C   UNL     1       4.115   7.424  25.138  1.00  0.00     0.021 A 
ATOM     13  C   UNL     1       5.161   7.497  26.076  1.00  0.00     0.016 A 
ATOM     14  C   UNL     1       5.342   8.652  26.844  1.00  0.00     0.047 A 
ATOM     15  C   UNL     1       4.472   9.740  26.696  1.00  0.00     0.115 A 
ATOM     16  C   UNL     1       3.234   8.512  25.011  1.00  0.00     0.016 A 
ATOM     17  C   UNL     1       3.418   9.666  25.780  1.00  0.00     0.047 A 
BRANCH  15  18
ATOM     18  O   UNL     1       4.644  10.895  27.455  1.00  0.00    -0.508 OA
ATOM     19  H   UNL     1       4.749  11.804  27.019  1.00  0.00     0.293 HD
ENDBRANCH  15  18
ENDBRANCH   1  12
BRANCH   2  20
ATOM     20  O   UNL     1       3.983   7.446  22.239  1.00  0.00    -0.502 OA
ATOM     21  H   UNL     1       4.232   8.309  22.707  1.00  0.00     0.293 HD
ENDBRANCH   2  20
BRANCH   6  22
ATOM     22  O   UNL     1       3.213   2.475  20.919  1.00  0.00    -0.507 OA
ATOM     23  H   UNL     1       3.024   1.593  20.457  1.00  0.00     0.293 HD
ENDBRANCH   6  22
BRANCH   8  24
ATOM     24  O   UNL     1       2.909   0.369  25.267  1.00  0.00    -0.508 OA
ATOM     25  H   UNL     1       2.207   0.331  25.997  1.00  0.00     0.293 HD
ENDBRANCH   8  24
TORSDOF 5
ENDMDL
MODEL 7
REMARK VINA RESULT:    -5.616      5.093      7.165
REMARK INTER + INTRA:          -6.775
REMARK INTER:                  -6.485
REMARK INTRA:                  -0.290
REMARK UNBOUND:                -0.175
REMARK SMILES O=c1c(O)c(-c2ccc(O)cc2)oc2cc(O)cc(O)c12
REMARK SMILES IDX 5 1 3 2 2 3 1 4 21 5 19 6 18 7 16 8 15 9 14 10 13 11 6 12
REMARK SMILES IDX 7 13 8 14 9 15 12 16 11 17 10 18 4 20 20 22 17 24
REMARK H PARENT 10 19 4 21 20 23 17 25
REMARK Flexibility Score: inf
ROOT
ATOM      1  C   UNL     1      15.847   6.276  12.573  1.00  0.00     0.180 A 
ATOM      2  C   UNL     1      15.878   6.802  11.267  1.00  0.00     0.208 A 
ATOM      3  C   UNL     1      15.363   8.089  11.042  1.00  0.00     0.238 A 
ATOM      4  O   UNL     1      15.376   8.567   9.875  1.00  0.00    -0.285 OA
ATOM      5  C   UNL     1      14.847   8.832  12.124  1.00  0.00     0.111 A 
ATOM      6  C   UNL     1      14.313  10.136  11.982  1.00  0.00     0.134 A 
ATOM      7  C   UNL     1      13.826  10.814  13.110  1.00  0.00     0.093 A 
ATOM      8  C   UNL     1      13.863  10.214  14.373  1.00  0.00     0.123 A 
ATOM      9  C   UNL     1      14.388   8.929  14.517  1.00  0.00     0.094 A 
ATOM     10  C   UNL     1      14.877   8.235  13.406  1.00  0.00     0.146 A 
ATOM     11  O   UNL     1      15.366   7.012  13.571  1.00  0.00    -0.452 OA
ENDROOT
BRANCH   1  12
ATOM     12  C   UNL     1      16.354   4.920  12.887  1.00  0.00     0.021 A 
ATOM     13  C   UNL     1      15.495   3.806  12.921  1.00  0.00     0.016 A 
ATOM     14  C   UNL     1      15.993   2.540  13.244  1.00  0.00     0.047 A 
ATOM     15  C   UNL     1      17.350   2.374  13.551  1.00  0.00     0.115 A 
ATOM     16  C   UNL     1      17.709   4.749  13.216  1.00  0.00     0.016 A 
ATOM     17  C   UNL     1      18.204   3.481  13.538  1.00  0.00     0.047 A 
BRANCH  15  18
ATOM     18  O   UNL     1      17.857   1.118  13.872  1.00  0.00    -0.508 OA
ATOM     19  H   UNL     1      18.103   0.446  13.153  1.00  0.00     0.293 HD
ENDBRANCH  15  18
ENDBRANCH   1  12
BRANCH   2  20
ATOM     20  O   UNL     1      16.441   6.066  10.221  1.00  0.00    -0.502 OA
ATOM     21  H   UNL     1      17.033   6.489   9.517  1.00  0.00     0.293 HD
ENDBRANCH   2  20
BRANCH   6  22
ATOM     22  O   UNL     1      14.264  10.760  10.735  1.00  0.00    -0.507 OA
ATOM     23  H   UNL     1      13.392  11.088  10.337  1.00  0.00     0.293 HD
ENDBRANCH   6  22
BRANCH   8  24
ATOM     24  O   UNL     1      13.381  10.888  15.493  1.00  0.00    -0.508 OA
ATOM     25  H   UNL     1      13.953  11.555  15.998  1.00  0.00     0.293 HD
ENDBRANCH   8  24
TORSDOF 5
ENDMDL
MODEL 8
REMARK VINA RESULT:    -5.493      3.877      6.982
REMARK INTER + INTRA:          -6.631
REMARK INTER:                  -6.344
REMARK INTRA:                  -0.288
REMARK UNBOUND:                -0.175
REMARK SMILES O=c1c(O)c(-c2ccc(O)cc2)oc2cc(O)cc(O)c12
REMARK SMILES IDX 5 1 3 2 2 3 1 4 21 5 19 6 18 7 16 8 15 9 14 10 13 11 6 12
REMARK SMILES IDX 7 13 8 14 9 15 12 16 11 17 10 18 4 20 20 22 17 24
REMARK H PARENT 10 19 4 21 20 23 17 25
REMARK Flexibility Score: inf
ROOT
ATOM      1  C   UNL     1      14.464   8.659  12.840  1.00  0.00     0.180 A 
ATOM      2  C   UNL     1      15.008   8.980  11.582  1.00  0.00     0.208 A 
ATOM      3  C   UNL     1      15.940   8.105  11.002  1.00  0.00     0.238 A 
ATOM      4  O   UNL     1      16.441   8.387   9.880  1.00  0.00    -0.285 OA
ATOM      5  C   UNL     1      16.295   6.919  11.677  1.00  0.00     0.111 A 
ATOM      6  C   UNL     1      17.223   5.983  11.160  1.00  0.00     0.134 A 
ATOM      7  C   UNL     1      17.519   4.820  11.890  1.00  0.00     0.093 A 
ATOM      8  C   UNL     1      16.903   4.579  13.123  1.00  0.00     0.123 A 
ATOM      9  C   UNL     1      15.989   5.498  13.637  1.00  0.00     0.094 A 
ATOM     10  C   UNL     1      15.682   6.663  12.926  1.00  0.00     0.146 A 
ATOM     11  O   UNL     1      14.812   7.525  13.441  1.00  0.00    -0.452 OA
ENDROOT
BRANCH   1  12
ATOM     12  C   UNL     1      13.491   9.540  13.525  1.00  0.00     0.021 A 
ATOM     13  C   UNL     1      13.903  10.484  14.483  1.00  0.00     0.016 A 
ATOM     14  C   UNL     1      12.962  11.288  15.134  1.00  0.00     0.047 A 
ATOM     15  C   UNL     1      11.598  11.150  14.846  1.00  0.00     0.115 A 
ATOM     16  C   UNL     1      12.119   9.393  13.257  1.00  0.00     0.016 A 
ATOM     17  C   UNL     1      11.180  10.200  13.909  1.00  0.00     0.047 A 
BRANCH  15  18
ATOM     18  O   UNL     1      10.653  11.946  15.487  1.00  0.00    -0.508 OA
ATOM     19  H   UNL     1      10.912  12.575  16.238  1.00  0.00     0.293 HD
ENDBRANCH  15  18
ENDBRANCH   1  12
BRANCH   2  20
ATOM     20  O   UNL     1      14.601  10.136  10.910  1.00  0.00    -0.502 OA
ATOM     21  H   UNL     1      13.693  10.559  11.060  1.00  0.00     0.293 HD
ENDBRANCH   2  20
BRANCH   6  22
ATOM     22  O   UNL     1      17.851   6.196   9.933  1.00  0.00    -0.507 OA
ATOM     23  H   UNL     1      18.053   5.433   9.297  1.00  0.00     0.293 HD
ENDBRANCH   6  22
BRANCH   8  24
ATOM     24  O   UNL     1      17.195   3.424  13.846  1.00  0.00    -0.508 OA
ATOM     25  H   UNL     1      16.770   2.533  13.618  1.00  0.00     0.293 HD
ENDBRANCH   8  24
TORSDOF 5
ENDMDL
MODEL 9
REMARK VINA RESULT:    -5.151     13.467     15.721
REMARK INTER + INTRA:          -6.229
REMARK INTER:                  -6.016
REMARK INTRA:                  -0.213
REMARK UNBOUND:                -0.175
REMARK SMILES O=c1c(O)c(-c2ccc(O)cc2)oc2cc(O)cc(O)c12
REMARK SMILES IDX 5 1 3 2 2 3 1 4 21 5 19 6 18 7 16 8 15 9 14 10 13 11 6 12
REMARK SMILES IDX 7 13 8 14 9 15 12 16 11 17 10 18 4 20 20 22 17 24
REMARK H PARENT 10 19 4 21 20 23 17 25
REMARK Flexibility Score: inf
ROOT
ATOM      1  C   UNL     1       4.243   7.623  25.942  1.00  0.00     0.180 A 
ATOM      2  C   UNL     1       3.907   6.516  26.744  1.00  0.00     0.208 A 
ATOM      3  C   UNL     1       3.590   5.299  26.121  1.00  0.00     0.238 A 
ATOM      4  O   UNL     1       3.278   4.302  26.828  1.00  0.00    -0.285 OA
ATOM      5  C   UNL     1       3.634   5.204  24.714  1.00  0.00     0.111 A 
ATOM      6  C   UNL     1       3.332   4.013  24.009  1.00  0.00     0.134 A 
ATOM      7  C   UNL     1       3.406   3.997  22.608  1.00  0.00     0.093 A 
ATOM      8  C   UNL     1       3.776   5.147  21.901  1.00  0.00     0.123 A 
ATOM      9  C   UNL     1       4.074   6.322  22.592  1.00  0.00     0.094 A 
ATOM     10  C   UNL     1       4.004   6.359  23.988  1.00  0.00     0.146 A 
ATOM     11  O   UNL     1       4.287   7.493  24.620  1.00  0.00    -0.452 OA
ENDROOT
BRANCH   1  12
ATOM     12  C   UNL     1       4.571   8.945  26.524  1.00  0.00     0.021 A 
ATOM     13  C   UNL     1       3.686  10.034  26.417  1.00  0.00     0.016 A 
ATOM     14  C   UNL     1       4.028  11.279  26.954  1.00  0.00     0.047 A 
ATOM     15  C   UNL     1       5.264  11.456  27.590  1.00  0.00     0.115 A 
ATOM     16  C   UNL     1       5.816   9.136  27.146  1.00  0.00     0.016 A 
ATOM     17  C   UNL     1       6.156  10.382  27.682  1.00  0.00     0.047 A 
BRANCH  15  18
ATOM     18  O   UNL     1       5.615  12.690  28.130  1.00  0.00    -0.508 OA
ATOM     19  H   UNL     1       5.431  13.555  27.635  1.00  0.00     0.293 HD
ENDBRANCH  15  18
ENDBRANCH   1  12
BRANCH   2  20
ATOM     20  O   UNL     1       3.921   6.622  28.138  1.00  0.00    -0.502 OA
ATOM     21  H   UNL     1       3.130   6.350  28.710  1.00  0.00     0.293 HD
ENDBRANCH   2  20
BRANCH   6  22
ATOM     22  O   UNL     1       2.962   2.851  24.687  1.00  0.00    -0.507 OA
ATOM     23  H   UNL     1       3.446   1.973  24.544  1.00  0.00     0.293 HD
ENDBRANCH   6  22
BRANCH   8  24
ATOM     24  O   UNL     1       3.852   5.130  20.510  1.00  0.00    -0.508 OA
ATOM     25  H   UNL     1       4.734   5.003  20.028  1.00  0.00     0.293 HD
ENDBRANCH   8  24
TORSDOF 5
ENDMDL
