MODEL 1
REMARK VINA RESULT:    -2.598      0.000      0.000
REMARK INTER + INTRA:          -2.598
REMARK INTER:                  -2.598
REMARK INTRA:                   0.000
REMARK UNBOUND:                 0.000
REMARK SMILES CC(=O)[O-]
REMARK SMILES IDX 1 1 2 2 3 3 4 4
REMARK H PARENT
REMARK Flexibility Score: inf
ROOT
ATOM      1  C   UNL     1      54.048  50.018   4.263  1.00  0.00     0.063 C 
ATOM      2  C   UNL     1      54.481  51.430   4.455  1.00  0.00     0.038 C 
ATOM      3  O   UNL     1      55.654  51.778   4.158  1.00  0.00    -0.550 OA
ATOM      4  O   UNL     1      53.577  52.380   4.915  1.00  0.00    -0.550 OA
ENDROOT
TORSDOF 0
ENDMDL
MODEL 2
REMARK VINA RESULT:    -2.589      0.812      0.812
REMARK INTER + INTRA:          -2.589
REMARK INTER:                  -2.589
REMARK INTRA:                   0.000
REMARK UNBOUND:                 0.000
REMARK SMILES CC(=O)[O-]
REMARK SMILES IDX 1 1 2 2 3 3 4 4
REMARK H PARENT
REMARK Flexibility Score: inf
ROOT
ATOM      1  C   UNL     1      54.083  50.107   4.274  1.00  0.00     0.063 C 
ATOM      2  C   UNL     1      55.057  51.235   4.253  1.00  0.00     0.038 C 
ATOM      3  O   UNL     1      56.224  51.054   3.818  1.00  0.00    -0.550 OA
ATOM      4  O   UNL     1      54.664  52.502   4.665  1.00  0.00    -0.550 OA
ENDROOT
TORSDOF 0
ENDMDL
MODEL 3
REMARK VINA RESULT:    -2.580      0.766      1.745
REMARK INTER + INTRA:          -2.580
REMARK INTER:                  -2.580
REMARK INTRA:                   0.000
REMARK UNBOUND:                 0.000
REMARK SMILES CC(=O)[O-]
REMARK SMILES IDX 1 1 2 2 3 3 4 4
REMARK H PARENT
REMARK Flexibility Score: inf
ROOT
ATOM      1  C   UNL     1      54.005  50.080   4.296  1.00  0.00     0.063 C 
ATOM      2  C   UNL     1      54.958  51.225   4.309  1.00  0.00     0.038 C 
ATOM      3  O   UNL     1      54.591  52.348   4.743  1.00  0.00    -0.550 OA
ATOM      4  O   UNL     1      56.271  51.044   3.891  1.00  0.00    -0.550 OA
ENDROOT
TORSDOF 0
ENDMDL
MODEL 4
REMARK VINA RESULT:    -2.558      1.650      1.984
REMARK INTER + INTRA:          -2.558
REMARK INTER:                  -2.558
REMARK INTRA:                   0.000
REMARK UNBOUND:                 0.000
REMARK SMILES CC(=O)[O-]
REMARK SMILES IDX 1 1 2 2 3 3 4 4
REMARK H PARENT
REMARK Flexibility Score: inf
ROOT
ATOM      1  C   UNL     1      55.938  50.959   3.882  1.00  0.00     0.063 C 
ATOM      2  C   UNL     1      54.511  50.914   4.309  1.00  0.00     0.038 C 
ATOM      3  O   UNL     1      53.925  51.968   4.667  1.00  0.00    -0.550 OA
ATOM      4  O   UNL     1      53.808  49.716   4.263  1.00  0.00    -0.550 OA
ENDROOT
TORSDOF 0
ENDMDL
MODEL 5
REMARK VINA RESULT:    -2.544      0.260      1.621
REMARK INTER + INTRA:          -2.544
REMARK INTER:                  -2.544
REMARK INTRA:                   0.000
REMARK UNBOUND:                 0.000
REMARK SMILES CC(=O)[O-]
REMARK SMILES IDX 1 1 2 2 3 3 4 4
REMARK H PARENT
REMARK Flexibility Score: inf
ROOT
ATOM      1  C   UNL     1      54.080  50.030   4.277  1.00  0.00     0.063 C 
ATOM      2  C   UNL     1      54.275  51.489   4.508  1.00  0.00     0.038 C 
ATOM      3  O   UNL     1      53.341  52.183   4.989  1.00  0.00    -0.550 OA
ATOM      4  O   UNL     1      55.505  52.078   4.243  1.00  0.00    -0.550 OA
ENDROOT
TORSDOF 0
ENDMDL
MODEL 6
REMARK VINA RESULT:    -2.358      4.798      5.229
REMARK INTER + INTRA:          -2.358
REMARK INTER:                  -2.358
REMARK INTRA:                   0.000
REMARK UNBOUND:                 0.000
REMARK SMILES CC(=O)[O-]
REMARK SMILES IDX 1 1 2 2 3 3 4 4
REMARK H PARENT
REMARK Flexibility Score: inf
ROOT
ATOM      1  C   UNL     1      49.531  49.697   2.682  1.00  0.00     0.063 C 
ATOM      2  C   UNL     1      50.457  48.762   3.382  1.00  0.00     0.038 C 
ATOM      3  O   UNL     1      51.569  49.173   3.807  1.00  0.00    -0.550 OA
ATOM      4  O   UNL     1      50.075  47.447   3.613  1.00  0.00    -0.550 OA
ENDROOT
TORSDOF 0
ENDMDL
MODEL 7
REMARK VINA RESULT:    -2.308     15.332     15.724
REMARK INTER + INTRA:          -2.308
REMARK INTER:                  -2.308
REMARK INTRA:                   0.000
REMARK UNBOUND:                 0.000
REMARK SMILES CC(=O)[O-]
REMARK SMILES IDX 1 1 2 2 3 3 4 4
REMARK H PARENT
REMARK Flexibility Score: inf
ROOT
ATOM      1  C   UNL     1      49.131  38.994  -5.421  1.00  0.00     0.063 C 
ATOM      2  C   UNL     1      50.427  39.383  -4.797  1.00  0.00     0.038 C 
ATOM      3  O   UNL     1      51.467  38.713  -5.030  1.00  0.00    -0.550 OA
ATOM      4  O   UNL     1      50.503  40.517  -3.998  1.00  0.00    -0.550 OA
ENDROOT
TORSDOF 0
ENDMDL
MODEL 8
REMARK VINA RESULT:    -2.271     15.458     15.841
REMARK INTER + INTRA:          -2.271
REMARK INTER:                  -2.271
REMARK INTRA:                   0.000
REMARK UNBOUND:                 0.000
REMARK SMILES CC(=O)[O-]
REMARK SMILES IDX 1 1 2 2 3 3 4 4
REMARK H PARENT
REMARK Flexibility Score: inf
ROOT
ATOM      1  C   UNL     1      50.199  40.727  -4.292  1.00  0.00     0.063 C 
ATOM      2  C   UNL     1      50.351  39.365  -4.878  1.00  0.00     0.038 C 
ATOM      3  O   UNL     1      51.468  38.784  -4.846  1.00  0.00    -0.550 OA
ATOM      4  O   UNL     1      49.249  38.710  -5.414  1.00  0.00    -0.550 OA
ENDROOT
TORSDOF 0
ENDMDL
MODEL 9
REMARK VINA RESULT:    -2.256      3.054      3.096
REMARK INTER + INTRA:          -2.256
REMARK INTER:                  -2.256
REMARK INTRA:                   0.000
REMARK UNBOUND:                 0.000
REMARK SMILES CC(=O)[O-]
REMARK SMILES IDX 1 1 2 2 3 3 4 4
REMARK H PARENT
REMARK Flexibility Score: inf
ROOT
ATOM      1  C   UNL     1      53.390  50.532   7.265  1.00  0.00     0.063 C 
ATOM      2  C   UNL     1      54.154  51.796   7.466  1.00  0.00     0.038 C 
ATOM      3  O   UNL     1      55.167  52.040   6.759  1.00  0.00    -0.550 OA
ATOM      4  O   UNL     1      53.720  52.732   8.396  1.00  0.00    -0.550 OA
ENDROOT
TORSDOF 0
ENDMDL
