MODEL 1
REMARK VINA RESULT:    -2.142      0.000      0.000
REMARK INTER + INTRA:          -2.142
REMARK INTER:                  -2.142
REMARK INTRA:                   0.000
REMARK UNBOUND:                 0.000
REMARK SMILES CC(=O)[O-]
REMARK SMILES IDX 1 1 2 2 3 3 4 4
REMARK H PARENT
REMARK Flexibility Score: inf
ROOT
ATOM      1  C   UNL     1    -110.046  18.867  26.511  1.00  0.00     0.063 C 
ATOM      2  C   UNL     1    -108.613  19.277  26.540  1.00  0.00     0.038 C 
ATOM      3  O   UNL     1    -107.905  19.173  25.504  1.00  0.00    -0.550 OA
ATOM      4  O   UNL     1    -108.069  19.825  27.694  1.00  0.00    -0.550 OA
ENDROOT
TORSDOF 0
ENDMDL
MODEL 2
REMARK VINA RESULT:    -2.060      9.039      9.518
REMARK INTER + INTRA:          -2.060
REMARK INTER:                  -2.060
REMARK INTRA:                   0.000
REMARK UNBOUND:                 0.000
REMARK SMILES CC(=O)[O-]
REMARK SMILES IDX 1 1 2 2 3 3 4 4
REMARK H PARENT
REMARK Flexibility Score: inf
ROOT
ATOM      1  C   UNL     1    -112.678  12.244  24.900  1.00  0.00     0.063 C 
ATOM      2  C   UNL     1    -114.128  11.908  24.990  1.00  0.00     0.038 C 
ATOM      3  O   UNL     1    -114.498  10.866  25.593  1.00  0.00    -0.550 OA
ATOM      4  O   UNL     1    -115.077  12.769  24.458  1.00  0.00    -0.550 OA
ENDROOT
TORSDOF 0
ENDMDL
MODEL 3
REMARK VINA RESULT:    -1.985      8.517      8.973
REMARK INTER + INTRA:          -1.985
REMARK INTER:                  -1.985
REMARK INTRA:                   0.000
REMARK UNBOUND:                 0.000
REMARK SMILES CC(=O)[O-]
REMARK SMILES IDX 1 1 2 2 3 3 4 4
REMARK H PARENT
REMARK Flexibility Score: inf
ROOT
ATOM      1  C   UNL     1    -114.533  11.974  24.839  1.00  0.00     0.063 C 
ATOM      2  C   UNL     1    -113.065  11.760  24.994  1.00  0.00     0.038 C 
ATOM      3  O   UNL     1    -112.261  12.696  24.743  1.00  0.00    -0.550 OA
ATOM      4  O   UNL     1    -112.584  10.547  25.468  1.00  0.00    -0.550 OA
ENDROOT
TORSDOF 0
ENDMDL
MODEL 4
REMARK VINA RESULT:    -1.965      8.866      9.314
REMARK INTER + INTRA:          -1.965
REMARK INTER:                  -1.965
REMARK INTRA:                   0.000
REMARK UNBOUND:                 0.000
REMARK SMILES CC(=O)[O-]
REMARK SMILES IDX 1 1 2 2 3 3 4 4
REMARK H PARENT
REMARK Flexibility Score: inf
ROOT
ATOM      1  C   UNL     1    -114.998  12.292  24.550  1.00  0.00     0.063 C 
ATOM      2  C   UNL     1    -113.792  11.733  25.225  1.00  0.00     0.038 C 
ATOM      3  O   UNL     1    -113.837  10.592  25.755  1.00  0.00    -0.550 OA
ATOM      4  O   UNL     1    -112.600  12.445  25.224  1.00  0.00    -0.550 OA
ENDROOT
TORSDOF 0
ENDMDL
MODEL 5
REMARK VINA RESULT:    -1.949      1.916      2.534
REMARK INTER + INTRA:          -1.949
REMARK INTER:                  -1.949
REMARK INTRA:                   0.000
REMARK UNBOUND:                 0.000
REMARK SMILES CC(=O)[O-]
REMARK SMILES IDX 1 1 2 2 3 3 4 4
REMARK H PARENT
REMARK Flexibility Score: inf
ROOT
ATOM      1  C   UNL     1    -108.442  18.943  26.068  1.00  0.00     0.063 C 
ATOM      2  C   UNL     1    -109.769  18.929  26.748  1.00  0.00     0.038 C 
ATOM      3  O   UNL     1    -110.066  19.833  27.573  1.00  0.00    -0.550 OA
ATOM      4  O   UNL     1    -110.702  17.950  26.435  1.00  0.00    -0.550 OA
ENDROOT
TORSDOF 0
ENDMDL
MODEL 6
REMARK VINA RESULT:    -1.914      9.332      9.665
REMARK INTER + INTRA:          -1.914
REMARK INTER:                  -1.914
REMARK INTRA:                   0.000
REMARK UNBOUND:                 0.000
REMARK SMILES CC(=O)[O-]
REMARK SMILES IDX 1 1 2 2 3 3 4 4
REMARK H PARENT
REMARK Flexibility Score: inf
ROOT
ATOM      1  C   UNL     1    -102.956  12.268  24.828  1.00  0.00     0.063 C 
ATOM      2  C   UNL     1    -103.501  11.371  25.888  1.00  0.00     0.038 C 
ATOM      3  O   UNL     1    -104.744  11.211  26.002  1.00  0.00    -0.550 OA
ATOM      4  O   UNL     1    -102.637  10.668  26.716  1.00  0.00    -0.550 OA
ENDROOT
TORSDOF 0
ENDMDL
MODEL 7
REMARK VINA RESULT:    -1.907      9.254      9.684
REMARK INTER + INTRA:          -1.907
REMARK INTER:                  -1.907
REMARK INTRA:                   0.000
REMARK UNBOUND:                 0.000
REMARK SMILES CC(=O)[O-]
REMARK SMILES IDX 1 1 2 2 3 3 4 4
REMARK H PARENT
REMARK Flexibility Score: inf
ROOT
ATOM      1  C   UNL     1    -102.091  10.903  26.187  1.00  0.00     0.063 C 
ATOM      2  C   UNL     1    -103.183  11.681  25.534  1.00  0.00     0.038 C 
ATOM      3  O   UNL     1    -104.368  11.572  25.944  1.00  0.00    -0.550 OA
ATOM      4  O   UNL     1    -102.889  12.568  24.507  1.00  0.00    -0.550 OA
ENDROOT
TORSDOF 0
ENDMDL
MODEL 8
REMARK VINA RESULT:    -1.857      9.885     10.278
REMARK INTER + INTRA:          -1.857
REMARK INTER:                  -1.857
REMARK INTRA:                   0.000
REMARK UNBOUND:                 0.000
REMARK SMILES CC(=O)[O-]
REMARK SMILES IDX 1 1 2 2 3 3 4 4
REMARK H PARENT
REMARK Flexibility Score: inf
ROOT
ATOM      1  C   UNL     1    -103.081  12.083  25.041  1.00  0.00     0.063 C 
ATOM      2  C   UNL     1    -102.649  11.558  23.714  1.00  0.00     0.038 C 
ATOM      3  O   UNL     1    -103.083  10.451  23.301  1.00  0.00    -0.550 OA
ATOM      4  O   UNL     1    -101.808  12.313  22.907  1.00  0.00    -0.550 OA
ENDROOT
TORSDOF 0
ENDMDL
MODEL 9
REMARK VINA RESULT:    -1.848      9.289      9.622
REMARK INTER + INTRA:          -1.848
REMARK INTER:                  -1.848
REMARK INTRA:                   0.000
REMARK UNBOUND:                 0.000
REMARK SMILES CC(=O)[O-]
REMARK SMILES IDX 1 1 2 2 3 3 4 4
REMARK H PARENT
REMARK Flexibility Score: inf
ROOT
ATOM      1  C   UNL     1    -112.568  12.337  24.863  1.00  0.00     0.063 C 
ATOM      2  C   UNL     1    -113.214  11.104  25.399  1.00  0.00     0.038 C 
ATOM      3  O   UNL     1    -114.452  11.087  25.623  1.00  0.00    -0.550 OA
ATOM      4  O   UNL     1    -112.461   9.956  25.603  1.00  0.00    -0.550 OA
ENDROOT
TORSDOF 0
ENDMDL
