MODEL 1
REMARK VINA RESULT:    -6.014      0.000      0.000
REMARK INTER + INTRA:         -10.824
REMARK INTER:                  -9.530
REMARK INTRA:                  -1.294
REMARK UNBOUND:                -1.294
REMARK SMILES C[C@@H]1O[C@H](O[C@H]2[C@@H](Oc3cc(O)c4c(c3)O[C@@H](c3ccc(O)cc3)CC4=O)O[C@@H](CO)[C@H](O)[C@@H]2O)[C@H](O)[C@H](O)[C@@H]1O
REMARK SMILES IDX 6 1 34 2 32 3 29 4 28 5 7 6 5 7 4 8 1 9 2 10 40 11 3 12
REMARK SMILES IDX 38 13 36 14 41 15 39 17 37 19 35 21 8 23 9 24 10 25 15 26
REMARK SMILES IDX 11 27 14 28 13 29 16 30 26 31 17 32 27 33 25 34 12 35 18 37
REMARK SMILES IDX 19 38 24 39 20 40 23 41 21 42 22 43 33 45 30 47 31 48
REMARK H PARENT 41 16 39 18 37 20 35 22 12 36 22 44 33 46 31 49
REMARK Flexibility Score: inf
ROOT
ATOM      1  C   UNL     1      30.469  19.785 -20.063  1.00  0.00     0.221 C 
ATOM      2  C   UNL     1      30.608  19.432 -18.559  1.00  0.00     0.181 C 
ATOM      3  C   UNL     1      30.782  20.679 -17.659  1.00  0.00     0.177 C 
ATOM      4  C   UNL     1      31.717  21.730 -18.325  1.00  0.00     0.179 C 
ATOM      5  O   UNL     1      31.511  21.962 -19.717  1.00  0.00    -0.332 OA
ATOM      6  C   UNL     1      30.384  21.304 -20.282  1.00  0.00     0.339 C 
ENDROOT
BRANCH   1   7
ATOM      7  O   UNL     1      29.304  19.162 -20.587  1.00  0.00    -0.337 OA
BRANCH   7   8
ATOM      8  C   UNL     1      29.614  17.940 -21.234  1.00  0.00     0.282 C 
ATOM      9  C   UNL     1      32.404  15.613 -20.695  1.00  0.00     0.041 C 
ATOM     10  C   UNL     1      31.290  16.332 -21.465  1.00  0.00     0.150 C 
ATOM     11  C   UNL     1      30.185  15.359 -22.007  1.00  0.00     0.174 C 
ATOM     12  O   UNL     1      30.755  17.352 -20.633  1.00  0.00    -0.344 OA
ATOM     13  C   UNL     1      28.865  15.485 -21.205  1.00  0.00     0.179 C 
ATOM     14  C   UNL     1      28.412  16.974 -21.123  1.00  0.00     0.202 C 
BRANCH  11  15
ATOM     15  O   UNL     1      30.616  14.022 -22.118  1.00  0.00    -0.388 OA
ATOM     16  H   UNL     1      30.769  13.820 -23.078  1.00  0.00     0.211 HD
ENDBRANCH  11  15
BRANCH  13  17
ATOM     17  O   UNL     1      28.975  14.903 -19.925  1.00  0.00    -0.387 OA
ATOM     18  H   UNL     1      28.958  15.632 -19.251  1.00  0.00     0.211 HD
ENDBRANCH  13  17
BRANCH  14  19
ATOM     19  O   UNL     1      27.711  17.212 -19.927  1.00  0.00    -0.385 OA
ATOM     20  H   UNL     1      27.864  16.421 -19.348  1.00  0.00     0.211 HD
ENDBRANCH  14  19
ENDBRANCH   7   8
ENDBRANCH   1   7
BRANCH   2  21
ATOM     21  O   UNL     1      31.659  18.514 -18.369  1.00  0.00    -0.387 OA
ATOM     22  H   UNL     1      31.853  18.088 -19.248  1.00  0.00     0.211 HD
ENDBRANCH   2  21
BRANCH   6  23
ATOM     23  O   UNL     1      29.152  21.835 -19.778  1.00  0.00    -0.462 OA
BRANCH  23  24
ATOM     24  C   UNL     1      28.865  23.200 -19.640  1.00  0.00     0.130 A 
ATOM     25  C   UNL     1      28.811  23.980 -20.797  1.00  0.00     0.093 A 
ATOM     26  C   UNL     1      28.587  23.795 -18.400  1.00  0.00     0.094 A 
ATOM     27  C   UNL     1      28.398  25.316 -20.756  1.00  0.00     0.133 A 
ATOM     28  C   UNL     1      28.191  25.130 -18.331  1.00  0.00     0.138 A 
ATOM     29  C   UNL     1      28.086  25.905 -19.505  1.00  0.00     0.102 A 
ATOM     30  O   UNL     1      27.861  25.676 -17.078  1.00  0.00    -0.484 OA
ATOM     31  C   UNL     1      27.618  27.302 -19.331  1.00  0.00     0.174 C 
ATOM     32  C   UNL     1      27.641  27.078 -16.866  1.00  0.00     0.211 C 
ATOM     33  O   UNL     1      27.884  28.204 -20.165  1.00  0.00    -0.294 OA
ATOM     34  C   UNL     1      26.876  27.646 -18.077  1.00  0.00     0.131 C 
BRANCH  27  35
ATOM     35  O   UNL     1      28.279  25.991 -21.975  1.00  0.00    -0.507 OA
ATOM     36  H   UNL     1      27.734  26.832 -22.101  1.00  0.00     0.293 HD
ENDBRANCH  27  35
BRANCH  32  37
ATOM     37  C   UNL     1      28.968  27.763 -16.548  1.00  0.00    -0.007 A 
ATOM     38  C   UNL     1      29.058  29.121 -16.168  1.00  0.00     0.011 A 
ATOM     39  C   UNL     1      30.141  26.983 -16.515  1.00  0.00     0.011 A 
ATOM     40  C   UNL     1      30.291  29.685 -15.822  1.00  0.00     0.046 A 
ATOM     41  C   UNL     1      31.372  27.551 -16.169  1.00  0.00     0.046 A 
ATOM     42  C   UNL     1      31.450  28.906 -15.821  1.00  0.00     0.115 A 
BRANCH  42  43
ATOM     43  O   UNL     1      32.671  29.481 -15.471  1.00  0.00    -0.508 OA
ATOM     44  H   UNL     1      33.547  28.993 -15.630  1.00  0.00     0.293 HD
ENDBRANCH  42  43
ENDBRANCH  32  37
ENDBRANCH  23  24
ENDBRANCH   6  23
BRANCH   3  45
ATOM     45  O   UNL     1      31.306  20.294 -16.410  1.00  0.00    -0.387 OA
ATOM     46  H   UNL     1      32.201  20.717 -16.329  1.00  0.00     0.211 HD
ENDBRANCH   3  45
BRANCH   4  47
ATOM     47  C   UNL     1      31.651  23.083 -17.592  1.00  0.00     0.191 C 
BRANCH  47  48
ATOM     48  O   UNL     1      31.860  22.904 -16.219  1.00  0.00    -0.394 OA
ATOM     49  H   UNL     1      31.763  21.932 -16.046  1.00  0.00     0.210 HD
ENDBRANCH  47  48
ENDBRANCH   4  47
TORSDOF 14
ENDMDL
MODEL 2
REMARK VINA RESULT:    -4.747      1.991      3.583
REMARK INTER + INTRA:          -8.816
REMARK INTER:                  -7.532
REMARK INTRA:                  -1.284
REMARK UNBOUND:                -1.294
REMARK SMILES C[C@@H]1O[C@H](O[C@H]2[C@@H](Oc3cc(O)c4c(c3)O[C@@H](c3ccc(O)cc3)CC4=O)O[C@@H](CO)[C@H](O)[C@@H]2O)[C@H](O)[C@H](O)[C@@H]1O
REMARK SMILES IDX 6 1 34 2 32 3 29 4 28 5 7 6 5 7 4 8 1 9 2 10 40 11 3 12
REMARK SMILES IDX 38 13 36 14 41 15 39 17 37 19 35 21 8 23 9 24 10 25 15 26
REMARK SMILES IDX 11 27 14 28 13 29 16 30 26 31 17 32 27 33 25 34 12 35 18 37
REMARK SMILES IDX 19 38 24 39 20 40 23 41 21 42 22 43 33 45 30 47 31 48
REMARK H PARENT 41 16 39 18 37 20 35 22 12 36 22 44 33 46 31 49
REMARK Flexibility Score: inf
ROOT
ATOM      1  C   UNL     1      30.220  17.878 -19.672  1.00  0.00     0.221 C 
ATOM      2  C   UNL     1      29.391  17.675 -20.967  1.00  0.00     0.181 C 
ATOM      3  C   UNL     1      28.354  18.800 -21.204  1.00  0.00     0.177 C 
ATOM      4  C   UNL     1      27.669  19.225 -19.872  1.00  0.00     0.179 C 
ATOM      5  O   UNL     1      28.527  19.365 -18.741  1.00  0.00    -0.332 OA
ATOM      6  C   UNL     1      29.917  19.233 -19.012  1.00  0.00     0.339 C 
ENDROOT
BRANCH   1   7
ATOM      7  O   UNL     1      31.605  17.800 -19.982  1.00  0.00    -0.337 OA
BRANCH   7   8
ATOM      8  C   UNL     1      32.119  16.502 -19.739  1.00  0.00     0.282 C 
ATOM      9  C   UNL     1      34.489  14.485 -21.690  1.00  0.00     0.041 C 
ATOM     10  C   UNL     1      33.333  14.769 -20.723  1.00  0.00     0.150 C 
ATOM     11  C   UNL     1      33.588  14.219 -19.275  1.00  0.00     0.174 C 
ATOM     12  O   UNL     1      33.068  16.164 -20.735  1.00  0.00    -0.344 OA
ATOM     13  C   UNL     1      33.892  15.361 -18.273  1.00  0.00     0.179 C 
ATOM     14  C   UNL     1      32.791  16.463 -18.346  1.00  0.00     0.202 C 
BRANCH  11  15
ATOM     15  O   UNL     1      34.554  13.195 -19.223  1.00  0.00    -0.388 OA
ATOM     16  H   UNL     1      35.444  13.608 -19.072  1.00  0.00     0.211 HD
ENDBRANCH  11  15
BRANCH  13  17
ATOM     17  O   UNL     1      35.180  15.899 -18.469  1.00  0.00    -0.387 OA
ATOM     18  H   UNL     1      35.647  15.914 -17.592  1.00  0.00     0.211 HD
ENDBRANCH  13  17
BRANCH  14  19
ATOM     19  O   UNL     1      33.332  17.724 -18.037  1.00  0.00    -0.385 OA
ATOM     20  H   UNL     1      34.217  17.768 -18.485  1.00  0.00     0.211 HD
ENDBRANCH  14  19
ENDBRANCH   7   8
ENDBRANCH   1   7
BRANCH   2  21
ATOM     21  O   UNL     1      28.778  16.408 -20.959  1.00  0.00    -0.387 OA
ATOM     22  H   UNL     1      29.302  15.820 -20.350  1.00  0.00     0.211 HD
ENDBRANCH   2  21
BRANCH   6  23
ATOM     23  O   UNL     1      30.407  20.321 -19.806  1.00  0.00    -0.462 OA
BRANCH  23  24
ATOM     24  C   UNL     1      29.962  21.647 -19.710  1.00  0.00     0.130 A 
ATOM     25  C   UNL     1      29.901  22.406 -20.880  1.00  0.00     0.093 A 
ATOM     26  C   UNL     1      29.536  22.218 -18.501  1.00  0.00     0.094 A 
ATOM     27  C   UNL     1      29.341  23.688 -20.888  1.00  0.00     0.133 A 
ATOM     28  C   UNL     1      28.991  23.501 -18.480  1.00  0.00     0.138 A 
ATOM     29  C   UNL     1      28.881  24.249 -19.670  1.00  0.00     0.102 A 
ATOM     30  O   UNL     1      28.519  24.017 -17.261  1.00  0.00    -0.484 OA
ATOM     31  C   UNL     1      28.251  25.587 -19.551  1.00  0.00     0.174 C 
ATOM     32  C   UNL     1      28.131  25.388 -17.087  1.00  0.00     0.211 C 
ATOM     33  O   UNL     1      28.472  26.505 -20.379  1.00  0.00    -0.294 OA
ATOM     34  C   UNL     1      27.392  25.857 -18.355  1.00  0.00     0.131 C 
BRANCH  27  35
ATOM     35  O   UNL     1      29.231  24.335 -22.123  1.00  0.00    -0.507 OA
ATOM     36  H   UNL     1      28.431  24.884 -22.401  1.00  0.00     0.293 HD
ENDBRANCH  27  35
BRANCH  32  37
ATOM     37  C   UNL     1      29.349  26.219 -16.691  1.00  0.00    -0.007 A 
ATOM     38  C   UNL     1      29.381  27.628 -16.790  1.00  0.00     0.011 A 
ATOM     39  C   UNL     1      30.446  25.568 -16.091  1.00  0.00     0.011 A 
ATOM     40  C   UNL     1      30.498  28.349 -16.353  1.00  0.00     0.046 A 
ATOM     41  C   UNL     1      31.560  26.293 -15.656  1.00  0.00     0.046 A 
ATOM     42  C   UNL     1      31.590  27.688 -15.786  1.00  0.00     0.115 A 
BRANCH  42  43
ATOM     43  O   UNL     1      32.693  28.420 -15.352  1.00  0.00    -0.508 OA
ATOM     44  H   UNL     1      33.243  28.120 -14.552  1.00  0.00     0.293 HD
ENDBRANCH  42  43
ENDBRANCH  32  37
ENDBRANCH  23  24
ENDBRANCH   6  23
BRANCH   3  45
ATOM     45  O   UNL     1      27.383  18.363 -22.125  1.00  0.00    -0.387 OA
ATOM     46  H   UNL     1      26.881  17.625 -21.688  1.00  0.00     0.211 HD
ENDBRANCH   3  45
BRANCH   4  47
ATOM     47  C   UNL     1      26.875  20.533 -20.044  1.00  0.00     0.191 C 
BRANCH  47  48
ATOM     48  O   UNL     1      26.906  20.951 -21.381  1.00  0.00    -0.394 OA
ATOM     49  H   UNL     1      27.713  20.536 -21.784  1.00  0.00     0.210 HD
ENDBRANCH  47  48
ENDBRANCH   4  47
TORSDOF 14
ENDMDL
MODEL 3
REMARK VINA RESULT:    -4.406      1.839      4.081
REMARK INTER + INTRA:          -8.276
REMARK INTER:                  -6.670
REMARK INTRA:                  -1.606
REMARK UNBOUND:                -1.294
REMARK SMILES C[C@@H]1O[C@H](O[C@H]2[C@@H](Oc3cc(O)c4c(c3)O[C@@H](c3ccc(O)cc3)CC4=O)O[C@@H](CO)[C@H](O)[C@@H]2O)[C@H](O)[C@H](O)[C@@H]1O
REMARK SMILES IDX 6 1 34 2 32 3 29 4 28 5 7 6 5 7 4 8 1 9 2 10 40 11 3 12
REMARK SMILES IDX 38 13 36 14 41 15 39 17 37 19 35 21 8 23 9 24 10 25 15 26
REMARK SMILES IDX 11 27 14 28 13 29 16 30 26 31 17 32 27 33 25 34 12 35 18 37
REMARK SMILES IDX 19 38 24 39 20 40 23 41 21 42 22 43 33 45 30 47 31 48
REMARK H PARENT 41 16 39 18 37 20 35 22 12 36 22 44 33 46 31 49
REMARK Flexibility Score: inf
ROOT
ATOM      1  C   UNL     1      29.549  19.765 -18.764  1.00  0.00     0.221 C 
ATOM      2  C   UNL     1      30.015  18.890 -19.956  1.00  0.00     0.181 C 
ATOM      3  C   UNL     1      29.177  19.117 -21.238  1.00  0.00     0.177 C 
ATOM      4  C   UNL     1      27.665  19.276 -20.903  1.00  0.00     0.179 C 
ATOM      5  O   UNL     1      27.354  20.091 -19.774  1.00  0.00    -0.332 OA
ATOM      6  C   UNL     1      28.460  20.765 -19.187  1.00  0.00     0.339 C 
ENDROOT
BRANCH   1   7
ATOM      7  O   UNL     1      30.663  20.471 -18.235  1.00  0.00    -0.337 OA
BRANCH   7   8
ATOM      8  C   UNL     1      31.399  19.673 -17.324  1.00  0.00     0.282 C 
ATOM      9  C   UNL     1      33.540  16.750 -17.926  1.00  0.00     0.041 C 
ATOM     10  C   UNL     1      32.600  17.679 -17.150  1.00  0.00     0.150 C 
ATOM     11  C   UNL     1      33.246  18.264 -15.845  1.00  0.00     0.174 C 
ATOM     12  O   UNL     1      32.142  18.695 -18.030  1.00  0.00    -0.344 OA
ATOM     13  C   UNL     1      33.597  19.765 -16.000  1.00  0.00     0.179 C 
ATOM     14  C   UNL     1      32.362  20.568 -16.509  1.00  0.00     0.202 C 
BRANCH  11  15
ATOM     15  O   UNL     1      34.336  17.509 -15.367  1.00  0.00    -0.388 OA
ATOM     16  H   UNL     1      34.718  16.995 -16.125  1.00  0.00     0.211 HD
ENDBRANCH  11  15
BRANCH  13  17
ATOM     17  O   UNL     1      34.719  19.955 -16.833  1.00  0.00    -0.387 OA
ATOM     18  H   UNL     1      34.448  19.763 -17.769  1.00  0.00     0.211 HD
ENDBRANCH  13  17
BRANCH  14  19
ATOM     19  O   UNL     1      32.772  21.667 -17.286  1.00  0.00    -0.385 OA
ATOM     20  H   UNL     1      33.762  21.697 -17.230  1.00  0.00     0.211 HD
ENDBRANCH  14  19
ENDBRANCH   7   8
ENDBRANCH   1   7
BRANCH   2  21
ATOM     21  O   UNL     1      30.026  17.531 -19.588  1.00  0.00    -0.387 OA
ATOM     22  H   UNL     1      29.584  17.453 -18.699  1.00  0.00     0.211 HD
ENDBRANCH   2  21
BRANCH   6  23
ATOM     23  O   UNL     1      28.988  21.773 -20.058  1.00  0.00    -0.462 OA
BRANCH  23  24
ATOM     24  C   UNL     1      28.817  23.153 -19.882  1.00  0.00     0.130 A 
ATOM     25  C   UNL     1      28.947  23.979 -21.001  1.00  0.00     0.093 A 
ATOM     26  C   UNL     1      28.477  23.724 -18.646  1.00  0.00     0.094 A 
ATOM     27  C   UNL     1      28.656  25.346 -20.933  1.00  0.00     0.133 A 
ATOM     28  C   UNL     1      28.201  25.087 -18.550  1.00  0.00     0.138 A 
ATOM     29  C   UNL     1      28.281  25.913 -19.690  1.00  0.00     0.102 A 
ATOM     30  O   UNL     1      27.804  25.612 -17.308  1.00  0.00    -0.484 OA
ATOM     31  C   UNL     1      27.929  27.341 -19.493  1.00  0.00     0.174 C 
ATOM     32  C   UNL     1      27.695  27.020 -17.050  1.00  0.00     0.211 C 
ATOM     33  O   UNL     1      28.357  28.245 -20.255  1.00  0.00    -0.294 OA
ATOM     34  C   UNL     1      27.105  27.706 -18.298  1.00  0.00     0.131 C 
BRANCH  27  35
ATOM     35  O   UNL     1      28.718  26.076 -22.125  1.00  0.00    -0.507 OA
ATOM     36  H   UNL     1      29.524  26.095 -22.732  1.00  0.00     0.293 HD
ENDBRANCH  27  35
BRANCH  32  37
ATOM     37  C   UNL     1      29.043  27.561 -16.579  1.00  0.00    -0.007 A 
ATOM     38  C   UNL     1      29.228  28.897 -16.157  1.00  0.00     0.011 A 
ATOM     39  C   UNL     1      30.122  26.664 -16.444  1.00  0.00     0.011 A 
ATOM     40  C   UNL     1      30.467  29.327 -15.671  1.00  0.00     0.046 A 
ATOM     41  C   UNL     1      31.360  27.098 -15.958  1.00  0.00     0.046 A 
ATOM     42  C   UNL     1      31.536  28.433 -15.570  1.00  0.00     0.115 A 
BRANCH  42  43
ATOM     43  O   UNL     1      32.764  28.875 -15.081  1.00  0.00    -0.508 OA
ATOM     44  H   UNL     1      32.898  29.073 -14.093  1.00  0.00     0.293 HD
ENDBRANCH  42  43
ENDBRANCH  32  37
ENDBRANCH  23  24
ENDBRANCH   6  23
BRANCH   3  45
ATOM     45  O   UNL     1      29.362  18.039 -22.124  1.00  0.00    -0.387 OA
ATOM     46  H   UNL     1      28.804  18.224 -22.925  1.00  0.00     0.211 HD
ENDBRANCH   3  45
BRANCH   4  47
ATOM     47  C   UNL     1      26.876  19.804 -22.115  1.00  0.00     0.191 C 
BRANCH  47  48
ATOM     48  O   UNL     1      26.876  21.204 -22.125  1.00  0.00    -0.394 OA
ATOM     49  H   UNL     1      27.775  21.486 -21.811  1.00  0.00     0.210 HD
ENDBRANCH  47  48
ENDBRANCH   4  47
TORSDOF 14
ENDMDL
MODEL 4
REMARK VINA RESULT:    -3.995      2.771     10.548
REMARK INTER + INTRA:          -7.625
REMARK INTER:                  -6.855
REMARK INTRA:                  -0.770
REMARK UNBOUND:                -1.294
REMARK SMILES C[C@@H]1O[C@H](O[C@H]2[C@@H](Oc3cc(O)c4c(c3)O[C@@H](c3ccc(O)cc3)CC4=O)O[C@@H](CO)[C@H](O)[C@@H]2O)[C@H](O)[C@H](O)[C@@H]1O
REMARK SMILES IDX 6 1 34 2 32 3 29 4 28 5 7 6 5 7 4 8 1 9 2 10 40 11 3 12
REMARK SMILES IDX 38 13 36 14 41 15 39 17 37 19 35 21 8 23 9 24 10 25 15 26
REMARK SMILES IDX 11 27 14 28 13 29 16 30 26 31 17 32 27 33 25 34 12 35 18 37
REMARK SMILES IDX 19 38 24 39 20 40 23 41 21 42 22 43 33 45 30 47 31 48
REMARK H PARENT 41 16 39 18 37 20 35 22 12 36 22 44 33 46 31 49
REMARK Flexibility Score: inf
ROOT
ATOM      1  C   UNL     1      30.244  22.332 -19.505  1.00  0.00     0.221 C 
ATOM      2  C   UNL     1      28.705  22.351 -19.689  1.00  0.00     0.181 C 
ATOM      3  C   UNL     1      28.168  21.099 -20.425  1.00  0.00     0.177 C 
ATOM      4  C   UNL     1      29.109  20.683 -21.592  1.00  0.00     0.179 C 
ATOM      5  O   UNL     1      30.509  20.721 -21.315  1.00  0.00    -0.332 OA
ATOM      6  C   UNL     1      30.853  20.997 -19.964  1.00  0.00     0.339 C 
ENDROOT
BRANCH   1   7
ATOM      7  O   UNL     1      30.558  22.553 -18.137  1.00  0.00    -0.337 OA
BRANCH   7   8
ATOM      8  C   UNL     1      30.645  23.936 -17.840  1.00  0.00     0.282 C 
ATOM      9  C   UNL     1      28.022  26.333 -16.911  1.00  0.00     0.041 C 
ATOM     10  C   UNL     1      29.353  25.849 -17.499  1.00  0.00     0.150 C 
ATOM     11  C   UNL     1      30.606  26.486 -16.801  1.00  0.00     0.174 C 
ATOM     12  O   UNL     1      29.373  24.430 -17.459  1.00  0.00    -0.344 OA
ATOM     13  C   UNL     1      31.342  25.464 -15.898  1.00  0.00     0.179 C 
ATOM     14  C   UNL     1      31.654  24.158 -16.690  1.00  0.00     0.202 C 
BRANCH  11  15
ATOM     15  O   UNL     1      30.323  27.689 -16.123  1.00  0.00    -0.388 OA
ATOM     16  H   UNL     1      30.673  27.617 -15.197  1.00  0.00     0.211 HD
ENDBRANCH  11  15
BRANCH  13  17
ATOM     17  O   UNL     1      30.620  25.196 -14.717  1.00  0.00    -0.387 OA
ATOM     18  H   UNL     1      30.501  26.051 -14.225  1.00  0.00     0.211 HD
ENDBRANCH  13  17
BRANCH  14  19
ATOM     19  O   UNL     1      31.655  23.046 -15.828  1.00  0.00    -0.385 OA
ATOM     20  H   UNL     1      32.113  23.334 -14.996  1.00  0.00     0.211 HD
ENDBRANCH  14  19
ENDBRANCH   7   8
ENDBRANCH   1   7
BRANCH   2  21
ATOM     21  O   UNL     1      28.305  23.535 -20.338  1.00  0.00    -0.387 OA
ATOM     22  H   UNL     1      28.219  24.246 -19.648  1.00  0.00     0.211 HD
ENDBRANCH   2  21
BRANCH   6  23
ATOM     23  O   UNL     1      30.476  19.925 -19.091  1.00  0.00    -0.462 OA
BRANCH  23  24
ATOM     24  C   UNL     1      30.832  18.582 -19.272  1.00  0.00     0.130 A 
ATOM     25  C   UNL     1      29.829  17.678 -19.626  1.00  0.00     0.093 A 
ATOM     26  C   UNL     1      32.155  18.126 -19.156  1.00  0.00     0.094 A 
ATOM     27  C   UNL     1      30.128  16.352 -19.957  1.00  0.00     0.133 A 
ATOM     28  C   UNL     1      32.474  16.804 -19.462  1.00  0.00     0.138 A 
ATOM     29  C   UNL     1      31.469  15.903 -19.871  1.00  0.00     0.102 A 
ATOM     30  O   UNL     1      33.818  16.398 -19.394  1.00  0.00    -0.484 OA
ATOM     31  C   UNL     1      31.916  14.530 -20.213  1.00  0.00     0.174 C 
ATOM     32  C   UNL     1      34.230  15.026 -19.488  1.00  0.00     0.211 C 
ATOM     33  O   UNL     1      31.140  13.544 -20.164  1.00  0.00    -0.294 OA
ATOM     34  C   UNL     1      33.360  14.321 -20.547  1.00  0.00     0.131 C 
BRANCH  27  35
ATOM     35  O   UNL     1      29.073  15.545 -20.396  1.00  0.00    -0.507 OA
ATOM     36  H   UNL     1      29.101  14.535 -20.400  1.00  0.00     0.293 HD
ENDBRANCH  27  35
BRANCH  32  37
ATOM     37  C   UNL     1      34.217  14.391 -18.100  1.00  0.00    -0.007 A 
ATOM     38  C   UNL     1      35.123  13.379 -17.711  1.00  0.00     0.011 A 
ATOM     39  C   UNL     1      33.345  14.915 -17.124  1.00  0.00     0.011 A 
ATOM     40  C   UNL     1      35.114  12.875 -16.406  1.00  0.00     0.046 A 
ATOM     41  C   UNL     1      33.340  14.409 -15.820  1.00  0.00     0.046 A 
ATOM     42  C   UNL     1      34.225  13.385 -15.457  1.00  0.00     0.115 A 
BRANCH  42  43
ATOM     43  O   UNL     1      34.230  12.875 -14.160  1.00  0.00    -0.508 OA
ATOM     44  H   UNL     1      33.427  12.377 -13.786  1.00  0.00     0.293 HD
ENDBRANCH  42  43
ENDBRANCH  32  37
ENDBRANCH  23  24
ENDBRANCH   6  23
BRANCH   3  45
ATOM     45  O   UNL     1      26.875  21.356 -20.919  1.00  0.00    -0.387 OA
ATOM     46  H   UNL     1      26.927  21.295 -21.910  1.00  0.00     0.211 HD
ENDBRANCH   3  45
BRANCH   4  47
ATOM     47  C   UNL     1      28.757  19.282 -22.125  1.00  0.00     0.191 C 
BRANCH  47  48
ATOM     48  O   UNL     1      27.616  18.788 -21.480  1.00  0.00    -0.394 OA
ATOM     49  H   UNL     1      27.705  17.800 -21.473  1.00  0.00     0.210 HD
ENDBRANCH  47  48
ENDBRANCH   4  47
TORSDOF 14
ENDMDL
MODEL 5
REMARK VINA RESULT:    -3.964      2.024     10.314
REMARK INTER + INTRA:          -7.575
REMARK INTER:                  -6.586
REMARK INTRA:                  -0.990
REMARK UNBOUND:                -1.294
REMARK SMILES C[C@@H]1O[C@H](O[C@H]2[C@@H](Oc3cc(O)c4c(c3)O[C@@H](c3ccc(O)cc3)CC4=O)O[C@@H](CO)[C@H](O)[C@@H]2O)[C@H](O)[C@H](O)[C@@H]1O
REMARK SMILES IDX 6 1 34 2 32 3 29 4 28 5 7 6 5 7 4 8 1 9 2 10 40 11 3 12
REMARK SMILES IDX 38 13 36 14 41 15 39 17 37 19 35 21 8 23 9 24 10 25 15 26
REMARK SMILES IDX 11 27 14 28 13 29 16 30 26 31 17 32 27 33 25 34 12 35 18 37
REMARK SMILES IDX 19 38 24 39 20 40 23 41 21 42 22 43 33 45 30 47 31 48
REMARK H PARENT 41 16 39 18 37 20 35 22 12 36 22 44 33 46 31 49
REMARK Flexibility Score: inf
ROOT
ATOM      1  C   UNL     1      30.000  23.976 -19.124  1.00  0.00     0.221 C 
ATOM      2  C   UNL     1      28.539  24.187 -19.598  1.00  0.00     0.181 C 
ATOM      3  C   UNL     1      28.007  23.015 -20.459  1.00  0.00     0.177 C 
ATOM      4  C   UNL     1      29.099  22.491 -21.436  1.00  0.00     0.179 C 
ATOM      5  O   UNL     1      30.412  22.352 -20.895  1.00  0.00    -0.332 OA
ATOM      6  C   UNL     1      30.520  22.577 -19.495  1.00  0.00     0.339 C 
ENDROOT
BRANCH   1   7
ATOM      7  O   UNL     1      30.067  24.149 -17.715  1.00  0.00    -0.337 OA
BRANCH   7   8
ATOM      8  C   UNL     1      30.604  25.415 -17.372  1.00  0.00     0.282 C 
ATOM      9  C   UNL     1      28.907  28.535 -16.435  1.00  0.00     0.041 C 
ATOM     10  C   UNL     1      30.018  27.643 -17.003  1.00  0.00     0.150 C 
ATOM     11  C   UNL     1      31.387  27.806 -16.253  1.00  0.00     0.174 C 
ATOM     12  O   UNL     1      29.559  26.300 -17.009  1.00  0.00    -0.344 OA
ATOM     13  C   UNL     1      31.704  26.577 -15.365  1.00  0.00     0.179 C 
ATOM     14  C   UNL     1      31.588  25.259 -16.189  1.00  0.00     0.202 C 
BRANCH  11  15
ATOM     15  O   UNL     1      31.501  29.019 -15.544  1.00  0.00    -0.388 OA
ATOM     16  H   UNL     1      30.619  29.475 -15.557  1.00  0.00     0.211 HD
ENDBRANCH  11  15
BRANCH  13  17
ATOM     17  O   UNL     1      30.893  26.542 -14.212  1.00  0.00    -0.387 OA
ATOM     18  H   UNL     1      29.943  26.520 -14.500  1.00  0.00     0.211 HD
ENDBRANCH  13  17
BRANCH  14  19
ATOM     19  O   UNL     1      31.184  24.194 -15.364  1.00  0.00    -0.385 OA
ATOM     20  H   UNL     1      32.004  23.858 -14.916  1.00  0.00     0.211 HD
ENDBRANCH  14  19
ENDBRANCH   7   8
ENDBRANCH   1   7
BRANCH   2  21
ATOM     21  O   UNL     1      28.420  25.415 -20.278  1.00  0.00    -0.387 OA
ATOM     22  H   UNL     1      27.475  25.715 -20.200  1.00  0.00     0.211 HD
ENDBRANCH   2  21
BRANCH   6  23
ATOM     23  O   UNL     1      29.853  21.556 -18.743  1.00  0.00    -0.462 OA
BRANCH  23  24
ATOM     24  C   UNL     1      29.702  20.226 -19.156  1.00  0.00     0.130 A 
ATOM     25  C   UNL     1      28.451  19.626 -18.994  1.00  0.00     0.093 A 
ATOM     26  C   UNL     1      30.737  19.498 -19.763  1.00  0.00     0.094 A 
ATOM     27  C   UNL     1      28.184  18.351 -19.505  1.00  0.00     0.133 A 
ATOM     28  C   UNL     1      30.500  18.218 -20.263  1.00  0.00     0.138 A 
ATOM     29  C   UNL     1      29.223  17.631 -20.147  1.00  0.00     0.102 A 
ATOM     30  O   UNL     1      31.544  17.543 -20.919  1.00  0.00    -0.484 OA
ATOM     31  C   UNL     1      29.061  16.284 -20.746  1.00  0.00     0.174 C 
ATOM     32  C   UNL     1      31.472  16.158 -21.288  1.00  0.00     0.211 C 
ATOM     33  O   UNL     1      28.173  15.484 -20.360  1.00  0.00    -0.294 OA
ATOM     34  C   UNL     1      30.047  15.852 -21.787  1.00  0.00     0.131 C 
BRANCH  27  35
ATOM     35  O   UNL     1      26.876  17.870 -19.384  1.00  0.00    -0.507 OA
ATOM     36  H   UNL     1      26.124  18.388 -18.952  1.00  0.00     0.293 HD
ENDBRANCH  27  35
BRANCH  32  37
ATOM     37  C   UNL     1      31.962  15.292 -20.129  1.00  0.00    -0.007 A 
ATOM     38  C   UNL     1      31.621  13.928 -19.993  1.00  0.00     0.011 A 
ATOM     39  C   UNL     1      32.889  15.842 -19.220  1.00  0.00     0.011 A 
ATOM     40  C   UNL     1      32.149  13.161 -18.949  1.00  0.00     0.046 A 
ATOM     41  C   UNL     1      33.415  15.071 -18.177  1.00  0.00     0.046 A 
ATOM     42  C   UNL     1      33.045  13.726 -18.038  1.00  0.00     0.115 A 
BRANCH  42  43
ATOM     43  O   UNL     1      33.565  12.949 -17.005  1.00  0.00    -0.508 OA
ATOM     44  H   UNL     1      34.260  12.230 -17.185  1.00  0.00     0.293 HD
ENDBRANCH  42  43
ENDBRANCH  32  37
ENDBRANCH  23  24
ENDBRANCH   6  23
BRANCH   3  45
ATOM     45  O   UNL     1      26.875  23.434 -21.184  1.00  0.00    -0.387 OA
ATOM     46  H   UNL     1      26.101  22.918 -20.834  1.00  0.00     0.211 HD
ENDBRANCH   3  45
BRANCH   4  47
ATOM     47  C   UNL     1      28.689  21.148 -22.067  1.00  0.00     0.191 C 
BRANCH  47  48
ATOM     48  O   UNL     1      27.328  20.901 -21.847  1.00  0.00    -0.394 OA
ATOM     49  H   UNL     1      27.056  21.488 -21.093  1.00  0.00     0.210 HD
ENDBRANCH  47  48
ENDBRANCH   4  47
TORSDOF 14
ENDMDL
MODEL 6
REMARK VINA RESULT:    -3.325      2.412      6.073
REMARK INTER + INTRA:          -6.563
REMARK INTER:                  -5.237
REMARK INTRA:                  -1.326
REMARK UNBOUND:                -1.294
REMARK SMILES C[C@@H]1O[C@H](O[C@H]2[C@@H](Oc3cc(O)c4c(c3)O[C@@H](c3ccc(O)cc3)CC4=O)O[C@@H](CO)[C@H](O)[C@@H]2O)[C@H](O)[C@H](O)[C@@H]1O
REMARK SMILES IDX 6 1 34 2 32 3 29 4 28 5 7 6 5 7 4 8 1 9 2 10 40 11 3 12
REMARK SMILES IDX 38 13 36 14 41 15 39 17 37 19 35 21 8 23 9 24 10 25 15 26
REMARK SMILES IDX 11 27 14 28 13 29 16 30 26 31 17 32 27 33 25 34 12 35 18 37
REMARK SMILES IDX 19 38 24 39 20 40 23 41 21 42 22 43 33 45 30 47 31 48
REMARK H PARENT 41 16 39 18 37 20 35 22 12 36 22 44 33 46 31 49
REMARK Flexibility Score: inf
ROOT
ATOM      1  C   UNL     1      28.547  24.224 -19.293  1.00  0.00     0.221 C 
ATOM      2  C   UNL     1      28.069  25.318 -20.283  1.00  0.00     0.181 C 
ATOM      3  C   UNL     1      27.913  26.708 -19.621  1.00  0.00     0.177 C 
ATOM      4  C   UNL     1      27.293  26.590 -18.198  1.00  0.00     0.179 C 
ATOM      5  O   UNL     1      27.797  25.535 -17.379  1.00  0.00    -0.332 OA
ATOM      6  C   UNL     1      28.900  24.819 -17.920  1.00  0.00     0.339 C 
ENDROOT
BRANCH   1   7
ATOM      7  O   UNL     1      29.684  23.565 -19.833  1.00  0.00    -0.337 OA
BRANCH   7   8
ATOM      8  C   UNL     1      29.632  22.168 -19.601  1.00  0.00     0.282 C 
ATOM      9  C   UNL     1      26.875  19.786 -20.066  1.00  0.00     0.041 C 
ATOM     10  C   UNL     1      28.164  20.359 -19.465  1.00  0.00     0.150 C 
ATOM     11  C   UNL     1      29.409  19.423 -19.663  1.00  0.00     0.174 C 
ATOM     12  O   UNL     1      28.372  21.658 -19.999  1.00  0.00    -0.344 OA
ATOM     13  C   UNL     1      30.386  19.986 -20.725  1.00  0.00     0.179 C 
ATOM     14  C   UNL     1      30.753  21.467 -20.405  1.00  0.00     0.202 C 
BRANCH  11  15
ATOM     15  O   UNL     1      29.070  18.078 -19.910  1.00  0.00    -0.388 OA
ATOM     16  H   UNL     1      28.261  18.058 -20.485  1.00  0.00     0.211 HD
ENDBRANCH  11  15
BRANCH  13  17
ATOM     17  O   UNL     1      29.874  19.848 -22.031  1.00  0.00    -0.387 OA
ATOM     18  H   UNL     1      30.628  19.624 -22.638  1.00  0.00     0.211 HD
ENDBRANCH  13  17
BRANCH  14  19
ATOM     19  O   UNL     1      31.014  22.179 -21.589  1.00  0.00    -0.385 OA
ATOM     20  H   UNL     1      31.383  21.523 -22.236  1.00  0.00     0.211 HD
ENDBRANCH  14  19
ENDBRANCH   7   8
ENDBRANCH   1   7
BRANCH   2  21
ATOM     21  O   UNL     1      26.875  24.917 -20.914  1.00  0.00    -0.387 OA
ATOM     22  H   UNL     1      26.730  23.954 -20.706  1.00  0.00     0.211 HD
ENDBRANCH   2  21
BRANCH   6  23
ATOM     23  O   UNL     1      30.076  25.634 -17.993  1.00  0.00    -0.462 OA
BRANCH  23  24
ATOM     24  C   UNL     1      30.490  26.533 -17.000  1.00  0.00     0.130 A 
ATOM     25  C   UNL     1      30.876  26.014 -15.762  1.00  0.00     0.093 A 
ATOM     26  C   UNL     1      30.575  27.917 -17.219  1.00  0.00     0.094 A 
ATOM     27  C   UNL     1      31.428  26.832 -14.771  1.00  0.00     0.133 A 
ATOM     28  C   UNL     1      31.105  28.755 -16.238  1.00  0.00     0.138 A 
ATOM     29  C   UNL     1      31.543  28.225 -15.007  1.00  0.00     0.102 A 
ATOM     30  O   UNL     1      31.231  30.127 -16.515  1.00  0.00    -0.484 OA
ATOM     31  C   UNL     1      32.129  29.191 -14.046  1.00  0.00     0.174 C 
ATOM     32  C   UNL     1      31.569  31.101 -15.517  1.00  0.00     0.211 C 
ATOM     33  O   UNL     1      32.151  28.972 -12.809  1.00  0.00    -0.294 OA
ATOM     34  C   UNL     1      32.631  30.498 -14.577  1.00  0.00     0.131 C 
BRANCH  27  35
ATOM     35  O   UNL     1      31.878  26.210 -13.601  1.00  0.00    -0.507 OA
ATOM     36  H   UNL     1      32.756  26.426 -13.152  1.00  0.00     0.293 HD
ENDBRANCH  27  35
BRANCH  32  37
ATOM     37  C   UNL     1      30.297  31.600 -14.836  1.00  0.00    -0.007 A 
ATOM     38  C   UNL     1      29.008  31.138 -15.185  1.00  0.00     0.011 A 
ATOM     39  C   UNL     1      30.417  32.469 -13.732  1.00  0.00     0.011 A 
ATOM     40  C   UNL     1      27.879  31.578 -14.486  1.00  0.00     0.046 A 
ATOM     41  C   UNL     1      29.285  32.906 -13.036  1.00  0.00     0.046 A 
ATOM     42  C   UNL     1      28.010  32.461 -13.412  1.00  0.00     0.115 A 
BRANCH  42  43
ATOM     43  O   UNL     1      26.876  32.887 -12.723  1.00  0.00    -0.508 OA
ATOM     44  H   UNL     1      26.850  32.898 -11.708  1.00  0.00     0.293 HD
ENDBRANCH  42  43
ENDBRANCH  32  37
ENDBRANCH  23  24
ENDBRANCH   6  23
BRANCH   3  45
ATOM     45  O   UNL     1      27.107  27.532 -20.428  1.00  0.00    -0.387 OA
ATOM     46  H   UNL     1      27.076  27.113 -21.329  1.00  0.00     0.211 HD
ENDBRANCH   3  45
BRANCH   4  47
ATOM     47  C   UNL     1      27.420  27.912 -17.419  1.00  0.00     0.191 C 
BRANCH  47  48
ATOM     48  O   UNL     1      27.103  28.997 -18.246  1.00  0.00    -0.394 OA
ATOM     49  H   UNL     1      27.757  29.712 -18.031  1.00  0.00     0.210 HD
ENDBRANCH  47  48
ENDBRANCH   4  47
TORSDOF 14
ENDMDL
MODEL 7
REMARK VINA RESULT:    -3.209      1.778     10.100
REMARK INTER + INTRA:          -6.378
REMARK INTER:                  -4.783
REMARK INTRA:                  -1.596
REMARK UNBOUND:                -1.294
REMARK SMILES C[C@@H]1O[C@H](O[C@H]2[C@@H](Oc3cc(O)c4c(c3)O[C@@H](c3ccc(O)cc3)CC4=O)O[C@@H](CO)[C@H](O)[C@@H]2O)[C@H](O)[C@H](O)[C@@H]1O
REMARK SMILES IDX 6 1 34 2 32 3 29 4 28 5 7 6 5 7 4 8 1 9 2 10 40 11 3 12
REMARK SMILES IDX 38 13 36 14 41 15 39 17 37 19 35 21 8 23 9 24 10 25 15 26
REMARK SMILES IDX 11 27 14 28 13 29 16 30 26 31 17 32 27 33 25 34 12 35 18 37
REMARK SMILES IDX 19 38 24 39 20 40 23 41 21 42 22 43 33 45 30 47 31 48
REMARK H PARENT 41 16 39 18 37 20 35 22 12 36 22 44 33 46 31 49
REMARK Flexibility Score: inf
ROOT
ATOM      1  C   UNL     1      29.917  23.245 -17.964  1.00  0.00     0.221 C 
ATOM      2  C   UNL     1      31.454  23.426 -18.063  1.00  0.00     0.181 C 
ATOM      3  C   UNL     1      32.222  22.083 -18.077  1.00  0.00     0.177 C 
ATOM      4  C   UNL     1      31.598  21.065 -17.079  1.00  0.00     0.179 C 
ATOM      5  O   UNL     1      30.173  20.995 -17.061  1.00  0.00    -0.332 OA
ATOM      6  C   UNL     1      29.514  21.764 -18.059  1.00  0.00     0.339 C 
ENDROOT
BRANCH   1   7
ATOM      7  O   UNL     1      29.288  23.977 -19.007  1.00  0.00    -0.337 OA
BRANCH   7   8
ATOM      8  C   UNL     1      28.643  25.138 -18.512  1.00  0.00     0.282 C 
ATOM      9  C   UNL     1      30.018  28.031 -16.714  1.00  0.00     0.041 C 
ATOM     10  C   UNL     1      28.965  27.004 -17.149  1.00  0.00     0.150 C 
ATOM     11  C   UNL     1      27.727  27.652 -17.862  1.00  0.00     0.174 C 
ATOM     12  O   UNL     1      29.600  26.019 -17.951  1.00  0.00    -0.344 OA
ATOM     13  C   UNL     1      27.731  27.373 -19.386  1.00  0.00     0.179 C 
ATOM     14  C   UNL     1      27.895  25.848 -19.665  1.00  0.00     0.202 C 
BRANCH  11  15
ATOM     15  O   UNL     1      27.561  29.021 -17.572  1.00  0.00    -0.388 OA
ATOM     16  H   UNL     1      28.390  29.354 -17.141  1.00  0.00     0.211 HD
ENDBRANCH  11  15
BRANCH  13  17
ATOM     17  O   UNL     1      28.715  28.132 -20.053  1.00  0.00    -0.387 OA
ATOM     18  H   UNL     1      29.606  27.843 -19.724  1.00  0.00     0.211 HD
ENDBRANCH  13  17
BRANCH  14  19
ATOM     19  O   UNL     1      28.572  25.637 -20.880  1.00  0.00    -0.385 OA
ATOM     20  H   UNL     1      28.339  26.401 -21.468  1.00  0.00     0.211 HD
ENDBRANCH  14  19
ENDBRANCH   7   8
ENDBRANCH   1   7
BRANCH   2  21
ATOM     21  O   UNL     1      31.913  24.266 -17.029  1.00  0.00    -0.387 OA
ATOM     22  H   UNL     1      32.173  23.689 -16.261  1.00  0.00     0.211 HD
ENDBRANCH   2  21
BRANCH   6  23
ATOM     23  O   UNL     1      29.752  21.243 -19.372  1.00  0.00    -0.462 OA
BRANCH  23  24
ATOM     24  C   UNL     1      29.685  19.887 -19.720  1.00  0.00     0.130 A 
ATOM     25  C   UNL     1      28.467  19.225 -19.552  1.00  0.00     0.093 A 
ATOM     26  C   UNL     1      30.773  19.190 -20.269  1.00  0.00     0.094 A 
ATOM     27  C   UNL     1      28.284  17.913 -20.002  1.00  0.00     0.133 A 
ATOM     28  C   UNL     1      30.620  17.876 -20.708  1.00  0.00     0.138 A 
ATOM     29  C   UNL     1      29.376  17.223 -20.587  1.00  0.00     0.102 A 
ATOM     30  O   UNL     1      31.714  17.230 -21.309  1.00  0.00    -0.484 OA
ATOM     31  C   UNL     1      29.304  15.841 -21.120  1.00  0.00     0.174 C 
ATOM     32  C   UNL     1      31.730  15.827 -21.608  1.00  0.00     0.211 C 
ATOM     33  O   UNL     1      28.454  15.011 -20.710  1.00  0.00    -0.294 OA
ATOM     34  C   UNL     1      30.335  15.415 -22.118  1.00  0.00     0.131 C 
BRANCH  27  35
ATOM     35  O   UNL     1      27.003  17.364 -19.882  1.00  0.00    -0.507 OA
ATOM     36  H   UNL     1      26.321  17.361 -20.627  1.00  0.00     0.293 HD
ENDBRANCH  27  35
BRANCH  32  37
ATOM     37  C   UNL     1      32.242  15.050 -20.397  1.00  0.00    -0.007 A 
ATOM     38  C   UNL     1      33.134  15.604 -19.452  1.00  0.00     0.011 A 
ATOM     39  C   UNL     1      31.715  13.767 -20.144  1.00  0.00     0.011 A 
ATOM     40  C   UNL     1      33.523  14.873 -18.324  1.00  0.00     0.046 A 
ATOM     41  C   UNL     1      32.106  13.040 -19.015  1.00  0.00     0.046 A 
ATOM     42  C   UNL     1      33.014  13.592 -18.100  1.00  0.00     0.115 A 
BRANCH  42  43
ATOM     43  O   UNL     1      33.407  12.878 -16.970  1.00  0.00    -0.508 OA
ATOM     44  H   UNL     1      33.737  11.919 -17.041  1.00  0.00     0.293 HD
ENDBRANCH  42  43
ENDBRANCH  32  37
ENDBRANCH  23  24
ENDBRANCH   6  23
BRANCH   3  45
ATOM     45  O   UNL     1      33.574  22.305 -17.754  1.00  0.00    -0.387 OA
ATOM     46  H   UNL     1      33.963  21.422 -17.514  1.00  0.00     0.211 HD
ENDBRANCH   3  45
BRANCH   4  47
ATOM     47  C   UNL     1      32.151  19.646 -17.306  1.00  0.00     0.191 C 
BRANCH  47  48
ATOM     48  O   UNL     1      33.394  19.501 -16.678  1.00  0.00    -0.394 OA
ATOM     49  H   UNL     1      33.994  20.177 -17.087  1.00  0.00     0.210 HD
ENDBRANCH  47  48
ENDBRANCH   4  47
TORSDOF 14
ENDMDL
MODEL 8
REMARK VINA RESULT:    -3.096      1.987      3.178
REMARK INTER + INTRA:          -6.199
REMARK INTER:                  -4.705
REMARK INTRA:                  -1.494
REMARK UNBOUND:                -1.294
REMARK SMILES C[C@@H]1O[C@H](O[C@H]2[C@@H](Oc3cc(O)c4c(c3)O[C@@H](c3ccc(O)cc3)CC4=O)O[C@@H](CO)[C@H](O)[C@@H]2O)[C@H](O)[C@H](O)[C@@H]1O
REMARK SMILES IDX 6 1 34 2 32 3 29 4 28 5 7 6 5 7 4 8 1 9 2 10 40 11 3 12
REMARK SMILES IDX 38 13 36 14 41 15 39 17 37 19 35 21 8 23 9 24 10 25 15 26
REMARK SMILES IDX 11 27 14 28 13 29 16 30 26 31 17 32 27 33 25 34 12 35 18 37
REMARK SMILES IDX 19 38 24 39 20 40 23 41 21 42 22 43 33 45 30 47 31 48
REMARK H PARENT 41 16 39 18 37 20 35 22 12 36 22 44 33 46 31 49
REMARK Flexibility Score: inf
ROOT
ATOM      1  C   UNL     1      30.353  22.567 -18.902  1.00  0.00     0.221 C 
ATOM      2  C   UNL     1      30.512  21.887 -17.518  1.00  0.00     0.181 C 
ATOM      3  C   UNL     1      30.840  22.890 -16.385  1.00  0.00     0.177 C 
ATOM      4  C   UNL     1      31.849  23.974 -16.865  1.00  0.00     0.179 C 
ATOM      5  O   UNL     1      31.615  24.518 -18.164  1.00  0.00    -0.332 OA
ATOM      6  C   UNL     1      30.409  24.100 -18.790  1.00  0.00     0.339 C 
ENDROOT
BRANCH   1   7
ATOM      7  O   UNL     1      29.115  22.178 -19.479  1.00  0.00    -0.337 OA
BRANCH   7   8
ATOM      8  C   UNL     1      29.275  21.081 -20.362  1.00  0.00     0.282 C 
ATOM      9  C   UNL     1      30.761  17.771 -19.786  1.00  0.00     0.041 C 
ATOM     10  C   UNL     1      30.328  19.010 -20.581  1.00  0.00     0.150 C 
ATOM     11  C   UNL     1      29.300  18.685 -21.721  1.00  0.00     0.174 C 
ATOM     12  O   UNL     1      29.838  19.981 -19.668  1.00  0.00    -0.344 OA
ATOM     13  C   UNL     1      27.875  19.177 -21.366  1.00  0.00     0.179 C 
ATOM     14  C   UNL     1      27.900  20.678 -20.945  1.00  0.00     0.202 C 
BRANCH  11  15
ATOM     15  O   UNL     1      29.313  17.336 -22.125  1.00  0.00    -0.388 OA
ATOM     16  H   UNL     1      29.662  17.288 -23.053  1.00  0.00     0.211 HD
ENDBRANCH  11  15
BRANCH  13  17
ATOM     17  O   UNL     1      27.275  18.370 -20.377  1.00  0.00    -0.387 OA
ATOM     18  H   UNL     1      26.293  18.381 -20.521  1.00  0.00     0.211 HD
ENDBRANCH  13  17
BRANCH  14  19
ATOM     19  O   UNL     1      26.883  20.948 -20.011  1.00  0.00    -0.385 OA
ATOM     20  H   UNL     1      27.304  21.471 -19.280  1.00  0.00     0.211 HD
ENDBRANCH  14  19
ENDBRANCH   7   8
ENDBRANCH   1   7
BRANCH   2  21
ATOM     21  O   UNL     1      31.474  20.861 -17.586  1.00  0.00    -0.387 OA
ATOM     22  H   UNL     1      31.548  20.577 -18.537  1.00  0.00     0.211 HD
ENDBRANCH   2  21
BRANCH   6  23
ATOM     23  O   UNL     1      29.255  24.615 -18.116  1.00  0.00    -0.462 OA
BRANCH  23  24
ATOM     24  C   UNL     1      28.879  25.965 -18.090  1.00  0.00     0.130 A 
ATOM     25  C   UNL     1      28.496  26.563 -19.293  1.00  0.00     0.093 A 
ATOM     26  C   UNL     1      28.828  26.716 -16.906  1.00  0.00     0.094 A 
ATOM     27  C   UNL     1      27.978  27.862 -19.327  1.00  0.00     0.133 A 
ATOM     28  C   UNL     1      28.333  28.020 -16.918  1.00  0.00     0.138 A 
ATOM     29  C   UNL     1      27.897  28.607 -18.123  1.00  0.00     0.102 A 
ATOM     30  O   UNL     1      28.239  28.720 -15.703  1.00  0.00    -0.484 OA
ATOM     31  C   UNL     1      27.350  29.982 -18.025  1.00  0.00     0.174 C 
ATOM     32  C   UNL     1      27.940  30.122 -15.626  1.00  0.00     0.211 C 
ATOM     33  O   UNL     1      27.338  30.768 -19.006  1.00  0.00    -0.294 OA
ATOM     34  C   UNL     1      26.876  30.459 -16.688  1.00  0.00     0.131 C 
BRANCH  27  35
ATOM     35  O   UNL     1      27.528  28.344 -20.561  1.00  0.00    -0.507 OA
ATOM     36  H   UNL     1      26.572  28.272 -20.878  1.00  0.00     0.293 HD
ENDBRANCH  27  35
BRANCH  32  37
ATOM     37  C   UNL     1      29.234  30.928 -15.715  1.00  0.00    -0.007 A 
ATOM     38  C   UNL     1      29.262  32.302 -16.042  1.00  0.00     0.011 A 
ATOM     39  C   UNL     1      30.444  30.308 -15.340  1.00  0.00     0.011 A 
ATOM     40  C   UNL     1      30.467  33.011 -16.047  1.00  0.00     0.046 A 
ATOM     41  C   UNL     1      31.647  31.021 -15.345  1.00  0.00     0.046 A 
ATOM     42  C   UNL     1      31.663  32.377 -15.700  1.00  0.00     0.115 A 
BRANCH  42  43
ATOM     43  O   UNL     1      32.855  33.098 -15.706  1.00  0.00    -0.508 OA
ATOM     44  H   UNL     1      33.425  33.167 -16.544  1.00  0.00     0.293 HD
ENDBRANCH  42  43
ENDBRANCH  32  37
ENDBRANCH  23  24
ENDBRANCH   6  23
BRANCH   3  45
ATOM     45  O   UNL     1      31.368  22.200 -15.278  1.00  0.00    -0.387 OA
ATOM     46  H   UNL     1      32.280  21.896 -15.534  1.00  0.00     0.211 HD
ENDBRANCH   3  45
BRANCH   4  47
ATOM     47  C   UNL     1      31.942  25.137 -15.861  1.00  0.00     0.191 C 
BRANCH  47  48
ATOM     48  O   UNL     1      30.705  25.341 -15.235  1.00  0.00    -0.394 OA
ATOM     49  H   UNL     1      30.191  24.500 -15.351  1.00  0.00     0.210 HD
ENDBRANCH  47  48
ENDBRANCH   4  47
TORSDOF 14
ENDMDL
