MODEL 1
REMARK VINA RESULT:    -4.508      0.000      0.000
REMARK INTER + INTRA:          -5.107
REMARK INTER:                  -4.903
REMARK INTRA:                  -0.205
REMARK UNBOUND:                -0.205
REMARK SMILES CC(C)(C)[C@@H]1C=C[C@H](O)CC1
REMARK SMILES IDX 5 1 11 2 10 3 8 4 7 5 6 6 2 7 1 8 3 9 4 10 9 11
REMARK H PARENT 9 12
REMARK Flexibility Score: inf
ROOT
ATOM      1  C   UNL     1      34.835  10.286   4.607  1.00  0.00     0.017 C 
ATOM      2  C   UNL     1      34.858  11.393   3.507  1.00  0.00     0.011 C 
ATOM      3  C   UNL     1      34.435  10.907   2.092  1.00  0.00     0.037 C 
ATOM      4  C   UNL     1      33.877   9.472   2.076  1.00  0.00     0.137 C 
ATOM      5  C   UNL     1      34.814   8.569   2.830  1.00  0.00     0.000 C 
ATOM      6  C   UNL     1      35.289   8.960   4.018  1.00  0.00    -0.025 C 
ENDROOT
BRANCH   1   7
ATOM      7  C   UNL     1      35.585  10.677   5.937  1.00  0.00    -0.032 C 
ATOM      8  C   UNL     1      37.098  10.835   5.654  1.00  0.00     0.011 C 
ATOM      9  C   UNL     1      35.054  11.997   6.545  1.00  0.00     0.011 C 
ATOM     10  C   UNL     1      35.426   9.555   6.989  1.00  0.00     0.011 C 
ENDBRANCH   1   7
BRANCH   4  11
ATOM     11  O   UNL     1      33.745   9.015   0.757  1.00  0.00    -0.389 OA
ATOM     12  H   UNL     1      34.491   8.378   0.602  1.00  0.00     0.211 HD
ENDBRANCH   4  11
TORSDOF 2
ENDMDL
MODEL 2
REMARK VINA RESULT:    -4.489      1.700      2.966
REMARK INTER + INTRA:          -5.087
REMARK INTER:                  -4.884
REMARK INTRA:                  -0.202
REMARK UNBOUND:                -0.205
REMARK SMILES CC(C)(C)[C@@H]1C=C[C@H](O)CC1
REMARK SMILES IDX 5 1 11 2 10 3 8 4 7 5 6 6 2 7 1 8 3 9 4 10 9 11
REMARK H PARENT 9 12
REMARK Flexibility Score: inf
ROOT
ATOM      1  C   UNL     1      34.356   8.877   4.125  1.00  0.00     0.017 C 
ATOM      2  C   UNL     1      34.969  10.232   4.600  1.00  0.00     0.011 C 
ATOM      3  C   UNL     1      34.718  11.426   3.637  1.00  0.00     0.037 C 
ATOM      4  C   UNL     1      33.739  11.099   2.494  1.00  0.00     0.137 C 
ATOM      5  C   UNL     1      34.150   9.806   1.846  1.00  0.00     0.000 C 
ATOM      6  C   UNL     1      34.466   8.757   2.614  1.00  0.00    -0.025 C 
ENDROOT
BRANCH   1   7
ATOM      7  C   UNL     1      34.896   7.614   4.900  1.00  0.00    -0.032 C 
ATOM      8  C   UNL     1      35.481   8.052   6.264  1.00  0.00     0.011 C 
ATOM      9  C   UNL     1      33.790   6.561   5.151  1.00  0.00     0.011 C 
ATOM     10  C   UNL     1      36.038   6.944   4.100  1.00  0.00     0.011 C 
ENDBRANCH   1   7
BRANCH   4  11
ATOM     11  O   UNL     1      33.746  12.125   1.537  1.00  0.00    -0.389 OA
ATOM     12  H   UNL     1      32.796  12.305   1.308  1.00  0.00     0.211 HD
ENDBRANCH   4  11
TORSDOF 2
ENDMDL
MODEL 3
REMARK VINA RESULT:    -4.482     14.319     16.228
REMARK INTER + INTRA:          -5.080
REMARK INTER:                  -4.881
REMARK INTRA:                  -0.199
REMARK UNBOUND:                -0.205
REMARK SMILES CC(C)(C)[C@@H]1C=C[C@H](O)CC1
REMARK SMILES IDX 5 1 11 2 10 3 8 4 7 5 6 6 2 7 1 8 3 9 4 10 9 11
REMARK H PARENT 9 12
REMARK Flexibility Score: inf
ROOT
ATOM      1  C   UNL     1      42.350   2.678  -8.255  1.00  0.00     0.017 C 
ATOM      2  C   UNL     1      43.496   2.720  -7.196  1.00  0.00     0.011 C 
ATOM      3  C   UNL     1      43.071   2.286  -5.766  1.00  0.00     0.037 C 
ATOM      4  C   UNL     1      41.648   1.699  -5.698  1.00  0.00     0.137 C 
ATOM      5  C   UNL     1      40.700   2.620  -6.416  1.00  0.00     0.000 C 
ATOM      6  C   UNL     1      41.038   3.105  -7.617  1.00  0.00    -0.025 C 
ENDROOT
BRANCH   1   7
ATOM      7  C   UNL     1      42.677   3.438  -9.596  1.00  0.00    -0.032 C 
ATOM      8  C   UNL     1      41.548   3.189 -10.624  1.00  0.00     0.011 C 
ATOM      9  C   UNL     1      42.828   4.964  -9.387  1.00  0.00     0.011 C 
ATOM     10  C   UNL     1      43.989   2.896 -10.210  1.00  0.00     0.011 C 
ENDBRANCH   1   7
BRANCH   4  11
ATOM     11  O   UNL     1      41.242   1.557  -4.364  1.00  0.00    -0.389 OA
ATOM     12  H   UNL     1      41.881   2.082  -3.815  1.00  0.00     0.211 HD
ENDBRANCH   4  11
TORSDOF 2
ENDMDL
MODEL 4
REMARK VINA RESULT:    -4.344     14.428     15.856
REMARK INTER + INTRA:          -4.929
REMARK INTER:                  -4.730
REMARK INTRA:                  -0.200
REMARK UNBOUND:                -0.205
REMARK SMILES CC(C)(C)[C@@H]1C=C[C@H](O)CC1
REMARK SMILES IDX 5 1 11 2 10 3 8 4 7 5 6 6 2 7 1 8 3 9 4 10 9 11
REMARK H PARENT 9 12
REMARK Flexibility Score: inf
ROOT
ATOM      1  C   UNL     1      40.861   2.229  -7.905  1.00  0.00     0.017 C 
ATOM      2  C   UNL     1      42.234   2.747  -8.436  1.00  0.00     0.011 C 
ATOM      3  C   UNL     1      43.432   2.502  -7.476  1.00  0.00     0.037 C 
ATOM      4  C   UNL     1      43.080   1.612  -6.269  1.00  0.00     0.137 C 
ATOM      5  C   UNL     1      41.818   2.121  -5.630  1.00  0.00     0.000 C 
ATOM      6  C   UNL     1      40.772   2.438  -6.403  1.00  0.00    -0.025 C 
ENDROOT
BRANCH   1   7
ATOM      7  C   UNL     1      39.612   2.777  -8.695  1.00  0.00    -0.032 C 
ATOM      8  C   UNL     1      38.655   1.609  -9.031  1.00  0.00     0.011 C 
ATOM      9  C   UNL     1      38.829   3.843  -7.891  1.00  0.00     0.011 C 
ATOM     10  C   UNL     1      40.061   3.407 -10.035  1.00  0.00     0.011 C 
ENDBRANCH   1   7
BRANCH   4  11
ATOM     11  O   UNL     1      44.121   1.630  -5.330  1.00  0.00    -0.389 OA
ATOM     12  H   UNL     1      43.804   2.178  -4.565  1.00  0.00     0.211 HD
ENDBRANCH   4  11
TORSDOF 2
ENDMDL
MODEL 5
REMARK VINA RESULT:    -4.273     14.622     15.833
REMARK INTER + INTRA:          -4.852
REMARK INTER:                  -4.649
REMARK INTRA:                  -0.203
REMARK UNBOUND:                -0.205
REMARK SMILES CC(C)(C)[C@@H]1C=C[C@H](O)CC1
REMARK SMILES IDX 5 1 11 2 10 3 8 4 7 5 6 6 2 7 1 8 3 9 4 10 9 11
REMARK H PARENT 9 12
REMARK Flexibility Score: inf
ROOT
ATOM      1  C   UNL     1      41.266   3.436  -7.856  1.00  0.00     0.017 C 
ATOM      2  C   UNL     1      40.688   2.647  -6.640  1.00  0.00     0.011 C 
ATOM      3  C   UNL     1      41.762   1.996  -5.723  1.00  0.00     0.037 C 
ATOM      4  C   UNL     1      43.202   2.421  -6.066  1.00  0.00     0.137 C 
ATOM      5  C   UNL     1      43.422   2.271  -7.546  1.00  0.00     0.000 C 
ATOM      6  C   UNL     1      42.497   2.729  -8.398  1.00  0.00    -0.025 C 
ENDROOT
BRANCH   1   7
ATOM      7  C   UNL     1      40.202   3.791  -8.963  1.00  0.00    -0.032 C 
ATOM      8  C   UNL     1      38.777   3.671  -8.373  1.00  0.00     0.011 C 
ATOM      9  C   UNL     1      40.388   5.223  -9.520  1.00  0.00     0.011 C 
ATOM     10  C   UNL     1      40.301   2.792 -10.140  1.00  0.00     0.011 C 
ENDBRANCH   1   7
BRANCH   4  11
ATOM     11  O   UNL     1      44.124   1.624  -5.373  1.00  0.00    -0.389 OA
ATOM     12  H   UNL     1      44.391   0.894  -5.991  1.00  0.00     0.211 HD
ENDBRANCH   4  11
TORSDOF 2
ENDMDL
MODEL 6
REMARK VINA RESULT:    -4.259      2.372      4.456
REMARK INTER + INTRA:          -4.837
REMARK INTER:                  -4.639
REMARK INTRA:                  -0.198
REMARK UNBOUND:                -0.205
REMARK SMILES CC(C)(C)[C@@H]1C=C[C@H](O)CC1
REMARK SMILES IDX 5 1 11 2 10 3 8 4 7 5 6 6 2 7 1 8 3 9 4 10 9 11
REMARK H PARENT 9 12
REMARK Flexibility Score: inf
ROOT
ATOM      1  C   UNL     1      34.197   9.730   3.763  1.00  0.00     0.017 C 
ATOM      2  C   UNL     1      35.059   8.433   3.658  1.00  0.00     0.011 C 
ATOM      3  C   UNL     1      35.720   7.987   4.993  1.00  0.00     0.037 C 
ATOM      4  C   UNL     1      35.240   8.790   6.216  1.00  0.00     0.137 C 
ATOM      5  C   UNL     1      35.314  10.260   5.903  1.00  0.00     0.000 C 
ATOM      6  C   UNL     1      34.843  10.707   4.733  1.00  0.00    -0.025 C 
ENDROOT
BRANCH   1   7
ATOM      7  C   UNL     1      33.822  10.374   2.374  1.00  0.00    -0.032 C 
ATOM      8  C   UNL     1      32.366  10.895   2.419  1.00  0.00     0.011 C 
ATOM      9  C   UNL     1      34.757  11.548   1.997  1.00  0.00     0.011 C 
ATOM     10  C   UNL     1      33.897   9.309   1.255  1.00  0.00     0.011 C 
ENDBRANCH   1   7
BRANCH   4  11
ATOM     11  O   UNL     1      36.041   8.508   7.331  1.00  0.00    -0.389 OA
ATOM     12  H   UNL     1      35.492   8.708   8.134  1.00  0.00     0.211 HD
ENDBRANCH   4  11
TORSDOF 2
ENDMDL
MODEL 7
REMARK VINA RESULT:    -4.259     14.270     15.712
REMARK INTER + INTRA:          -4.837
REMARK INTER:                  -4.634
REMARK INTRA:                  -0.203
REMARK UNBOUND:                -0.205
REMARK SMILES CC(C)(C)[C@@H]1C=C[C@H](O)CC1
REMARK SMILES IDX 5 1 11 2 10 3 8 4 7 5 6 6 2 7 1 8 3 9 4 10 9 11
REMARK H PARENT 9 12
REMARK Flexibility Score: inf
ROOT
ATOM      1  C   UNL     1      41.770   2.000  -7.377  1.00  0.00     0.017 C 
ATOM      2  C   UNL     1      40.437   2.798  -7.229  1.00  0.00     0.011 C 
ATOM      3  C   UNL     1      39.964   3.510  -8.527  1.00  0.00     0.037 C 
ATOM      4  C   UNL     1      40.787   3.131  -9.772  1.00  0.00     0.137 C 
ATOM      5  C   UNL     1      42.252   3.252  -9.452  1.00  0.00     0.000 C 
ATOM      6  C   UNL     1      42.718   2.739  -8.308  1.00  0.00    -0.025 C 
ENDROOT
BRANCH   1   7
ATOM      7  C   UNL     1      42.429   1.578  -6.009  1.00  0.00    -0.032 C 
ATOM      8  C   UNL     1      41.392   1.712  -4.869  1.00  0.00     0.011 C 
ATOM      9  C   UNL     1      42.954   0.122  -6.033  1.00  0.00     0.011 C 
ATOM     10  C   UNL     1      43.610   2.518  -5.672  1.00  0.00     0.011 C 
ENDBRANCH   1   7
BRANCH   4  11
ATOM     11  O   UNL     1      40.471   3.979 -10.844  1.00  0.00    -0.389 OA
ATOM     12  H   UNL     1      39.864   4.678 -10.483  1.00  0.00     0.211 HD
ENDBRANCH   4  11
TORSDOF 2
ENDMDL
MODEL 8
REMARK VINA RESULT:    -4.234      0.523      2.031
REMARK INTER + INTRA:          -4.809
REMARK INTER:                  -4.604
REMARK INTRA:                  -0.205
REMARK UNBOUND:                -0.205
REMARK SMILES CC(C)(C)[C@@H]1C=C[C@H](O)CC1
REMARK SMILES IDX 5 1 11 2 10 3 8 4 7 5 6 6 2 7 1 8 3 9 4 10 9 11
REMARK H PARENT 9 12
REMARK Flexibility Score: inf
ROOT
ATOM      1  C   UNL     1      35.411  10.388   4.249  1.00  0.00     0.017 C 
ATOM      2  C   UNL     1      35.321   8.839   4.074  1.00  0.00     0.011 C 
ATOM      3  C   UNL     1      34.653   8.377   2.748  1.00  0.00     0.037 C 
ATOM      4  C   UNL     1      34.388   9.528   1.759  1.00  0.00     0.137 C 
ATOM      5  C   UNL     1      33.703  10.654   2.484  1.00  0.00     0.000 C 
ATOM      6  C   UNL     1      34.169  11.049   3.674  1.00  0.00    -0.025 C 
ENDROOT
BRANCH   1   7
ATOM      7  C   UNL     1      35.756  10.856   5.714  1.00  0.00    -0.032 C 
ATOM      8  C   UNL     1      35.355   9.752   6.721  1.00  0.00     0.011 C 
ATOM      9  C   UNL     1      37.261  11.167   5.893  1.00  0.00     0.011 C 
ATOM     10  C   UNL     1      34.947  12.125   6.074  1.00  0.00     0.011 C 
ENDBRANCH   1   7
BRANCH   4  11
ATOM     11  O   UNL     1      33.576   9.087   0.704  1.00  0.00    -0.389 OA
ATOM     12  H   UNL     1      34.170   8.973  -0.083  1.00  0.00     0.211 HD
ENDBRANCH   4  11
TORSDOF 2
ENDMDL
MODEL 9
REMARK VINA RESULT:    -2.440      1.775      3.120
REMARK INTER + INTRA:          -2.859
REMARK INTER:                  -2.660
REMARK INTRA:                  -0.198
REMARK UNBOUND:                -0.205
REMARK SMILES CC(C)(C)[C@@H]1C=C[C@H](O)CC1
REMARK SMILES IDX 5 1 11 2 10 3 8 4 7 5 6 6 2 7 1 8 3 9 4 10 9 11
REMARK H PARENT 9 12
REMARK Flexibility Score: inf
ROOT
ATOM      1  C   UNL     1      35.378   8.748   3.762  1.00  0.00     0.017 C 
ATOM      2  C   UNL     1      34.512   8.447   2.498  1.00  0.00     0.011 C 
ATOM      3  C   UNL     1      34.000   9.709   1.750  1.00  0.00     0.037 C 
ATOM      4  C   UNL     1      34.608  11.024   2.273  1.00  0.00     0.137 C 
ATOM      5  C   UNL     1      34.498  11.057   3.773  1.00  0.00     0.000 C 
ATOM      6  C   UNL     1      34.839   9.974   4.481  1.00  0.00    -0.025 C 
ENDROOT
BRANCH   1   7
ATOM      7  C   UNL     1      35.600   7.507   4.707  1.00  0.00    -0.032 C 
ATOM      8  C   UNL     1      36.283   7.966   6.017  1.00  0.00     0.011 C 
ATOM      9  C   UNL     1      34.274   6.793   5.064  1.00  0.00     0.011 C 
ATOM     10  C   UNL     1      36.541   6.482   4.030  1.00  0.00     0.011 C 
ENDBRANCH   1   7
BRANCH   4  11
ATOM     11  O   UNL     1      33.932  12.125   1.730  1.00  0.00    -0.389 OA
ATOM     12  H   UNL     1      32.961  11.946   1.842  1.00  0.00     0.211 HD
ENDBRANCH   4  11
TORSDOF 2
ENDMDL
