MODEL 1
REMARK VINA RESULT:    -3.244      0.000      0.000
REMARK INTER + INTRA:         -12.275
REMARK INTER:                  -8.174
REMARK INTRA:                  -4.101
REMARK UNBOUND:                -4.101
REMARK SMILES CCCCCCCCCCCCCCCCCCCCCCCCCCCC(=O)[O-]
REMARK SMILES IDX 15 1 16 2 17 3 18 4 19 5 20 6 21 7 22 8 23 9 24 10 25 11
REMARK SMILES IDX 26 12 27 13 28 14 29 15 30 16 14 17 13 18 12 19 11 20 10 21
REMARK SMILES IDX 9 22 8 23 7 24 6 25 5 26 4 27 3 28 2 29 1 30
REMARK H PARENT
REMARK Flexibility Score: inf
ROOT
ATOM      1  C   UNL     1     -11.718 -20.897  18.484  1.00  0.00     0.000 C 
ENDROOT
BRANCH   1   2
ATOM      2  C   UNL     1     -11.453 -19.621  17.670  1.00  0.00     0.000 C 
BRANCH   2   3
ATOM      3  C   UNL     1     -12.082 -18.374  18.307  1.00  0.00     0.000 C 
BRANCH   3   4
ATOM      4  C   UNL     1     -11.057 -17.583  19.133  1.00  0.00     0.000 C 
BRANCH   4   5
ATOM      5  C   UNL     1     -11.211 -17.801  20.653  1.00  0.00     0.000 C 
BRANCH   5   6
ATOM      6  C   UNL     1     -12.661 -17.944  21.152  1.00  0.00     0.000 C 
BRANCH   6   7
ATOM      7  C   UNL     1     -12.758 -18.574  22.549  1.00  0.00     0.000 C 
BRANCH   7   8
ATOM      8  C   UNL     1     -11.516 -19.401  22.920  1.00  0.00     0.000 C 
BRANCH   8   9
ATOM      9  C   UNL     1     -11.732 -20.365  24.106  1.00  0.00     0.000 C 
BRANCH   9  10
ATOM     10  C   UNL     1     -13.218 -20.501  24.488  1.00  0.00     0.000 C 
BRANCH  10  11
ATOM     11  C   UNL     1     -13.426 -21.094  25.892  1.00  0.00     0.000 C 
BRANCH  11  12
ATOM     12  C   UNL     1     -14.067 -20.137  26.919  1.00  0.00     0.006 C 
BRANCH  12  13
ATOM     13  C   UNL     1     -13.118 -19.058  27.467  1.00  0.00     0.053 C 
BRANCH  13  14
ATOM     14  C   UNL     1     -13.301 -17.739  26.777  1.00  0.00     0.041 C 
ATOM     15  O   UNL     1     -14.346 -17.063  26.976  1.00  0.00    -0.550 OA
ATOM     16  O   UNL     1     -12.340 -17.279  25.885  1.00  0.00    -0.550 OA
ENDBRANCH  13  14
ENDBRANCH  12  13
ENDBRANCH  11  12
ENDBRANCH  10  11
ENDBRANCH   9  10
ENDBRANCH   8   9
ENDBRANCH   7   8
ENDBRANCH   6   7
ENDBRANCH   5   6
ENDBRANCH   4   5
ENDBRANCH   3   4
ENDBRANCH   2   3
ENDBRANCH   1   2
BRANCH   1  17
ATOM     17  C   UNL     1     -13.195 -21.042  18.895  1.00  0.00     0.000 C 
BRANCH  17  18
ATOM     18  C   UNL     1     -13.362 -21.478  20.360  1.00  0.00     0.000 C 
BRANCH  18  19
ATOM     19  C   UNL     1     -13.014 -22.962  20.577  1.00  0.00     0.000 C 
BRANCH  19  20
ATOM     20  C   UNL     1     -12.561 -23.259  22.021  1.00  0.00     0.000 C 
BRANCH  20  21
ATOM     21  C   UNL     1     -13.657 -23.885  22.906  1.00  0.00     0.000 C 
BRANCH  21  22
ATOM     22  C   UNL     1     -14.947 -23.058  23.036  1.00  0.00    -0.000 C 
BRANCH  22  23
ATOM     23  C   UNL     1     -15.865 -23.560  24.165  1.00  0.00    -0.000 C 
BRANCH  23  24
ATOM     24  C   UNL     1     -16.796 -22.461  24.712  1.00  0.00    -0.000 C 
BRANCH  24  25
ATOM     25  C   UNL     1     -17.097 -22.546  26.223  1.00  0.00    -0.000 C 
BRANCH  25  26
ATOM     26  C   UNL     1     -18.552 -22.904  26.580  1.00  0.00    -0.000 C 
BRANCH  26  27
ATOM     27  C   UNL     1     -19.062 -24.145  25.829  1.00  0.00    -0.000 C 
BRANCH  27  28
ATOM     28  C   UNL     1     -18.755 -25.452  26.576  1.00  0.00    -0.000 C 
BRANCH  28  29
ATOM     29  C   UNL     1     -17.783 -26.354  25.803  1.00  0.00    -0.003 C 
ATOM     30  C   UNL     1     -18.096 -26.346  24.308  1.00  0.00     0.004 C 
ENDBRANCH  28  29
ENDBRANCH  27  28
ENDBRANCH  26  27
ENDBRANCH  25  26
ENDBRANCH  24  25
ENDBRANCH  23  24
ENDBRANCH  22  23
ENDBRANCH  21  22
ENDBRANCH  20  21
ENDBRANCH  19  20
ENDBRANCH  18  19
ENDBRANCH  17  18
ENDBRANCH   1  17
TORSDOF 26
ENDMDL
MODEL 2
REMARK VINA RESULT:    -3.229      2.565      7.115
REMARK INTER + INTRA:         -12.237
REMARK INTER:                  -7.331
REMARK INTRA:                  -4.906
REMARK UNBOUND:                -4.101
REMARK SMILES CCCCCCCCCCCCCCCCCCCCCCCCCCCC(=O)[O-]
REMARK SMILES IDX 15 1 16 2 17 3 18 4 19 5 20 6 21 7 22 8 23 9 24 10 25 11
REMARK SMILES IDX 26 12 27 13 28 14 29 15 30 16 14 17 13 18 12 19 11 20 10 21
REMARK SMILES IDX 9 22 8 23 7 24 6 25 5 26 4 27 3 28 2 29 1 30
REMARK H PARENT
REMARK Flexibility Score: inf
ROOT
ATOM      1  C   UNL     1     -18.063 -22.124  26.484  1.00  0.00     0.000 C 
ENDROOT
BRANCH   1   2
ATOM      2  C   UNL     1     -16.808 -21.600  27.200  1.00  0.00     0.000 C 
BRANCH   2   3
ATOM      3  C   UNL     1     -15.900 -22.731  27.701  1.00  0.00     0.000 C 
BRANCH   3   4
ATOM      4  C   UNL     1     -14.437 -22.275  27.808  1.00  0.00     0.000 C 
BRANCH   4   5
ATOM      5  C   UNL     1     -14.258 -20.761  27.575  1.00  0.00     0.000 C 
BRANCH   5   6
ATOM      6  C   UNL     1     -12.934 -20.352  26.904  1.00  0.00     0.000 C 
BRANCH   6   7
ATOM      7  C   UNL     1     -12.784 -18.831  26.744  1.00  0.00     0.000 C 
BRANCH   7   8
ATOM      8  C   UNL     1     -12.904 -18.369  25.282  1.00  0.00     0.000 C 
BRANCH   8   9
ATOM      9  C   UNL     1     -11.573 -17.894  24.661  1.00  0.00     0.000 C 
BRANCH   9  10
ATOM     10  C   UNL     1     -11.487 -18.199  23.154  1.00  0.00     0.000 C 
BRANCH  10  11
ATOM     11  C   UNL     1     -12.593 -17.507  22.338  1.00  0.00     0.000 C 
BRANCH  11  12
ATOM     12  C   UNL     1     -12.826 -18.087  20.927  1.00  0.00     0.006 C 
BRANCH  12  13
ATOM     13  C   UNL     1     -11.565 -18.649  20.249  1.00  0.00     0.053 C 
BRANCH  13  14
ATOM     14  C   UNL     1     -11.727 -18.768  18.764  1.00  0.00     0.041 C 
ATOM     15  O   UNL     1     -12.288 -17.846  18.114  1.00  0.00    -0.550 OA
ATOM     16  O   UNL     1     -11.297 -19.914  18.105  1.00  0.00    -0.550 OA
ENDBRANCH  13  14
ENDBRANCH  12  13
ENDBRANCH  11  12
ENDBRANCH  10  11
ENDBRANCH   9  10
ENDBRANCH   8   9
ENDBRANCH   7   8
ENDBRANCH   6   7
ENDBRANCH   5   6
ENDBRANCH   4   5
ENDBRANCH   3   4
ENDBRANCH   2   3
ENDBRANCH   1   2
BRANCH   1  17
ATOM     17  C   UNL     1     -18.242 -23.645  26.639  1.00  0.00     0.000 C 
BRANCH  17  18
ATOM     18  C   UNL     1     -18.877 -24.296  25.399  1.00  0.00     0.000 C 
BRANCH  18  19
ATOM     19  C   UNL     1     -17.977 -24.195  24.154  1.00  0.00     0.000 C 
BRANCH  19  20
ATOM     20  C   UNL     1     -16.737 -25.108  24.246  1.00  0.00     0.000 C 
BRANCH  20  21
ATOM     21  C   UNL     1     -15.397 -24.345  24.268  1.00  0.00     0.000 C 
BRANCH  21  22
ATOM     22  C   UNL     1     -15.387 -23.014  23.497  1.00  0.00    -0.000 C 
BRANCH  22  23
ATOM     23  C   UNL     1     -14.440 -21.973  24.118  1.00  0.00    -0.000 C 
BRANCH  23  24
ATOM     24  C   UNL     1     -13.504 -21.322  23.081  1.00  0.00    -0.000 C 
BRANCH  24  25
ATOM     25  C   UNL     1     -14.056 -21.268  21.641  1.00  0.00    -0.000 C 
BRANCH  25  26
ATOM     26  C   UNL     1     -13.134 -21.872  20.565  1.00  0.00    -0.000 C 
BRANCH  26  27
ATOM     27  C   UNL     1     -12.228 -22.987  21.116  1.00  0.00    -0.000 C 
BRANCH  27  28
ATOM     28  C   UNL     1     -12.825 -24.387  20.905  1.00  0.00    -0.000 C 
BRANCH  28  29
ATOM     29  C   UNL     1     -12.596 -25.308  22.112  1.00  0.00    -0.003 C 
ATOM     30  C   UNL     1     -11.725 -24.627  23.166  1.00  0.00     0.004 C 
ENDBRANCH  28  29
ENDBRANCH  27  28
ENDBRANCH  26  27
ENDBRANCH  25  26
ENDBRANCH  24  25
ENDBRANCH  23  24
ENDBRANCH  22  23
ENDBRANCH  21  22
ENDBRANCH  20  21
ENDBRANCH  19  20
ENDBRANCH  18  19
ENDBRANCH  17  18
ENDBRANCH   1  17
TORSDOF 26
ENDMDL
MODEL 3
REMARK VINA RESULT:    -3.226      2.880      5.752
REMARK INTER + INTRA:         -12.229
REMARK INTER:                  -7.266
REMARK INTRA:                  -4.963
REMARK UNBOUND:                -4.101
REMARK SMILES CCCCCCCCCCCCCCCCCCCCCCCCCCCC(=O)[O-]
REMARK SMILES IDX 15 1 16 2 17 3 18 4 19 5 20 6 21 7 22 8 23 9 24 10 25 11
REMARK SMILES IDX 26 12 27 13 28 14 29 15 30 16 14 17 13 18 12 19 11 20 10 21
REMARK SMILES IDX 9 22 8 23 7 24 6 25 5 26 4 27 3 28 2 29 1 30
REMARK H PARENT
REMARK Flexibility Score: inf
ROOT
ATOM      1  C   UNL     1     -12.851 -18.713  22.644  1.00  0.00     0.000 C 
ENDROOT
BRANCH   1   2
ATOM      2  C   UNL     1     -12.725 -18.019  21.279  1.00  0.00     0.000 C 
BRANCH   2   3
ATOM      3  C   UNL     1     -11.277 -17.975  20.771  1.00  0.00     0.000 C 
BRANCH   3   4
ATOM      4  C   UNL     1     -11.210 -17.578  19.289  1.00  0.00     0.000 C 
BRANCH   4   5
ATOM      5  C   UNL     1     -12.103 -18.456  18.388  1.00  0.00     0.000 C 
BRANCH   5   6
ATOM      6  C   UNL     1     -11.368 -19.569  17.619  1.00  0.00     0.000 C 
BRANCH   6   7
ATOM      7  C   UNL     1     -11.615 -20.968  18.202  1.00  0.00     0.000 C 
BRANCH   7   8
ATOM      8  C   UNL     1     -13.051 -21.154  18.722  1.00  0.00     0.000 C 
BRANCH   8   9
ATOM      9  C   UNL     1     -13.132 -21.593  20.200  1.00  0.00     0.000 C 
BRANCH   9  10
ATOM     10  C   UNL     1     -11.745 -21.681  20.863  1.00  0.00     0.000 C 
BRANCH  10  11
ATOM     11  C   UNL     1     -11.344 -23.121  21.227  1.00  0.00     0.000 C 
BRANCH  11  12
ATOM     12  C   UNL     1     -12.003 -24.221  20.369  1.00  0.00     0.006 C 
BRANCH  12  13
ATOM     13  C   UNL     1     -12.897 -25.195  21.155  1.00  0.00     0.053 C 
BRANCH  13  14
ATOM     14  C   UNL     1     -12.100 -26.240  21.875  1.00  0.00     0.041 C 
ATOM     15  O   UNL     1     -12.021 -26.217  23.133  1.00  0.00    -0.550 OA
ATOM     16  O   UNL     1     -11.414 -27.212  21.158  1.00  0.00    -0.550 OA
ENDBRANCH  13  14
ENDBRANCH  12  13
ENDBRANCH  11  12
ENDBRANCH  10  11
ENDBRANCH   9  10
ENDBRANCH   8   9
ENDBRANCH   7   8
ENDBRANCH   6   7
ENDBRANCH   5   6
ENDBRANCH   4   5
ENDBRANCH   3   4
ENDBRANCH   2   3
ENDBRANCH   1   2
BRANCH   1  17
ATOM     17  C   UNL     1     -11.507 -18.804  23.389  1.00  0.00     0.000 C 
BRANCH  17  18
ATOM     18  C   UNL     1     -11.599 -18.302  24.839  1.00  0.00     0.000 C 
BRANCH  18  19
ATOM     19  C   UNL     1     -13.053 -18.064  25.290  1.00  0.00     0.000 C 
BRANCH  19  20
ATOM     20  C   UNL     1     -13.228 -18.201  26.816  1.00  0.00     0.000 C 
BRANCH  20  21
ATOM     21  C   UNL     1     -13.310 -19.659  27.310  1.00  0.00     0.000 C 
BRANCH  21  22
ATOM     22  C   UNL     1     -13.941 -20.652  26.320  1.00  0.00    -0.000 C 
BRANCH  22  23
ATOM     23  C   UNL     1     -13.018 -21.841  25.999  1.00  0.00    -0.000 C 
BRANCH  23  24
ATOM     24  C   UNL     1     -12.942 -22.148  24.491  1.00  0.00    -0.000 C 
BRANCH  24  25
ATOM     25  C   UNL     1     -14.255 -21.935  23.710  1.00  0.00    -0.000 C 
BRANCH  25  26
ATOM     26  C   UNL     1     -15.015 -23.224  23.346  1.00  0.00    -0.000 C 
BRANCH  26  27
ATOM     27  C   UNL     1     -16.517 -23.141  23.664  1.00  0.00    -0.000 C 
BRANCH  27  28
ATOM     28  C   UNL     1     -16.812 -23.319  25.161  1.00  0.00    -0.000 C 
BRANCH  28  29
ATOM     29  C   UNL     1     -17.387 -22.047  25.799  1.00  0.00    -0.003 C 
ATOM     30  C   UNL     1     -18.445 -22.388  26.847  1.00  0.00     0.004 C 
ENDBRANCH  28  29
ENDBRANCH  27  28
ENDBRANCH  26  27
ENDBRANCH  25  26
ENDBRANCH  24  25
ENDBRANCH  23  24
ENDBRANCH  22  23
ENDBRANCH  21  22
ENDBRANCH  20  21
ENDBRANCH  19  20
ENDBRANCH  18  19
ENDBRANCH  17  18
ENDBRANCH   1  17
TORSDOF 26
ENDMDL
MODEL 4
REMARK VINA RESULT:    -3.175      2.392      6.869
REMARK INTER + INTRA:         -12.101
REMARK INTER:                  -6.589
REMARK INTRA:                  -5.511
REMARK UNBOUND:                -4.101
REMARK SMILES CCCCCCCCCCCCCCCCCCCCCCCCCCCC(=O)[O-]
REMARK SMILES IDX 15 1 16 2 17 3 18 4 19 5 20 6 21 7 22 8 23 9 24 10 25 11
REMARK SMILES IDX 26 12 27 13 28 14 29 15 30 16 14 17 13 18 12 19 11 20 10 21
REMARK SMILES IDX 9 22 8 23 7 24 6 25 5 26 4 27 3 28 2 29 1 30
REMARK H PARENT
REMARK Flexibility Score: inf
ROOT
ATOM      1  C   UNL     1     -16.787 -22.497  25.018  1.00  0.00     0.000 C 
ENDROOT
BRANCH   1   2
ATOM      2  C   UNL     1     -18.032 -22.408  25.914  1.00  0.00     0.000 C 
BRANCH   2   3
ATOM      3  C   UNL     1     -17.704 -21.915  27.331  1.00  0.00     0.000 C 
BRANCH   3   4
ATOM      4  C   UNL     1     -16.259 -22.253  27.726  1.00  0.00     0.000 C 
BRANCH   4   5
ATOM      5  C   UNL     1     -15.426 -21.006  28.090  1.00  0.00     0.000 C 
BRANCH   5   6
ATOM      6  C   UNL     1     -14.251 -20.703  27.142  1.00  0.00     0.000 C 
BRANCH   6   7
ATOM      7  C   UNL     1     -13.279 -21.883  26.991  1.00  0.00     0.000 C 
BRANCH   7   8
ATOM      8  C   UNL     1     -12.958 -22.211  25.523  1.00  0.00     0.000 C 
BRANCH   8   9
ATOM      9  C   UNL     1     -13.475 -21.160  24.516  1.00  0.00     0.000 C 
BRANCH   9  10
ATOM     10  C   UNL     1     -12.939 -21.399  23.093  1.00  0.00     0.000 C 
BRANCH  10  11
ATOM     11  C   UNL     1     -14.050 -21.426  22.029  1.00  0.00     0.000 C 
BRANCH  11  12
ATOM     12  C   UNL     1     -13.748 -20.624  20.746  1.00  0.00     0.006 C 
BRANCH  12  13
ATOM     13  C   UNL     1     -13.143 -19.231  20.989  1.00  0.00     0.053 C 
BRANCH  13  14
ATOM     14  C   UNL     1     -12.390 -18.725  19.796  1.00  0.00     0.041 C 
ATOM     15  O   UNL     1     -12.436 -19.357  18.706  1.00  0.00    -0.550 OA
ATOM     16  O   UNL     1     -11.608 -17.581  19.898  1.00  0.00    -0.550 OA
ENDBRANCH  13  14
ENDBRANCH  12  13
ENDBRANCH  11  12
ENDBRANCH  10  11
ENDBRANCH   9  10
ENDBRANCH   8   9
ENDBRANCH   7   8
ENDBRANCH   6   7
ENDBRANCH   5   6
ENDBRANCH   4   5
ENDBRANCH   3   4
ENDBRANCH   2   3
ENDBRANCH   1   2
BRANCH   1  17
ATOM     17  C   UNL     1     -16.978 -23.458  23.831  1.00  0.00     0.000 C 
BRANCH  17  18
ATOM     18  C   UNL     1     -18.229 -24.339  23.978  1.00  0.00     0.000 C 
BRANCH  18  19
ATOM     19  C   UNL     1     -17.949 -25.819  23.658  1.00  0.00     0.000 C 
BRANCH  19  20
ATOM     20  C   UNL     1     -18.090 -26.729  24.896  1.00  0.00     0.000 C 
BRANCH  20  21
ATOM     21  C   UNL     1     -18.543 -25.988  26.170  1.00  0.00     0.000 C 
BRANCH  21  22
ATOM     22  C   UNL     1     -17.476 -25.862  27.271  1.00  0.00    -0.000 C 
BRANCH  22  23
ATOM     23  C   UNL     1     -16.111 -26.429  26.843  1.00  0.00    -0.000 C 
BRANCH  23  24
ATOM     24  C   UNL     1     -15.051 -25.332  26.622  1.00  0.00    -0.000 C 
BRANCH  24  25
ATOM     25  C   UNL     1     -13.893 -25.718  25.678  1.00  0.00    -0.000 C 
BRANCH  25  26
ATOM     26  C   UNL     1     -14.314 -26.079  24.241  1.00  0.00    -0.000 C 
BRANCH  26  27
ATOM     27  C   UNL     1     -13.962 -24.982  23.223  1.00  0.00    -0.000 C 
BRANCH  27  28
ATOM     28  C   UNL     1     -13.230 -25.535  21.991  1.00  0.00    -0.000 C 
BRANCH  28  29
ATOM     29  C   UNL     1     -12.037 -24.662  21.578  1.00  0.00    -0.003 C 
ATOM     30  C   UNL     1     -12.233 -24.091  20.175  1.00  0.00     0.004 C 
ENDBRANCH  28  29
ENDBRANCH  27  28
ENDBRANCH  26  27
ENDBRANCH  25  26
ENDBRANCH  24  25
ENDBRANCH  23  24
ENDBRANCH  22  23
ENDBRANCH  21  22
ENDBRANCH  20  21
ENDBRANCH  19  20
ENDBRANCH  18  19
ENDBRANCH  17  18
ENDBRANCH   1  17
TORSDOF 26
ENDMDL
MODEL 5
REMARK VINA RESULT:    -3.159      3.292      6.669
REMARK INTER + INTRA:         -12.061
REMARK INTER:                  -8.245
REMARK INTRA:                  -3.816
REMARK UNBOUND:                -4.101
REMARK SMILES CCCCCCCCCCCCCCCCCCCCCCCCCCCC(=O)[O-]
REMARK SMILES IDX 15 1 16 2 17 3 18 4 19 5 20 6 21 7 22 8 23 9 24 10 25 11
REMARK SMILES IDX 26 12 27 13 28 14 29 15 30 16 14 17 13 18 12 19 11 20 10 21
REMARK SMILES IDX 9 22 8 23 7 24 6 25 5 26 4 27 3 28 2 29 1 30
REMARK H PARENT
REMARK Flexibility Score: inf
ROOT
ATOM      1  C   UNL     1     -12.053 -21.334  23.552  1.00  0.00     0.000 C 
ENDROOT
BRANCH   1   2
ATOM      2  C   UNL     1     -13.486 -20.989  23.119  1.00  0.00     0.000 C 
BRANCH   2   3
ATOM      3  C   UNL     1     -14.135 -22.104  22.286  1.00  0.00     0.000 C 
BRANCH   3   4
ATOM      4  C   UNL     1     -13.123 -23.204  21.930  1.00  0.00     0.000 C 
BRANCH   4   5
ATOM      5  C   UNL     1     -12.816 -23.274  20.420  1.00  0.00     0.000 C 
BRANCH   5   6
ATOM      6  C   UNL     1     -12.233 -21.986  19.808  1.00  0.00     0.000 C 
BRANCH   6   7
ATOM      7  C   UNL     1     -13.224 -21.253  18.892  1.00  0.00     0.000 C 
BRANCH   7   8
ATOM      8  C   UNL     1     -13.476 -19.799  19.326  1.00  0.00     0.000 C 
BRANCH   8   9
ATOM      9  C   UNL     1     -12.324 -19.178  20.145  1.00  0.00     0.000 C 
BRANCH   9  10
ATOM     10  C   UNL     1     -11.558 -18.101  19.355  1.00  0.00     0.000 C 
BRANCH  10  11
ATOM     11  C   UNL     1     -12.057 -17.948  17.908  1.00  0.00     0.000 C 
BRANCH  11  12
ATOM     12  C   UNL     1     -11.314 -16.888  17.067  1.00  0.00     0.006 C 
BRANCH  12  13
ATOM     13  C   UNL     1     -11.719 -16.851  15.584  1.00  0.00     0.053 C 
BRANCH  13  14
ATOM     14  C   UNL     1     -11.991 -15.456  15.106  1.00  0.00     0.041 C 
ATOM     15  O   UNL     1     -12.467 -15.264  13.955  1.00  0.00    -0.550 OA
ATOM     16  O   UNL     1     -11.682 -14.369  15.915  1.00  0.00    -0.550 OA
ENDBRANCH  13  14
ENDBRANCH  12  13
ENDBRANCH  11  12
ENDBRANCH  10  11
ENDBRANCH   9  10
ENDBRANCH   8   9
ENDBRANCH   7   8
ENDBRANCH   6   7
ENDBRANCH   5   6
ENDBRANCH   4   5
ENDBRANCH   3   4
ENDBRANCH   2   3
ENDBRANCH   1   2
BRANCH   1  17
ATOM     17  C   UNL     1     -11.115 -20.114  23.522  1.00  0.00     0.000 C 
BRANCH  17  18
ATOM     18  C   UNL     1     -11.119 -19.331  24.844  1.00  0.00     0.000 C 
BRANCH  18  19
ATOM     19  C   UNL     1     -11.981 -18.057  24.772  1.00  0.00     0.000 C 
BRANCH  19  20
ATOM     20  C   UNL     1     -13.148 -18.074  25.781  1.00  0.00     0.000 C 
BRANCH  20  21
ATOM     21  C   UNL     1     -13.019 -19.158  26.870  1.00  0.00     0.000 C 
BRANCH  21  22
ATOM     22  C   UNL     1     -14.269 -19.362  27.742  1.00  0.00    -0.000 C 
BRANCH  22  23
ATOM     23  C   UNL     1     -14.726 -20.831  27.793  1.00  0.00    -0.000 C 
BRANCH  23  24
ATOM     24  C   UNL     1     -13.994 -21.719  26.767  1.00  0.00    -0.000 C 
BRANCH  24  25
ATOM     25  C   UNL     1     -14.900 -22.673  25.960  1.00  0.00    -0.000 C 
BRANCH  25  26
ATOM     26  C   UNL     1     -16.250 -22.075  25.521  1.00  0.00    -0.000 C 
BRANCH  26  27
ATOM     27  C   UNL     1     -16.958 -22.923  24.451  1.00  0.00    -0.000 C 
BRANCH  27  28
ATOM     28  C   UNL     1     -16.797 -24.432  24.695  1.00  0.00    -0.000 C 
BRANCH  28  29
ATOM     29  C   UNL     1     -18.146 -25.144  24.862  1.00  0.00    -0.003 C 
ATOM     30  C   UNL     1     -19.027 -24.423  25.881  1.00  0.00     0.004 C 
ENDBRANCH  28  29
ENDBRANCH  27  28
ENDBRANCH  26  27
ENDBRANCH  25  26
ENDBRANCH  24  25
ENDBRANCH  23  24
ENDBRANCH  22  23
ENDBRANCH  21  22
ENDBRANCH  20  21
ENDBRANCH  19  20
ENDBRANCH  18  19
ENDBRANCH  17  18
ENDBRANCH   1  17
TORSDOF 26
ENDMDL
MODEL 6
REMARK VINA RESULT:    -3.156      1.544      4.197
REMARK INTER + INTRA:         -12.054
REMARK INTER:                  -6.808
REMARK INTRA:                  -5.246
REMARK UNBOUND:                -4.101
REMARK SMILES CCCCCCCCCCCCCCCCCCCCCCCCCCCC(=O)[O-]
REMARK SMILES IDX 15 1 16 2 17 3 18 4 19 5 20 6 21 7 22 8 23 9 24 10 25 11
REMARK SMILES IDX 26 12 27 13 28 14 29 15 30 16 14 17 13 18 12 19 11 20 10 21
REMARK SMILES IDX 9 22 8 23 7 24 6 25 5 26 4 27 3 28 2 29 1 30
REMARK H PARENT
REMARK Flexibility Score: inf
ROOT
ATOM      1  C   UNL     1     -14.720 -22.848  23.133  1.00  0.00     0.000 C 
ENDROOT
BRANCH   1   2
ATOM      2  C   UNL     1     -13.867 -21.847  22.338  1.00  0.00     0.000 C 
BRANCH   2   3
ATOM      3  C   UNL     1     -12.396 -22.274  22.240  1.00  0.00     0.000 C 
BRANCH   3   4
ATOM      4  C   UNL     1     -11.933 -22.374  20.779  1.00  0.00     0.000 C 
BRANCH   4   5
ATOM      5  C   UNL     1     -13.089 -22.657  19.798  1.00  0.00     0.000 C 
BRANCH   5   6
ATOM      6  C   UNL     1     -13.339 -21.561  18.744  1.00  0.00     0.000 C 
BRANCH   6   7
ATOM      7  C   UNL     1     -12.075 -20.758  18.400  1.00  0.00     0.000 C 
BRANCH   7   8
ATOM      8  C   UNL     1     -12.226 -19.254  18.688  1.00  0.00     0.000 C 
BRANCH   8   9
ATOM      9  C   UNL     1     -13.250 -18.925  19.795  1.00  0.00     0.000 C 
BRANCH   9  10
ATOM     10  C   UNL     1     -12.632 -18.100  20.939  1.00  0.00     0.000 C 
BRANCH  10  11
ATOM     11  C   UNL     1     -11.508 -18.847  21.678  1.00  0.00     0.000 C 
BRANCH  11  12
ATOM     12  C   UNL     1     -11.329 -18.459  23.161  1.00  0.00     0.006 C 
BRANCH  12  13
ATOM     13  C   UNL     1     -12.587 -18.640  24.027  1.00  0.00     0.053 C 
BRANCH  13  14
ATOM     14  C   UNL     1     -12.521 -17.842  25.294  1.00  0.00     0.041 C 
ATOM     15  O   UNL     1     -13.560 -17.676  25.989  1.00  0.00    -0.550 OA
ATOM     16  O   UNL     1     -11.327 -17.250  25.685  1.00  0.00    -0.550 OA
ENDBRANCH  13  14
ENDBRANCH  12  13
ENDBRANCH  11  12
ENDBRANCH  10  11
ENDBRANCH   9  10
ENDBRANCH   8   9
ENDBRANCH   7   8
ENDBRANCH   6   7
ENDBRANCH   5   6
ENDBRANCH   4   5
ENDBRANCH   3   4
ENDBRANCH   2   3
ENDBRANCH   1   2
BRANCH   1  17
ATOM     17  C   UNL     1     -14.028 -24.213  23.302  1.00  0.00     0.000 C 
BRANCH  17  18
ATOM     18  C   UNL     1     -14.512 -24.971  24.549  1.00  0.00     0.000 C 
BRANCH  18  19
ATOM     19  C   UNL     1     -13.503 -24.902  25.710  1.00  0.00     0.000 C 
BRANCH  19  20
ATOM     20  C   UNL     1     -12.131 -24.351  25.270  1.00  0.00     0.000 C 
BRANCH  20  21
ATOM     21  C   UNL     1     -11.665 -23.118  26.069  1.00  0.00     0.000 C 
BRANCH  21  22
ATOM     22  C   UNL     1     -12.529 -21.858  25.895  1.00  0.00    -0.000 C 
BRANCH  22  23
ATOM     23  C   UNL     1     -13.283 -21.471  27.179  1.00  0.00    -0.000 C 
BRANCH  23  24
ATOM     24  C   UNL     1     -14.639 -20.795  26.895  1.00  0.00    -0.000 C 
BRANCH  24  25
ATOM     25  C   UNL     1     -15.847 -21.412  27.632  1.00  0.00    -0.000 C 
BRANCH  25  26
ATOM     26  C   UNL     1     -15.785 -22.939  27.823  1.00  0.00    -0.000 C 
BRANCH  26  27
ATOM     27  C   UNL     1     -16.985 -23.667  27.193  1.00  0.00    -0.000 C 
BRANCH  27  28
ATOM     28  C   UNL     1     -17.317 -23.146  25.787  1.00  0.00    -0.000 C 
BRANCH  28  29
ATOM     29  C   UNL     1     -18.480 -23.911  25.139  1.00  0.00    -0.003 C 
ATOM     30  C   UNL     1     -18.112 -24.386  23.735  1.00  0.00     0.004 C 
ENDBRANCH  28  29
ENDBRANCH  27  28
ENDBRANCH  26  27
ENDBRANCH  25  26
ENDBRANCH  24  25
ENDBRANCH  23  24
ENDBRANCH  22  23
ENDBRANCH  21  22
ENDBRANCH  20  21
ENDBRANCH  19  20
ENDBRANCH  18  19
ENDBRANCH  17  18
ENDBRANCH   1  17
TORSDOF 26
ENDMDL
MODEL 7
REMARK VINA RESULT:    -3.108      2.441      4.598
REMARK INTER + INTRA:         -11.932
REMARK INTER:                  -6.152
REMARK INTRA:                  -5.780
REMARK UNBOUND:                -4.101
REMARK SMILES CCCCCCCCCCCCCCCCCCCCCCCCCCCC(=O)[O-]
REMARK SMILES IDX 15 1 16 2 17 3 18 4 19 5 20 6 21 7 22 8 23 9 24 10 25 11
REMARK SMILES IDX 26 12 27 13 28 14 29 15 30 16 14 17 13 18 12 19 11 20 10 21
REMARK SMILES IDX 9 22 8 23 7 24 6 25 5 26 4 27 3 28 2 29 1 30
REMARK H PARENT
REMARK Flexibility Score: inf
ROOT
ATOM      1  C   UNL     1     -13.869 -21.557  21.790  1.00  0.00     0.000 C 
ENDROOT
BRANCH   1   2
ATOM      2  C   UNL     1     -13.095 -22.618  20.993  1.00  0.00     0.000 C 
BRANCH   2   3
ATOM      3  C   UNL     1     -12.259 -23.538  21.893  1.00  0.00     0.000 C 
BRANCH   3   4
ATOM      4  C   UNL     1     -12.866 -24.946  21.983  1.00  0.00     0.000 C 
BRANCH   4   5
ATOM      5  C   UNL     1     -12.964 -25.469  23.431  1.00  0.00     0.000 C 
BRANCH   5   6
ATOM      6  C   UNL     1     -11.804 -25.057  24.357  1.00  0.00     0.000 C 
BRANCH   6   7
ATOM      7  C   UNL     1     -12.268 -24.257  25.584  1.00  0.00     0.000 C 
BRANCH   7   8
ATOM      8  C   UNL     1     -13.482 -24.889  26.286  1.00  0.00     0.000 C 
BRANCH   8   9
ATOM      9  C   UNL     1     -14.202 -23.944  27.272  1.00  0.00     0.000 C 
BRANCH   9  10
ATOM     10  C   UNL     1     -13.525 -22.564  27.361  1.00  0.00     0.000 C 
BRANCH  10  11
ATOM     11  C   UNL     1     -14.386 -21.518  28.090  1.00  0.00     0.000 C 
BRANCH  11  12
ATOM     12  C   UNL     1     -14.536 -20.168  27.359  1.00  0.00     0.006 C 
BRANCH  12  13
ATOM     13  C   UNL     1     -13.222 -19.588  26.811  1.00  0.00     0.053 C 
BRANCH  13  14
ATOM     14  C   UNL     1     -13.414 -18.235  26.194  1.00  0.00     0.041 C 
ATOM     15  O   UNL     1     -12.891 -17.971  25.078  1.00  0.00    -0.550 OA
ATOM     16  O   UNL     1     -14.133 -17.256  26.868  1.00  0.00    -0.550 OA
ENDBRANCH  13  14
ENDBRANCH  12  13
ENDBRANCH  11  12
ENDBRANCH  10  11
ENDBRANCH   9  10
ENDBRANCH   8   9
ENDBRANCH   7   8
ENDBRANCH   6   7
ENDBRANCH   5   6
ENDBRANCH   4   5
ENDBRANCH   3   4
ENDBRANCH   2   3
ENDBRANCH   1   2
BRANCH   1  17
ATOM     17  C   UNL     1     -13.535 -21.584  23.292  1.00  0.00     0.000 C 
BRANCH  17  18
ATOM     18  C   UNL     1     -14.747 -21.957  24.162  1.00  0.00     0.000 C 
BRANCH  18  19
ATOM     19  C   UNL     1     -15.613 -23.060  23.526  1.00  0.00     0.000 C 
BRANCH  19  20
ATOM     20  C   UNL     1     -16.987 -23.204  24.212  1.00  0.00     0.000 C 
BRANCH  20  21
ATOM     21  C   UNL     1     -17.138 -22.362  25.495  1.00  0.00     0.000 C 
BRANCH  21  22
ATOM     22  C   UNL     1     -18.306 -22.766  26.410  1.00  0.00    -0.000 C 
BRANCH  22  23
ATOM     23  C   UNL     1     -19.113 -23.953  25.856  1.00  0.00    -0.000 C 
BRANCH  23  24
ATOM     24  C   UNL     1     -18.971 -25.225  26.713  1.00  0.00    -0.000 C 
BRANCH  24  25
ATOM     25  C   UNL     1     -17.597 -25.409  27.393  1.00  0.00    -0.000 C 
BRANCH  25  26
ATOM     26  C   UNL     1     -17.083 -26.861  27.443  1.00  0.00    -0.000 C 
BRANCH  26  27
ATOM     27  C   UNL     1     -17.043 -27.526  26.057  1.00  0.00    -0.000 C 
BRANCH  27  28
ATOM     28  C   UNL     1     -16.149 -26.766  25.065  1.00  0.00    -0.000 C 
BRANCH  28  29
ATOM     29  C   UNL     1     -16.583 -26.976  23.608  1.00  0.00    -0.003 C 
ATOM     30  C   UNL     1     -18.078 -26.713  23.436  1.00  0.00     0.004 C 
ENDBRANCH  28  29
ENDBRANCH  27  28
ENDBRANCH  26  27
ENDBRANCH  25  26
ENDBRANCH  24  25
ENDBRANCH  23  24
ENDBRANCH  22  23
ENDBRANCH  21  22
ENDBRANCH  20  21
ENDBRANCH  19  20
ENDBRANCH  18  19
ENDBRANCH  17  18
ENDBRANCH   1  17
TORSDOF 26
ENDMDL
MODEL 8
REMARK VINA RESULT:    -3.107      1.423      4.558
REMARK INTER + INTRA:         -11.930
REMARK INTER:                  -7.459
REMARK INTRA:                  -4.471
REMARK UNBOUND:                -4.101
REMARK SMILES CCCCCCCCCCCCCCCCCCCCCCCCCCCC(=O)[O-]
REMARK SMILES IDX 15 1 16 2 17 3 18 4 19 5 20 6 21 7 22 8 23 9 24 10 25 11
REMARK SMILES IDX 26 12 27 13 28 14 29 15 30 16 14 17 13 18 12 19 11 20 10 21
REMARK SMILES IDX 9 22 8 23 7 24 6 25 5 26 4 27 3 28 2 29 1 30
REMARK H PARENT
REMARK Flexibility Score: inf
ROOT
ATOM      1  C   UNL     1     -14.449 -22.868  22.814  1.00  0.00     0.000 C 
ENDROOT
BRANCH   1   2
ATOM      2  C   UNL     1     -13.809 -21.630  22.168  1.00  0.00     0.000 C 
BRANCH   2   3
ATOM      3  C   UNL     1     -12.301 -21.800  21.936  1.00  0.00     0.000 C 
BRANCH   3   4
ATOM      4  C   UNL     1     -12.004 -22.350  20.534  1.00  0.00     0.000 C 
BRANCH   4   5
ATOM      5  C   UNL     1     -13.180 -22.169  19.553  1.00  0.00     0.000 C 
BRANCH   5   6
ATOM      6  C   UNL     1     -12.865 -21.335  18.297  1.00  0.00     0.000 C 
BRANCH   6   7
ATOM      7  C   UNL     1     -11.439 -20.764  18.296  1.00  0.00     0.000 C 
BRANCH   7   8
ATOM      8  C   UNL     1     -11.405 -19.240  18.507  1.00  0.00     0.000 C 
BRANCH   8   9
ATOM      9  C   UNL     1     -12.757 -18.635  18.943  1.00  0.00     0.000 C 
BRANCH   9  10
ATOM     10  C   UNL     1     -12.787 -18.287  20.442  1.00  0.00     0.000 C 
BRANCH  10  11
ATOM     11  C   UNL     1     -11.390 -18.276  21.085  1.00  0.00     0.000 C 
BRANCH  11  12
ATOM     12  C   UNL     1     -11.378 -18.253  22.628  1.00  0.00     0.006 C 
BRANCH  12  13
ATOM     13  C   UNL     1     -12.770 -18.188  23.277  1.00  0.00     0.053 C 
BRANCH  13  14
ATOM     14  C   UNL     1     -12.743 -18.600  24.718  1.00  0.00     0.041 C 
ATOM     15  O   UNL     1     -12.325 -19.745  25.039  1.00  0.00    -0.550 OA
ATOM     16  O   UNL     1     -13.216 -17.738  25.700  1.00  0.00    -0.550 OA
ENDBRANCH  13  14
ENDBRANCH  12  13
ENDBRANCH  11  12
ENDBRANCH  10  11
ENDBRANCH   9  10
ENDBRANCH   8   9
ENDBRANCH   7   8
ENDBRANCH   6   7
ENDBRANCH   5   6
ENDBRANCH   4   5
ENDBRANCH   3   4
ENDBRANCH   2   3
ENDBRANCH   1   2
BRANCH   1  17
ATOM     17  C   UNL     1     -13.416 -23.785  23.492  1.00  0.00     0.000 C 
BRANCH  17  18
ATOM     18  C   UNL     1     -13.598 -25.264  23.115  1.00  0.00     0.000 C 
BRANCH  18  19
ATOM     19  C   UNL     1     -14.646 -25.972  23.993  1.00  0.00     0.000 C 
BRANCH  19  20
ATOM     20  C   UNL     1     -14.706 -25.397  25.423  1.00  0.00     0.000 C 
BRANCH  20  21
ATOM     21  C   UNL     1     -15.184 -26.407  26.485  1.00  0.00     0.000 C 
BRANCH  21  22
ATOM     22  C   UNL     1     -16.531 -26.074  27.148  1.00  0.00    -0.000 C 
BRANCH  22  23
ATOM     23  C   UNL     1     -17.734 -26.391  26.242  1.00  0.00    -0.000 C 
BRANCH  23  24
ATOM     24  C   UNL     1     -18.981 -25.554  26.589  1.00  0.00    -0.000 C 
BRANCH  24  25
ATOM     25  C   UNL     1     -19.114 -24.223  25.819  1.00  0.00    -0.000 C 
BRANCH  25  26
ATOM     26  C   UNL     1     -18.011 -23.959  24.776  1.00  0.00    -0.000 C 
BRANCH  26  27
ATOM     27  C   UNL     1     -17.252 -22.646  25.032  1.00  0.00    -0.000 C 
BRANCH  27  28
ATOM     28  C   UNL     1     -17.562 -22.046  26.412  1.00  0.00    -0.000 C 
BRANCH  28  29
ATOM     29  C   UNL     1     -16.294 -21.796  27.239  1.00  0.00    -0.003 C 
ATOM     30  C   UNL     1     -15.048 -21.809  26.355  1.00  0.00     0.004 C 
ENDBRANCH  28  29
ENDBRANCH  27  28
ENDBRANCH  26  27
ENDBRANCH  25  26
ENDBRANCH  24  25
ENDBRANCH  23  24
ENDBRANCH  22  23
ENDBRANCH  21  22
ENDBRANCH  20  21
ENDBRANCH  19  20
ENDBRANCH  18  19
ENDBRANCH  17  18
ENDBRANCH   1  17
TORSDOF 26
ENDMDL
MODEL 9
REMARK VINA RESULT:    -3.066      2.718      4.674
REMARK INTER + INTRA:         -11.827
REMARK INTER:                  -7.241
REMARK INTRA:                  -4.586
REMARK UNBOUND:                -4.101
REMARK SMILES CCCCCCCCCCCCCCCCCCCCCCCCCCCC(=O)[O-]
REMARK SMILES IDX 15 1 16 2 17 3 18 4 19 5 20 6 21 7 22 8 23 9 24 10 25 11
REMARK SMILES IDX 26 12 27 13 28 14 29 15 30 16 14 17 13 18 12 19 11 20 10 21
REMARK SMILES IDX 9 22 8 23 7 24 6 25 5 26 4 27 3 28 2 29 1 30
REMARK H PARENT
REMARK Flexibility Score: inf
ROOT
ATOM      1  C   UNL     1     -12.769 -18.800  22.374  1.00  0.00     0.000 C 
ENDROOT
BRANCH   1   2
ATOM      2  C   UNL     1     -12.440 -18.096  21.048  1.00  0.00     0.000 C 
BRANCH   2   3
ATOM      3  C   UNL     1     -13.087 -18.787  19.839  1.00  0.00     0.000 C 
BRANCH   3   4
ATOM      4  C   UNL     1     -12.045 -19.138  18.766  1.00  0.00     0.000 C 
BRANCH   4   5
ATOM      5  C   UNL     1     -12.080 -20.625  18.355  1.00  0.00     0.000 C 
BRANCH   5   6
ATOM      6  C   UNL     1     -13.373 -21.377  18.723  1.00  0.00     0.000 C 
BRANCH   6   7
ATOM      7  C   UNL     1     -13.117 -22.640  19.559  1.00  0.00     0.000 C 
BRANCH   7   8
ATOM      8  C   UNL     1     -12.731 -22.326  21.014  1.00  0.00     0.000 C 
BRANCH   8   9
ATOM      9  C   UNL     1     -13.684 -22.938  22.064  1.00  0.00     0.000 C 
BRANCH   9  10
ATOM     10  C   UNL     1     -14.251 -21.880  23.028  1.00  0.00     0.000 C 
BRANCH  10  11
ATOM     11  C   UNL     1     -14.250 -22.342  24.496  1.00  0.00     0.000 C 
BRANCH  11  12
ATOM     12  C   UNL     1     -12.920 -22.948  24.991  1.00  0.00     0.006 C 
BRANCH  12  13
ATOM     13  C   UNL     1     -13.076 -24.047  26.055  1.00  0.00     0.053 C 
BRANCH  13  14
ATOM     14  C   UNL     1     -12.818 -25.415  25.498  1.00  0.00     0.041 C 
ATOM     15  O   UNL     1     -13.051 -25.656  24.283  1.00  0.00    -0.550 OA
ATOM     16  O   UNL     1     -12.363 -26.432  26.328  1.00  0.00    -0.550 OA
ENDBRANCH  13  14
ENDBRANCH  12  13
ENDBRANCH  11  12
ENDBRANCH  10  11
ENDBRANCH   9  10
ENDBRANCH   8   9
ENDBRANCH   7   8
ENDBRANCH   6   7
ENDBRANCH   5   6
ENDBRANCH   4   5
ENDBRANCH   3   4
ENDBRANCH   2   3
ENDBRANCH   1   2
BRANCH   1  17
ATOM     17  C   UNL     1     -11.526 -19.410  23.045  1.00  0.00     0.000 C 
BRANCH  17  18
ATOM     18  C   UNL     1     -11.622 -19.414  24.579  1.00  0.00     0.000 C 
BRANCH  18  19
ATOM     19  C   UNL     1     -12.722 -18.472  25.103  1.00  0.00     0.000 C 
BRANCH  19  20
ATOM     20  C   UNL     1     -13.497 -19.071  26.295  1.00  0.00     0.000 C 
BRANCH  20  21
ATOM     21  C   UNL     1     -12.649 -19.995  27.193  1.00  0.00     0.000 C 
BRANCH  21  22
ATOM     22  C   UNL     1     -13.449 -20.969  28.074  1.00  0.00    -0.000 C 
BRANCH  22  23
ATOM     23  C   UNL     1     -14.949 -20.629  28.124  1.00  0.00    -0.000 C 
BRANCH  23  24
ATOM     24  C   UNL     1     -15.836 -21.753  27.552  1.00  0.00    -0.000 C 
BRANCH  24  25
ATOM     25  C   UNL     1     -17.294 -21.761  28.058  1.00  0.00    -0.000 C 
BRANCH  25  26
ATOM     26  C   UNL     1     -18.356 -22.048  26.980  1.00  0.00    -0.000 C 
BRANCH  26  27
ATOM     27  C   UNL     1     -17.759 -22.661  25.703  1.00  0.00    -0.000 C 
BRANCH  27  28
ATOM     28  C   UNL     1     -18.482 -23.947  25.274  1.00  0.00    -0.000 C 
BRANCH  28  29
ATOM     29  C   UNL     1     -17.985 -24.474  23.920  1.00  0.00    -0.003 C 
ATOM     30  C   UNL     1     -16.575 -25.049  24.038  1.00  0.00     0.004 C 
ENDBRANCH  28  29
ENDBRANCH  27  28
ENDBRANCH  26  27
ENDBRANCH  25  26
ENDBRANCH  24  25
ENDBRANCH  23  24
ENDBRANCH  22  23
ENDBRANCH  21  22
ENDBRANCH  20  21
ENDBRANCH  19  20
ENDBRANCH  18  19
ENDBRANCH  17  18
ENDBRANCH   1  17
TORSDOF 26
ENDMDL
