MODEL 1
REMARK VINA RESULT:    -3.567      0.000      0.000
REMARK INTER + INTRA:          -7.042
REMARK INTER:                  -5.652
REMARK INTRA:                  -1.390
REMARK UNBOUND:                -1.390
REMARK SMILES CCCCCCCCCCCC(=O)[O-]
REMARK SMILES IDX 7 1 8 2 9 3 10 4 11 5 12 6 13 7 14 8 6 9 5 10 4 11 3 12 2 13
REMARK SMILES IDX 1 14
REMARK H PARENT
REMARK Flexibility Score: inf
ROOT
ATOM      1  C   UNL     1      27.744 -19.757  24.731  1.00  0.00     0.000 C 
ENDROOT
BRANCH   1   2
ATOM      2  C   UNL     1      26.525 -18.891  25.090  1.00  0.00     0.000 C 
BRANCH   2   3
ATOM      3  C   UNL     1      26.613 -17.475  24.493  1.00  0.00     0.000 C 
BRANCH   3   4
ATOM      4  C   UNL     1      26.556 -16.373  25.568  1.00  0.00     0.006 C 
BRANCH   4   5
ATOM      5  C   UNL     1      25.373 -16.497  26.543  1.00  0.00     0.053 C 
BRANCH   5   6
ATOM      6  C   UNL     1      24.562 -15.240  26.603  1.00  0.00     0.041 C 
ATOM      7  O   UNL     1      25.093 -14.129  26.344  1.00  0.00    -0.550 OA
ATOM      8  O   UNL     1      23.210 -15.301  26.916  1.00  0.00    -0.550 OA
ENDBRANCH   5   6
ENDBRANCH   4   5
ENDBRANCH   3   4
ENDBRANCH   2   3
ENDBRANCH   1   2
BRANCH   1   9
ATOM      9  C   UNL     1      28.920 -18.929  24.181  1.00  0.00     0.000 C 
BRANCH   9  10
ATOM     10  C   UNL     1      29.982 -18.624  25.251  1.00  0.00    -0.000 C 
BRANCH  10  11
ATOM     11  C   UNL     1      30.039 -19.700  26.349  1.00  0.00    -0.000 C 
BRANCH  11  12
ATOM     12  C   UNL     1      29.962 -19.112  27.769  1.00  0.00    -0.000 C 
BRANCH  12  13
ATOM     13  C   UNL     1      28.712 -18.260  28.053  1.00  0.00    -0.003 C 
ATOM     14  C   UNL     1      27.554 -19.072  28.633  1.00  0.00     0.004 C 
ENDBRANCH  12  13
ENDBRANCH  11  12
ENDBRANCH  10  11
ENDBRANCH   9  10
ENDBRANCH   1   9
TORSDOF 10
ENDMDL
MODEL 2
REMARK VINA RESULT:    -3.548      1.044      1.523
REMARK INTER + INTRA:          -7.013
REMARK INTER:                  -5.941
REMARK INTRA:                  -1.071
REMARK UNBOUND:                -1.390
REMARK SMILES CCCCCCCCCCCC(=O)[O-]
REMARK SMILES IDX 7 1 8 2 9 3 10 4 11 5 12 6 13 7 14 8 6 9 5 10 4 11 3 12 2 13
REMARK SMILES IDX 1 14
REMARK H PARENT
REMARK Flexibility Score: inf
ROOT
ATOM      1  C   UNL     1      26.616 -18.836  25.140  1.00  0.00     0.000 C 
ENDROOT
BRANCH   1   2
ATOM      2  C   UNL     1      26.613 -17.471  24.432  1.00  0.00     0.000 C 
BRANCH   2   3
ATOM      3  C   UNL     1      26.626 -16.294  25.423  1.00  0.00     0.000 C 
BRANCH   3   4
ATOM      4  C   UNL     1      25.437 -16.327  26.401  1.00  0.00     0.006 C 
BRANCH   4   5
ATOM      5  C   UNL     1      24.631 -15.019  26.466  1.00  0.00     0.053 C 
BRANCH   5   6
ATOM      6  C   UNL     1      23.162 -15.273  26.605  1.00  0.00     0.041 C 
ATOM      7  O   UNL     1      22.606 -16.175  25.925  1.00  0.00    -0.550 OA
ATOM      8  O   UNL     1      22.412 -14.532  27.509  1.00  0.00    -0.550 OA
ENDBRANCH   5   6
ENDBRANCH   4   5
ENDBRANCH   3   4
ENDBRANCH   2   3
ENDBRANCH   1   2
BRANCH   1   9
ATOM      9  C   UNL     1      27.771 -19.743  24.678  1.00  0.00     0.000 C 
BRANCH   9  10
ATOM     10  C   UNL     1      29.138 -19.042  24.743  1.00  0.00    -0.000 C 
BRANCH  10  11
ATOM     11  C   UNL     1      29.981 -19.505  25.945  1.00  0.00    -0.000 C 
BRANCH  11  12
ATOM     12  C   UNL     1      30.059 -18.450  27.062  1.00  0.00    -0.000 C 
BRANCH  12  13
ATOM     13  C   UNL     1      29.281 -18.799  28.343  1.00  0.00    -0.003 C 
ATOM     14  C   UNL     1      28.017 -17.958  28.524  1.00  0.00     0.004 C 
ENDBRANCH  12  13
ENDBRANCH  11  12
ENDBRANCH  10  11
ENDBRANCH   9  10
ENDBRANCH   1   9
TORSDOF 10
ENDMDL
MODEL 3
REMARK VINA RESULT:    -3.545      1.737      3.084
REMARK INTER + INTRA:          -7.008
REMARK INTER:                  -6.156
REMARK INTRA:                  -0.852
REMARK UNBOUND:                -1.390
REMARK SMILES CCCCCCCCCCCC(=O)[O-]
REMARK SMILES IDX 7 1 8 2 9 3 10 4 11 5 12 6 13 7 14 8 6 9 5 10 4 11 3 12 2 13
REMARK SMILES IDX 1 14
REMARK H PARENT
REMARK Flexibility Score: inf
ROOT
ATOM      1  C   UNL     1      26.303 -17.417  24.744  1.00  0.00     0.000 C 
ENDROOT
BRANCH   1   2
ATOM      2  C   UNL     1      26.402 -16.067  25.473  1.00  0.00     0.000 C 
BRANCH   2   3
ATOM      3  C   UNL     1      25.448 -15.977  26.678  1.00  0.00     0.000 C 
BRANCH   3   4
ATOM      4  C   UNL     1      24.674 -14.647  26.724  1.00  0.00     0.006 C 
BRANCH   4   5
ATOM      5  C   UNL     1      23.231 -14.733  26.197  1.00  0.00     0.053 C 
BRANCH   5   6
ATOM      6  C   UNL     1      22.589 -16.043  26.532  1.00  0.00     0.041 C 
ATOM      7  O   UNL     1      22.401 -16.905  25.634  1.00  0.00    -0.550 OA
ATOM      8  O   UNL     1      22.227 -16.325  27.842  1.00  0.00    -0.550 OA
ENDBRANCH   5   6
ENDBRANCH   4   5
ENDBRANCH   3   4
ENDBRANCH   2   3
ENDBRANCH   1   2
BRANCH   1   9
ATOM      9  C   UNL     1      25.623 -18.504  25.597  1.00  0.00     0.000 C 
BRANCH   9  10
ATOM     10  C   UNL     1      26.424 -19.816  25.635  1.00  0.00    -0.000 C 
BRANCH  10  11
ATOM     11  C   UNL     1      27.840 -19.659  25.056  1.00  0.00    -0.000 C 
BRANCH  11  12
ATOM     12  C   UNL     1      28.930 -19.612  26.142  1.00  0.00    -0.000 C 
BRANCH  12  13
ATOM     13  C   UNL     1      30.004 -18.529  25.940  1.00  0.00    -0.003 C 
ATOM     14  C   UNL     1      30.822 -18.726  24.664  1.00  0.00     0.004 C 
ENDBRANCH  12  13
ENDBRANCH  11  12
ENDBRANCH  10  11
ENDBRANCH   9  10
ENDBRANCH   1   9
TORSDOF 10
ENDMDL
MODEL 4
REMARK VINA RESULT:    -3.525      1.602      2.618
REMARK INTER + INTRA:          -6.976
REMARK INTER:                  -5.936
REMARK INTRA:                  -1.040
REMARK UNBOUND:                -1.390
REMARK SMILES CCCCCCCCCCCC(=O)[O-]
REMARK SMILES IDX 7 1 8 2 9 3 10 4 11 5 12 6 13 7 14 8 6 9 5 10 4 11 3 12 2 13
REMARK SMILES IDX 1 14
REMARK H PARENT
REMARK Flexibility Score: inf
ROOT
ATOM      1  C   UNL     1      26.727 -16.528  25.243  1.00  0.00     0.000 C 
ENDROOT
BRANCH   1   2
ATOM      2  C   UNL     1      25.701 -16.491  26.389  1.00  0.00     0.000 C 
BRANCH   2   3
ATOM      3  C   UNL     1      24.533 -17.468  26.165  1.00  0.00     0.000 C 
BRANCH   3   4
ATOM      4  C   UNL     1      23.175 -16.752  26.047  1.00  0.00     0.006 C 
BRANCH   4   5
ATOM      5  C   UNL     1      22.315 -16.807  27.320  1.00  0.00     0.053 C 
BRANCH   5   6
ATOM      6  C   UNL     1      22.115 -15.450  27.922  1.00  0.00     0.041 C 
ATOM      7  O   UNL     1      22.693 -14.446  27.429  1.00  0.00    -0.550 OA
ATOM      8  O   UNL     1      21.266 -15.290  29.008  1.00  0.00    -0.550 OA
ENDBRANCH   5   6
ENDBRANCH   4   5
ENDBRANCH   3   4
ENDBRANCH   2   3
ENDBRANCH   1   2
BRANCH   1   9
ATOM      9  C   UNL     1      26.664 -17.835  24.431  1.00  0.00     0.000 C 
BRANCH   9  10
ATOM     10  C   UNL     1      28.002 -18.592  24.420  1.00  0.00    -0.000 C 
BRANCH  10  11
ATOM     11  C   UNL     1      27.914 -19.952  25.134  1.00  0.00    -0.000 C 
BRANCH  11  12
ATOM     12  C   UNL     1      28.937 -20.096  26.276  1.00  0.00    -0.000 C 
BRANCH  12  13
ATOM     13  C   UNL     1      29.284 -18.786  27.006  1.00  0.00    -0.003 C 
ATOM     14  C   UNL     1      28.329 -18.471  28.158  1.00  0.00     0.004 C 
ENDBRANCH  12  13
ENDBRANCH  11  12
ENDBRANCH  10  11
ENDBRANCH   9  10
ENDBRANCH   1   9
TORSDOF 10
ENDMDL
MODEL 5
REMARK VINA RESULT:    -3.372      3.851      6.030
REMARK INTER + INTRA:          -6.734
REMARK INTER:                  -6.229
REMARK INTRA:                  -0.505
REMARK UNBOUND:                -1.390
REMARK SMILES CCCCCCCCCCCC(=O)[O-]
REMARK SMILES IDX 7 1 8 2 9 3 10 4 11 5 12 6 13 7 14 8 6 9 5 10 4 11 3 12 2 13
REMARK SMILES IDX 1 14
REMARK H PARENT
REMARK Flexibility Score: inf
ROOT
ATOM      1  C   UNL     1      22.911 -15.114  26.454  1.00  0.00     0.000 C 
ENDROOT
BRANCH   1   2
ATOM      2  C   UNL     1      22.157 -15.170  27.793  1.00  0.00     0.000 C 
BRANCH   2   3
ATOM      3  C   UNL     1      21.831 -16.610  28.227  1.00  0.00     0.000 C 
BRANCH   3   4
ATOM      4  C   UNL     1      20.831 -16.666  29.396  1.00  0.00     0.006 C 
BRANCH   4   5
ATOM      5  C   UNL     1      20.365 -15.290  29.901  1.00  0.00     0.053 C 
BRANCH   5   6
ATOM      6  C   UNL     1      19.355 -15.408  31.000  1.00  0.00     0.041 C 
ATOM      7  O   UNL     1      18.162 -15.056  30.806  1.00  0.00    -0.550 OA
ATOM      8  O   UNL     1      19.724 -15.938  32.229  1.00  0.00    -0.550 OA
ENDBRANCH   5   6
ENDBRANCH   4   5
ENDBRANCH   3   4
ENDBRANCH   2   3
ENDBRANCH   1   2
BRANCH   1   9
ATOM      9  C   UNL     1      23.894 -16.285  26.278  1.00  0.00     0.000 C 
BRANCH   9  10
ATOM     10  C   UNL     1      25.328 -15.925  26.699  1.00  0.00    -0.000 C 
BRANCH  10  11
ATOM     11  C   UNL     1      26.364 -16.263  25.613  1.00  0.00    -0.000 C 
BRANCH  11  12
ATOM     12  C   UNL     1      26.059 -17.586  24.887  1.00  0.00    -0.000 C 
BRANCH  12  13
ATOM     13  C   UNL     1      27.095 -18.703  25.106  1.00  0.00    -0.003 C 
ATOM     14  C   UNL     1      28.453 -18.177  25.573  1.00  0.00     0.004 C 
ENDBRANCH  12  13
ENDBRANCH  11  12
ENDBRANCH  10  11
ENDBRANCH   9  10
ENDBRANCH   1   9
TORSDOF 10
ENDMDL
MODEL 6
REMARK VINA RESULT:    -3.351      2.774      5.377
REMARK INTER + INTRA:          -6.700
REMARK INTER:                  -5.665
REMARK INTRA:                  -1.035
REMARK UNBOUND:                -1.390
REMARK SMILES CCCCCCCCCCCC(=O)[O-]
REMARK SMILES IDX 7 1 8 2 9 3 10 4 11 5 12 6 13 7 14 8 6 9 5 10 4 11 3 12 2 13
REMARK SMILES IDX 1 14
REMARK H PARENT
REMARK Flexibility Score: inf
ROOT
ATOM      1  C   UNL     1      26.215 -18.841  25.311  1.00  0.00     0.000 C 
ENDROOT
BRANCH   1   2
ATOM      2  C   UNL     1      27.433 -19.645  24.827  1.00  0.00     0.000 C 
BRANCH   2   3
ATOM      3  C   UNL     1      28.531 -18.749  24.228  1.00  0.00     0.000 C 
BRANCH   3   4
ATOM      4  C   UNL     1      29.880 -18.895  24.955  1.00  0.00     0.006 C 
BRANCH   4   5
ATOM      5  C   UNL     1      29.795 -19.606  26.316  1.00  0.00     0.053 C 
BRANCH   5   6
ATOM      6  C   UNL     1      29.841 -18.639  27.458  1.00  0.00     0.041 C 
ATOM      7  O   UNL     1      28.782 -18.307  28.053  1.00  0.00    -0.550 OA
ATOM      8  O   UNL     1      31.059 -18.128  27.886  1.00  0.00    -0.550 OA
ENDBRANCH   5   6
ENDBRANCH   4   5
ENDBRANCH   3   4
ENDBRANCH   2   3
ENDBRANCH   1   2
BRANCH   1   9
ATOM      9  C   UNL     1      26.392 -17.324  25.121  1.00  0.00     0.000 C 
BRANCH   9  10
ATOM     10  C   UNL     1      26.219 -16.537  26.431  1.00  0.00    -0.000 C 
BRANCH  10  11
ATOM     11  C   UNL     1      25.095 -15.489  26.345  1.00  0.00    -0.000 C 
BRANCH  11  12
ATOM     12  C   UNL     1      23.781 -15.967  26.988  1.00  0.00    -0.000 C 
BRANCH  12  13
ATOM     13  C   UNL     1      22.631 -16.231  26.000  1.00  0.00    -0.003 C 
ATOM     14  C   UNL     1      22.453 -17.713  25.669  1.00  0.00     0.004 C 
ENDBRANCH  12  13
ENDBRANCH  11  12
ENDBRANCH  10  11
ENDBRANCH   9  10
ENDBRANCH   1   9
TORSDOF 10
ENDMDL
MODEL 7
REMARK VINA RESULT:    -3.316      2.915      5.876
REMARK INTER + INTRA:          -6.645
REMARK INTER:                  -5.483
REMARK INTRA:                  -1.162
REMARK UNBOUND:                -1.390
REMARK SMILES CCCCCCCCCCCC(=O)[O-]
REMARK SMILES IDX 7 1 8 2 9 3 10 4 11 5 12 6 13 7 14 8 6 9 5 10 4 11 3 12 2 13
REMARK SMILES IDX 1 14
REMARK H PARENT
REMARK Flexibility Score: inf
ROOT
ATOM      1  C   UNL     1      26.273 -16.764  25.372  1.00  0.00     0.000 C 
ENDROOT
BRANCH   1   2
ATOM      2  C   UNL     1      26.131 -17.680  26.599  1.00  0.00     0.000 C 
BRANCH   2   3
ATOM      3  C   UNL     1      26.052 -19.169  26.218  1.00  0.00     0.000 C 
BRANCH   3   4
ATOM      4  C   UNL     1      26.999 -19.536  25.061  1.00  0.00     0.006 C 
BRANCH   4   5
ATOM      5  C   UNL     1      28.349 -20.122  25.507  1.00  0.00     0.053 C 
BRANCH   5   6
ATOM      6  C   UNL     1      29.410 -19.071  25.612  1.00  0.00     0.041 C 
ATOM      7  O   UNL     1      30.111 -18.774  24.609  1.00  0.00    -0.550 OA
ATOM      8  O   UNL     1      29.603 -18.396  26.810  1.00  0.00    -0.550 OA
ENDBRANCH   5   6
ENDBRANCH   4   5
ENDBRANCH   3   4
ENDBRANCH   2   3
ENDBRANCH   1   2
BRANCH   1   9
ATOM      9  C   UNL     1      26.054 -15.279  25.711  1.00  0.00     0.000 C 
BRANCH   9  10
ATOM     10  C   UNL     1      25.027 -15.071  26.836  1.00  0.00    -0.000 C 
BRANCH  10  11
ATOM     11  C   UNL     1      23.859 -14.165  26.407  1.00  0.00    -0.000 C 
BRANCH  11  12
ATOM     12  C   UNL     1      22.551 -14.943  26.177  1.00  0.00    -0.000 C 
BRANCH  12  13
ATOM     13  C   UNL     1      22.573 -16.407  26.652  1.00  0.00    -0.003 C 
ATOM     14  C   UNL     1      22.458 -17.411  25.505  1.00  0.00     0.004 C 
ENDBRANCH  12  13
ENDBRANCH  11  12
ENDBRANCH  10  11
ENDBRANCH   9  10
ENDBRANCH   1   9
TORSDOF 10
ENDMDL
MODEL 8
REMARK VINA RESULT:    -3.291      2.089      4.449
REMARK INTER + INTRA:          -6.605
REMARK INTER:                  -5.418
REMARK INTRA:                  -1.187
REMARK UNBOUND:                -1.390
REMARK SMILES CCCCCCCCCCCC(=O)[O-]
REMARK SMILES IDX 7 1 8 2 9 3 10 4 11 5 12 6 13 7 14 8 6 9 5 10 4 11 3 12 2 13
REMARK SMILES IDX 1 14
REMARK H PARENT
REMARK Flexibility Score: inf
ROOT
ATOM      1  C   UNL     1      28.932 -18.865  24.383  1.00  0.00     0.000 C 
ENDROOT
BRANCH   1   2
ATOM      2  C   UNL     1      29.927 -18.607  25.528  1.00  0.00     0.000 C 
BRANCH   2   3
ATOM      3  C   UNL     1      30.193 -19.866  26.372  1.00  0.00     0.000 C 
BRANCH   3   4
ATOM      4  C   UNL     1      29.829 -19.674  27.855  1.00  0.00     0.006 C 
BRANCH   4   5
ATOM      5  C   UNL     1      29.165 -18.324  28.177  1.00  0.00     0.053 C 
BRANCH   5   6
ATOM      6  C   UNL     1      27.730 -18.486  28.576  1.00  0.00     0.041 C 
ATOM      7  O   UNL     1      27.067 -17.493  28.976  1.00  0.00    -0.550 OA
ATOM      8  O   UNL     1      27.117 -19.727  28.475  1.00  0.00    -0.550 OA
ENDBRANCH   5   6
ENDBRANCH   4   5
ENDBRANCH   3   4
ENDBRANCH   2   3
ENDBRANCH   1   2
BRANCH   1   9
ATOM      9  C   UNL     1      27.726 -19.713  24.825  1.00  0.00     0.000 C 
BRANCH   9  10
ATOM     10  C   UNL     1      26.472 -18.866  25.096  1.00  0.00    -0.000 C 
BRANCH  10  11
ATOM     11  C   UNL     1      26.562 -17.463  24.470  1.00  0.00    -0.000 C 
BRANCH  11  12
ATOM     12  C   UNL     1      26.563 -16.338  25.521  1.00  0.00    -0.000 C 
BRANCH  12  13
ATOM     13  C   UNL     1      25.248 -16.178  26.304  1.00  0.00    -0.003 C 
ATOM     14  C   UNL     1      24.864 -14.717  26.539  1.00  0.00     0.004 C 
ENDBRANCH  12  13
ENDBRANCH  11  12
ENDBRANCH  10  11
ENDBRANCH   9  10
ENDBRANCH   1   9
TORSDOF 10
ENDMDL
MODEL 9
REMARK VINA RESULT:    -3.249      2.147      4.739
REMARK INTER + INTRA:          -6.539
REMARK INTER:                  -5.386
REMARK INTRA:                  -1.152
REMARK UNBOUND:                -1.390
REMARK SMILES CCCCCCCCCCCC(=O)[O-]
REMARK SMILES IDX 7 1 8 2 9 3 10 4 11 5 12 6 13 7 14 8 6 9 5 10 4 11 3 12 2 13
REMARK SMILES IDX 1 14
REMARK H PARENT
REMARK Flexibility Score: inf
ROOT
ATOM      1  C   UNL     1      27.715 -18.498  24.444  1.00  0.00     0.000 C 
ENDROOT
BRANCH   1   2
ATOM      2  C   UNL     1      28.734 -18.243  25.568  1.00  0.00     0.000 C 
BRANCH   2   3
ATOM      3  C   UNL     1      29.196 -19.543  26.250  1.00  0.00     0.000 C 
BRANCH   3   4
ATOM      4  C   UNL     1      28.693 -19.665  27.699  1.00  0.00     0.006 C 
BRANCH   4   5
ATOM      5  C   UNL     1      27.171 -19.517  27.859  1.00  0.00     0.053 C 
BRANCH   5   6
ATOM      6  C   UNL     1      26.811 -18.432  28.826  1.00  0.00     0.041 C 
ATOM      7  O   UNL     1      25.889 -18.610  29.665  1.00  0.00    -0.550 OA
ATOM      8  O   UNL     1      27.515 -17.235  28.821  1.00  0.00    -0.550 OA
ENDBRANCH   5   6
ENDBRANCH   4   5
ENDBRANCH   3   4
ENDBRANCH   2   3
ENDBRANCH   1   2
BRANCH   1   9
ATOM      9  C   UNL     1      26.414 -17.697  24.629  1.00  0.00     0.000 C 
BRANCH   9  10
ATOM     10  C   UNL     1      26.649 -16.326  25.284  1.00  0.00    -0.000 C 
BRANCH  10  11
ATOM     11  C   UNL     1      25.516 -15.933  26.249  1.00  0.00    -0.000 C 
BRANCH  11  12
ATOM     12  C   UNL     1      24.398 -16.989  26.321  1.00  0.00    -0.000 C 
BRANCH  12  13
ATOM     13  C   UNL     1      22.975 -16.445  26.106  1.00  0.00    -0.003 C 
ATOM     14  C   UNL     1      22.889 -14.923  26.230  1.00  0.00     0.004 C 
ENDBRANCH  12  13
ENDBRANCH  11  12
ENDBRANCH  10  11
ENDBRANCH   9  10
ENDBRANCH   1   9
TORSDOF 10
ENDMDL
