MODEL 1
REMARK VINA RESULT:    -2.496      0.000      0.000
REMARK INTER + INTRA:          -3.879
REMARK INTER:                  -3.810
REMARK INTRA:                  -0.070
REMARK UNBOUND:                -0.070
REMARK SMILES CC1=CCC[C@@H](C)C(=O)C[C@H](C(C)C)C(=O)C1
REMARK SMILES IDX 8 1 9 2 6 3 7 4 5 5 4 6 3 7 2 8 1 9 10 11 11 12 15 13 16 14
REMARK SMILES IDX 17 15 12 17 13 18 14 19
REMARK H PARENT
REMARK Flexibility Score: 70.00
ROOT
ATOM      1  C   UNL     1      85.512  29.472  65.022  1.00  0.00     0.136 C 
ATOM      2  O   UNL     1      85.172  28.429  64.486  1.00  0.00    -0.299 OA
ENDROOT
BRANCH   1   3
ATOM      3  C   UNL     1      84.489  30.592  65.144  1.00  0.00     0.053 C 
ATOM      4  C   UNL     1      83.170  30.216  64.456  1.00  0.00     0.016 C 
BRANCH   3   5
ATOM      5  C   UNL     1      85.039  31.927  64.603  1.00  0.00     0.015 C 
BRANCH   5   6
ATOM      6  C   UNL     1      85.747  32.727  65.711  1.00  0.00     0.028 C 
BRANCH   6   7
ATOM      7  C   UNL     1      86.837  33.640  65.210  1.00  0.00    -0.028 C 
ATOM      8  C   UNL     1      88.163  33.354  65.138  1.00  0.00    -0.070 CG0
ATOM      9  C   UNL     1      89.087  34.489  64.763  1.00  0.00     0.039 C 
ATOM     10  G   UNL     1      88.766  31.960  65.285  1.00  0.00     0.000 G0
ENDBRANCH   6   7
ENDBRANCH   5   6
ENDBRANCH   3   5
ENDBRANCH   1   3
BRANCH   1  11
ATOM     11  C   UNL     1      86.939  29.629  65.510  1.00  0.00     0.087 C 
BRANCH  11  12
ATOM     12  C   UNL     1      88.038  29.628  64.407  1.00  0.00     0.066 C 
BRANCH  12  13
ATOM     13  C   UNL     1      88.646  31.002  64.150  1.00  0.00     0.140 C 
ATOM     14  O   UNL     1      88.910  31.365  63.013  1.00  0.00    -0.299 OA
BRANCH  13  15
ATOM     15  C   UNL     1      88.801  31.965  65.301  1.00  0.00     0.106 CG0
ATOM     16  G   UNL     1      88.149  33.334  65.121  1.00  0.00     0.000 G0
ENDBRANCH  13  15
ENDBRANCH  12  13
BRANCH  12  17
ATOM     17  C   UNL     1      89.065  28.454  64.522  1.00  0.00    -0.006 C 
ATOM     18  C   UNL     1      89.119  27.884  65.949  1.00  0.00     0.008 C 
ATOM     19  C   UNL     1      88.869  27.325  63.500  1.00  0.00     0.008 C 
ENDBRANCH  12  17
ENDBRANCH  11  12
ENDBRANCH   1  11
TORSDOF 1
ENDMDL
MODEL 2
REMARK VINA RESULT:    -2.387      1.681      4.047
REMARK INTER + INTRA:          -3.712
REMARK INTER:                  -4.365
REMARK INTRA:                   0.652
REMARK UNBOUND:                -0.070
REMARK SMILES CC1=CCC[C@@H](C)C(=O)C[C@H](C(C)C)C(=O)C1
REMARK SMILES IDX 8 1 9 2 6 3 7 4 5 5 4 6 3 7 2 8 1 9 10 11 11 12 15 13 16 14
REMARK SMILES IDX 17 15 12 17 13 18 14 19
REMARK H PARENT
REMARK Flexibility Score: 70.00
ROOT
ATOM      1  C   UNL     1      86.764  28.955  64.764  1.00  0.00     0.136 C 
ATOM      2  O   UNL     1      86.064  28.026  65.135  1.00  0.00    -0.299 OA
ENDROOT
BRANCH   1   3
ATOM      3  C   UNL     1      88.239  28.691  64.501  1.00  0.00     0.053 C 
ATOM      4  C   UNL     1      88.695  27.383  65.160  1.00  0.00     0.016 C 
BRANCH   3   5
ATOM      5  C   UNL     1      89.119  29.876  64.950  1.00  0.00     0.015 C 
BRANCH   5   6
ATOM      6  C   UNL     1      88.715  30.368  66.352  1.00  0.00     0.028 C 
BRANCH   6   7
ATOM      7  C   UNL     1      89.115  31.793  66.643  1.00  0.00    -0.028 C 
ATOM      8  C   UNL     1      88.416  32.912  66.321  1.00  0.00    -0.070 CG0
ATOM      9  C   UNL     1      89.100  34.237  66.562  1.00  0.00     0.039 C 
ATOM     10  G   UNL     1      86.963  32.932  65.856  1.00  0.00     0.000 G0
ENDBRANCH   6   7
ENDBRANCH   5   6
ENDBRANCH   3   5
ENDBRANCH   1   3
BRANCH   1  11
ATOM     11  C   UNL     1      86.154  30.336  64.615  1.00  0.00     0.087 C 
BRANCH  11  12
ATOM     12  C   UNL     1      85.338  30.853  65.835  1.00  0.00     0.066 C 
BRANCH  12  13
ATOM     13  C   UNL     1      86.019  31.991  66.586  1.00  0.00     0.140 C 
ATOM     14  O   UNL     1      85.895  32.102  67.798  1.00  0.00    -0.299 OA
BRANCH  13  15
ATOM     15  C   UNL     1      86.956  32.909  65.840  1.00  0.00     0.106 CG0
ATOM     16  G   UNL     1      88.399  32.941  66.336  1.00  0.00     0.000 G0
ENDBRANCH  13  15
ENDBRANCH  12  13
BRANCH  12  17
ATOM     17  C   UNL     1      83.814  31.059  65.551  1.00  0.00    -0.006 C 
ATOM     18  C   UNL     1      83.521  32.472  65.019  1.00  0.00     0.008 C 
ATOM     19  C   UNL     1      83.180  30.000  64.637  1.00  0.00     0.008 C 
ENDBRANCH  12  17
ENDBRANCH  11  12
ENDBRANCH   1  11
TORSDOF 1
ENDMDL
MODEL 3
REMARK VINA RESULT:    -2.033      1.775      4.701
REMARK INTER + INTRA:          -3.172
REMARK INTER:                  -4.122
REMARK INTRA:                   0.949
REMARK UNBOUND:                -0.070
REMARK SMILES CC1=CCC[C@@H](C)C(=O)C[C@H](C(C)C)C(=O)C1
REMARK SMILES IDX 8 1 9 2 6 3 7 4 5 5 4 6 3 7 2 8 1 9 10 11 11 12 15 13 16 14
REMARK SMILES IDX 17 15 12 17 13 18 14 19
REMARK H PARENT
REMARK Flexibility Score: 70.00
ROOT
ATOM      1  C   UNL     1      87.448  32.565  66.812  1.00  0.00     0.136 C 
ATOM      2  O   UNL     1      88.178  32.448  67.783  1.00  0.00    -0.299 OA
ENDROOT
BRANCH   1   3
ATOM      3  C   UNL     1      87.982  33.291  65.586  1.00  0.00     0.053 C 
ATOM      4  C   UNL     1      86.856  33.607  64.594  1.00  0.00     0.016 C 
BRANCH   3   5
ATOM      5  C   UNL     1      89.118  32.501  64.906  1.00  0.00     0.015 C 
BRANCH   5   6
ATOM      6  C   UNL     1      88.633  31.842  63.601  1.00  0.00     0.028 C 
BRANCH   6   7
ATOM      7  C   UNL     1      88.862  30.353  63.542  1.00  0.00    -0.028 C 
ATOM      8  C   UNL     1      88.525  29.443  64.493  1.00  0.00    -0.070 CG0
ATOM      9  C   UNL     1      89.010  28.028  64.287  1.00  0.00     0.039 C 
ATOM     10  G   UNL     1      87.599  29.717  65.675  1.00  0.00     0.000 G0
ENDBRANCH   6   7
ENDBRANCH   5   6
ENDBRANCH   3   5
ENDBRANCH   1   3
BRANCH   1  11
ATOM     11  C   UNL     1      86.034  32.019  66.872  1.00  0.00     0.087 C 
BRANCH  11  12
ATOM     12  C   UNL     1      85.518  31.327  65.577  1.00  0.00     0.066 C 
BRANCH  12  13
ATOM     13  C   UNL     1      86.127  29.951  65.335  1.00  0.00     0.140 C 
ATOM     14  O   UNL     1      85.486  29.075  64.773  1.00  0.00    -0.299 OA
BRANCH  13  15
ATOM     15  C   UNL     1      87.577  29.717  65.679  1.00  0.00     0.106 CG0
ATOM     16  G   UNL     1      88.510  29.442  64.503  1.00  0.00     0.000 G0
ENDBRANCH  13  15
ENDBRANCH  12  13
BRANCH  12  17
ATOM     17  C   UNL     1      83.970  31.418  65.371  1.00  0.00    -0.006 C 
ATOM     18  C   UNL     1      83.260  31.944  66.629  1.00  0.00     0.008 C 
ATOM     19  C   UNL     1      83.530  32.214  64.134  1.00  0.00     0.008 C 
ENDBRANCH  12  17
ENDBRANCH  11  12
ENDBRANCH   1  11
TORSDOF 1
ENDMDL
MODEL 4
REMARK VINA RESULT:    -1.840      1.854      4.191
REMARK INTER + INTRA:          -2.878
REMARK INTER:                  -3.488
REMARK INTRA:                   0.610
REMARK UNBOUND:                -0.070
REMARK SMILES CC1=CCC[C@@H](C)C(=O)C[C@H](C(C)C)C(=O)C1
REMARK SMILES IDX 8 1 9 2 6 3 7 4 5 5 4 6 3 7 2 8 1 9 10 11 11 12 15 13 16 14
REMARK SMILES IDX 17 15 12 17 13 18 14 19
REMARK H PARENT
REMARK Flexibility Score: 70.00
ROOT
ATOM      1  C   UNL     1      85.500  31.973  65.574  1.00  0.00     0.136 C 
ATOM      2  O   UNL     1      85.214  31.914  66.760  1.00  0.00    -0.299 OA
ENDROOT
BRANCH   1   3
ATOM      3  C   UNL     1      84.564  31.316  64.570  1.00  0.00     0.053 C 
ATOM      4  C   UNL     1      83.096  31.516  64.967  1.00  0.00     0.016 C 
BRANCH   3   5
ATOM      5  C   UNL     1      84.891  29.821  64.380  1.00  0.00     0.015 C 
BRANCH   5   6
ATOM      6  C   UNL     1      85.961  29.354  65.384  1.00  0.00     0.028 C 
BRANCH   6   7
ATOM      7  C   UNL     1      87.081  28.558  64.762  1.00  0.00    -0.028 C 
ATOM      8  C   UNL     1      88.229  29.053  64.231  1.00  0.00    -0.070 CG0
ATOM      9  C   UNL     1      89.125  28.074  63.510  1.00  0.00     0.039 C 
ATOM     10  G   UNL     1      88.731  30.482  64.413  1.00  0.00     0.000 G0
ENDBRANCH   6   7
ENDBRANCH   5   6
ENDBRANCH   3   5
ENDBRANCH   1   3
BRANCH   1  11
ATOM     11  C   UNL     1      86.784  32.659  65.149  1.00  0.00     0.087 C 
BRANCH  11  12
ATOM     12  C   UNL     1      88.026  32.393  66.049  1.00  0.00     0.066 C 
BRANCH  12  13
ATOM     13  C   UNL     1      88.678  31.037  65.805  1.00  0.00     0.140 C 
ATOM     14  O   UNL     1      89.065  30.352  66.741  1.00  0.00    -0.299 OA
BRANCH  13  15
ATOM     15  C   UNL     1      88.724  30.484  64.401  1.00  0.00     0.106 CG0
ATOM     16  G   UNL     1      88.235  29.049  64.229  1.00  0.00     0.000 G0
ENDBRANCH  13  15
ENDBRANCH  12  13
BRANCH  12  17
ATOM     17  C   UNL     1      89.015  33.599  66.154  1.00  0.00    -0.006 C 
ATOM     18  C   UNL     1      88.810  34.604  65.008  1.00  0.00     0.008 C 
ATOM     19  C   UNL     1      89.008  34.322  67.509  1.00  0.00     0.008 C 
ENDBRANCH  12  17
ENDBRANCH  11  12
ENDBRANCH   1  11
TORSDOF 1
ENDMDL
MODEL 5
REMARK VINA RESULT:    -1.180      2.128      4.108
REMARK INTER + INTRA:          -1.870
REMARK INTER:                  -3.124
REMARK INTRA:                   1.254
REMARK UNBOUND:                -0.070
REMARK SMILES CC1=CCC[C@@H](C)C(=O)C[C@H](C(C)C)C(=O)C1
REMARK SMILES IDX 8 1 9 2 6 3 7 4 5 5 4 6 3 7 2 8 1 9 10 11 11 12 15 13 16 14
REMARK SMILES IDX 17 15 12 17 13 18 14 19
REMARK H PARENT
REMARK Flexibility Score: 70.00
ROOT
ATOM      1  C   UNL     1      87.385  33.366  65.661  1.00  0.00     0.136 C 
ATOM      2  O   UNL     1      86.942  34.434  65.270  1.00  0.00    -0.299 OA
ENDROOT
BRANCH   1   3
ATOM      3  C   UNL     1      87.379  33.083  67.156  1.00  0.00     0.053 C 
ATOM      4  C   UNL     1      88.771  32.666  67.646  1.00  0.00     0.016 C 
BRANCH   3   5
ATOM      5  C   UNL     1      86.318  32.028  67.531  1.00  0.00     0.015 C 
BRANCH   5   6
ATOM      6  C   UNL     1      84.894  32.566  67.300  1.00  0.00     0.028 C 
BRANCH   6   7
ATOM      7  C   UNL     1      83.972  31.590  66.613  1.00  0.00    -0.028 C 
ATOM      8  C   UNL     1      84.074  31.140  65.336  1.00  0.00    -0.070 CG0
ATOM      9  C   UNL     1      82.934  30.298  64.815  1.00  0.00     0.039 C 
ATOM     10  G   UNL     1      85.298  31.319  64.442  1.00  0.00     0.000 G0
ENDBRANCH   6   7
ENDBRANCH   5   6
ENDBRANCH   3   5
ENDBRANCH   1   3
BRANCH   1  11
ATOM     11  C   UNL     1      87.954  32.382  64.657  1.00  0.00     0.087 C 
BRANCH  11  12
ATOM     12  C   UNL     1      87.791  30.876  65.015  1.00  0.00     0.066 C 
BRANCH  12  13
ATOM     13  C   UNL     1      86.408  30.319  64.698  1.00  0.00     0.140 C 
ATOM     14  O   UNL     1      86.189  29.118  64.762  1.00  0.00    -0.299 OA
BRANCH  13  15
ATOM     15  C   UNL     1      85.273  31.277  64.430  1.00  0.00     0.106 CG0
ATOM     16  G   UNL     1      84.052  31.139  65.336  1.00  0.00     0.000 G0
ENDBRANCH  13  15
ENDBRANCH  12  13
BRANCH  12  17
ATOM     17  C   UNL     1      88.990  29.975  64.573  1.00  0.00    -0.006 C 
ATOM     18  C   UNL     1      88.984  28.622  65.304  1.00  0.00     0.008 C 
ATOM     19  C   UNL     1      89.114  29.764  63.057  1.00  0.00     0.008 C 
ENDBRANCH  12  17
ENDBRANCH  11  12
ENDBRANCH   1  11
TORSDOF 1
ENDMDL
MODEL 6
REMARK VINA RESULT:    -0.931      2.082      4.746
REMARK INTER + INTRA:          -1.490
REMARK INTER:                  -3.606
REMARK INTRA:                   2.116
REMARK UNBOUND:                -0.070
REMARK SMILES CC1=CCC[C@@H](C)C(=O)C[C@H](C(C)C)C(=O)C1
REMARK SMILES IDX 8 1 9 2 6 3 7 4 5 5 4 6 3 7 2 8 1 9 10 11 11 12 15 13 16 14
REMARK SMILES IDX 17 15 12 17 13 18 14 19
REMARK H PARENT
REMARK Flexibility Score: 70.00
ROOT
ATOM      1  C   UNL     1      88.689  30.572  65.850  1.00  0.00     0.136 C 
ATOM      2  O   UNL     1      88.990  30.634  67.032  1.00  0.00    -0.299 OA
ENDROOT
BRANCH   1   3
ATOM      3  C   UNL     1      87.942  29.342  65.356  1.00  0.00     0.053 C 
ATOM      4  C   UNL     1      88.907  28.311  64.757  1.00  0.00     0.016 C 
BRANCH   3   5
ATOM      5  C   UNL     1      86.832  29.716  64.352  1.00  0.00     0.015 C 
BRANCH   5   6
ATOM      6  C   UNL     1      85.485  29.087  64.753  1.00  0.00     0.028 C 
BRANCH   6   7
ATOM      7  C   UNL     1      84.350  30.075  64.851  1.00  0.00    -0.028 C 
ATOM      8  C   UNL     1      84.439  31.425  64.731  1.00  0.00    -0.070 CG0
ATOM      9  C   UNL     1      83.193  32.221  65.038  1.00  0.00     0.039 C 
ATOM     10  G   UNL     1      85.655  32.177  64.198  1.00  0.00     0.000 G0
ENDBRANCH   6   7
ENDBRANCH   5   6
ENDBRANCH   3   5
ENDBRANCH   1   3
BRANCH   1  11
ATOM     11  C   UNL     1      89.097  31.696  64.917  1.00  0.00     0.087 C 
BRANCH  11  12
ATOM     12  C   UNL     1      88.103  32.889  64.814  1.00  0.00     0.066 C 
BRANCH  12  13
ATOM     13  C   UNL     1      86.687  32.544  65.260  1.00  0.00     0.140 C 
ATOM     14  O   UNL     1      86.350  32.679  66.427  1.00  0.00    -0.299 OA
BRANCH  13  15
ATOM     15  C   UNL     1      85.662  32.157  64.222  1.00  0.00     0.106 CG0
ATOM     16  G   UNL     1      84.424  31.431  64.741  1.00  0.00     0.000 G0
ENDBRANCH  13  15
ENDBRANCH  12  13
BRANCH  12  17
ATOM     17  C   UNL     1      88.663  34.243  65.360  1.00  0.00    -0.006 C 
ATOM     18  C   UNL     1      87.771  35.430  64.959  1.00  0.00     0.008 C 
ATOM     19  C   UNL     1      88.938  34.265  66.871  1.00  0.00     0.008 C 
ENDBRANCH  12  17
ENDBRANCH  11  12
ENDBRANCH   1  11
TORSDOF 1
ENDMDL
MODEL 7
REMARK VINA RESULT:    -0.836      2.133      4.074
REMARK INTER + INTRA:          -1.345
REMARK INTER:                  -2.693
REMARK INTRA:                   1.347
REMARK UNBOUND:                -0.070
REMARK SMILES CC1=CCC[C@@H](C)C(=O)C[C@H](C(C)C)C(=O)C1
REMARK SMILES IDX 8 1 9 2 6 3 7 4 5 5 4 6 3 7 2 8 1 9 10 11 11 12 15 13 16 14
REMARK SMILES IDX 17 15 12 17 13 18 14 19
REMARK H PARENT
REMARK Flexibility Score: 70.00
ROOT
ATOM      1  C   UNL     1      88.350  30.553  65.207  1.00  0.00     0.136 C 
ATOM      2  O   UNL     1      88.794  29.417  65.240  1.00  0.00    -0.299 OA
ENDROOT
BRANCH   1   3
ATOM      3  C   UNL     1      89.062  31.633  66.010  1.00  0.00     0.053 C 
ATOM      4  C   UNL     1      88.449  31.777  67.409  1.00  0.00     0.016 C 
BRANCH   3   5
ATOM      5  C   UNL     1      89.073  32.983  65.265  1.00  0.00     0.015 C 
BRANCH   5   6
ATOM      6  C   UNL     1      87.743  33.734  65.457  1.00  0.00     0.028 C 
BRANCH   6   7
ATOM      7  C   UNL     1      87.019  34.042  64.169  1.00  0.00    -0.028 C 
ATOM      8  C   UNL     1      85.773  33.628  63.822  1.00  0.00    -0.070 CG0
ATOM      9  C   UNL     1      85.326  33.918  62.409  1.00  0.00     0.039 C 
ATOM     10  G   UNL     1      84.758  33.010  64.780  1.00  0.00     0.000 G0
ENDBRANCH   6   7
ENDBRANCH   5   6
ENDBRANCH   3   5
ENDBRANCH   1   3
BRANCH   1  11
ATOM     11  C   UNL     1      87.096  30.842  64.405  1.00  0.00     0.087 C 
BRANCH  11  12
ATOM     12  C   UNL     1      85.748  30.653  65.161  1.00  0.00     0.066 C 
BRANCH  12  13
ATOM     13  C   UNL     1      85.182  31.947  65.734  1.00  0.00     0.140 C 
ATOM     14  O   UNL     1      85.191  32.153  66.939  1.00  0.00    -0.299 OA
BRANCH  13  15
ATOM     15  C   UNL     1      84.729  33.034  64.790  1.00  0.00     0.106 CG0
ATOM     16  G   UNL     1      85.782  33.562  63.820  1.00  0.00     0.000 G0
ENDBRANCH  13  15
ENDBRANCH  12  13
BRANCH  12  17
ATOM     17  C   UNL     1      84.715  29.745  64.417  1.00  0.00    -0.006 C 
ATOM     18  C   UNL     1      84.957  28.254  64.706  1.00  0.00     0.008 C 
ATOM     19  C   UNL     1      83.243  30.106  64.666  1.00  0.00     0.008 C 
ENDBRANCH  12  17
ENDBRANCH  11  12
ENDBRANCH   1  11
TORSDOF 1
ENDMDL
MODEL 8
REMARK VINA RESULT:    -0.208      2.270      4.020
REMARK INTER + INTRA:          -0.388
REMARK INTER:                  -2.454
REMARK INTRA:                   2.067
REMARK UNBOUND:                -0.070
REMARK SMILES CC1=CCC[C@@H](C)C(=O)C[C@H](C(C)C)C(=O)C1
REMARK SMILES IDX 8 1 9 2 6 3 7 4 5 5 4 6 3 7 2 8 1 9 10 11 11 12 15 13 16 14
REMARK SMILES IDX 17 15 12 17 13 18 14 19
REMARK H PARENT
REMARK Flexibility Score: 70.00
ROOT
ATOM      1  C   UNL     1      87.799  31.918  67.142  1.00  0.00     0.136 C 
ATOM      2  O   UNL     1      88.101  30.837  67.620  1.00  0.00    -0.299 OA
ENDROOT
BRANCH   1   3
ATOM      3  C   UNL     1      88.915  32.886  66.774  1.00  0.00     0.053 C 
ATOM      4  C   UNL     1      88.941  34.089  67.725  1.00  0.00     0.016 C 
BRANCH   3   5
ATOM      5  C   UNL     1      88.812  33.340  65.304  1.00  0.00     0.015 C 
BRANCH   5   6
ATOM      6  C   UNL     1      88.647  34.867  65.204  1.00  0.00     0.028 C 
BRANCH   6   7
ATOM      7  C   UNL     1      87.438  35.305  64.416  1.00  0.00    -0.028 C 
ATOM      8  C   UNL     1      86.585  34.502  63.729  1.00  0.00    -0.070 CG0
ATOM      9  C   UNL     1      85.545  35.184  62.873  1.00  0.00     0.039 C 
ATOM     10  G   UNL     1      86.523  32.982  63.855  1.00  0.00     0.000 G0
ENDBRANCH   6   7
ENDBRANCH   5   6
ENDBRANCH   3   5
ENDBRANCH   1   3
BRANCH   1  11
ATOM     11  C   UNL     1      86.335  32.273  66.966  1.00  0.00     0.087 C 
BRANCH  11  12
ATOM     12  C   UNL     1      85.590  31.536  65.815  1.00  0.00     0.066 C 
BRANCH  12  13
ATOM     13  C   UNL     1      85.349  32.406  64.588  1.00  0.00     0.140 C 
ATOM     14  O   UNL     1      84.214  32.719  64.258  1.00  0.00    -0.299 OA
BRANCH  13  15
ATOM     15  C   UNL     1      86.532  32.989  63.855  1.00  0.00     0.106 CG0
ATOM     16  G   UNL     1      86.569  34.511  63.746  1.00  0.00     0.000 G0
ENDBRANCH  13  15
ENDBRANCH  12  13
BRANCH  12  17
ATOM     17  C   UNL     1      86.128  30.098  65.519  1.00  0.00    -0.006 C 
ATOM     18  C   UNL     1      85.050  29.210  64.873  1.00  0.00     0.008 C 
ATOM     19  C   UNL     1      87.424  30.051  64.696  1.00  0.00     0.008 C 
ENDBRANCH  12  17
ENDBRANCH  11  12
ENDBRANCH   1  11
TORSDOF 1
ENDMDL
