MODEL 1
REMARK VINA RESULT:    -3.736      0.000      0.000
REMARK INTER + INTRA:          -7.500
REMARK INTER:                  -6.575
REMARK INTRA:                  -0.924
REMARK UNBOUND:                -0.924
REMARK SMILES CCCCCCCCCCCCCCC(=O)[O-]
REMARK SMILES IDX 9 1 10 2 11 3 12 4 13 5 14 6 15 7 16 8 17 9 8 10 7 11 6 12
REMARK SMILES IDX 5 13 4 14 3 15 2 16 1 17
REMARK H PARENT
REMARK Flexibility Score: inf
ROOT
ATOM      1  C   UNL     1      59.790  24.294  50.858  1.00  0.00     0.000 C 
ENDROOT
BRANCH   1   2
ATOM      2  C   UNL     1      61.264  23.977  50.548  1.00  0.00     0.000 C 
BRANCH   2   3
ATOM      3  C   UNL     1      61.495  22.502  50.180  1.00  0.00     0.000 C 
BRANCH   3   4
ATOM      4  C   UNL     1      60.883  22.119  48.820  1.00  0.00     0.000 C 
BRANCH   4   5
ATOM      5  C   UNL     1      60.953  20.623  48.465  1.00  0.00     0.006 C 
BRANCH   5   6
ATOM      6  C   UNL     1      59.632  19.883  48.720  1.00  0.00     0.053 C 
BRANCH   6   7
ATOM      7  C   UNL     1      59.868  18.409  48.813  1.00  0.00     0.041 C 
ATOM      8  O   UNL     1      60.835  17.963  49.486  1.00  0.00    -0.550 OA
ATOM      9  O   UNL     1      59.050  17.529  48.117  1.00  0.00    -0.550 OA
ENDBRANCH   6   7
ENDBRANCH   5   6
ENDBRANCH   4   5
ENDBRANCH   3   4
ENDBRANCH   2   3
ENDBRANCH   1   2
BRANCH   1  10
ATOM     10  C   UNL     1      59.235  25.564  50.185  1.00  0.00     0.000 C 
BRANCH  10  11
ATOM     11  C   UNL     1      60.166  26.777  50.330  1.00  0.00    -0.000 C 
BRANCH  11  12
ATOM     12  C   UNL     1      59.865  27.832  49.259  1.00  0.00    -0.000 C 
BRANCH  12  13
ATOM     13  C   UNL     1      59.664  29.216  49.888  1.00  0.00    -0.000 C 
BRANCH  13  14
ATOM     14  C   UNL     1      58.212  29.688  49.727  1.00  0.00    -0.000 C 
BRANCH  14  15
ATOM     15  C   UNL     1      57.311  29.269  50.903  1.00  0.00    -0.000 C 
BRANCH  15  16
ATOM     16  C   UNL     1      55.924  28.739  50.498  1.00  0.00    -0.003 C 
ATOM     17  C   UNL     1      55.906  27.229  50.261  1.00  0.00     0.004 C 
ENDBRANCH  15  16
ENDBRANCH  14  15
ENDBRANCH  13  14
ENDBRANCH  12  13
ENDBRANCH  11  12
ENDBRANCH  10  11
ENDBRANCH   1  10
TORSDOF 13
ENDMDL
MODEL 2
REMARK VINA RESULT:    -3.713      4.196      7.992
REMARK INTER + INTRA:          -7.460
REMARK INTER:                  -5.479
REMARK INTRA:                  -1.980
REMARK UNBOUND:                -0.924
REMARK SMILES CCCCCCCCCCCCCCC(=O)[O-]
REMARK SMILES IDX 9 1 10 2 11 3 12 4 13 5 14 6 15 7 16 8 17 9 8 10 7 11 6 12
REMARK SMILES IDX 5 13 4 14 3 15 2 16 1 17
REMARK H PARENT
REMARK Flexibility Score: inf
ROOT
ATOM      1  C   UNL     1      60.885  19.003  49.440  1.00  0.00     0.000 C 
ENDROOT
BRANCH   1   2
ATOM      2  C   UNL     1      60.032  20.084  48.749  1.00  0.00     0.000 C 
BRANCH   2   3
ATOM      3  C   UNL     1      60.810  21.385  48.489  1.00  0.00     0.000 C 
BRANCH   3   4
ATOM      4  C   UNL     1      61.919  21.638  49.526  1.00  0.00     0.000 C 
BRANCH   4   5
ATOM      5  C   UNL     1      61.539  22.587  50.677  1.00  0.00     0.006 C 
BRANCH   5   6
ATOM      6  C   UNL     1      60.352  23.498  50.337  1.00  0.00     0.053 C 
BRANCH   6   7
ATOM      7  C   UNL     1      60.812  24.909  50.153  1.00  0.00     0.041 C 
ATOM      8  O   UNL     1      60.010  25.790  49.745  1.00  0.00    -0.550 OA
ATOM      9  O   UNL     1      62.140  25.243  50.385  1.00  0.00    -0.550 OA
ENDBRANCH   6   7
ENDBRANCH   5   6
ENDBRANCH   4   5
ENDBRANCH   3   4
ENDBRANCH   2   3
ENDBRANCH   1   2
BRANCH   1  10
ATOM     10  C   UNL     1      60.396  17.556  49.244  1.00  0.00     0.000 C 
BRANCH  10  11
ATOM     11  C   UNL     1      58.947  17.472  48.744  1.00  0.00    -0.000 C 
BRANCH  11  12
ATOM     12  C   UNL     1      58.000  17.044  49.872  1.00  0.00    -0.000 C 
BRANCH  12  13
ATOM     13  C   UNL     1      56.965  18.135  50.167  1.00  0.00    -0.000 C 
BRANCH  13  14
ATOM     14  C   UNL     1      57.003  18.544  51.647  1.00  0.00    -0.000 C 
BRANCH  14  15
ATOM     15  C   UNL     1      58.320  18.154  52.343  1.00  0.00    -0.000 C 
BRANCH  15  16
ATOM     16  C   UNL     1      59.257  19.332  52.663  1.00  0.00    -0.003 C 
ATOM     17  C   UNL     1      58.697  20.681  52.212  1.00  0.00     0.004 C 
ENDBRANCH  15  16
ENDBRANCH  14  15
ENDBRANCH  13  14
ENDBRANCH  12  13
ENDBRANCH  11  12
ENDBRANCH  10  11
ENDBRANCH   1  10
TORSDOF 13
ENDMDL
MODEL 3
REMARK VINA RESULT:    -3.705      5.103      7.343
REMARK INTER + INTRA:          -7.446
REMARK INTER:                  -5.744
REMARK INTRA:                  -1.701
REMARK UNBOUND:                -0.924
REMARK SMILES CCCCCCCCCCCCCCC(=O)[O-]
REMARK SMILES IDX 9 1 10 2 11 3 12 4 13 5 14 6 15 7 16 8 17 9 8 10 7 11 6 12
REMARK SMILES IDX 5 13 4 14 3 15 2 16 1 17
REMARK H PARENT
REMARK Flexibility Score: inf
ROOT
ATOM      1  C   UNL     1      60.794  26.698  50.115  1.00  0.00     0.000 C 
ENDROOT
BRANCH   1   2
ATOM      2  C   UNL     1      60.631  28.202  49.827  1.00  0.00     0.000 C 
BRANCH   2   3
ATOM      3  C   UNL     1      59.385  28.520  48.984  1.00  0.00     0.000 C 
BRANCH   3   4
ATOM      4  C   UNL     1      58.579  29.713  49.530  1.00  0.00     0.000 C 
BRANCH   4   5
ATOM      5  C   UNL     1      58.001  29.524  50.944  1.00  0.00     0.006 C 
BRANCH   5   6
ATOM      6  C   UNL     1      58.654  30.440  51.987  1.00  0.00     0.053 C 
BRANCH   6   7
ATOM      7  C   UNL     1      58.945  29.680  53.242  1.00  0.00     0.041 C 
ATOM      8  O   UNL     1      58.805  30.234  54.365  1.00  0.00    -0.550 OA
ATOM      9  O   UNL     1      59.418  28.377  53.171  1.00  0.00    -0.550 OA
ENDBRANCH   6   7
ENDBRANCH   5   6
ENDBRANCH   4   5
ENDBRANCH   3   4
ENDBRANCH   2   3
ENDBRANCH   1   2
BRANCH   1  10
ATOM     10  C   UNL     1      59.513  25.856  49.960  1.00  0.00     0.000 C 
BRANCH  10  11
ATOM     11  C   UNL     1      58.905  25.433  51.304  1.00  0.00    -0.000 C 
BRANCH  11  12
ATOM     12  C   UNL     1      57.428  25.837  51.391  1.00  0.00    -0.000 C 
BRANCH  12  13
ATOM     13  C   UNL     1      56.854  26.130  50.000  1.00  0.00    -0.000 C 
BRANCH  13  14
ATOM     14  C   UNL     1      55.456  26.756  50.102  1.00  0.00    -0.000 C 
BRANCH  14  15
ATOM     15  C   UNL     1      54.406  26.022  49.249  1.00  0.00    -0.000 C 
BRANCH  15  16
ATOM     16  C   UNL     1      52.999  26.646  49.276  1.00  0.00    -0.003 C 
ATOM     17  C   UNL     1      52.994  28.088  49.783  1.00  0.00     0.004 C 
ENDBRANCH  15  16
ENDBRANCH  14  15
ENDBRANCH  13  14
ENDBRANCH  12  13
ENDBRANCH  11  12
ENDBRANCH  10  11
ENDBRANCH   1  10
TORSDOF 13
ENDMDL
MODEL 4
REMARK VINA RESULT:    -3.700      2.092      3.920
REMARK INTER + INTRA:          -7.437
REMARK INTER:                  -5.763
REMARK INTRA:                  -1.674
REMARK UNBOUND:                -0.924
REMARK SMILES CCCCCCCCCCCCCCC(=O)[O-]
REMARK SMILES IDX 9 1 10 2 11 3 12 4 13 5 14 6 15 7 16 8 17 9 8 10 7 11 6 12
REMARK SMILES IDX 5 13 4 14 3 15 2 16 1 17
REMARK H PARENT
REMARK Flexibility Score: inf
ROOT
ATOM      1  C   UNL     1      59.130  28.568  48.937  1.00  0.00     0.000 C 
ENDROOT
BRANCH   1   2
ATOM      2  C   UNL     1      59.938  27.544  49.756  1.00  0.00     0.000 C 
BRANCH   2   3
ATOM      3  C   UNL     1      59.447  26.100  49.562  1.00  0.00     0.000 C 
BRANCH   3   4
ATOM      4  C   UNL     1      59.197  25.368  50.894  1.00  0.00     0.000 C 
BRANCH   4   5
ATOM      5  C   UNL     1      59.942  24.030  51.057  1.00  0.00     0.006 C 
BRANCH   5   6
ATOM      6  C   UNL     1      60.997  23.794  49.969  1.00  0.00     0.053 C 
BRANCH   6   7
ATOM      7  C   UNL     1      61.034  22.350  49.581  1.00  0.00     0.041 C 
ATOM      8  O   UNL     1      60.927  22.016  48.372  1.00  0.00    -0.550 OA
ATOM      9  O   UNL     1      61.137  21.370  50.559  1.00  0.00    -0.550 OA
ENDBRANCH   6   7
ENDBRANCH   5   6
ENDBRANCH   4   5
ENDBRANCH   3   4
ENDBRANCH   2   3
ENDBRANCH   1   2
BRANCH   1  10
ATOM     10  C   UNL     1      58.792  29.878  49.673  1.00  0.00     0.000 C 
BRANCH  10  11
ATOM     11  C   UNL     1      58.775  29.724  51.200  1.00  0.00    -0.000 C 
BRANCH  11  12
ATOM     12  C   UNL     1      57.358  29.433  51.708  1.00  0.00    -0.000 C 
BRANCH  12  13
ATOM     13  C   UNL     1      57.262  28.020  52.295  1.00  0.00    -0.000 C 
BRANCH  13  14
ATOM     14  C   UNL     1      56.145  27.216  51.614  1.00  0.00    -0.000 C 
BRANCH  14  15
ATOM     15  C   UNL     1      55.753  27.781  50.236  1.00  0.00    -0.000 C 
BRANCH  15  16
ATOM     16  C   UNL     1      54.243  28.002  50.033  1.00  0.00    -0.003 C 
ATOM     17  C   UNL     1      53.797  29.426  50.365  1.00  0.00     0.004 C 
ENDBRANCH  15  16
ENDBRANCH  14  15
ENDBRANCH  13  14
ENDBRANCH  12  13
ENDBRANCH  11  12
ENDBRANCH  10  11
ENDBRANCH   1  10
TORSDOF 13
ENDMDL
MODEL 5
REMARK VINA RESULT:    -3.661      2.080      4.198
REMARK INTER + INTRA:          -7.368
REMARK INTER:                  -6.587
REMARK INTRA:                  -0.781
REMARK UNBOUND:                -0.924
REMARK SMILES CCCCCCCCCCCCCCC(=O)[O-]
REMARK SMILES IDX 9 1 10 2 11 3 12 4 13 5 14 6 15 7 16 8 17 9 8 10 7 11 6 12
REMARK SMILES IDX 5 13 4 14 3 15 2 16 1 17
REMARK H PARENT
REMARK Flexibility Score: inf
ROOT
ATOM      1  C   UNL     1      60.819  20.863  48.354  1.00  0.00     0.000 C 
ENDROOT
BRANCH   1   2
ATOM      2  C   UNL     1      59.724  19.785  48.448  1.00  0.00     0.000 C 
BRANCH   2   3
ATOM      3  C   UNL     1      60.195  18.514  49.172  1.00  0.00     0.000 C 
BRANCH   3   4
ATOM      4  C   UNL     1      59.481  17.242  48.678  1.00  0.00     0.000 C 
BRANCH   4   5
ATOM      5  C   UNL     1      58.002  17.118  49.086  1.00  0.00     0.006 C 
BRANCH   5   6
ATOM      6  C   UNL     1      57.776  17.306  50.592  1.00  0.00     0.053 C 
BRANCH   6   7
ATOM      7  C   UNL     1      56.925  18.508  50.847  1.00  0.00     0.041 C 
ATOM      8  O   UNL     1      55.716  18.516  50.493  1.00  0.00    -0.550 OA
ATOM      9  O   UNL     1      57.477  19.640  51.433  1.00  0.00    -0.550 OA
ENDBRANCH   6   7
ENDBRANCH   5   6
ENDBRANCH   4   5
ENDBRANCH   3   4
ENDBRANCH   2   3
ENDBRANCH   1   2
BRANCH   1  10
ATOM     10  C   UNL     1      61.183  21.550  49.684  1.00  0.00     0.000 C 
BRANCH  10  11
ATOM     11  C   UNL     1      60.762  23.025  49.734  1.00  0.00    -0.000 C 
BRANCH  11  12
ATOM     12  C   UNL     1      60.342  23.429  51.152  1.00  0.00    -0.000 C 
BRANCH  12  13
ATOM     13  C   UNL     1      59.476  24.695  51.132  1.00  0.00    -0.000 C 
BRANCH  13  14
ATOM     14  C   UNL     1      59.850  25.598  49.947  1.00  0.00    -0.000 C 
BRANCH  14  15
ATOM     15  C   UNL     1      58.797  26.685  49.666  1.00  0.00    -0.000 C 
BRANCH  15  16
ATOM     16  C   UNL     1      57.366  26.329  50.108  1.00  0.00    -0.003 C 
ATOM     17  C   UNL     1      56.485  27.559  50.327  1.00  0.00     0.004 C 
ENDBRANCH  15  16
ENDBRANCH  14  15
ENDBRANCH  13  14
ENDBRANCH  12  13
ENDBRANCH  11  12
ENDBRANCH  10  11
ENDBRANCH   1  10
TORSDOF 13
ENDMDL
MODEL 6
REMARK VINA RESULT:    -3.629      5.428      7.649
REMARK INTER + INTRA:          -7.311
REMARK INTER:                  -6.021
REMARK INTRA:                  -1.290
REMARK UNBOUND:                -0.924
REMARK SMILES CCCCCCCCCCCCCCC(=O)[O-]
REMARK SMILES IDX 9 1 10 2 11 3 12 4 13 5 14 6 15 7 16 8 17 9 8 10 7 11 6 12
REMARK SMILES IDX 5 13 4 14 3 15 2 16 1 17
REMARK H PARENT
REMARK Flexibility Score: inf
ROOT
ATOM      1  C   UNL     1      55.641  30.871  53.080  1.00  0.00     0.000 C 
ENDROOT
BRANCH   1   2
ATOM      2  C   UNL     1      56.883  29.976  52.912  1.00  0.00     0.000 C 
BRANCH   2   3
ATOM      3  C   UNL     1      58.182  30.780  52.741  1.00  0.00     0.000 C 
BRANCH   3   4
ATOM      4  C   UNL     1      58.987  30.363  51.496  1.00  0.00     0.000 C 
BRANCH   4   5
ATOM      5  C   UNL     1      58.167  29.693  50.378  1.00  0.00     0.006 C 
BRANCH   5   6
ATOM      6  C   UNL     1      58.997  29.391  49.123  1.00  0.00     0.053 C 
BRANCH   6   7
ATOM      7  C   UNL     1      59.686  28.071  49.256  1.00  0.00     0.041 C 
ATOM      8  O   UNL     1      60.944  28.009  49.254  1.00  0.00    -0.550 OA
ATOM      9  O   UNL     1      58.939  26.902  49.334  1.00  0.00    -0.550 OA
ENDBRANCH   6   7
ENDBRANCH   5   6
ENDBRANCH   4   5
ENDBRANCH   3   4
ENDBRANCH   2   3
ENDBRANCH   1   2
BRANCH   1  10
ATOM     10  C   UNL     1      54.288  30.161  52.888  1.00  0.00     0.000 C 
BRANCH  10  11
ATOM     11  C   UNL     1      53.549  30.607  51.618  1.00  0.00    -0.000 C 
BRANCH  11  12
ATOM     12  C   UNL     1      54.197  30.006  50.365  1.00  0.00    -0.000 C 
BRANCH  12  13
ATOM     13  C   UNL     1      54.044  28.480  50.343  1.00  0.00    -0.000 C 
BRANCH  13  14
ATOM     14  C   UNL     1      55.415  27.790  50.308  1.00  0.00    -0.000 C 
BRANCH  14  15
ATOM     15  C   UNL     1      55.341  26.334  49.813  1.00  0.00    -0.000 C 
BRANCH  15  16
ATOM     16  C   UNL     1      54.025  25.956  49.110  1.00  0.00    -0.003 C 
ATOM     17  C   UNL     1      53.264  24.840  49.825  1.00  0.00     0.004 C 
ENDBRANCH  15  16
ENDBRANCH  14  15
ENDBRANCH  13  14
ENDBRANCH  12  13
ENDBRANCH  11  12
ENDBRANCH  10  11
ENDBRANCH   1  10
TORSDOF 13
ENDMDL
MODEL 7
REMARK VINA RESULT:    -3.625      4.250      6.547
REMARK INTER + INTRA:          -7.304
REMARK INTER:                  -5.454
REMARK INTRA:                  -1.851
REMARK UNBOUND:                -0.924
REMARK SMILES CCCCCCCCCCCCCCC(=O)[O-]
REMARK SMILES IDX 9 1 10 2 11 3 12 4 13 5 14 6 15 7 16 8 17 9 8 10 7 11 6 12
REMARK SMILES IDX 5 13 4 14 3 15 2 16 1 17
REMARK H PARENT
REMARK Flexibility Score: inf
ROOT
ATOM      1  C   UNL     1      57.050  29.331  52.082  1.00  0.00     0.000 C 
ENDROOT
BRANCH   1   2
ATOM      2  C   UNL     1      58.364  30.101  52.309  1.00  0.00     0.000 C 
BRANCH   2   3
ATOM      3  C   UNL     1      59.324  30.016  51.111  1.00  0.00     0.000 C 
BRANCH   3   4
ATOM      4  C   UNL     1      58.616  29.621  49.802  1.00  0.00     0.000 C 
BRANCH   4   5
ATOM      5  C   UNL     1      59.269  28.464  49.025  1.00  0.00     0.006 C 
BRANCH   5   6
ATOM      6  C   UNL     1      58.928  27.084  49.603  1.00  0.00     0.053 C 
BRANCH   6   7
ATOM      7  C   UNL     1      60.178  26.316  49.895  1.00  0.00     0.041 C 
ATOM      8  O   UNL     1      61.289  26.907  49.943  1.00  0.00    -0.550 OA
ATOM      9  O   UNL     1      60.123  24.939  50.066  1.00  0.00    -0.550 OA
ENDBRANCH   6   7
ENDBRANCH   5   6
ENDBRANCH   4   5
ENDBRANCH   3   4
ENDBRANCH   2   3
ENDBRANCH   1   2
BRANCH   1  10
ATOM     10  C   UNL     1      55.779  30.036  52.591  1.00  0.00     0.000 C 
BRANCH  10  11
ATOM     11  C   UNL     1      54.583  29.879  51.641  1.00  0.00    -0.000 C 
BRANCH  11  12
ATOM     12  C   UNL     1      54.971  29.069  50.398  1.00  0.00    -0.000 C 
BRANCH  12  13
ATOM     13  C   UNL     1      53.835  28.129  49.977  1.00  0.00    -0.000 C 
BRANCH  13  14
ATOM     14  C   UNL     1      54.381  26.746  49.590  1.00  0.00    -0.000 C 
BRANCH  14  15
ATOM     15  C   UNL     1      55.482  26.248  50.544  1.00  0.00    -0.000 C 
BRANCH  15  16
ATOM     16  C   UNL     1      54.988  25.833  51.941  1.00  0.00    -0.003 C 
ATOM     17  C   UNL     1      56.093  25.854  52.997  1.00  0.00     0.004 C 
ENDBRANCH  15  16
ENDBRANCH  14  15
ENDBRANCH  13  14
ENDBRANCH  12  13
ENDBRANCH  11  12
ENDBRANCH  10  11
ENDBRANCH   1  10
TORSDOF 13
ENDMDL
MODEL 8
REMARK VINA RESULT:    -3.603      5.613      7.196
REMARK INTER + INTRA:          -7.265
REMARK INTER:                  -5.253
REMARK INTRA:                  -2.012
REMARK UNBOUND:                -0.924
REMARK SMILES CCCCCCCCCCCCCCC(=O)[O-]
REMARK SMILES IDX 9 1 10 2 11 3 12 4 13 5 14 6 15 7 16 8 17 9 8 10 7 11 6 12
REMARK SMILES IDX 5 13 4 14 3 15 2 16 1 17
REMARK H PARENT
REMARK Flexibility Score: inf
ROOT
ATOM      1  C   UNL     1      56.326  27.008  50.194  1.00  0.00     0.000 C 
ENDROOT
BRANCH   1   2
ATOM      2  C   UNL     1      56.987  27.421  51.522  1.00  0.00     0.000 C 
BRANCH   2   3
ATOM      3  C   UNL     1      57.675  28.794  51.448  1.00  0.00     0.000 C 
BRANCH   3   4
ATOM      4  C   UNL     1      57.591  29.433  50.049  1.00  0.00     0.000 C 
BRANCH   4   5
ATOM      5  C   UNL     1      58.942  29.645  49.342  1.00  0.00     0.006 C 
BRANCH   5   6
ATOM      6  C   UNL     1      59.701  28.335  49.093  1.00  0.00     0.053 C 
BRANCH   6   7
ATOM      7  C   UNL     1      60.993  28.328  49.845  1.00  0.00     0.041 C 
ATOM      8  O   UNL     1      61.196  29.164  50.765  1.00  0.00    -0.550 OA
ATOM      9  O   UNL     1      61.995  27.431  49.497  1.00  0.00    -0.550 OA
ENDBRANCH   6   7
ENDBRANCH   5   6
ENDBRANCH   4   5
ENDBRANCH   3   4
ENDBRANCH   2   3
ENDBRANCH   1   2
BRANCH   1  10
ATOM     10  C   UNL     1      55.115  26.066  50.326  1.00  0.00     0.000 C 
BRANCH  10  11
ATOM     11  C   UNL     1      53.836  26.638  49.698  1.00  0.00    -0.000 C 
BRANCH  11  12
ATOM     12  C   UNL     1      53.208  27.703  50.605  1.00  0.00    -0.000 C 
BRANCH  12  13
ATOM     13  C   UNL     1      53.190  29.073  49.916  1.00  0.00    -0.000 C 
BRANCH  13  14
ATOM     14  C   UNL     1      53.963  30.113  50.739  1.00  0.00    -0.000 C 
BRANCH  14  15
ATOM     15  C   UNL     1      54.099  29.725  52.223  1.00  0.00    -0.000 C 
BRANCH  15  16
ATOM     16  C   UNL     1      54.879  30.732  53.086  1.00  0.00    -0.003 C 
ATOM     17  C   UNL     1      55.606  30.076  54.260  1.00  0.00     0.004 C 
ENDBRANCH  15  16
ENDBRANCH  14  15
ENDBRANCH  13  14
ENDBRANCH  12  13
ENDBRANCH  11  12
ENDBRANCH  10  11
ENDBRANCH   1  10
TORSDOF 13
ENDMDL
MODEL 9
REMARK VINA RESULT:    -2.840      3.856      8.548
REMARK INTER + INTRA:          -5.923
REMARK INTER:                  -5.078
REMARK INTRA:                  -0.845
REMARK UNBOUND:                -0.924
REMARK SMILES CCCCCCCCCCCCCCC(=O)[O-]
REMARK SMILES IDX 9 1 10 2 11 3 12 4 13 5 14 6 15 7 16 8 17 9 8 10 7 11 6 12
REMARK SMILES IDX 5 13 4 14 3 15 2 16 1 17
REMARK H PARENT
REMARK Flexibility Score: inf
ROOT
ATOM      1  C   UNL     1      60.840  22.230  49.968  1.00  0.00     0.000 C 
ENDROOT
BRANCH   1   2
ATOM      2  C   UNL     1      60.750  23.767  49.995  1.00  0.00     0.000 C 
BRANCH   2   3
ATOM      3  C   UNL     1      60.928  24.354  51.405  1.00  0.00     0.000 C 
BRANCH   3   4
ATOM      4  C   UNL     1      61.375  25.827  51.390  1.00  0.00     0.000 C 
BRANCH   4   5
ATOM      5  C   UNL     1      61.541  26.449  49.991  1.00  0.00     0.006 C 
BRANCH   5   6
ATOM      6  C   UNL     1      61.040  27.898  49.915  1.00  0.00     0.053 C 
BRANCH   6   7
ATOM      7  C   UNL     1      59.626  27.937  49.430  1.00  0.00     0.041 C 
ATOM      8  O   UNL     1      58.996  26.866  49.227  1.00  0.00    -0.550 OA
ATOM      9  O   UNL     1      59.019  29.156  49.155  1.00  0.00    -0.550 OA
ENDBRANCH   6   7
ENDBRANCH   5   6
ENDBRANCH   4   5
ENDBRANCH   3   4
ENDBRANCH   2   3
ENDBRANCH   1   2
BRANCH   1  10
ATOM     10  C   UNL     1      60.787  21.592  48.567  1.00  0.00     0.000 C 
BRANCH  10  11
ATOM     11  C   UNL     1      60.108  20.215  48.559  1.00  0.00    -0.000 C 
BRANCH  11  12
ATOM     12  C   UNL     1      60.722  19.293  49.620  1.00  0.00    -0.000 C 
BRANCH  12  13
ATOM     13  C   UNL     1      60.458  17.820  49.289  1.00  0.00    -0.000 C 
BRANCH  13  14
ATOM     14  C   UNL     1      59.252  17.674  48.350  1.00  0.00    -0.000 C 
BRANCH  14  15
ATOM     15  C   UNL     1      58.096  16.875  48.979  1.00  0.00    -0.000 C 
BRANCH  15  16
ATOM     16  C   UNL     1      57.829  17.183  50.463  1.00  0.00    -0.003 C 
ATOM     17  C   UNL     1      56.790  18.285  50.668  1.00  0.00     0.004 C 
ENDBRANCH  15  16
ENDBRANCH  14  15
ENDBRANCH  13  14
ENDBRANCH  12  13
ENDBRANCH  11  12
ENDBRANCH  10  11
ENDBRANCH   1  10
TORSDOF 13
ENDMDL
