MODEL 1
REMARK VINA RESULT:    -1.374      0.000      0.000
REMARK INTER + INTRA:          -2.047
REMARK INTER:                  -1.695
REMARK INTRA:                  -0.352
REMARK UNBOUND:                -0.352
REMARK SMILES O=c1c(O)c(-c2cc(O)c(O)c(O)c2)oc2cc(O)cc(O)c12
REMARK SMILES IDX 5 1 3 2 2 3 1 4 23 5 21 6 20 7 18 8 17 9 16 10 15 11 6 12
REMARK SMILES IDX 7 13 8 14 14 15 10 16 12 17 9 18 11 20 13 22 4 24 22 26
REMARK SMILES IDX 19 28
REMARK H PARENT 9 19 11 21 13 23 4 25 22 27 19 29
REMARK Flexibility Score: inf
ROOT
ATOM      1  C   UNL     1     168.667 176.981 167.467  1.00  0.00     0.180 A 
ATOM      2  C   UNL     1     168.486 175.623 167.778  1.00  0.00     0.208 A 
ATOM      3  C   UNL     1     168.666 175.198 169.105  1.00  0.00     0.238 A 
ATOM      4  O   UNL     1     168.577 173.969 169.362  1.00  0.00    -0.285 OA
ATOM      5  C   UNL     1     168.968 176.145 170.113  1.00  0.00     0.111 A 
ATOM      6  C   UNL     1     169.127 175.835 171.499  1.00  0.00     0.134 A 
ATOM      7  C   UNL     1     169.530 176.836 172.389  1.00  0.00     0.093 A 
ATOM      8  C   UNL     1     169.718 178.150 171.960  1.00  0.00     0.123 A 
ATOM      9  C   UNL     1     169.512 178.476 170.619  1.00  0.00     0.094 A 
ATOM     10  C   UNL     1     169.147 177.491 169.699  1.00  0.00     0.146 A 
ATOM     11  O   UNL     1     168.982 177.841 168.429  1.00  0.00    -0.452 OA
ENDROOT
BRANCH   1  12
ATOM     12  C   UNL     1     168.510 177.502 166.090  1.00  0.00     0.029 A 
ATOM     13  C   UNL     1     167.237 177.876 165.636  1.00  0.00     0.062 A 
ATOM     14  C   UNL     1     167.054 178.393 164.347  1.00  0.00     0.162 A 
ATOM     15  C   UNL     1     169.616 177.685 165.247  1.00  0.00     0.062 A 
ATOM     16  C   UNL     1     168.172 178.553 163.494  1.00  0.00     0.200 A 
ATOM     17  C   UNL     1     169.448 178.201 163.955  1.00  0.00     0.162 A 
BRANCH  14  18
ATOM     18  O   UNL     1     165.756 178.731 163.961  1.00  0.00    -0.504 OA
ATOM     19  H   UNL     1     165.504 179.610 163.532  1.00  0.00     0.293 HD
ENDBRANCH  14  18
BRANCH  16  20
ATOM     20  O   UNL     1     168.059 179.055 162.196  1.00  0.00    -0.502 OA
ATOM     21  H   UNL     1     168.681 179.745 161.800  1.00  0.00     0.293 HD
ENDBRANCH  16  20
BRANCH  17  22
ATOM     22  O   UNL     1     170.553 178.373 163.121  1.00  0.00    -0.504 OA
ATOM     23  H   UNL     1     170.728 179.250 162.645  1.00  0.00     0.293 HD
ENDBRANCH  17  22
ENDBRANCH   1  12
BRANCH   2  24
ATOM     24  O   UNL     1     168.114 174.716 166.782  1.00  0.00    -0.502 OA
ATOM     25  H   UNL     1     167.424 174.939 166.073  1.00  0.00     0.293 HD
ENDBRANCH   2  24
BRANCH   6  26
ATOM     26  O   UNL     1     168.879 174.574 172.051  1.00  0.00    -0.507 OA
ATOM     27  H   UNL     1     168.006 174.284 172.462  1.00  0.00     0.293 HD
ENDBRANCH   6  26
BRANCH   8  28
ATOM     28  O   UNL     1     170.103 179.125 172.877  1.00  0.00    -0.508 OA
ATOM     29  H   UNL     1     170.469 180.020 172.576  1.00  0.00     0.293 HD
ENDBRANCH   8  28
TORSDOF 7
ENDMDL
MODEL 2
REMARK VINA RESULT:    -1.360      1.515      6.772
REMARK INTER + INTRA:          -2.030
REMARK INTER:                  -1.674
REMARK INTRA:                  -0.355
REMARK UNBOUND:                -0.352
REMARK SMILES O=c1c(O)c(-c2cc(O)c(O)c(O)c2)oc2cc(O)cc(O)c12
REMARK SMILES IDX 5 1 3 2 2 3 1 4 23 5 21 6 20 7 18 8 17 9 16 10 15 11 6 12
REMARK SMILES IDX 7 13 8 14 14 15 10 16 12 17 9 18 11 20 13 22 4 24 22 26
REMARK SMILES IDX 19 28
REMARK H PARENT 9 19 11 21 13 23 4 25 22 27 19 29
REMARK Flexibility Score: inf
ROOT
ATOM      1  C   UNL     1     168.708 176.960 169.309  1.00  0.00     0.180 A 
ATOM      2  C   UNL     1     168.851 175.597 169.001  1.00  0.00     0.208 A 
ATOM      3  C   UNL     1     168.648 175.173 167.677  1.00  0.00     0.238 A 
ATOM      4  O   UNL     1     168.703 173.942 167.423  1.00  0.00    -0.285 OA
ATOM      5  C   UNL     1     168.360 176.124 166.669  1.00  0.00     0.111 A 
ATOM      6  C   UNL     1     168.179 175.814 165.286  1.00  0.00     0.134 A 
ATOM      7  C   UNL     1     167.792 176.823 164.396  1.00  0.00     0.093 A 
ATOM      8  C   UNL     1     167.642 178.142 164.823  1.00  0.00     0.123 A 
ATOM      9  C   UNL     1     167.870 178.467 166.161  1.00  0.00     0.094 A 
ATOM     10  C   UNL     1     168.219 177.476 167.080  1.00  0.00     0.146 A 
ATOM     11  O   UNL     1     168.405 177.825 168.347  1.00  0.00    -0.452 OA
ENDROOT
BRANCH   1  12
ATOM     12  C   UNL     1     168.892 177.481 170.683  1.00  0.00     0.029 A 
ATOM     13  C   UNL     1     167.790 177.553 171.547  1.00  0.00     0.062 A 
ATOM     14  C   UNL     1     167.931 178.020 172.859  1.00  0.00     0.162 A 
ATOM     15  C   UNL     1     170.158 177.850 171.160  1.00  0.00     0.062 A 
ATOM     16  C   UNL     1     169.208 178.412 173.327  1.00  0.00     0.200 A 
ATOM     17  C   UNL     1     170.315 178.319 172.472  1.00  0.00     0.162 A 
BRANCH  14  18
ATOM     18  O   UNL     1     166.787 178.075 173.656  1.00  0.00    -0.504 OA
ATOM     19  H   UNL     1     166.765 178.459 174.590  1.00  0.00     0.293 HD
ENDBRANCH  14  18
BRANCH  16  20
ATOM     20  O   UNL     1     169.418 178.893 174.621  1.00  0.00    -0.502 OA
ATOM     21  H   UNL     1     168.761 179.471 175.124  1.00  0.00     0.293 HD
ENDBRANCH  16  20
BRANCH  17  22
ATOM     22  O   UNL     1     171.576 178.691 172.936  1.00  0.00    -0.504 OA
ATOM     23  H   UNL     1     172.006 178.233 173.732  1.00  0.00     0.293 HD
ENDBRANCH  17  22
ENDBRANCH   1  12
BRANCH   2  24
ATOM     24  O   UNL     1     169.211 174.684 169.996  1.00  0.00    -0.502 OA
ATOM     25  H   UNL     1     170.096 174.191 169.988  1.00  0.00     0.293 HD
ENDBRANCH   2  24
BRANCH   6  26
ATOM     26  O   UNL     1     168.389 174.546 164.735  1.00  0.00    -0.507 OA
ATOM     27  H   UNL     1     168.117 173.676 165.166  1.00  0.00     0.293 HD
ENDBRANCH   6  26
BRANCH   8  28
ATOM     28  O   UNL     1     167.273 179.124 163.906  1.00  0.00    -0.508 OA
ATOM     29  H   UNL     1     166.949 178.885 162.977  1.00  0.00     0.293 HD
ENDBRANCH   8  28
TORSDOF 7
ENDMDL
MODEL 3
REMARK VINA RESULT:    -1.358      1.879      6.408
REMARK INTER + INTRA:          -2.027
REMARK INTER:                  -1.673
REMARK INTRA:                  -0.354
REMARK UNBOUND:                -0.352
REMARK SMILES O=c1c(O)c(-c2cc(O)c(O)c(O)c2)oc2cc(O)cc(O)c12
REMARK SMILES IDX 5 1 3 2 2 3 1 4 23 5 21 6 20 7 18 8 17 9 16 10 15 11 6 12
REMARK SMILES IDX 7 13 8 14 14 15 10 16 12 17 9 18 11 20 13 22 4 24 22 26
REMARK SMILES IDX 19 28
REMARK H PARENT 9 19 11 21 13 23 4 25 22 27 19 29
REMARK Flexibility Score: inf
ROOT
ATOM      1  C   UNL     1     169.040 176.856 168.722  1.00  0.00     0.180 A 
ATOM      2  C   UNL     1     168.516 175.559 168.853  1.00  0.00     0.208 A 
ATOM      3  C   UNL     1     167.567 175.110 167.918  1.00  0.00     0.238 A 
ATOM      4  O   UNL     1     167.046 173.977 168.084  1.00  0.00    -0.285 OA
ATOM      5  C   UNL     1     167.199 175.943 166.834  1.00  0.00     0.111 A 
ATOM      6  C   UNL     1     166.281 175.575 165.802  1.00  0.00     0.134 A 
ATOM      7  C   UNL     1     165.910 176.520 164.838  1.00  0.00     0.093 A 
ATOM      8  C   UNL     1     166.470 177.798 164.828  1.00  0.00     0.123 A 
ATOM      9  C   UNL     1     167.409 178.150 165.799  1.00  0.00     0.094 A 
ATOM     10  C   UNL     1     167.770 177.242 166.797  1.00  0.00     0.146 A 
ATOM     11  O   UNL     1     168.650 177.626 167.713  1.00  0.00    -0.452 OA
ENDROOT
BRANCH   1  12
ATOM     12  C   UNL     1     170.031 177.404 169.676  1.00  0.00     0.029 A 
ATOM     13  C   UNL     1     169.588 178.012 170.859  1.00  0.00     0.062 A 
ATOM     14  C   UNL     1     170.498 178.522 171.793  1.00  0.00     0.162 A 
ATOM     15  C   UNL     1     171.410 177.277 169.449  1.00  0.00     0.062 A 
ATOM     16  C   UNL     1     171.887 178.411 171.547  1.00  0.00     0.200 A 
ATOM     17  C   UNL     1     172.332 177.783 170.375  1.00  0.00     0.162 A 
BRANCH  14  18
ATOM     18  O   UNL     1     169.981 179.125 172.941  1.00  0.00    -0.504 OA
ATOM     19  H   UNL     1     170.548 179.496 173.690  1.00  0.00     0.293 HD
ENDBRANCH  14  18
BRANCH  16  20
ATOM     20  O   UNL     1     172.848 178.904 172.433  1.00  0.00    -0.502 OA
ATOM     21  H   UNL     1     173.472 178.322 172.971  1.00  0.00     0.293 HD
ENDBRANCH  16  20
BRANCH  17  22
ATOM     22  O   UNL     1     173.701 177.659 170.139  1.00  0.00    -0.504 OA
ATOM     23  H   UNL     1     174.339 178.431 170.295  1.00  0.00     0.293 HD
ENDBRANCH  17  22
ENDBRANCH   1  12
BRANCH   2  24
ATOM     24  O   UNL     1     168.950 174.724 169.887  1.00  0.00    -0.502 OA
ATOM     25  H   UNL     1     168.729 173.736 169.917  1.00  0.00     0.293 HD
ENDBRANCH   2  24
BRANCH   6  26
ATOM     26  O   UNL     1     165.729 174.298 165.665  1.00  0.00    -0.507 OA
ATOM     27  H   UNL     1     164.809 174.029 165.977  1.00  0.00     0.293 HD
ENDBRANCH   6  26
BRANCH   8  28
ATOM     28  O   UNL     1     166.091 178.707 163.843  1.00  0.00    -0.508 OA
ATOM     29  H   UNL     1     165.400 179.425 164.024  1.00  0.00     0.293 HD
ENDBRANCH   8  28
TORSDOF 7
ENDMDL
MODEL 4
REMARK VINA RESULT:    -1.335      1.295      2.526
REMARK INTER + INTRA:          -1.998
REMARK INTER:                  -1.643
REMARK INTRA:                  -0.356
REMARK UNBOUND:                -0.352
REMARK SMILES O=c1c(O)c(-c2cc(O)c(O)c(O)c2)oc2cc(O)cc(O)c12
REMARK SMILES IDX 5 1 3 2 2 3 1 4 23 5 21 6 20 7 18 8 17 9 16 10 15 11 6 12
REMARK SMILES IDX 7 13 8 14 14 15 10 16 12 17 9 18 11 20 13 22 4 24 22 26
REMARK SMILES IDX 19 28
REMARK H PARENT 9 19 11 21 13 23 4 25 22 27 19 29
REMARK Flexibility Score: inf
ROOT
ATOM      1  C   UNL     1     167.525 176.930 167.909  1.00  0.00     0.180 A 
ATOM      2  C   UNL     1     167.855 175.570 168.033  1.00  0.00     0.208 A 
ATOM      3  C   UNL     1     168.623 175.154 169.133  1.00  0.00     0.238 A 
ATOM      4  O   UNL     1     168.979 173.948 169.199  1.00  0.00    -0.285 OA
ATOM      5  C   UNL     1     169.001 176.091 170.124  1.00  0.00     0.111 A 
ATOM      6  C   UNL     1     169.741 175.774 171.304  1.00  0.00     0.134 A 
ATOM      7  C   UNL     1     170.151 176.802 172.161  1.00  0.00     0.093 A 
ATOM      8  C   UNL     1     169.795 178.128 171.917  1.00  0.00     0.123 A 
ATOM      9  C   UNL     1     169.026 178.444 170.796  1.00  0.00     0.094 A 
ATOM     10  C   UNL     1     168.635 177.445 169.902  1.00  0.00     0.146 A 
ATOM     11  O   UNL     1     167.922 177.793 168.837  1.00  0.00    -0.452 OA
ENDROOT
BRANCH   1  12
ATOM     12  C   UNL     1     166.731 177.447 166.770  1.00  0.00     0.029 A 
ATOM     13  C   UNL     1     167.390 177.888 165.614  1.00  0.00     0.062 A 
ATOM     14  C   UNL     1     166.672 178.363 164.510  1.00  0.00     0.162 A 
ATOM     15  C   UNL     1     165.329 177.452 166.800  1.00  0.00     0.062 A 
ATOM     16  C   UNL     1     165.258 178.387 164.556  1.00  0.00     0.200 A 
ATOM     17  C   UNL     1     164.596 177.925 165.702  1.00  0.00     0.162 A 
BRANCH  14  18
ATOM     18  O   UNL     1     167.398 178.796 163.399  1.00  0.00    -0.504 OA
ATOM     19  H   UNL     1     168.104 179.517 163.431  1.00  0.00     0.293 HD
ENDBRANCH  14  18
BRANCH  16  20
ATOM     20  O   UNL     1     164.480 178.854 163.494  1.00  0.00    -0.502 OA
ATOM     21  H   UNL     1     164.477 179.810 163.172  1.00  0.00     0.293 HD
ENDBRANCH  16  20
BRANCH  17  22
ATOM     22  O   UNL     1     163.202 177.933 165.743  1.00  0.00    -0.504 OA
ATOM     23  H   UNL     1     162.654 177.181 165.341  1.00  0.00     0.293 HD
ENDBRANCH  17  22
ENDBRANCH   1  12
BRANCH   2  24
ATOM     24  O   UNL     1     167.406 174.647 167.084  1.00  0.00    -0.502 OA
ATOM     25  H   UNL     1     167.919 173.801 166.864  1.00  0.00     0.293 HD
ENDBRANCH   2  24
BRANCH   6  26
ATOM     26  O   UNL     1     170.075 174.472 171.691  1.00  0.00    -0.507 OA
ATOM     27  H   UNL     1     169.481 173.858 172.226  1.00  0.00     0.293 HD
ENDBRANCH   6  26
BRANCH   8  28
ATOM     28  O   UNL     1     170.206 179.124 172.800  1.00  0.00    -0.508 OA
ATOM     29  H   UNL     1     169.638 179.944 172.975  1.00  0.00     0.293 HD
ENDBRANCH   8  28
TORSDOF 7
ENDMDL
MODEL 5
REMARK VINA RESULT:    -1.226      1.443      2.392
REMARK INTER + INTRA:          -1.865
REMARK INTER:                  -1.508
REMARK INTRA:                  -0.357
REMARK UNBOUND:                -0.352
REMARK SMILES O=c1c(O)c(-c2cc(O)c(O)c(O)c2)oc2cc(O)cc(O)c12
REMARK SMILES IDX 5 1 3 2 2 3 1 4 23 5 21 6 20 7 18 8 17 9 16 10 15 11 6 12
REMARK SMILES IDX 7 13 8 14 14 15 10 16 12 17 9 18 11 20 13 22 4 24 22 26
REMARK SMILES IDX 19 28
REMARK H PARENT 9 19 11 21 13 23 4 25 22 27 19 29
REMARK Flexibility Score: inf
ROOT
ATOM      1  C   UNL     1     168.446 176.858 167.147  1.00  0.00     0.180 A 
ATOM      2  C   UNL     1     169.123 175.627 167.146  1.00  0.00     0.208 A 
ATOM      3  C   UNL     1     169.954 175.307 168.232  1.00  0.00     0.238 A 
ATOM      4  O   UNL     1     170.616 174.238 168.190  1.00  0.00    -0.285 OA
ATOM      5  C   UNL     1     170.053 176.195 169.330  1.00  0.00     0.111 A 
ATOM      6  C   UNL     1     170.830 175.953 170.504  1.00  0.00     0.134 A 
ATOM      7  C   UNL     1     170.938 176.951 171.480  1.00  0.00     0.093 A 
ATOM      8  C   UNL     1     170.247 178.157 171.357  1.00  0.00     0.123 A 
ATOM      9  C   UNL     1     169.441 178.382 170.240  1.00  0.00     0.094 A 
ATOM     10  C   UNL     1     169.344 177.422 169.231  1.00  0.00     0.146 A 
ATOM     11  O   UNL     1     168.583 177.686 168.176  1.00  0.00    -0.452 OA
ENDROOT
BRANCH   1  12
ATOM     12  C   UNL     1     167.563 177.273 166.032  1.00  0.00     0.029 A 
ATOM     13  C   UNL     1     168.113 177.943 164.930  1.00  0.00     0.062 A 
ATOM     14  C   UNL     1     167.313 178.331 163.848  1.00  0.00     0.162 A 
ATOM     15  C   UNL     1     166.196 176.958 166.026  1.00  0.00     0.062 A 
ATOM     16  C   UNL     1     165.930 178.030 163.860  1.00  0.00     0.200 A 
ATOM     17  C   UNL     1     165.383 177.339 164.951  1.00  0.00     0.162 A 
BRANCH  14  18
ATOM     18  O   UNL     1     167.929 179.006 162.793  1.00  0.00    -0.504 OA
ATOM     19  H   UNL     1     168.704 179.643 162.904  1.00  0.00     0.293 HD
ENDBRANCH  14  18
BRANCH  16  20
ATOM     20  O   UNL     1     165.074 178.394 162.818  1.00  0.00    -0.502 OA
ATOM     21  H   UNL     1     164.166 178.813 162.951  1.00  0.00     0.293 HD
ENDBRANCH  16  20
BRANCH  17  22
ATOM     22  O   UNL     1     164.024 177.029 164.956  1.00  0.00    -0.504 OA
ATOM     23  H   UNL     1     163.501 176.949 165.821  1.00  0.00     0.293 HD
ENDBRANCH  17  22
ENDBRANCH   1  12
BRANCH   2  24
ATOM     24  O   UNL     1     168.952 174.730 166.088  1.00  0.00    -0.502 OA
ATOM     25  H   UNL     1     169.414 174.849 165.194  1.00  0.00     0.293 HD
ENDBRANCH   2  24
BRANCH   6  26
ATOM     26  O   UNL     1     171.490 174.749 170.771  1.00  0.00    -0.507 OA
ATOM     27  H   UNL     1     171.769 174.433 171.686  1.00  0.00     0.293 HD
ENDBRANCH   6  26
BRANCH   8  28
ATOM     28  O   UNL     1     170.363 179.121 172.355  1.00  0.00    -0.508 OA
ATOM     29  H   UNL     1     169.642 179.248 173.055  1.00  0.00     0.293 HD
ENDBRANCH   8  28
TORSDOF 7
ENDMDL
MODEL 6
REMARK VINA RESULT:    -1.207      1.925      2.223
REMARK INTER + INTRA:          -1.841
REMARK INTER:                  -1.476
REMARK INTRA:                  -0.365
REMARK UNBOUND:                -0.352
REMARK SMILES O=c1c(O)c(-c2cc(O)c(O)c(O)c2)oc2cc(O)cc(O)c12
REMARK SMILES IDX 5 1 3 2 2 3 1 4 23 5 21 6 20 7 18 8 17 9 16 10 15 11 6 12
REMARK SMILES IDX 7 13 8 14 14 15 10 16 12 17 9 18 11 20 13 22 4 24 22 26
REMARK SMILES IDX 19 28
REMARK H PARENT 9 19 11 21 13 23 4 25 22 27 19 29
REMARK Flexibility Score: inf
ROOT
ATOM      1  C   UNL     1     168.917 176.803 166.995  1.00  0.00     0.180 A 
ATOM      2  C   UNL     1     169.424 175.493 166.987  1.00  0.00     0.208 A 
ATOM      3  C   UNL     1     170.396 175.133 167.936  1.00  0.00     0.238 A 
ATOM      4  O   UNL     1     170.900 173.982 167.875  1.00  0.00    -0.285 OA
ATOM      5  C   UNL     1     170.805 176.069 168.915  1.00  0.00     0.111 A 
ATOM      6  C   UNL     1     171.749 175.800 169.953  1.00  0.00     0.134 A 
ATOM      7  C   UNL     1     172.158 176.836 170.801  1.00  0.00     0.093 A 
ATOM      8  C   UNL     1     171.612 178.114 170.693  1.00  0.00     0.123 A 
ATOM      9  C   UNL     1     170.648 178.376 169.718  1.00  0.00     0.094 A 
ATOM     10  C   UNL     1     170.249 177.373 168.832  1.00  0.00     0.146 A 
ATOM     11  O   UNL     1     169.345 177.670 167.906  1.00  0.00    -0.452 OA
ENDROOT
BRANCH   1  12
ATOM     12  C   UNL     1     167.903 177.262 166.018  1.00  0.00     0.029 A 
ATOM     13  C   UNL     1     166.544 177.203 166.357  1.00  0.00     0.062 A 
ATOM     14  C   UNL     1     165.559 177.648 165.467  1.00  0.00     0.162 A 
ATOM     15  C   UNL     1     168.275 177.809 164.781  1.00  0.00     0.062 A 
ATOM     16  C   UNL     1     165.940 178.177 164.211  1.00  0.00     0.200 A 
ATOM     17  C   UNL     1     167.300 178.258 163.880  1.00  0.00     0.162 A 
BRANCH  14  18
ATOM     18  O   UNL     1     164.226 177.546 165.868  1.00  0.00    -0.504 OA
ATOM     19  H   UNL     1     163.612 176.789 165.607  1.00  0.00     0.293 HD
ENDBRANCH  14  18
BRANCH  16  20
ATOM     20  O   UNL     1     165.009 178.632 163.274  1.00  0.00    -0.502 OA
ATOM     21  H   UNL     1     164.778 178.142 162.423  1.00  0.00     0.293 HD
ENDBRANCH  16  20
BRANCH  17  22
ATOM     22  O   UNL     1     167.678 178.794 162.649  1.00  0.00    -0.504 OA
ATOM     23  H   UNL     1     167.639 178.247 161.797  1.00  0.00     0.293 HD
ENDBRANCH  17  22
ENDBRANCH   1  12
BRANCH   2  24
ATOM     24  O   UNL     1     168.951 174.560 166.059  1.00  0.00    -0.502 OA
ATOM     25  H   UNL     1     168.533 173.681 166.337  1.00  0.00     0.293 HD
ENDBRANCH   2  24
BRANCH   6  26
ATOM     26  O   UNL     1     172.292 174.537 170.208  1.00  0.00    -0.507 OA
ATOM     27  H   UNL     1     172.859 174.011 169.562  1.00  0.00     0.293 HD
ENDBRANCH   6  26
BRANCH   8  28
ATOM     28  O   UNL     1     172.029 179.117 171.565  1.00  0.00    -0.508 OA
ATOM     29  H   UNL     1     172.652 178.920 172.339  1.00  0.00     0.293 HD
ENDBRANCH   8  28
TORSDOF 7
ENDMDL
MODEL 7
REMARK VINA RESULT:    -1.198      2.368      3.335
REMARK INTER + INTRA:          -1.830
REMARK INTER:                  -1.477
REMARK INTRA:                  -0.352
REMARK UNBOUND:                -0.352
REMARK SMILES O=c1c(O)c(-c2cc(O)c(O)c(O)c2)oc2cc(O)cc(O)c12
REMARK SMILES IDX 5 1 3 2 2 3 1 4 23 5 21 6 20 7 18 8 17 9 16 10 15 11 6 12
REMARK SMILES IDX 7 13 8 14 14 15 10 16 12 17 9 18 11 20 13 22 4 24 22 26
REMARK SMILES IDX 19 28
REMARK H PARENT 9 19 11 21 13 23 4 25 22 27 19 29
REMARK Flexibility Score: inf
ROOT
ATOM      1  C   UNL     1     169.595 177.641 167.990  1.00  0.00     0.180 A 
ATOM      2  C   UNL     1     168.838 177.641 169.174  1.00  0.00     0.208 A 
ATOM      3  C   UNL     1     169.485 177.894 170.396  1.00  0.00     0.238 A 
ATOM      4  O   UNL     1     168.816 177.818 171.459  1.00  0.00    -0.285 OA
ATOM      5  C   UNL     1     170.867 178.200 170.411  1.00  0.00     0.111 A 
ATOM      6  C   UNL     1     171.616 178.518 171.585  1.00  0.00     0.134 A 
ATOM      7  C   UNL     1     173.002 178.699 171.493  1.00  0.00     0.093 A 
ATOM      8  C   UNL     1     173.656 178.638 170.263  1.00  0.00     0.123 A 
ATOM      9  C   UNL     1     172.926 178.383 169.101  1.00  0.00     0.094 A 
ATOM     10  C   UNL     1     171.549 178.159 169.166  1.00  0.00     0.146 A 
ATOM     11  O   UNL     1     170.896 177.899 168.040  1.00  0.00    -0.452 OA
ENDROOT
BRANCH   1  12
ATOM     12  C   UNL     1     168.987 177.368 166.668  1.00  0.00     0.029 A 
ATOM     13  C   UNL     1     168.967 176.056 166.175  1.00  0.00     0.062 A 
ATOM     14  C   UNL     1     168.383 175.758 164.938  1.00  0.00     0.162 A 
ATOM     15  C   UNL     1     168.378 178.387 165.920  1.00  0.00     0.062 A 
ATOM     16  C   UNL     1     167.790 176.795 164.179  1.00  0.00     0.200 A 
ATOM     17  C   UNL     1     167.788 178.104 164.681  1.00  0.00     0.162 A 
BRANCH  14  18
ATOM     18  O   UNL     1     168.413 174.430 164.508  1.00  0.00    -0.504 OA
ATOM     19  H   UNL     1     167.639 173.788 164.599  1.00  0.00     0.293 HD
ENDBRANCH  14  18
BRANCH  16  20
ATOM     20  O   UNL     1     167.195 176.568 162.935  1.00  0.00    -0.502 OA
ATOM     21  H   UNL     1     167.675 176.665 162.053  1.00  0.00     0.293 HD
ENDBRANCH  16  20
BRANCH  17  22
ATOM     22  O   UNL     1     167.190 179.123 163.941  1.00  0.00    -0.504 OA
ATOM     23  H   UNL     1     167.635 180.026 163.824  1.00  0.00     0.293 HD
ENDBRANCH  17  22
ENDBRANCH   1  12
BRANCH   2  24
ATOM     24  O   UNL     1     167.460 177.412 169.130  1.00  0.00    -0.502 OA
ATOM     25  H   UNL     1     166.936 177.417 168.263  1.00  0.00     0.293 HD
ENDBRANCH   2  24
BRANCH   6  26
ATOM     26  O   UNL     1     171.050 178.690 172.852  1.00  0.00    -0.507 OA
ATOM     27  H   UNL     1     170.273 178.160 173.214  1.00  0.00     0.293 HD
ENDBRANCH   6  26
BRANCH   8  28
ATOM     28  O   UNL     1     175.033 178.841 170.206  1.00  0.00    -0.508 OA
ATOM     29  H   UNL     1     175.554 178.702 169.348  1.00  0.00     0.293 HD
ENDBRANCH   8  28
TORSDOF 7
ENDMDL
MODEL 8
REMARK VINA RESULT:    -1.118      2.108      3.233
REMARK INTER + INTRA:          -1.732
REMARK INTER:                  -1.371
REMARK INTRA:                  -0.361
REMARK UNBOUND:                -0.352
REMARK SMILES O=c1c(O)c(-c2cc(O)c(O)c(O)c2)oc2cc(O)cc(O)c12
REMARK SMILES IDX 5 1 3 2 2 3 1 4 23 5 21 6 20 7 18 8 17 9 16 10 15 11 6 12
REMARK SMILES IDX 7 13 8 14 14 15 10 16 12 17 9 18 11 20 13 22 4 24 22 26
REMARK SMILES IDX 19 28
REMARK H PARENT 9 19 11 21 13 23 4 25 22 27 19 29
REMARK Flexibility Score: inf
ROOT
ATOM      1  C   UNL     1     168.934 177.718 167.641  1.00  0.00     0.180 A 
ATOM      2  C   UNL     1     170.267 178.161 167.648  1.00  0.00     0.208 A 
ATOM      3  C   UNL     1     170.848 178.555 168.865  1.00  0.00     0.238 A 
ATOM      4  O   UNL     1     172.016 179.022 168.853  1.00  0.00    -0.285 OA
ATOM      5  C   UNL     1     170.107 178.448 170.066  1.00  0.00     0.111 A 
ATOM      6  C   UNL     1     170.609 178.776 171.363  1.00  0.00     0.134 A 
ATOM      7  C   UNL     1     169.750 178.731 172.468  1.00  0.00     0.093 A 
ATOM      8  C   UNL     1     168.427 178.309 172.337  1.00  0.00     0.123 A 
ATOM      9  C   UNL     1     167.941 177.933 171.084  1.00  0.00     0.094 A 
ATOM     10  C   UNL     1     168.762 178.005 169.956  1.00  0.00     0.146 A 
ATOM     11  O   UNL     1     168.253 177.658 168.780  1.00  0.00    -0.452 OA
ENDROOT
BRANCH   1  12
ATOM     12  C   UNL     1     168.249 177.299 166.397  1.00  0.00     0.029 A 
ATOM     13  C   UNL     1     168.322 175.961 165.986  1.00  0.00     0.062 A 
ATOM     14  C   UNL     1     167.669 175.525 164.827  1.00  0.00     0.162 A 
ATOM     15  C   UNL     1     167.478 178.201 165.649  1.00  0.00     0.062 A 
ATOM     16  C   UNL     1     166.912 176.445 164.064  1.00  0.00     0.200 A 
ATOM     17  C   UNL     1     166.819 177.779 164.486  1.00  0.00     0.162 A 
BRANCH  14  18
ATOM     18  O   UNL     1     167.799 174.180 164.474  1.00  0.00    -0.504 OA
ATOM     19  H   UNL     1     167.580 173.811 163.560  1.00  0.00     0.293 HD
ENDBRANCH  14  18
BRANCH  16  20
ATOM     20  O   UNL     1     166.242 176.079 162.894  1.00  0.00    -0.502 OA
ATOM     21  H   UNL     1     165.845 175.166 162.733  1.00  0.00     0.293 HD
ENDBRANCH  16  20
BRANCH  17  22
ATOM     22  O   UNL     1     166.061 178.684 163.744  1.00  0.00    -0.504 OA
ATOM     23  H   UNL     1     165.185 179.056 164.093  1.00  0.00     0.293 HD
ENDBRANCH  17  22
ENDBRANCH   1  12
BRANCH   2  24
ATOM     24  O   UNL     1     171.007 178.188 166.462  1.00  0.00    -0.502 OA
ATOM     25  H   UNL     1     170.749 177.643 165.648  1.00  0.00     0.293 HD
ENDBRANCH   2  24
BRANCH   6  26
ATOM     26  O   UNL     1     171.938 179.125 171.622  1.00  0.00    -0.507 OA
ATOM     27  H   UNL     1     172.732 178.519 171.488  1.00  0.00     0.293 HD
ENDBRANCH   6  26
BRANCH   8  28
ATOM     28  O   UNL     1     167.606 178.261 173.461  1.00  0.00    -0.508 OA
ATOM     29  H   UNL     1     167.991 178.192 174.395  1.00  0.00     0.293 HD
ENDBRANCH   8  28
TORSDOF 7
ENDMDL
