MODEL 1
REMARK VINA RESULT:    -5.308      0.000      0.000
REMARK INTER + INTRA:          -5.308
REMARK INTER:                  -5.308
REMARK INTRA:                   0.000
REMARK UNBOUND:                 0.000
REMARK SMILES CC1=CC[C@@]2(C)CCCC(C)(C)[C@]23C[C@H]13
REMARK SMILES IDX 1 1 2 2 3 3 4 4 5 5 7 6 8 7 9 8 10 9 13 10 15 11 14 12 11 13
REMARK SMILES IDX 12 14 6 15
REMARK H PARENT
REMARK Flexibility Score: inf
ROOT
ATOM      1  C   UNL     1       2.670   6.010  14.265  1.00  0.00     0.039 C 
ATOM      2  C   UNL     1       1.267   5.750  13.789  1.00  0.00    -0.074 C 
ATOM      3  C   UNL     1       0.865   6.303  12.637  1.00  0.00    -0.027 C 
ATOM      4  C   UNL     1      -0.552   6.227  12.174  1.00  0.00     0.034 C 
ATOM      5  C   UNL     1      -1.260   4.871  12.481  1.00  0.00    -0.022 C 
ATOM      6  C   UNL     1      -0.820   3.840  11.409  1.00  0.00     0.008 C 
ATOM      7  C   UNL     1      -1.347   2.422  11.666  1.00  0.00     0.001 C 
ATOM      8  C   UNL     1      -0.909   1.890  13.034  1.00  0.00     0.007 C 
ATOM      9  C   UNL     1      -1.311   2.788  14.238  1.00  0.00    -0.029 C 
ATOM     10  C   UNL     1      -0.911   4.293  13.912  1.00  0.00    -0.012 C 
ATOM     11  C   UNL     1       0.396   4.793  14.571  1.00  0.00     0.022 C 
ATOM     12  C   UNL     1      -0.952   5.324  15.055  1.00  0.00     0.017 C 
ATOM     13  C   UNL     1      -0.598   2.182  15.483  1.00  0.00     0.012 C 
ATOM     14  C   UNL     1      -2.832   2.674  14.516  1.00  0.00     0.012 C 
ATOM     15  C   UNL     1      -2.781   5.162  12.347  1.00  0.00     0.012 C 
ENDROOT
TORSDOF 0
ENDMDL
MODEL 2
REMARK VINA RESULT:    -5.280      1.117      4.313
REMARK INTER + INTRA:          -5.280
REMARK INTER:                  -5.280
REMARK INTRA:                   0.000
REMARK UNBOUND:                 0.000
REMARK SMILES CC1=CC[C@@]2(C)CCCC(C)(C)[C@]23C[C@H]13
REMARK SMILES IDX 1 1 2 2 3 3 4 4 5 5 7 6 8 7 9 8 10 9 13 10 15 11 14 12 11 13
REMARK SMILES IDX 12 14 6 15
REMARK H PARENT
REMARK Flexibility Score: inf
ROOT
ATOM      1  C   UNL     1      -1.097   1.075  11.409  1.00  0.00     0.039 C 
ATOM      2  C   UNL     1      -0.998   2.232  12.365  1.00  0.00    -0.074 C 
ATOM      3  C   UNL     1      -0.211   2.111  13.443  1.00  0.00    -0.027 C 
ATOM      4  C   UNL     1      -0.179   3.145  14.520  1.00  0.00     0.034 C 
ATOM      5  C   UNL     1      -0.293   4.615  14.007  1.00  0.00    -0.022 C 
ATOM      6  C   UNL     1       1.101   5.059  13.493  1.00  0.00     0.008 C 
ATOM      7  C   UNL     1       1.102   6.449  12.842  1.00  0.00     0.001 C 
ATOM      8  C   UNL     1       0.122   6.528  11.666  1.00  0.00     0.007 C 
ATOM      9  C   UNL     1      -1.345   6.154  12.019  1.00  0.00    -0.029 C 
ATOM     10  C   UNL     1      -1.344   4.789  12.837  1.00  0.00    -0.012 C 
ATOM     11  C   UNL     1      -1.705   3.524  12.023  1.00  0.00     0.022 C 
ATOM     12  C   UNL     1      -2.686   4.069  13.059  1.00  0.00     0.017 C 
ATOM     13  C   UNL     1      -2.111   6.098  10.664  1.00  0.00     0.012 C 
ATOM     14  C   UNL     1      -2.011   7.285  12.843  1.00  0.00     0.012 C 
ATOM     15  C   UNL     1      -0.693   5.454  15.253  1.00  0.00     0.012 C 
ENDROOT
TORSDOF 0
ENDMDL
MODEL 3
REMARK VINA RESULT:    -5.114      1.435      4.006
REMARK INTER + INTRA:          -5.114
REMARK INTER:                  -5.114
REMARK INTRA:                   0.000
REMARK UNBOUND:                 0.000
REMARK SMILES CC1=CC[C@@]2(C)CCCC(C)(C)[C@]23C[C@H]13
REMARK SMILES IDX 1 1 2 2 3 3 4 4 5 5 7 6 8 7 9 8 10 9 13 10 15 11 14 12 11 13
REMARK SMILES IDX 12 14 6 15
REMARK H PARENT
REMARK Flexibility Score: inf
ROOT
ATOM      1  C   UNL     1      -2.687   0.416  14.468  1.00  0.00     0.039 C 
ATOM      2  C   UNL     1      -1.864   1.605  14.055  1.00  0.00    -0.074 C 
ATOM      3  C   UNL     1      -0.589   1.412  13.696  1.00  0.00    -0.027 C 
ATOM      4  C   UNL     1       0.339   2.550  13.426  1.00  0.00     0.034 C 
ATOM      5  C   UNL     1      -0.322   3.765  12.703  1.00  0.00    -0.022 C 
ATOM      6  C   UNL     1      -0.414   3.437  11.190  1.00  0.00     0.008 C 
ATOM      7  C   UNL     1      -1.164   4.501  10.375  1.00  0.00     0.001 C 
ATOM      8  C   UNL     1      -2.588   4.719  10.895  1.00  0.00     0.007 C 
ATOM      9  C   UNL     1      -2.678   5.101  12.399  1.00  0.00    -0.029 C 
ATOM     10  C   UNL     1      -1.774   4.097  13.239  1.00  0.00    -0.012 C 
ATOM     11  C   UNL     1      -2.533   2.958  13.959  1.00  0.00     0.022 C 
ATOM     12  C   UNL     1      -1.915   4.094  14.771  1.00  0.00     0.017 C 
ATOM     13  C   UNL     1      -4.193   5.067  12.761  1.00  0.00     0.012 C 
ATOM     14  C   UNL     1      -2.218   6.564  12.616  1.00  0.00     0.012 C 
ATOM     15  C   UNL     1       0.649   4.957  12.932  1.00  0.00     0.012 C 
ENDROOT
TORSDOF 0
ENDMDL
MODEL 4
REMARK VINA RESULT:    -5.102      0.986      1.113
REMARK INTER + INTRA:          -5.102
REMARK INTER:                  -5.102
REMARK INTRA:                   0.000
REMARK UNBOUND:                 0.000
REMARK SMILES CC1=CC[C@@]2(C)CCCC(C)(C)[C@]23C[C@H]13
REMARK SMILES IDX 1 1 2 2 3 3 4 4 5 5 7 6 8 7 9 8 10 9 13 10 15 11 14 12 11 13
REMARK SMILES IDX 12 14 6 15
REMARK H PARENT
REMARK Flexibility Score: inf
ROOT
ATOM      1  C   UNL     1       2.006   7.262  12.801  1.00  0.00     0.039 C 
ATOM      2  C   UNL     1       0.681   6.580  12.594  1.00  0.00    -0.074 C 
ATOM      3  C   UNL     1      -0.021   6.861  11.488  1.00  0.00    -0.027 C 
ATOM      4  C   UNL     1      -1.410   6.353  11.282  1.00  0.00     0.034 C 
ATOM      5  C   UNL     1      -1.652   4.904  11.809  1.00  0.00    -0.022 C 
ATOM      6  C   UNL     1      -1.095   3.906  10.760  1.00  0.00     0.008 C 
ATOM      7  C   UNL     1      -1.156   2.441  11.213  1.00  0.00     0.001 C 
ATOM      8  C   UNL     1      -0.393   2.217  12.522  1.00  0.00     0.007 C 
ATOM      9  C   UNL     1      -0.858   3.113  13.704  1.00  0.00    -0.029 C 
ATOM     10  C   UNL     1      -0.952   4.619  13.200  1.00  0.00    -0.012 C 
ATOM     11  C   UNL     1       0.240   5.527  13.585  1.00  0.00     0.022 C 
ATOM     12  C   UNL     1      -1.120   5.732  14.250  1.00  0.00     0.017 C 
ATOM     13  C   UNL     1       0.169   2.877  14.852  1.00  0.00     0.012 C 
ATOM     14  C   UNL     1      -2.227   2.631  14.247  1.00  0.00     0.012 C 
ATOM     15  C   UNL     1      -3.195   4.759  11.916  1.00  0.00     0.012 C 
ENDROOT
TORSDOF 0
ENDMDL
MODEL 5
REMARK VINA RESULT:    -5.052      1.264      3.758
REMARK INTER + INTRA:          -5.052
REMARK INTER:                  -5.052
REMARK INTRA:                   0.000
REMARK UNBOUND:                 0.000
REMARK SMILES CC1=CC[C@@]2(C)CCCC(C)(C)[C@]23C[C@H]13
REMARK SMILES IDX 1 1 2 2 3 3 4 4 5 5 7 6 8 7 9 8 10 9 13 10 15 11 14 12 11 13
REMARK SMILES IDX 12 14 6 15
REMARK H PARENT
REMARK Flexibility Score: inf
ROOT
ATOM      1  C   UNL     1      -3.986   4.743  10.188  1.00  0.00     0.039 C 
ATOM      2  C   UNL     1      -2.703   4.989  10.934  1.00  0.00    -0.074 C 
ATOM      3  C   UNL     1      -2.270   6.249  11.071  1.00  0.00    -0.027 C 
ATOM      4  C   UNL     1      -0.933   6.567  11.656  1.00  0.00     0.034 C 
ATOM      5  C   UNL     1      -0.509   5.643  12.839  1.00  0.00    -0.022 C 
ATOM      6  C   UNL     1      -1.226   6.137  14.123  1.00  0.00     0.008 C 
ATOM      7  C   UNL     1      -0.994   5.234  15.343  1.00  0.00     0.001 C 
ATOM      8  C   UNL     1      -1.445   3.794  15.080  1.00  0.00     0.007 C 
ATOM      9  C   UNL     1      -0.785   3.124  13.843  1.00  0.00    -0.029 C 
ATOM     10  C   UNL     1      -0.879   4.121  12.607  1.00  0.00    -0.012 C 
ATOM     11  C   UNL     1      -2.005   3.820  11.591  1.00  0.00     0.022 C 
ATOM     12  C   UNL     1      -0.547   3.581  11.204  1.00  0.00     0.017 C 
ATOM     13  C   UNL     1      -1.528   1.769  13.641  1.00  0.00     0.012 C 
ATOM     14  C   UNL     1       0.692   2.763  14.144  1.00  0.00     0.012 C 
ATOM     15  C   UNL     1       1.027   5.834  12.979  1.00  0.00     0.012 C 
ENDROOT
TORSDOF 0
ENDMDL
MODEL 6
REMARK VINA RESULT:    -4.908      1.397      3.981
REMARK INTER + INTRA:          -4.908
REMARK INTER:                  -4.908
REMARK INTRA:                   0.000
REMARK UNBOUND:                 0.000
REMARK SMILES CC1=CC[C@@]2(C)CCCC(C)(C)[C@]23C[C@H]13
REMARK SMILES IDX 1 1 2 2 3 3 4 4 5 5 7 6 8 7 9 8 10 9 13 10 15 11 14 12 11 13
REMARK SMILES IDX 12 14 6 15
REMARK H PARENT
REMARK Flexibility Score: inf
ROOT
ATOM      1  C   UNL     1      -1.738  -0.037  14.077  1.00  0.00     0.039 C 
ATOM      2  C   UNL     1      -1.390   1.119  13.179  1.00  0.00    -0.074 C 
ATOM      3  C   UNL     1      -1.638   1.012  11.867  1.00  0.00    -0.027 C 
ATOM      4  C   UNL     1      -1.180   2.043  10.889  1.00  0.00     0.034 C 
ATOM      5  C   UNL     1      -1.267   3.512  11.410  1.00  0.00    -0.022 C 
ATOM      6  C   UNL     1      -2.737   3.988  11.276  1.00  0.00     0.008 C 
ATOM      7  C   UNL     1      -2.990   5.380  11.873  1.00  0.00     0.001 C 
ATOM      8  C   UNL     1      -2.611   5.441  13.356  1.00  0.00     0.007 C 
ATOM      9  C   UNL     1      -1.144   5.033  13.668  1.00  0.00    -0.029 C 
ATOM     10  C   UNL     1      -0.821   3.667  12.921  1.00  0.00    -0.012 C 
ATOM     11  C   UNL     1      -0.873   2.396  13.802  1.00  0.00     0.022 C 
ATOM     12  C   UNL     1       0.470   2.917  13.295  1.00  0.00     0.017 C 
ATOM     13  C   UNL     1      -1.039   4.964  15.221  1.00  0.00     0.012 C 
ATOM     14  C   UNL     1      -0.164   6.147  13.220  1.00  0.00     0.012 C 
ATOM     15  C   UNL     1      -0.351   4.338  10.465  1.00  0.00     0.012 C 
ENDROOT
TORSDOF 0
ENDMDL
MODEL 7
REMARK VINA RESULT:    -4.810      1.561      2.835
REMARK INTER + INTRA:          -4.810
REMARK INTER:                  -4.810
REMARK INTRA:                   0.000
REMARK UNBOUND:                 0.000
REMARK SMILES CC1=CC[C@@]2(C)CCCC(C)(C)[C@]23C[C@H]13
REMARK SMILES IDX 1 1 2 2 3 3 4 4 5 5 7 6 8 7 9 8 10 9 13 10 15 11 14 12 11 13
REMARK SMILES IDX 12 14 6 15
REMARK H PARENT
REMARK Flexibility Score: inf
ROOT
ATOM      1  C   UNL     1       0.853   7.350   9.380  1.00  0.00     0.039 C 
ATOM      2  C   UNL     1      -0.192   6.656  10.210  1.00  0.00    -0.074 C 
ATOM      3  C   UNL     1      -1.287   6.184   9.601  1.00  0.00    -0.027 C 
ATOM      4  C   UNL     1      -2.441   5.626  10.368  1.00  0.00     0.034 C 
ATOM      5  C   UNL     1      -2.039   4.801  11.630  1.00  0.00    -0.022 C 
ATOM      6  C   UNL     1      -1.617   3.382  11.168  1.00  0.00     0.008 C 
ATOM      7  C   UNL     1      -1.075   2.503  12.304  1.00  0.00     0.001 C 
ATOM      8  C   UNL     1       0.129   3.147  12.999  1.00  0.00     0.007 C 
ATOM      9  C   UNL     1      -0.135   4.569  13.566  1.00  0.00    -0.029 C 
ATOM     10  C   UNL     1      -0.845   5.446  12.444  1.00  0.00    -0.012 C 
ATOM     11  C   UNL     1       0.078   6.425  11.679  1.00  0.00     0.022 C 
ATOM     12  C   UNL     1      -0.957   6.965  12.665  1.00  0.00     0.017 C 
ATOM     13  C   UNL     1       1.250   5.110  14.032  1.00  0.00     0.012 C 
ATOM     14  C   UNL     1      -1.016   4.492  14.839  1.00  0.00     0.012 C 
ATOM     15  C   UNL     1      -3.329   4.719  12.494  1.00  0.00     0.012 C 
ENDROOT
TORSDOF 0
ENDMDL
MODEL 8
REMARK VINA RESULT:    -4.723      1.446      3.827
REMARK INTER + INTRA:          -4.723
REMARK INTER:                  -4.723
REMARK INTRA:                   0.000
REMARK UNBOUND:                 0.000
REMARK SMILES CC1=CC[C@@]2(C)CCCC(C)(C)[C@]23C[C@H]13
REMARK SMILES IDX 1 1 2 2 3 3 4 4 5 5 7 6 8 7 9 8 10 9 13 10 15 11 14 12 11 13
REMARK SMILES IDX 12 14 6 15
REMARK H PARENT
REMARK Flexibility Score: inf
ROOT
ATOM      1  C   UNL     1      -1.056   1.660  14.883  1.00  0.00     0.039 C 
ATOM      2  C   UNL     1      -1.292   3.101  14.521  1.00  0.00    -0.074 C 
ATOM      3  C   UNL     1      -0.715   4.054  15.263  1.00  0.00    -0.027 C 
ATOM      4  C   UNL     1      -1.022   5.503  15.072  1.00  0.00     0.034 C 
ATOM      5  C   UNL     1      -1.228   5.927  13.584  1.00  0.00    -0.022 C 
ATOM      6  C   UNL     1       0.168   6.103  12.932  1.00  0.00     0.008 C 
ATOM      7  C   UNL     1       0.110   6.399  11.427  1.00  0.00     0.001 C 
ATOM      8  C   UNL     1      -0.631   5.301  10.658  1.00  0.00     0.007 C 
ATOM      9  C   UNL     1      -2.076   5.023  11.157  1.00  0.00    -0.029 C 
ATOM     10  C   UNL     1      -2.052   4.872  12.741  1.00  0.00    -0.012 C 
ATOM     11  C   UNL     1      -2.084   3.419  13.273  1.00  0.00     0.022 C 
ATOM     12  C   UNL     1      -3.306   4.319  13.442  1.00  0.00     0.017 C 
ATOM     13  C   UNL     1      -2.558   3.754  10.392  1.00  0.00     0.012 C 
ATOM     14  C   UNL     1      -3.028   6.169  10.731  1.00  0.00     0.012 C 
ATOM     15  C   UNL     1      -1.963   7.295  13.646  1.00  0.00     0.012 C 
ENDROOT
TORSDOF 0
ENDMDL
MODEL 9
REMARK VINA RESULT:    -4.654      1.706      4.169
REMARK INTER + INTRA:          -4.654
REMARK INTER:                  -4.654
REMARK INTRA:                   0.000
REMARK UNBOUND:                 0.000
REMARK SMILES CC1=CC[C@@]2(C)CCCC(C)(C)[C@]23C[C@H]13
REMARK SMILES IDX 1 1 2 2 3 3 4 4 5 5 7 6 8 7 9 8 10 9 13 10 15 11 14 12 11 13
REMARK SMILES IDX 12 14 6 15
REMARK H PARENT
REMARK Flexibility Score: inf
ROOT
ATOM      1  C   UNL     1      -1.965   2.637  14.911  1.00  0.00     0.039 C 
ATOM      2  C   UNL     1      -1.646   3.409  13.660  1.00  0.00    -0.074 C 
ATOM      3  C   UNL     1      -1.372   2.731  12.538  1.00  0.00    -0.027 C 
ATOM      4  C   UNL     1      -0.892   3.412  11.298  1.00  0.00     0.034 C 
ATOM      5  C   UNL     1      -1.552   4.800  11.028  1.00  0.00    -0.022 C 
ATOM      6  C   UNL     1      -2.948   4.560  10.396  1.00  0.00     0.008 C 
ATOM      7  C   UNL     1      -3.761   5.846  10.195  1.00  0.00     0.001 C 
ATOM      8  C   UNL     1      -3.967   6.602  11.511  1.00  0.00     0.007 C 
ATOM      9  C   UNL     1      -2.656   6.965  12.262  1.00  0.00    -0.029 C 
ATOM     10  C   UNL     1      -1.732   5.673  12.337  1.00  0.00    -0.012 C 
ATOM     11  C   UNL     1      -1.750   4.917  13.687  1.00  0.00     0.022 C 
ATOM     12  C   UNL     1      -0.508   5.702  13.269  1.00  0.00     0.017 C 
ATOM     13  C   UNL     1      -3.096   7.529  13.646  1.00  0.00     0.012 C 
ATOM     14  C   UNL     1      -1.920   8.123  11.541  1.00  0.00     0.012 C 
ATOM     15  C   UNL     1      -0.619   5.506  10.006  1.00  0.00     0.012 C 
ENDROOT
TORSDOF 0
ENDMDL
