MODEL 1
REMARK VINA RESULT:    -2.508      0.000      0.000
REMARK INTER + INTRA:          -2.906
REMARK INTER:                  -2.655
REMARK INTRA:                  -0.251
REMARK UNBOUND:                -0.251
REMARK SMILES C=C1CC[C@H](C(C)C)[C@@H]2C=C(C)CC[C@H]12
REMARK SMILES IDX 12 1 11 2 10 3 9 4 15 5 14 6 13 7 2 8 1 9 3 10 4 11 5 12
REMARK SMILES IDX 6 13 7 14 8 15
REMARK H PARENT
REMARK Flexibility Score: inf
ROOT
ATOM      1  C   UNL     1     167.314 156.193 139.525  1.00  0.00     0.039 C 
ATOM      2  C   UNL     1     165.846 156.512 139.580  1.00  0.00    -0.077 C 
ATOM      3  C   UNL     1     165.389 157.446 140.430  1.00  0.00    -0.024 C 
ATOM      4  C   UNL     1     163.901 157.761 140.492  1.00  0.00     0.022 C 
ATOM      5  C   UNL     1     163.242 157.814 139.066  1.00  0.00     0.022 C 
ATOM      6  C   UNL     1     164.013 156.978 137.999  1.00  0.00     0.013 C 
ATOM      7  C   UNL     1     164.874 155.875 138.622  1.00  0.00     0.031 C 
ATOM      8  C   UNL     1     162.963 159.222 138.536  1.00  0.00    -0.074 C 
ATOM      9  C   UNL     1     162.265 159.364 137.394  1.00  0.00     0.008 C 
ATOM     10  C   UNL     1     163.331 160.485 139.285  1.00  0.00     0.031 C 
ATOM     11  C   UNL     1     164.112 160.255 140.580  1.00  0.00     0.009 C 
ATOM     12  C   UNL     1     163.584 159.024 141.345  1.00  0.00    -0.001 C 
ENDROOT
BRANCH  12  13
ATOM     13  C   UNL     1     164.123 158.977 142.820  1.00  0.00    -0.014 C 
ATOM     14  C   UNL     1     165.257 159.998 143.036  1.00  0.00     0.007 C 
ATOM     15  C   UNL     1     163.023 159.250 143.864  1.00  0.00     0.007 C 
ENDBRANCH  12  13
TORSDOF 1
ENDMDL
MODEL 2
REMARK VINA RESULT:    -2.507     14.008     16.159
REMARK INTER + INTRA:          -2.904
REMARK INTER:                  -2.634
REMARK INTRA:                  -0.270
REMARK UNBOUND:                -0.251
REMARK SMILES C=C1CC[C@H](C(C)C)[C@@H]2C=C(C)CC[C@H]12
REMARK SMILES IDX 12 1 11 2 10 3 9 4 15 5 14 6 13 7 2 8 1 9 3 10 4 11 5 12
REMARK SMILES IDX 6 13 7 14 8 15
REMARK H PARENT
REMARK Flexibility Score: inf
ROOT
ATOM      1  C   UNL     1     164.809 175.873 139.500  1.00  0.00     0.039 C 
ATOM      2  C   UNL     1     166.265 175.503 139.563  1.00  0.00    -0.077 C 
ATOM      3  C   UNL     1     166.680 174.536 140.397  1.00  0.00    -0.024 C 
ATOM      4  C   UNL     1     168.156 174.168 140.468  1.00  0.00     0.022 C 
ATOM      5  C   UNL     1     168.828 174.122 139.048  1.00  0.00     0.022 C 
ATOM      6  C   UNL     1     168.097 175.006 137.991  1.00  0.00     0.013 C 
ATOM      7  C   UNL     1     167.268 176.125 138.629  1.00  0.00     0.031 C 
ATOM      8  C   UNL     1     169.064 172.717 138.491  1.00  0.00    -0.074 C 
ATOM      9  C   UNL     1     169.769 172.575 137.353  1.00  0.00     0.008 C 
ATOM     10  C   UNL     1     168.645 171.452 139.210  1.00  0.00     0.031 C 
ATOM     11  C   UNL     1     167.859 171.682 140.502  1.00  0.00     0.009 C 
ATOM     12  C   UNL     1     168.420 172.878 141.297  1.00  0.00    -0.001 C 
ENDROOT
BRANCH  12  13
ATOM     13  C   UNL     1     167.868 172.913 142.767  1.00  0.00    -0.014 C 
ATOM     14  C   UNL     1     166.824 171.803 143.002  1.00  0.00     0.007 C 
ATOM     15  C   UNL     1     168.978 172.762 143.824  1.00  0.00     0.007 C 
ENDBRANCH  12  13
TORSDOF 1
ENDMDL
MODEL 3
REMARK VINA RESULT:    -2.301      1.528      4.424
REMARK INTER + INTRA:          -2.687
REMARK INTER:                  -2.422
REMARK INTRA:                  -0.265
REMARK UNBOUND:                -0.251
REMARK SMILES C=C1CC[C@H](C(C)C)[C@@H]2C=C(C)CC[C@H]12
REMARK SMILES IDX 12 1 11 2 10 3 9 4 15 5 14 6 13 7 2 8 1 9 3 10 4 11 5 12
REMARK SMILES IDX 6 13 7 14 8 15
REMARK H PARENT
REMARK Flexibility Score: inf
ROOT
ATOM      1  C   UNL     1     164.371 161.161 142.095  1.00  0.00     0.039 C 
ATOM      2  C   UNL     1     163.776 159.897 141.539  1.00  0.00    -0.077 C 
ATOM      3  C   UNL     1     162.998 159.941 140.446  1.00  0.00    -0.024 C 
ATOM      4  C   UNL     1     162.387 158.663 139.889  1.00  0.00     0.022 C 
ATOM      5  C   UNL     1     163.400 157.460 139.908  1.00  0.00     0.022 C 
ATOM      6  C   UNL     1     164.519 157.614 140.983  1.00  0.00     0.013 C 
ATOM      7  C   UNL     1     164.117 158.552 142.125  1.00  0.00     0.031 C 
ATOM      8  C   UNL     1     164.014 157.112 138.550  1.00  0.00    -0.074 C 
ATOM      9  C   UNL     1     164.772 156.006 138.441  1.00  0.00     0.008 C 
ATOM     10  C   UNL     1     163.724 157.884 137.280  1.00  0.00     0.031 C 
ATOM     11  C   UNL     1     162.846 159.122 137.471  1.00  0.00     0.009 C 
ATOM     12  C   UNL     1     161.723 158.864 138.496  1.00  0.00    -0.001 C 
ENDROOT
BRANCH  12  13
ATOM     13  C   UNL     1     160.619 159.979 138.446  1.00  0.00    -0.014 C 
ATOM     14  C   UNL     1     160.089 160.181 137.013  1.00  0.00     0.007 C 
ATOM     15  C   UNL     1     159.421 159.672 139.364  1.00  0.00     0.007 C 
ENDBRANCH  12  13
TORSDOF 1
ENDMDL
MODEL 4
REMARK VINA RESULT:    -2.300     14.039     16.078
REMARK INTER + INTRA:          -2.686
REMARK INTER:                  -2.420
REMARK INTRA:                  -0.266
REMARK UNBOUND:                -0.251
REMARK SMILES C=C1CC[C@H](C(C)C)[C@@H]2C=C(C)CC[C@H]12
REMARK SMILES IDX 12 1 11 2 10 3 9 4 15 5 14 6 13 7 2 8 1 9 3 10 4 11 5 12
REMARK SMILES IDX 6 13 7 14 8 15
REMARK H PARENT
REMARK Flexibility Score: inf
ROOT
ATOM      1  C   UNL     1     167.593 170.757 142.093  1.00  0.00     0.039 C 
ATOM      2  C   UNL     1     168.209 172.013 141.543  1.00  0.00    -0.077 C 
ATOM      3  C   UNL     1     168.982 171.963 140.447  1.00  0.00    -0.024 C 
ATOM      4  C   UNL     1     169.613 173.234 139.896  1.00  0.00     0.022 C 
ATOM      5  C   UNL     1     168.623 174.454 139.927  1.00  0.00     0.022 C 
ATOM      6  C   UNL     1     167.505 174.314 141.006  1.00  0.00     0.013 C 
ATOM      7  C   UNL     1     167.894 173.360 142.139  1.00  0.00     0.031 C 
ATOM      8  C   UNL     1     168.010 174.823 138.574  1.00  0.00    -0.074 C 
ATOM      9  C   UNL     1     167.271 175.943 138.475  1.00  0.00     0.008 C 
ATOM     10  C   UNL     1     168.281 174.055 137.298  1.00  0.00     0.031 C 
ATOM     11  C   UNL     1     169.137 172.800 137.477  1.00  0.00     0.009 C 
ATOM     12  C   UNL     1     170.268 173.031 138.499  1.00  0.00    -0.001 C 
ENDROOT
BRANCH  12  13
ATOM     13  C   UNL     1     171.352 171.896 138.437  1.00  0.00    -0.014 C 
ATOM     14  C   UNL     1     171.855 171.677 136.997  1.00  0.00     0.007 C 
ATOM     15  C   UNL     1     172.570 172.187 139.334  1.00  0.00     0.007 C 
ENDBRANCH  12  13
TORSDOF 1
ENDMDL
MODEL 5
REMARK VINA RESULT:    -2.188      5.826      7.358
REMARK INTER + INTRA:          -2.567
REMARK INTER:                  -2.303
REMARK INTRA:                  -0.264
REMARK UNBOUND:                -0.251
REMARK SMILES C=C1CC[C@H](C(C)C)[C@@H]2C=C(C)CC[C@H]12
REMARK SMILES IDX 12 1 11 2 10 3 9 4 15 5 14 6 13 7 2 8 1 9 3 10 4 11 5 12
REMARK SMILES IDX 6 13 7 14 8 15
REMARK H PARENT
REMARK Flexibility Score: inf
ROOT
ATOM      1  C   UNL     1     158.107 161.845 139.658  1.00  0.00     0.039 C 
ATOM      2  C   UNL     1     158.484 160.390 139.710  1.00  0.00    -0.077 C 
ATOM      3  C   UNL     1     157.921 159.578 140.619  1.00  0.00    -0.024 C 
ATOM      4  C   UNL     1     158.309 158.108 140.677  1.00  0.00     0.022 C 
ATOM      5  C   UNL     1     158.449 157.470 139.247  1.00  0.00     0.022 C 
ATOM      6  C   UNL     1     158.768 158.516 138.134  1.00  0.00     0.013 C 
ATOM      7  C   UNL     1     159.414 159.789 138.689  1.00  0.00     0.031 C 
ATOM      8  C   UNL     1     157.278 156.582 138.819  1.00  0.00    -0.074 C 
ATOM      9  C   UNL     1     157.378 155.875 137.678  1.00  0.00     0.008 C 
ATOM     10  C   UNL     1     156.045 156.359 139.668  1.00  0.00     0.031 C 
ATOM     11  C   UNL     1     155.999 157.182 140.956  1.00  0.00     0.009 C 
ATOM     12  C   UNL     1     157.390 157.274 141.616  1.00  0.00    -0.001 C 
ENDROOT
BRANCH  12  13
ATOM     13  C   UNL     1     157.302 157.801 143.093  1.00  0.00    -0.014 C 
ATOM     14  C   UNL     1     155.877 158.278 143.436  1.00  0.00     0.007 C 
ATOM     15  C   UNL     1     157.718 156.740 144.130  1.00  0.00     0.007 C 
ENDBRANCH  12  13
TORSDOF 1
ENDMDL
MODEL 6
REMARK VINA RESULT:    -2.157     13.546     15.629
REMARK INTER + INTRA:          -2.535
REMARK INTER:                  -2.272
REMARK INTRA:                  -0.262
REMARK UNBOUND:                -0.251
REMARK SMILES C=C1CC[C@H](C(C)C)[C@@H]2C=C(C)CC[C@H]12
REMARK SMILES IDX 12 1 11 2 10 3 9 4 15 5 14 6 13 7 2 8 1 9 3 10 4 11 5 12
REMARK SMILES IDX 6 13 7 14 8 15
REMARK H PARENT
REMARK Flexibility Score: inf
ROOT
ATOM      1  C   UNL     1     165.306 170.033 138.304  1.00  0.00     0.039 C 
ATOM      2  C   UNL     1     165.926 171.117 139.142  1.00  0.00    -0.077 C 
ATOM      3  C   UNL     1     167.082 171.685 138.765  1.00  0.00    -0.024 C 
ATOM      4  C   UNL     1     167.714 172.775 139.619  1.00  0.00     0.022 C 
ATOM      5  C   UNL     1     166.651 173.792 140.172  1.00  0.00     0.022 C 
ATOM      6  C   UNL     1     165.215 173.189 140.273  1.00  0.00     0.013 C 
ATOM      7  C   UNL     1     165.222 171.660 140.358  1.00  0.00     0.031 C 
ATOM      8  C   UNL     1     166.609 175.140 139.449  1.00  0.00    -0.074 C 
ATOM      9  C   UNL     1     165.839 176.125 139.947  1.00  0.00     0.008 C 
ATOM     10  C   UNL     1     167.480 175.475 138.257  1.00  0.00     0.031 C 
ATOM     11  C   UNL     1     168.340 174.318 137.748  1.00  0.00     0.009 C 
ATOM     12  C   UNL     1     168.908 173.483 138.914  1.00  0.00    -0.001 C 
ENDROOT
BRANCH  12  13
ATOM     13  C   UNL     1     170.057 172.524 138.440  1.00  0.00    -0.014 C 
ATOM     14  C   UNL     1     170.174 172.502 136.903  1.00  0.00     0.007 C 
ATOM     15  C   UNL     1     171.431 172.907 139.022  1.00  0.00     0.007 C 
ENDBRANCH  12  13
TORSDOF 1
ENDMDL
MODEL 7
REMARK VINA RESULT:    -2.140      1.298      3.709
REMARK INTER + INTRA:          -2.516
REMARK INTER:                  -2.251
REMARK INTRA:                  -0.265
REMARK UNBOUND:                -0.251
REMARK SMILES C=C1CC[C@H](C(C)C)[C@@H]2C=C(C)CC[C@H]12
REMARK SMILES IDX 12 1 11 2 10 3 9 4 15 5 14 6 13 7 2 8 1 9 3 10 4 11 5 12
REMARK SMILES IDX 6 13 7 14 8 15
REMARK H PARENT
REMARK Flexibility Score: inf
ROOT
ATOM      1  C   UNL     1     160.800 159.620 138.326  1.00  0.00     0.039 C 
ATOM      2  C   UNL     1     162.289 159.416 138.334  1.00  0.00    -0.077 C 
ATOM      3  C   UNL     1     162.997 159.651 139.451  1.00  0.00    -0.024 C 
ATOM      4  C   UNL     1     164.506 159.453 139.457  1.00  0.00     0.022 C 
ATOM      5  C   UNL     1     164.942 158.157 138.682  1.00  0.00     0.022 C 
ATOM      6  C   UNL     1     163.907 157.705 137.606  1.00  0.00     0.013 C 
ATOM      7  C   UNL     1     163.005 158.850 137.136  1.00  0.00     0.031 C 
ATOM      8  C   UNL     1     165.331 156.974 139.571  1.00  0.00    -0.074 C 
ATOM      9  C   UNL     1     165.860 155.875 139.003  1.00  0.00     0.008 C 
ATOM     10  C   UNL     1     165.262 157.008 141.084  1.00  0.00     0.031 C 
ATOM     11  C   UNL     1     164.663 158.288 141.668  1.00  0.00     0.009 C 
ATOM     12  C   UNL     1     165.124 159.534 140.883  1.00  0.00    -0.001 C 
ENDROOT
BRANCH  12  13
ATOM     13  C   UNL     1     164.815 160.862 141.662  1.00  0.00    -0.014 C 
ATOM     14  C   UNL     1     164.556 160.589 143.157  1.00  0.00     0.007 C 
ATOM     15  C   UNL     1     165.951 161.896 141.550  1.00  0.00     0.007 C 
ENDBRANCH  12  13
TORSDOF 1
ENDMDL
MODEL 8
REMARK VINA RESULT:    -2.098     13.540     15.377
REMARK INTER + INTRA:          -2.472
REMARK INTER:                  -2.205
REMARK INTRA:                  -0.267
REMARK UNBOUND:                -0.251
REMARK SMILES C=C1CC[C@H](C(C)C)[C@@H]2C=C(C)CC[C@H]12
REMARK SMILES IDX 12 1 11 2 10 3 9 4 15 5 14 6 13 7 2 8 1 9 3 10 4 11 5 12
REMARK SMILES IDX 6 13 7 14 8 15
REMARK H PARENT
REMARK Flexibility Score: inf
ROOT
ATOM      1  C   UNL     1     171.055 172.703 138.425  1.00  0.00     0.039 C 
ATOM      2  C   UNL     1     169.556 172.816 138.450  1.00  0.00    -0.077 C 
ATOM      3  C   UNL     1     168.875 172.523 139.570  1.00  0.00    -0.024 C 
ATOM      4  C   UNL     1     167.357 172.629 139.593  1.00  0.00     0.022 C 
ATOM      5  C   UNL     1     166.836 173.908 138.842  1.00  0.00     0.022 C 
ATOM      6  C   UNL     1     167.830 174.437 137.762  1.00  0.00     0.013 C 
ATOM      7  C   UNL     1     168.795 173.355 137.268  1.00  0.00     0.031 C 
ATOM      8  C   UNL     1     166.385 175.052 139.752  1.00  0.00    -0.074 C 
ATOM      9  C   UNL     1     165.785 176.125 139.205  1.00  0.00     0.008 C 
ATOM     10  C   UNL     1     166.471 175.001 141.263  1.00  0.00     0.031 C 
ATOM     11  C   UNL     1     167.152 173.751 141.822  1.00  0.00     0.009 C 
ATOM     12  C   UNL     1     166.760 172.491 141.024  1.00  0.00    -0.001 C 
ENDROOT
BRANCH  12  13
ATOM     13  C   UNL     1     167.156 171.173 141.780  1.00  0.00    -0.014 C 
ATOM     14  C   UNL     1     166.735 171.227 143.262  1.00  0.00     0.007 C 
ATOM     15  C   UNL     1     166.535 169.914 141.147  1.00  0.00     0.007 C 
ENDBRANCH  12  13
TORSDOF 1
ENDMDL
