MODEL 1
REMARK VINA RESULT:    -3.949      0.000      0.000
REMARK INTER + INTRA:          -4.852
REMARK INTER:                  -4.758
REMARK INTRA:                  -0.094
REMARK UNBOUND:                -0.094
REMARK SMILES NC(=O)C[C@H]([NH3+])C(=O)[O-]
REMARK SMILES IDX 4 1 5 2 6 3 7 7 8 8 9 9 2 10 3 11 1 12
REMARK H PARENT 6 4 6 5 6 6 1 13 1 14
REMARK Flexibility Score: inf
ROOT
ATOM      1  C   UNL     1     213.351 197.580 214.955  1.00  0.00     0.171 C 
ENDROOT
BRANCH   1   2
ATOM      2  C   UNL     1     212.686 196.690 213.887  1.00  0.00     0.237 C 
BRANCH   2   3
ATOM      3  N   UNL     1     213.517 195.513 213.607  1.00  0.00    -0.350 N 
ATOM      4  H   UNL     1     214.181 195.352 214.400  1.00  0.00     0.345 HD
ATOM      5  H   UNL     1     212.912 194.665 213.512  1.00  0.00     0.345 HD
ATOM      6  H   UNL     1     214.064 195.646 212.726  1.00  0.00     0.345 HD
ENDBRANCH   2   3
BRANCH   2   7
ATOM      7  C   UNL     1     212.432 197.462 212.617  1.00  0.00     0.100 C 
ATOM      8  O   UNL     1     211.979 198.636 212.664  1.00  0.00    -0.544 OA
ATOM      9  O   UNL     1     212.682 196.872 211.384  1.00  0.00    -0.544 OA
ENDBRANCH   2   7
ENDBRANCH   1   2
BRANCH   1  10
ATOM     10  C   UNL     1     212.958 197.167 216.345  1.00  0.00     0.223 C 
ATOM     11  O   UNL     1     213.847 196.828 217.171  1.00  0.00    -0.275 OA
ATOM     12  N   UNL     1     211.583 197.118 216.724  1.00  0.00    -0.369 N 
ATOM     13  H   UNL     1     211.314 196.815 217.687  1.00  0.00     0.159 HD
ATOM     14  H   UNL     1     210.833 197.377 216.047  1.00  0.00     0.159 HD
ENDBRANCH   1  10
TORSDOF 4
ENDMDL
MODEL 2
REMARK VINA RESULT:    -3.885      1.143      1.585
REMARK INTER + INTRA:          -4.774
REMARK INTER:                  -4.672
REMARK INTRA:                  -0.102
REMARK UNBOUND:                -0.094
REMARK SMILES NC(=O)C[C@H]([NH3+])C(=O)[O-]
REMARK SMILES IDX 4 1 5 2 6 3 7 7 8 8 9 9 2 10 3 11 1 12
REMARK H PARENT 6 4 6 5 6 6 1 13 1 14
REMARK Flexibility Score: inf
ROOT
ATOM      1  C   UNL     1     213.910 196.805 214.110  1.00  0.00     0.171 C 
ENDROOT
BRANCH   1   2
ATOM      2  C   UNL     1     212.903 196.079 213.195  1.00  0.00     0.237 C 
BRANCH   2   3
ATOM      3  N   UNL     1     213.427 194.769 212.790  1.00  0.00    -0.350 N 
ATOM      4  H   UNL     1     214.168 194.462 213.462  1.00  0.00     0.345 HD
ATOM      5  H   UNL     1     212.659 194.059 212.804  1.00  0.00     0.345 HD
ATOM      6  H   UNL     1     213.837 194.815 211.828  1.00  0.00     0.345 HD
ENDBRANCH   2   3
BRANCH   2   7
ATOM      7  C   UNL     1     212.579 196.910 211.979  1.00  0.00     0.100 C 
ATOM      8  O   UNL     1     212.809 196.467 210.823  1.00  0.00    -0.544 OA
ATOM      9  O   UNL     1     212.037 198.180 212.131  1.00  0.00    -0.544 OA
ENDBRANCH   2   7
ENDBRANCH   1   2
BRANCH   1  10
ATOM     10  C   UNL     1     213.350 197.022 215.487  1.00  0.00     0.223 C 
ATOM     11  O   UNL     1     213.533 198.125 216.069  1.00  0.00    -0.275 OA
ATOM     12  N   UNL     1     212.649 195.977 216.158  1.00  0.00    -0.369 N 
ATOM     13  H   UNL     1     212.275 196.127 217.121  1.00  0.00     0.159 HD
ATOM     14  H   UNL     1     212.505 195.050 215.699  1.00  0.00     0.159 HD
ENDBRANCH   1  10
TORSDOF 4
ENDMDL
MODEL 3
REMARK VINA RESULT:    -3.839      1.871      4.310
REMARK INTER + INTRA:          -4.718
REMARK INTER:                  -4.458
REMARK INTRA:                  -0.260
REMARK UNBOUND:                -0.094
REMARK SMILES NC(=O)C[C@H]([NH3+])C(=O)[O-]
REMARK SMILES IDX 4 1 5 2 6 3 7 7 8 8 9 9 2 10 3 11 1 12
REMARK H PARENT 6 4 6 5 6 6 1 13 1 14
REMARK Flexibility Score: inf
ROOT
ATOM      1  C   UNL     1     213.179 196.182 213.139  1.00  0.00     0.171 C 
ENDROOT
BRANCH   1   2
ATOM      2  C   UNL     1     212.624 197.230 214.124  1.00  0.00     0.237 C 
BRANCH   2   3
ATOM      3  N   UNL     1     213.225 198.545 213.868  1.00  0.00    -0.350 N 
ATOM      4  H   UNL     1     213.514 198.612 212.864  1.00  0.00     0.345 HD
ATOM      5  H   UNL     1     212.524 199.299 214.057  1.00  0.00     0.345 HD
ATOM      6  H   UNL     1     214.064 198.694 214.475  1.00  0.00     0.345 HD
ENDBRANCH   2   3
BRANCH   2   7
ATOM      7  C   UNL     1     212.868 196.815 215.552  1.00  0.00     0.100 C 
ATOM      8  O   UNL     1     214.039 196.604 215.966  1.00  0.00    -0.544 OA
ATOM      9  O   UNL     1     211.795 196.645 216.419  1.00  0.00    -0.544 OA
ENDBRANCH   2   7
ENDBRANCH   1   2
BRANCH   1  10
ATOM     10  C   UNL     1     212.517 196.281 211.794  1.00  0.00     0.223 C 
ATOM     11  O   UNL     1     211.777 197.268 211.533  1.00  0.00    -0.275 OA
ATOM     12  N   UNL     1     212.685 195.248 210.824  1.00  0.00    -0.369 N 
ATOM     13  H   UNL     1     212.211 195.314 209.896  1.00  0.00     0.159 HD
ATOM     14  H   UNL     1     213.278 194.414 211.031  1.00  0.00     0.159 HD
ENDBRANCH   1  10
TORSDOF 4
ENDMDL
MODEL 4
REMARK VINA RESULT:    -3.773      2.230      2.792
REMARK INTER + INTRA:          -4.639
REMARK INTER:                  -4.409
REMARK INTRA:                  -0.230
REMARK UNBOUND:                -0.094
REMARK SMILES NC(=O)C[C@H]([NH3+])C(=O)[O-]
REMARK SMILES IDX 4 1 5 2 6 3 7 7 8 8 9 9 2 10 3 11 1 12
REMARK H PARENT 6 4 6 5 6 6 1 13 1 14
REMARK Flexibility Score: inf
ROOT
ATOM      1  C   UNL     1     212.501 196.798 212.651  1.00  0.00     0.171 C 
ENDROOT
BRANCH   1   2
ATOM      2  C   UNL     1     212.139 198.071 211.861  1.00  0.00     0.237 C 
BRANCH   2   3
ATOM      3  N   UNL     1     211.312 198.966 212.679  1.00  0.00    -0.350 N 
ATOM      4  H   UNL     1     210.623 198.405 213.232  1.00  0.00     0.345 HD
ATOM      5  H   UNL     1     211.916 199.494 213.351  1.00  0.00     0.345 HD
ATOM      6  H   UNL     1     210.792 199.645 212.076  1.00  0.00     0.345 HD
ENDBRANCH   2   3
BRANCH   2   7
ATOM      7  C   UNL     1     211.426 197.729 210.578  1.00  0.00     0.100 C 
ATOM      8  O   UNL     1     210.169 197.779 210.512  1.00  0.00    -0.544 OA
ATOM      9  O   UNL     1     212.156 197.340 209.461  1.00  0.00    -0.544 OA
ENDBRANCH   2   7
ENDBRANCH   1   2
BRANCH   1  10
ATOM     10  C   UNL     1     213.002 197.124 214.029  1.00  0.00     0.223 C 
ATOM     11  O   UNL     1     213.520 198.251 214.255  1.00  0.00    -0.275 OA
ATOM     12  N   UNL     1     212.934 196.156 215.075  1.00  0.00    -0.369 N 
ATOM     13  H   UNL     1     213.297 196.382 216.027  1.00  0.00     0.159 HD
ATOM     14  H   UNL     1     212.525 195.211 214.901  1.00  0.00     0.159 HD
ENDBRANCH   1  10
TORSDOF 4
ENDMDL
MODEL 5
REMARK VINA RESULT:    -3.702      1.884      3.929
REMARK INTER + INTRA:          -4.554
REMARK INTER:                  -4.289
REMARK INTRA:                  -0.265
REMARK UNBOUND:                -0.094
REMARK SMILES NC(=O)C[C@H]([NH3+])C(=O)[O-]
REMARK SMILES IDX 4 1 5 2 6 3 7 7 8 8 9 9 2 10 3 11 1 12
REMARK H PARENT 6 4 6 5 6 6 1 13 1 14
REMARK Flexibility Score: inf
ROOT
ATOM      1  C   UNL     1     212.381 197.759 212.906  1.00  0.00     0.171 C 
ENDROOT
BRANCH   1   2
ATOM      2  C   UNL     1     213.451 197.303 213.918  1.00  0.00     0.237 C 
BRANCH   2   3
ATOM      3  N   UNL     1     213.055 196.040 214.552  1.00  0.00    -0.350 N 
ATOM      4  H   UNL     1     212.161 195.697 214.129  1.00  0.00     0.345 HD
ATOM      5  H   UNL     1     213.791 195.315 214.391  1.00  0.00     0.345 HD
ATOM      6  H   UNL     1     212.917 196.169 215.581  1.00  0.00     0.345 HD
ENDBRANCH   2   3
BRANCH   2   7
ATOM      7  C   UNL     1     213.691 198.360 214.966  1.00  0.00     0.100 C 
ATOM      8  O   UNL     1     213.587 198.082 216.190  1.00  0.00    -0.544 OA
ATOM      9  O   UNL     1     214.013 199.657 214.583  1.00  0.00    -0.544 OA
ENDBRANCH   2   7
ENDBRANCH   1   2
BRANCH   1  10
ATOM     10  C   UNL     1     212.237 196.781 211.774  1.00  0.00     0.223 C 
ATOM     11  O   UNL     1     213.140 195.926 211.568  1.00  0.00    -0.275 OA
ATOM     12  N   UNL     1     211.107 196.838 210.905  1.00  0.00    -0.369 N 
ATOM     13  H   UNL     1     211.019 196.167 210.110  1.00  0.00     0.159 HD
ATOM     14  H   UNL     1     210.359 197.552 211.049  1.00  0.00     0.159 HD
ENDBRANCH   1  10
TORSDOF 4
ENDMDL
MODEL 6
REMARK VINA RESULT:    -3.649      3.177      5.169
REMARK INTER + INTRA:          -4.489
REMARK INTER:                  -4.323
REMARK INTRA:                  -0.166
REMARK UNBOUND:                -0.094
REMARK SMILES NC(=O)C[C@H]([NH3+])C(=O)[O-]
REMARK SMILES IDX 4 1 5 2 6 3 7 7 8 8 9 9 2 10 3 11 1 12
REMARK H PARENT 6 4 6 5 6 6 1 13 1 14
REMARK Flexibility Score: inf
ROOT
ATOM      1  C   UNL     1     211.085 197.756 210.261  1.00  0.00     0.171 C 
ENDROOT
BRANCH   1   2
ATOM      2  C   UNL     1     212.287 197.155 211.017  1.00  0.00     0.237 C 
BRANCH   2   3
ATOM      3  N   UNL     1     212.263 195.690 210.940  1.00  0.00    -0.350 N 
ATOM      4  H   UNL     1     211.334 195.369 210.579  1.00  0.00     0.345 HD
ATOM      5  H   UNL     1     213.003 195.356 210.280  1.00  0.00     0.345 HD
ATOM      6  H   UNL     1     212.426 195.266 211.883  1.00  0.00     0.345 HD
ENDBRANCH   2   3
BRANCH   2   7
ATOM      7  C   UNL     1     212.301 197.602 212.456  1.00  0.00     0.100 C 
ATOM      8  O   UNL     1     212.606 196.795 213.374  1.00  0.00    -0.544 OA
ATOM      9  O   UNL     1     211.958 198.910 212.780  1.00  0.00    -0.544 OA
ENDBRANCH   2   7
ENDBRANCH   1   2
BRANCH   1  10
ATOM     10  C   UNL     1     211.429 199.076 209.633  1.00  0.00     0.223 C 
ATOM     11  O   UNL     1     212.241 199.118 208.670  1.00  0.00    -0.275 OA
ATOM     12  N   UNL     1     210.875 200.288 210.143  1.00  0.00    -0.369 N 
ATOM     13  H   UNL     1     211.128 201.205 209.713  1.00  0.00     0.159 HD
ATOM     14  H   UNL     1     210.215 200.274 210.952  1.00  0.00     0.159 HD
ENDBRANCH   1  10
TORSDOF 4
ENDMDL
MODEL 7
REMARK VINA RESULT:    -3.635      3.400      5.193
REMARK INTER + INTRA:          -4.473
REMARK INTER:                  -4.216
REMARK INTRA:                  -0.257
REMARK UNBOUND:                -0.094
REMARK SMILES NC(=O)C[C@H]([NH3+])C(=O)[O-]
REMARK SMILES IDX 4 1 5 2 6 3 7 7 8 8 9 9 2 10 3 11 1 12
REMARK H PARENT 6 4 6 5 6 6 1 13 1 14
REMARK Flexibility Score: inf
ROOT
ATOM      1  C   UNL     1     211.547 198.152 210.908  1.00  0.00     0.171 C 
ENDROOT
BRANCH   1   2
ATOM      2  C   UNL     1     211.573 198.523 212.404  1.00  0.00     0.237 C 
BRANCH   2   3
ATOM      3  N   UNL     1     211.818 199.961 212.572  1.00  0.00    -0.350 N 
ATOM      4  H   UNL     1     211.346 200.301 213.442  1.00  0.00     0.345 HD
ATOM      5  H   UNL     1     212.845 200.138 212.667  1.00  0.00     0.345 HD
ATOM      6  H   UNL     1     211.450 200.498 211.753  1.00  0.00     0.345 HD
ENDBRANCH   2   3
BRANCH   2   7
ATOM      7  C   UNL     1     212.618 197.727 213.142  1.00  0.00     0.100 C 
ATOM      8  O   UNL     1     212.763 196.496 212.916  1.00  0.00    -0.544 OA
ATOM      9  O   UNL     1     213.419 198.347 214.094  1.00  0.00    -0.544 OA
ENDBRANCH   2   7
ENDBRANCH   1   2
BRANCH   1  10
ATOM     10  C   UNL     1     210.702 199.107 210.114  1.00  0.00     0.223 C 
ATOM     11  O   UNL     1     211.255 199.980 209.393  1.00  0.00    -0.275 OA
ATOM     12  N   UNL     1     209.278 199.061 210.201  1.00  0.00    -0.369 N 
ATOM     13  H   UNL     1     208.695 199.737 209.659  1.00  0.00     0.159 HD
ATOM     14  H   UNL     1     208.803 198.357 210.808  1.00  0.00     0.159 HD
ENDBRANCH   1  10
TORSDOF 4
ENDMDL
MODEL 8
REMARK VINA RESULT:    -3.608      2.404      4.599
REMARK INTER + INTRA:          -4.441
REMARK INTER:                  -4.241
REMARK INTRA:                  -0.199
REMARK UNBOUND:                -0.094
REMARK SMILES NC(=O)C[C@H]([NH3+])C(=O)[O-]
REMARK SMILES IDX 4 1 5 2 6 3 7 7 8 8 9 9 2 10 3 11 1 12
REMARK H PARENT 6 4 6 5 6 6 1 13 1 14
REMARK Flexibility Score: inf
ROOT
ATOM      1  C   UNL     1     212.096 196.497 211.521  1.00  0.00     0.171 C 
ENDROOT
BRANCH   1   2
ATOM      2  C   UNL     1     213.229 196.249 212.537  1.00  0.00     0.237 C 
BRANCH   2   3
ATOM      3  N   UNL     1     213.334 194.819 212.851  1.00  0.00    -0.350 N 
ATOM      4  H   UNL     1     212.437 194.481 213.270  1.00  0.00     0.345 HD
ATOM      5  H   UNL     1     213.510 194.275 211.974  1.00  0.00     0.345 HD
ATOM      6  H   UNL     1     214.113 194.644 213.527  1.00  0.00     0.345 HD
ENDBRANCH   2   3
BRANCH   2   7
ATOM      7  C   UNL     1     213.010 197.045 213.798  1.00  0.00     0.100 C 
ATOM      8  O   UNL     1     212.724 196.465 214.879  1.00  0.00    -0.544 OA
ATOM      9  O   UNL     1     213.107 198.431 213.769  1.00  0.00    -0.544 OA
ENDBRANCH   2   7
ENDBRANCH   1   2
BRANCH   1  10
ATOM     10  C   UNL     1     212.615 196.538 210.111  1.00  0.00     0.223 C 
ATOM     11  O   UNL     1     213.816 196.236 209.879  1.00  0.00    -0.275 OA
ATOM     12  N   UNL     1     211.770 196.954 209.039  1.00  0.00    -0.369 N 
ATOM     13  H   UNL     1     212.139 196.996 208.064  1.00  0.00     0.159 HD
ATOM     14  H   UNL     1     210.778 197.226 209.216  1.00  0.00     0.159 HD
ENDBRANCH   1  10
TORSDOF 4
ENDMDL
MODEL 9
REMARK VINA RESULT:    -3.574      3.087      4.222
REMARK INTER + INTRA:          -4.400
REMARK INTER:                  -4.138
REMARK INTRA:                  -0.262
REMARK UNBOUND:                -0.094
REMARK SMILES NC(=O)C[C@H]([NH3+])C(=O)[O-]
REMARK SMILES IDX 4 1 5 2 6 3 7 7 8 8 9 9 2 10 3 11 1 12
REMARK H PARENT 6 4 6 5 6 6 1 13 1 14
REMARK Flexibility Score: inf
ROOT
ATOM      1  C   UNL     1     212.921 196.185 210.727  1.00  0.00     0.171 C 
ENDROOT
BRANCH   1   2
ATOM      2  C   UNL     1     212.086 197.412 210.310  1.00  0.00     0.237 C 
BRANCH   2   3
ATOM      3  N   UNL     1     210.653 197.142 210.481  1.00  0.00    -0.350 N 
ATOM      4  H   UNL     1     210.158 198.021 210.758  1.00  0.00     0.345 HD
ATOM      5  H   UNL     1     210.245 196.807 209.577  1.00  0.00     0.345 HD
ATOM      6  H   UNL     1     210.498 196.416 211.218  1.00  0.00     0.345 HD
ENDBRANCH   2   3
BRANCH   2   7
ATOM      7  C   UNL     1     212.376 197.807 208.884  1.00  0.00     0.100 C 
ATOM      8  O   UNL     1     212.708 198.989 208.603  1.00  0.00    -0.544 OA
ATOM      9  O   UNL     1     212.262 196.867 207.867  1.00  0.00    -0.544 OA
ENDBRANCH   2   7
ENDBRANCH   1   2
BRANCH   1  10
ATOM     10  C   UNL     1     212.896 195.977 212.215  1.00  0.00     0.223 C 
ATOM     11  O   UNL     1     212.458 196.890 212.966  1.00  0.00    -0.275 OA
ATOM     12  N   UNL     1     213.402 194.773 212.787  1.00  0.00    -0.369 N 
ATOM     13  H   UNL     1     213.397 194.639 213.823  1.00  0.00     0.159 HD
ATOM     14  H   UNL     1     213.787 194.014 212.181  1.00  0.00     0.159 HD
ENDBRANCH   1  10
TORSDOF 4
ENDMDL
