MODEL 1
REMARK VINA RESULT:    -5.269      0.000      0.000
REMARK INTER + INTRA:          -6.693
REMARK INTER:                  -6.347
REMARK INTRA:                  -0.346
REMARK UNBOUND:                -0.346
REMARK SMILES Oc1cc(O)c2cc(O)c(-c3ccc(O)c(O)c3)[o+]c2c1
REMARK SMILES IDX 10 1 19 2 20 3 21 4 2 5 3 6 4 7 6 8 7 9 8 10 11 11 12 12
REMARK SMILES IDX 13 13 14 14 18 15 16 16 15 17 17 19 9 21 1 23 5 25
REMARK H PARENT 15 18 17 20 9 22 1 24 5 26
REMARK Flexibility Score: inf
ROOT
ATOM      1  C   UNL     1     -27.151 -55.493  55.343  1.00  0.00     0.402 A 
ATOM      2  O   UNL     1     -28.422 -55.757  55.644  1.00  0.00    -0.202 OA
ATOM      3  C   UNL     1     -28.917 -56.989  55.694  1.00  0.00     0.368 A 
ATOM      4  C   UNL     1     -30.262 -57.182  56.022  1.00  0.00     0.162 A 
ATOM      5  C   UNL     1     -30.795 -58.476  56.081  1.00  0.00     0.128 A 
ATOM      6  C   UNL     1     -29.978 -59.580  55.812  1.00  0.00     0.093 A 
ATOM      7  C   UNL     1     -28.627 -59.403  55.481  1.00  0.00     0.136 A 
ATOM      8  C   UNL     1     -28.091 -58.102  55.421  1.00  0.00     0.125 A 
ATOM      9  C   UNL     1     -26.753 -57.864  55.089  1.00  0.00     0.078 A 
ATOM     10  C   UNL     1     -26.273 -56.552  55.036  1.00  0.00     0.223 A 
ENDROOT
BRANCH   1  11
ATOM     11  C   UNL     1     -26.715 -54.078  55.328  1.00  0.00     0.087 A 
ATOM     12  C   UNL     1     -26.287 -53.431  56.501  1.00  0.00     0.022 A 
ATOM     13  C   UNL     1     -25.902 -52.088  56.465  1.00  0.00     0.051 A 
ATOM     14  C   UNL     1     -25.950 -51.369  55.268  1.00  0.00     0.157 A 
ATOM     15  C   UNL     1     -26.781 -53.348  54.130  1.00  0.00     0.068 A 
ATOM     16  C   UNL     1     -26.395 -52.000  54.093  1.00  0.00     0.158 A 
BRANCH  14  17
ATOM     17  O   UNL     1     -25.557 -50.031  55.264  1.00  0.00    -0.504 OA
ATOM     18  H   UNL     1     -25.999 -49.342  54.667  1.00  0.00     0.293 HD
ENDBRANCH  14  17
BRANCH  16  19
ATOM     19  O   UNL     1     -26.452 -51.288  52.896  1.00  0.00    -0.504 OA
ATOM     20  H   UNL     1     -26.120 -51.685  52.025  1.00  0.00     0.293 HD
ENDBRANCH  16  19
ENDBRANCH   1  11
BRANCH  10  21
ATOM     21  O   UNL     1     -24.954 -56.306  54.656  1.00  0.00    -0.500 OA
ATOM     22  H   UNL     1     -24.521 -55.400  54.792  1.00  0.00     0.294 HD
ENDBRANCH  10  21
BRANCH   5  23
ATOM     23  O   UNL     1     -32.134 -58.677  56.408  1.00  0.00    -0.507 OA
ATOM     24  H   UNL     1     -32.407 -59.259  57.191  1.00  0.00     0.293 HD
ENDBRANCH   5  23
BRANCH   7  25
ATOM     25  O   UNL     1     -27.823 -60.511  55.213  1.00  0.00    -0.507 OA
ATOM     26  H   UNL     1     -27.178 -60.522  54.432  1.00  0.00     0.293 HD
ENDBRANCH   7  25
TORSDOF 6
ENDMDL
MODEL 2
REMARK VINA RESULT:    -5.234      9.696     10.813
REMARK INTER + INTRA:          -6.652
REMARK INTER:                  -6.303
REMARK INTRA:                  -0.348
REMARK UNBOUND:                -0.346
REMARK SMILES Oc1cc(O)c2cc(O)c(-c3ccc(O)c(O)c3)[o+]c2c1
REMARK SMILES IDX 10 1 19 2 20 3 21 4 2 5 3 6 4 7 6 8 7 9 8 10 11 11 12 12
REMARK SMILES IDX 13 13 14 14 18 15 16 16 15 17 17 19 9 21 1 23 5 25
REMARK H PARENT 15 18 17 20 9 22 1 24 5 26
REMARK Flexibility Score: inf
ROOT
ATOM      1  C   UNL     1     -21.701 -64.438  57.631  1.00  0.00     0.402 A 
ATOM      2  O   UNL     1     -22.961 -64.382  57.200  1.00  0.00    -0.202 OA
ATOM      3  C   UNL     1     -23.741 -65.452  57.093  1.00  0.00     0.368 A 
ATOM      4  C   UNL     1     -25.054 -65.308  56.634  1.00  0.00     0.162 A 
ATOM      5  C   UNL     1     -25.887 -66.429  56.520  1.00  0.00     0.128 A 
ATOM      6  C   UNL     1     -25.404 -67.696  56.866  1.00  0.00     0.093 A 
ATOM      7  C   UNL     1     -24.090 -67.856  57.327  1.00  0.00     0.136 A 
ATOM      8  C   UNL     1     -23.251 -66.731  57.441  1.00  0.00     0.125 A 
ATOM      9  C   UNL     1     -21.929 -66.831  57.888  1.00  0.00     0.078 A 
ATOM     10  C   UNL     1     -21.136 -65.682  57.976  1.00  0.00     0.223 A 
ENDROOT
BRANCH   1  11
ATOM     11  C   UNL     1     -20.934 -63.175  57.716  1.00  0.00     0.087 A 
ATOM     12  C   UNL     1     -20.134 -62.730  56.647  1.00  0.00     0.022 A 
ATOM     13  C   UNL     1     -19.400 -61.546  56.759  1.00  0.00     0.051 A 
ATOM     14  C   UNL     1     -19.441 -60.797  57.939  1.00  0.00     0.157 A 
ATOM     15  C   UNL     1     -20.956 -62.430  58.907  1.00  0.00     0.068 A 
ATOM     16  C   UNL     1     -20.220 -61.242  59.020  1.00  0.00     0.158 A 
BRANCH  14  17
ATOM     17  O   UNL     1     -18.699 -59.619  58.019  1.00  0.00    -0.504 OA
ATOM     18  H   UNL     1     -18.491 -59.174  58.905  1.00  0.00     0.293 HD
ENDBRANCH  14  17
BRANCH  16  19
ATOM     19  O   UNL     1     -20.261 -60.504  60.202  1.00  0.00    -0.504 OA
ATOM     20  H   UNL     1     -19.739 -59.641  60.308  1.00  0.00     0.293 HD
ENDBRANCH  16  19
ENDBRANCH   1  11
BRANCH  10  21
ATOM     21  O   UNL     1     -19.803 -65.783  58.371  1.00  0.00    -0.500 OA
ATOM     22  H   UNL     1     -19.185 -66.488  57.985  1.00  0.00     0.294 HD
ENDBRANCH  10  21
BRANCH   5  23
ATOM     23  O   UNL     1     -27.197 -66.294  56.065  1.00  0.00    -0.507 OA
ATOM     24  H   UNL     1     -27.989 -66.417  56.685  1.00  0.00     0.293 HD
ENDBRANCH   5  23
BRANCH   7  25
ATOM     25  O   UNL     1     -23.620 -69.125  57.667  1.00  0.00    -0.507 OA
ATOM     26  H   UNL     1     -23.345 -69.352  58.616  1.00  0.00     0.293 HD
ENDBRANCH   7  25
TORSDOF 6
ENDMDL
MODEL 3
REMARK VINA RESULT:    -5.160      9.390     12.924
REMARK INTER + INTRA:          -6.563
REMARK INTER:                  -6.475
REMARK INTRA:                  -0.088
REMARK UNBOUND:                -0.346
REMARK SMILES Oc1cc(O)c2cc(O)c(-c3ccc(O)c(O)c3)[o+]c2c1
REMARK SMILES IDX 10 1 19 2 20 3 21 4 2 5 3 6 4 7 6 8 7 9 8 10 11 11 12 12
REMARK SMILES IDX 13 13 14 14 18 15 16 16 15 17 17 19 9 21 1 23 5 25
REMARK H PARENT 15 18 17 20 9 22 1 24 5 26
REMARK Flexibility Score: inf
ROOT
ATOM      1  C   UNL     1     -23.433 -67.010  57.777  1.00  0.00     0.402 A 
ATOM      2  O   UNL     1     -23.829 -65.757  57.992  1.00  0.00    -0.202 OA
ATOM      3  C   UNL     1     -24.897 -65.222  57.410  1.00  0.00     0.368 A 
ATOM      4  C   UNL     1     -25.248 -63.898  57.692  1.00  0.00     0.162 A 
ATOM      5  C   UNL     1     -26.374 -63.323  57.087  1.00  0.00     0.128 A 
ATOM      6  C   UNL     1     -27.150 -64.076  56.199  1.00  0.00     0.093 A 
ATOM      7  C   UNL     1     -26.810 -65.405  55.906  1.00  0.00     0.136 A 
ATOM      8  C   UNL     1     -25.678 -65.982  56.513  1.00  0.00     0.125 A 
ATOM      9  C   UNL     1     -25.287 -67.301  56.252  1.00  0.00     0.078 A 
ATOM     10  C   UNL     1     -24.150 -67.824  56.876  1.00  0.00     0.223 A 
ENDROOT
BRANCH   1  11
ATOM     11  C   UNL     1     -22.231 -67.497  58.491  1.00  0.00     0.087 A 
ATOM     12  C   UNL     1     -22.249 -68.698  59.222  1.00  0.00     0.022 A 
ATOM     13  C   UNL     1     -21.108 -69.125  59.907  1.00  0.00     0.051 A 
ATOM     14  C   UNL     1     -19.940 -68.357  59.885  1.00  0.00     0.157 A 
ATOM     15  C   UNL     1     -21.062 -66.718  58.487  1.00  0.00     0.068 A 
ATOM     16  C   UNL     1     -19.916 -67.145  59.174  1.00  0.00     0.158 A 
BRANCH  14  17
ATOM     17  O   UNL     1     -18.817 -68.810  60.576  1.00  0.00    -0.504 OA
ATOM     18  H   UNL     1     -18.369 -69.692  60.355  1.00  0.00     0.293 HD
ENDBRANCH  14  17
BRANCH  16  19
ATOM     19  O   UNL     1     -18.758 -66.370  59.152  1.00  0.00    -0.504 OA
ATOM     20  H   UNL     1     -18.720 -65.485  58.660  1.00  0.00     0.293 HD
ENDBRANCH  16  19
ENDBRANCH   1  11
BRANCH  10  21
ATOM     21  O   UNL     1     -23.726 -69.119  56.581  1.00  0.00    -0.500 OA
ATOM     22  H   UNL     1     -23.224 -69.333  55.727  1.00  0.00     0.294 HD
ENDBRANCH  10  21
BRANCH   5  23
ATOM     23  O   UNL     1     -26.732 -62.005  57.363  1.00  0.00    -0.507 OA
ATOM     24  H   UNL     1     -26.061 -61.249  57.295  1.00  0.00     0.293 HD
ENDBRANCH   5  23
BRANCH   7  25
ATOM     25  O   UNL     1     -27.591 -66.144  55.017  1.00  0.00    -0.507 OA
ATOM     26  H   UNL     1     -28.576 -66.310  55.187  1.00  0.00     0.293 HD
ENDBRANCH   7  25
TORSDOF 6
ENDMDL
MODEL 4
REMARK VINA RESULT:    -5.114      9.952     12.148
REMARK INTER + INTRA:          -6.506
REMARK INTER:                  -6.268
REMARK INTRA:                  -0.238
REMARK UNBOUND:                -0.346
REMARK SMILES Oc1cc(O)c2cc(O)c(-c3ccc(O)c(O)c3)[o+]c2c1
REMARK SMILES IDX 10 1 19 2 20 3 21 4 2 5 3 6 4 7 6 8 7 9 8 10 11 11 12 12
REMARK SMILES IDX 13 13 14 14 18 15 16 16 15 17 17 19 9 21 1 23 5 25
REMARK H PARENT 15 18 17 20 9 22 1 24 5 26
REMARK Flexibility Score: inf
ROOT
ATOM      1  C   UNL     1     -20.770 -64.410  57.397  1.00  0.00     0.402 A 
ATOM      2  O   UNL     1     -19.969 -65.141  58.170  1.00  0.00    -0.202 OA
ATOM      3  C   UNL     1     -20.309 -66.333  58.649  1.00  0.00     0.368 A 
ATOM      4  C   UNL     1     -19.409 -67.040  59.451  1.00  0.00     0.162 A 
ATOM      5  C   UNL     1     -19.755 -68.298  59.960  1.00  0.00     0.128 A 
ATOM      6  C   UNL     1     -21.006 -68.850  59.663  1.00  0.00     0.093 A 
ATOM      7  C   UNL     1     -21.921 -68.153  58.860  1.00  0.00     0.136 A 
ATOM      8  C   UNL     1     -21.573 -66.888  58.350  1.00  0.00     0.125 A 
ATOM      9  C   UNL     1     -22.448 -66.143  57.550  1.00  0.00     0.078 A 
ATOM     10  C   UNL     1     -22.056 -64.888  57.074  1.00  0.00     0.223 A 
ENDROOT
BRANCH   1  11
ATOM     11  C   UNL     1     -20.275 -63.100  56.917  1.00  0.00     0.087 A 
ATOM     12  C   UNL     1     -20.054 -62.855  55.549  1.00  0.00     0.022 A 
ATOM     13  C   UNL     1     -19.564 -61.618  55.123  1.00  0.00     0.051 A 
ATOM     14  C   UNL     1     -19.274 -60.614  56.050  1.00  0.00     0.157 A 
ATOM     15  C   UNL     1     -19.963 -62.095  57.848  1.00  0.00     0.068 A 
ATOM     16  C   UNL     1     -19.471 -60.853  57.421  1.00  0.00     0.158 A 
BRANCH  14  17
ATOM     17  O   UNL     1     -18.788 -59.389  55.594  1.00  0.00    -0.504 OA
ATOM     18  H   UNL     1     -17.807 -59.143  55.654  1.00  0.00     0.293 HD
ENDBRANCH  14  17
BRANCH  16  19
ATOM     19  O   UNL     1     -19.177 -59.859  58.353  1.00  0.00    -0.504 OA
ATOM     20  H   UNL     1     -19.425 -59.957  59.330  1.00  0.00     0.293 HD
ENDBRANCH  16  19
ENDBRANCH   1  11
BRANCH  10  21
ATOM     21  O   UNL     1     -22.942 -64.120  56.320  1.00  0.00    -0.500 OA
ATOM     22  H   UNL     1     -22.726 -63.167  56.053  1.00  0.00     0.294 HD
ENDBRANCH  10  21
BRANCH   5  23
ATOM     23  O   UNL     1     -18.864 -69.010  60.759  1.00  0.00    -0.507 OA
ATOM     24  H   UNL     1     -19.008 -69.990  60.972  1.00  0.00     0.293 HD
ENDBRANCH   5  23
BRANCH   7  25
ATOM     25  O   UNL     1     -23.165 -68.714  58.573  1.00  0.00    -0.507 OA
ATOM     26  H   UNL     1     -23.685 -68.454  57.743  1.00  0.00     0.293 HD
ENDBRANCH   7  25
TORSDOF 6
ENDMDL
MODEL 5
REMARK VINA RESULT:    -5.076     10.001     11.612
REMARK INTER + INTRA:          -6.461
REMARK INTER:                  -6.132
REMARK INTRA:                  -0.329
REMARK UNBOUND:                -0.346
REMARK SMILES Oc1cc(O)c2cc(O)c(-c3ccc(O)c(O)c3)[o+]c2c1
REMARK SMILES IDX 10 1 19 2 20 3 21 4 2 5 3 6 4 7 6 8 7 9 8 10 11 11 12 12
REMARK SMILES IDX 13 13 14 14 18 15 16 16 15 17 17 19 9 21 1 23 5 25
REMARK H PARENT 15 18 17 20 9 22 1 24 5 26
REMARK Flexibility Score: inf
ROOT
ATOM      1  C   UNL     1     -20.314 -64.431  57.314  1.00  0.00     0.402 A 
ATOM      2  O   UNL     1     -21.595 -64.791  57.367  1.00  0.00    -0.202 OA
ATOM      3  C   UNL     1     -22.000 -65.974  57.817  1.00  0.00     0.368 A 
ATOM      4  C   UNL     1     -23.366 -66.273  57.844  1.00  0.00     0.162 A 
ATOM      5  C   UNL     1     -23.805 -67.516  58.319  1.00  0.00     0.128 A 
ATOM      6  C   UNL     1     -22.876 -68.460  58.769  1.00  0.00     0.093 A 
ATOM      7  C   UNL     1     -21.503 -68.174  58.747  1.00  0.00     0.136 A 
ATOM      8  C   UNL     1     -21.060 -66.926  58.269  1.00  0.00     0.125 A 
ATOM      9  C   UNL     1     -19.703 -66.589  58.217  1.00  0.00     0.078 A 
ATOM     10  C   UNL     1     -19.316 -65.338  57.727  1.00  0.00     0.223 A 
ENDROOT
BRANCH   1  11
ATOM     11  C   UNL     1     -19.986 -63.081  56.801  1.00  0.00     0.087 A 
ATOM     12  C   UNL     1     -19.901 -62.823  55.421  1.00  0.00     0.022 A 
ATOM     13  C   UNL     1     -19.567 -61.546  54.961  1.00  0.00     0.051 A 
ATOM     14  C   UNL     1     -19.301 -60.515  55.866  1.00  0.00     0.157 A 
ATOM     15  C   UNL     1     -19.698 -62.048  57.708  1.00  0.00     0.068 A 
ATOM     16  C   UNL     1     -19.364 -60.766  57.247  1.00  0.00     0.158 A 
BRANCH  14  17
ATOM     17  O   UNL     1     -18.974 -59.251  55.376  1.00  0.00    -0.504 OA
ATOM     18  H   UNL     1     -18.468 -59.125  54.507  1.00  0.00     0.293 HD
ENDBRANCH  14  17
BRANCH  16  19
ATOM     19  O   UNL     1     -19.093 -59.744  58.156  1.00  0.00    -0.504 OA
ATOM     20  H   UNL     1     -18.617 -59.925  59.032  1.00  0.00     0.293 HD
ENDBRANCH  16  19
ENDBRANCH   1  11
BRANCH  10  21
ATOM     21  O   UNL     1     -17.963 -65.016  57.625  1.00  0.00    -0.500 OA
ATOM     22  H   UNL     1     -17.652 -64.151  57.197  1.00  0.00     0.294 HD
ENDBRANCH  10  21
BRANCH   5  23
ATOM     23  O   UNL     1     -25.164 -67.822  58.350  1.00  0.00    -0.507 OA
ATOM     24  H   UNL     1     -25.491 -68.768  58.512  1.00  0.00     0.293 HD
ENDBRANCH   5  23
BRANCH   7  25
ATOM     25  O   UNL     1     -20.586 -69.125  59.197  1.00  0.00    -0.507 OA
ATOM     26  H   UNL     1     -20.444 -69.999  58.705  1.00  0.00     0.293 HD
ENDBRANCH   7  25
TORSDOF 6
ENDMDL
MODEL 6
REMARK VINA RESULT:    -5.008      8.111      9.554
REMARK INTER + INTRA:          -6.378
REMARK INTER:                  -6.036
REMARK INTRA:                  -0.343
REMARK UNBOUND:                -0.346
REMARK SMILES Oc1cc(O)c2cc(O)c(-c3ccc(O)c(O)c3)[o+]c2c1
REMARK SMILES IDX 10 1 19 2 20 3 21 4 2 5 3 6 4 7 6 8 7 9 8 10 11 11 12 12
REMARK SMILES IDX 13 13 14 14 18 15 16 16 15 17 17 19 9 21 1 23 5 25
REMARK H PARENT 15 18 17 20 9 22 1 24 5 26
REMARK Flexibility Score: inf
ROOT
ATOM      1  C   UNL     1     -26.186 -64.178  56.244  1.00  0.00     0.402 A 
ATOM      2  O   UNL     1     -26.622 -65.324  56.764  1.00  0.00    -0.202 OA
ATOM      3  C   UNL     1     -27.650 -66.004  56.267  1.00  0.00     0.368 A 
ATOM      4  C   UNL     1     -28.044 -67.202  56.870  1.00  0.00     0.162 A 
ATOM      5  C   UNL     1     -29.124 -67.929  56.354  1.00  0.00     0.128 A 
ATOM      6  C   UNL     1     -29.812 -67.455  55.231  1.00  0.00     0.093 A 
ATOM      7  C   UNL     1     -29.430 -66.254  54.617  1.00  0.00     0.136 A 
ATOM      8  C   UNL     1     -28.344 -65.522  55.135  1.00  0.00     0.125 A 
ATOM      9  C   UNL     1     -27.923 -64.315  54.568  1.00  0.00     0.078 A 
ATOM     10  C   UNL     1     -26.843 -63.624  55.127  1.00  0.00     0.223 A 
ENDROOT
BRANCH   1  11
ATOM     11  C   UNL     1     -25.024 -63.517  56.881  1.00  0.00     0.087 A 
ATOM     12  C   UNL     1     -23.705 -63.878  56.553  1.00  0.00     0.022 A 
ATOM     13  C   UNL     1     -22.625 -63.256  57.185  1.00  0.00     0.051 A 
ATOM     14  C   UNL     1     -22.842 -62.279  58.160  1.00  0.00     0.157 A 
ATOM     15  C   UNL     1     -25.240 -62.549  57.875  1.00  0.00     0.068 A 
ATOM     16  C   UNL     1     -24.156 -61.924  58.510  1.00  0.00     0.158 A 
BRANCH  14  17
ATOM     17  O   UNL     1     -21.744 -61.675  58.771  1.00  0.00    -0.504 OA
ATOM     18  H   UNL     1     -20.792 -61.951  58.561  1.00  0.00     0.293 HD
ENDBRANCH  14  17
BRANCH  16  19
ATOM     19  O   UNL     1     -24.381 -60.954  59.486  1.00  0.00    -0.504 OA
ATOM     20  H   UNL     1     -24.673 -61.202  60.424  1.00  0.00     0.293 HD
ENDBRANCH  16  19
ENDBRANCH   1  11
BRANCH  10  21
ATOM     21  O   UNL     1     -26.452 -62.394  54.597  1.00  0.00    -0.500 OA
ATOM     22  H   UNL     1     -26.967 -61.544  54.790  1.00  0.00     0.294 HD
ENDBRANCH  10  21
BRANCH   5  23
ATOM     23  O   UNL     1     -29.522 -69.125  56.948  1.00  0.00    -0.507 OA
ATOM     24  H   UNL     1     -29.798 -69.167  57.922  1.00  0.00     0.293 HD
ENDBRANCH   5  23
BRANCH   7  25
ATOM     25  O   UNL     1     -30.125 -65.791  53.499  1.00  0.00    -0.507 OA
ATOM     26  H   UNL     1     -29.731 -65.852  52.567  1.00  0.00     0.293 HD
ENDBRANCH   7  25
TORSDOF 6
ENDMDL
MODEL 7
REMARK VINA RESULT:    -4.988      9.435     12.774
REMARK INTER + INTRA:          -6.354
REMARK INTER:                  -6.013
REMARK INTRA:                  -0.342
REMARK UNBOUND:                -0.346
REMARK SMILES Oc1cc(O)c2cc(O)c(-c3ccc(O)c(O)c3)[o+]c2c1
REMARK SMILES IDX 10 1 19 2 20 3 21 4 2 5 3 6 4 7 6 8 7 9 8 10 11 11 12 12
REMARK SMILES IDX 13 13 14 14 18 15 16 16 15 17 17 19 9 21 1 23 5 25
REMARK H PARENT 15 18 17 20 9 22 1 24 5 26
REMARK Flexibility Score: inf
ROOT
ATOM      1  C   UNL     1     -23.674 -66.381  56.696  1.00  0.00     0.402 A 
ATOM      2  O   UNL     1     -23.701 -66.682  55.398  1.00  0.00    -0.202 OA
ATOM      3  C   UNL     1     -24.509 -66.083  54.530  1.00  0.00     0.368 A 
ATOM      4  C   UNL     1     -24.473 -66.455  53.182  1.00  0.00     0.162 A 
ATOM      5  C   UNL     1     -25.318 -65.829  52.256  1.00  0.00     0.128 A 
ATOM      6  C   UNL     1     -26.200 -64.829  52.681  1.00  0.00     0.093 A 
ATOM      7  C   UNL     1     -26.248 -64.446  54.029  1.00  0.00     0.136 A 
ATOM      8  C   UNL     1     -25.400 -65.075  54.960  1.00  0.00     0.125 A 
ATOM      9  C   UNL     1     -25.409 -64.740  56.319  1.00  0.00     0.078 A 
ATOM     10  C   UNL     1     -24.551 -65.401  57.204  1.00  0.00     0.223 A 
ENDROOT
BRANCH   1  11
ATOM     11  C   UNL     1     -22.723 -67.112  57.564  1.00  0.00     0.087 A 
ATOM     12  C   UNL     1     -23.055 -68.356  58.131  1.00  0.00     0.022 A 
ATOM     13  C   UNL     1     -22.149 -69.015  58.966  1.00  0.00     0.051 A 
ATOM     14  C   UNL     1     -20.909 -68.441  59.260  1.00  0.00     0.157 A 
ATOM     15  C   UNL     1     -21.485 -66.528  57.878  1.00  0.00     0.068 A 
ATOM     16  C   UNL     1     -20.575 -67.189  58.716  1.00  0.00     0.158 A 
BRANCH  14  17
ATOM     17  O   UNL     1     -20.026 -69.124  60.094  1.00  0.00    -0.504 OA
ATOM     18  H   UNL     1     -19.259 -68.658  60.564  1.00  0.00     0.293 HD
ENDBRANCH  14  17
BRANCH  16  19
ATOM     19  O   UNL     1     -19.343 -66.606  59.010  1.00  0.00    -0.504 OA
ATOM     20  H   UNL     1     -18.887 -65.973  58.363  1.00  0.00     0.293 HD
ENDBRANCH  16  19
ENDBRANCH   1  11
BRANCH  10  21
ATOM     21  O   UNL     1     -24.592 -65.108  58.566  1.00  0.00    -0.500 OA
ATOM     22  H   UNL     1     -24.077 -65.656  59.245  1.00  0.00     0.294 HD
ENDBRANCH  10  21
BRANCH   5  23
ATOM     23  O   UNL     1     -25.288 -66.192  50.912  1.00  0.00    -0.507 OA
ATOM     24  H   UNL     1     -24.425 -66.464  50.455  1.00  0.00     0.293 HD
ENDBRANCH   5  23
BRANCH   7  25
ATOM     25  O   UNL     1     -27.133 -63.449  54.440  1.00  0.00    -0.507 OA
ATOM     26  H   UNL     1     -27.533 -62.791  53.782  1.00  0.00     0.293 HD
ENDBRANCH   7  25
TORSDOF 6
ENDMDL
MODEL 8
REMARK VINA RESULT:    -4.910      8.616     10.016
REMARK INTER + INTRA:          -6.261
REMARK INTER:                  -6.075
REMARK INTRA:                  -0.186
REMARK UNBOUND:                -0.346
REMARK SMILES Oc1cc(O)c2cc(O)c(-c3ccc(O)c(O)c3)[o+]c2c1
REMARK SMILES IDX 10 1 19 2 20 3 21 4 2 5 3 6 4 7 6 8 7 9 8 10 11 11 12 12
REMARK SMILES IDX 13 13 14 14 18 15 16 16 15 17 17 19 9 21 1 23 5 25
REMARK H PARENT 15 18 17 20 9 22 1 24 5 26
REMARK Flexibility Score: inf
ROOT
ATOM      1  C   UNL     1     -25.975 -65.206  56.884  1.00  0.00     0.402 A 
ATOM      2  O   UNL     1     -26.961 -64.747  56.114  1.00  0.00    -0.202 OA
ATOM      3  C   UNL     1     -27.946 -65.514  55.660  1.00  0.00     0.368 A 
ATOM      4  C   UNL     1     -28.947 -64.953  54.860  1.00  0.00     0.162 A 
ATOM      5  C   UNL     1     -29.993 -65.751  54.378  1.00  0.00     0.128 A 
ATOM      6  C   UNL     1     -30.037 -67.112  54.698  1.00  0.00     0.093 A 
ATOM      7  C   UNL     1     -29.040 -67.689  55.498  1.00  0.00     0.136 A 
ATOM      8  C   UNL     1     -27.989 -66.888  55.983  1.00  0.00     0.125 A 
ATOM      9  C   UNL     1     -26.963 -67.410  56.779  1.00  0.00     0.078 A 
ATOM     10  C   UNL     1     -25.938 -66.572  57.229  1.00  0.00     0.223 A 
ENDROOT
BRANCH   1  11
ATOM     11  C   UNL     1     -24.937 -64.252  57.336  1.00  0.00     0.087 A 
ATOM     12  C   UNL     1     -23.594 -64.388  56.940  1.00  0.00     0.022 A 
ATOM     13  C   UNL     1     -22.628 -63.488  57.399  1.00  0.00     0.051 A 
ATOM     14  C   UNL     1     -22.982 -62.451  58.266  1.00  0.00     0.157 A 
ATOM     15  C   UNL     1     -25.286 -63.221  58.223  1.00  0.00     0.068 A 
ATOM     16  C   UNL     1     -24.317 -62.317  58.684  1.00  0.00     0.158 A 
BRANCH  14  17
ATOM     17  O   UNL     1     -21.997 -61.568  58.704  1.00  0.00    -0.504 OA
ATOM     18  H   UNL     1     -21.889 -60.641  58.308  1.00  0.00     0.293 HD
ENDBRANCH  14  17
BRANCH  16  19
ATOM     19  O   UNL     1     -24.677 -61.289  59.554  1.00  0.00    -0.504 OA
ATOM     20  H   UNL     1     -24.134 -60.436  59.623  1.00  0.00     0.293 HD
ENDBRANCH  16  19
ENDBRANCH   1  11
BRANCH  10  21
ATOM     21  O   UNL     1     -24.886 -67.097  57.979  1.00  0.00    -0.500 OA
ATOM     22  H   UNL     1     -25.051 -67.641  58.819  1.00  0.00     0.294 HD
ENDBRANCH  10  21
BRANCH   5  23
ATOM     23  O   UNL     1     -30.994 -65.201  53.580  1.00  0.00    -0.507 OA
ATOM     24  H   UNL     1     -31.374 -65.701  52.785  1.00  0.00     0.293 HD
ENDBRANCH   5  23
BRANCH   7  25
ATOM     25  O   UNL     1     -29.095 -69.048  55.808  1.00  0.00    -0.507 OA
ATOM     26  H   UNL     1     -28.347 -69.681  55.552  1.00  0.00     0.293 HD
ENDBRANCH   7  25
TORSDOF 6
ENDMDL
MODEL 9
REMARK VINA RESULT:    -4.866     13.123     15.262
REMARK INTER + INTRA:          -6.208
REMARK INTER:                  -5.865
REMARK INTRA:                  -0.343
REMARK UNBOUND:                -0.346
REMARK SMILES Oc1cc(O)c2cc(O)c(-c3ccc(O)c(O)c3)[o+]c2c1
REMARK SMILES IDX 10 1 19 2 20 3 21 4 2 5 3 6 4 7 6 8 7 9 8 10 11 11 12 12
REMARK SMILES IDX 13 13 14 14 18 15 16 16 15 17 17 19 9 21 1 23 5 25
REMARK H PARENT 15 18 17 20 9 22 1 24 5 26
REMARK Flexibility Score: inf
ROOT
ATOM      1  C   UNL     1     -20.423 -67.491  56.682  1.00  0.00     0.402 A 
ATOM      2  O   UNL     1     -20.351 -68.105  55.502  1.00  0.00    -0.202 OA
ATOM      3  C   UNL     1     -19.404 -67.848  54.605  1.00  0.00     0.368 A 
ATOM      4  C   UNL     1     -19.395 -68.540  53.390  1.00  0.00     0.162 A 
ATOM      5  C   UNL     1     -18.401 -68.279  52.438  1.00  0.00     0.128 A 
ATOM      6  C   UNL     1     -17.413 -67.325  52.704  1.00  0.00     0.093 A 
ATOM      7  C   UNL     1     -17.409 -66.622  53.917  1.00  0.00     0.136 A 
ATOM      8  C   UNL     1     -18.409 -66.882  54.874  1.00  0.00     0.125 A 
ATOM      9  C   UNL     1     -18.459 -66.207  56.099  1.00  0.00     0.078 A 
ATOM     10  C   UNL     1     -19.478 -66.499  57.012  1.00  0.00     0.223 A 
ENDROOT
BRANCH   1  11
ATOM     11  C   UNL     1     -21.520 -67.870  57.601  1.00  0.00     0.087 A 
ATOM     12  C   UNL     1     -21.308 -68.764  58.666  1.00  0.00     0.022 A 
ATOM     13  C   UNL     1     -22.364 -69.125  59.507  1.00  0.00     0.051 A 
ATOM     14  C   UNL     1     -23.646 -68.612  59.292  1.00  0.00     0.157 A 
ATOM     15  C   UNL     1     -22.814 -67.372  57.376  1.00  0.00     0.068 A 
ATOM     16  C   UNL     1     -23.875 -67.733  58.220  1.00  0.00     0.158 A 
BRANCH  14  17
ATOM     17  O   UNL     1     -24.679 -68.989  60.149  1.00  0.00    -0.504 OA
ATOM     18  H   UNL     1     -24.514 -69.548  60.978  1.00  0.00     0.293 HD
ENDBRANCH  14  17
BRANCH  16  19
ATOM     19  O   UNL     1     -25.153 -67.223  57.995  1.00  0.00    -0.504 OA
ATOM     20  H   UNL     1     -25.340 -66.228  58.026  1.00  0.00     0.293 HD
ENDBRANCH  16  19
ENDBRANCH   1  11
BRANCH  10  21
ATOM     21  O   UNL     1     -19.563 -65.793  58.212  1.00  0.00    -0.500 OA
ATOM     22  H   UNL     1     -20.029 -66.179  59.024  1.00  0.00     0.294 HD
ENDBRANCH  10  21
BRANCH   5  23
ATOM     23  O   UNL     1     -18.384 -68.965  51.226  1.00  0.00    -0.507 OA
ATOM     24  H   UNL     1     -17.556 -69.453  50.904  1.00  0.00     0.293 HD
ENDBRANCH   5  23
BRANCH   7  25
ATOM     25  O   UNL     1     -16.420 -65.671  54.170  1.00  0.00    -0.507 OA
ATOM     26  H   UNL     1     -16.152 -64.987  53.473  1.00  0.00     0.293 HD
ENDBRANCH   7  25
TORSDOF 6
ENDMDL
