MODEL 1
REMARK VINA RESULT:    -4.603      0.000      0.000
REMARK INTER + INTRA:          -6.234
REMARK INTER:                  -6.487
REMARK INTRA:                   0.253
REMARK UNBOUND:                 0.253
REMARK SMILES CC1=CCC(=C(C)C)C(=O)CC(C)=CCC1
REMARK SMILES IDX 12 1 14 2 13 3 15 4 16 5 2 6 1 7 3 8 11 10 9 11 10 12 5 13
REMARK SMILES IDX 6 14 7 15 8 16 4 17
REMARK H PARENT
REMARK Flexibility Score: 60.00
ROOT
ATOM      1  C   UNL     1      15.684  18.562  56.995  1.00  0.00    -0.070 C 
ATOM      2  C   UNL     1      15.294  19.051  58.195  1.00  0.00    -0.027 C 
ATOM      3  C   UNL     1      17.038  18.968  56.470  1.00  0.00     0.039 C 
ENDROOT
BRANCH   2   4
ATOM      4  C   UNL     1      14.002  18.702  58.899  1.00  0.00     0.032 C 
BRANCH   4   5
ATOM      5  C   UNL     1      12.815  19.492  58.330  1.00  0.00     0.034 C 
BRANCH   5   6
ATOM      6  C   UNL     1      11.627  18.617  57.952  1.00  0.00    -0.077 C 
ATOM      7  C   UNL     1      10.914  17.851  59.037  1.00  0.00     0.039 C 
ATOM      8  C   UNL     1      11.161  18.501  56.687  1.00  0.00    -0.023 CG0
ATOM      9  G   UNL     1      11.782  19.133  55.462  1.00  0.00     0.000 G0
ENDBRANCH   5   6
ENDBRANCH   4   5
ENDBRANCH   2   4
BRANCH   1  10
ATOM     10  C   UNL     1      14.824  17.630  56.163  1.00  0.00     0.111 C 
BRANCH  10  11
ATOM     11  C   UNL     1      14.210  18.356  54.998  1.00  0.00     0.163 C 
ATOM     12  O   UNL     1      14.942  19.062  54.255  1.00  0.00    -0.294 OA
BRANCH  11  13
ATOM     13  C   UNL     1      12.760  18.238  54.693  1.00  0.00    -0.002 C 
ATOM     14  C   UNL     1      12.325  17.345  53.765  1.00  0.00    -0.069 C 
ATOM     15  C   UNL     1      10.860  17.247  53.404  1.00  0.00     0.039 C 
ATOM     16  C   UNL     1      13.282  16.388  53.090  1.00  0.00     0.039 C 
BRANCH  13  17
ATOM     17  C   UNL     1      11.771  19.131  55.435  1.00  0.00     0.066 CG0
ATOM     18  G   UNL     1      11.175  18.486  56.665  1.00  0.00     0.000 G0
ENDBRANCH  13  17
ENDBRANCH  11  13
ENDBRANCH  10  11
ENDBRANCH   1  10
TORSDOF 0
ENDMDL
MODEL 2
REMARK VINA RESULT:    -4.509      1.764      3.401
REMARK INTER + INTRA:          -6.102
REMARK INTER:                  -6.351
REMARK INTRA:                   0.250
REMARK UNBOUND:                 0.253
REMARK SMILES CC1=CCC(=C(C)C)C(=O)CC(C)=CCC1
REMARK SMILES IDX 12 1 14 2 13 3 15 4 16 5 2 6 1 7 3 8 11 10 9 11 10 12 5 13
REMARK SMILES IDX 6 14 7 15 8 16 4 17
REMARK H PARENT
REMARK Flexibility Score: 60.00
ROOT
ATOM      1  C   UNL     1      13.839  17.508  55.086  1.00  0.00    -0.070 C 
ATOM      2  C   UNL     1      14.922  17.887  55.805  1.00  0.00    -0.027 C 
ATOM      3  C   UNL     1      13.901  17.645  53.587  1.00  0.00     0.039 C 
ENDROOT
BRANCH   2   4
ATOM      4  C   UNL     1      15.058  17.763  57.306  1.00  0.00     0.032 C 
BRANCH   4   5
ATOM      5  C   UNL     1      14.379  18.930  58.036  1.00  0.00     0.034 C 
BRANCH   5   6
ATOM      6  C   UNL     1      13.511  18.493  59.207  1.00  0.00    -0.077 C 
ATOM      7  C   UNL     1      14.168  17.837  60.395  1.00  0.00     0.039 C 
ATOM      8  C   UNL     1      12.171  18.677  59.250  1.00  0.00    -0.023 CG0
ATOM      9  G   UNL     1      11.328  19.249  58.134  1.00  0.00     0.000 G0
ENDBRANCH   5   6
ENDBRANCH   4   5
ENDBRANCH   2   4
BRANCH   1  10
ATOM     10  C   UNL     1      12.578  16.957  55.722  1.00  0.00     0.111 C 
BRANCH  10  11
ATOM     11  C   UNL     1      11.530  18.026  55.862  1.00  0.00     0.163 C 
ATOM     12  O   UNL     1      11.255  18.754  54.871  1.00  0.00    -0.294 OA
BRANCH  11  13
ATOM     13  C   UNL     1      10.796  18.225  57.138  1.00  0.00    -0.002 C 
ATOM     14  C   UNL     1       9.680  17.497  57.409  1.00  0.00    -0.069 C 
ATOM     15  C   UNL     1       8.891  17.723  58.679  1.00  0.00     0.039 C 
ATOM     16  C   UNL     1       9.210  16.407  56.472  1.00  0.00     0.039 C 
BRANCH  13  17
ATOM     17  C   UNL     1      11.313  19.255  58.138  1.00  0.00     0.066 CG0
ATOM     18  G   UNL     1      12.158  18.660  59.242  1.00  0.00     0.000 G0
ENDBRANCH  13  17
ENDBRANCH  11  13
ENDBRANCH  10  11
ENDBRANCH   1  10
TORSDOF 0
ENDMDL
MODEL 3
REMARK VINA RESULT:    -4.411      1.621      3.812
REMARK INTER + INTRA:          -5.964
REMARK INTER:                  -6.332
REMARK INTRA:                   0.369
REMARK UNBOUND:                 0.253
REMARK SMILES CC1=CCC(=C(C)C)C(=O)CC(C)=CCC1
REMARK SMILES IDX 12 1 14 2 13 3 15 4 16 5 2 6 1 7 3 8 11 10 9 11 10 12 5 13
REMARK SMILES IDX 6 14 7 15 8 16 4 17
REMARK H PARENT
REMARK Flexibility Score: 60.00
ROOT
ATOM      1  C   UNL     1      14.961  18.371  57.702  1.00  0.00    -0.070 C 
ATOM      2  C   UNL     1      15.263  17.803  56.511  1.00  0.00    -0.027 C 
ATOM      3  C   UNL     1      15.901  19.414  58.249  1.00  0.00     0.039 C 
ENDROOT
BRANCH   2   4
ATOM      4  C   UNL     1      14.406  16.789  55.788  1.00  0.00     0.032 C 
BRANCH   4   5
ATOM      5  C   UNL     1      13.368  17.467  54.882  1.00  0.00     0.034 C 
BRANCH   5   6
ATOM      6  C   UNL     1      12.003  16.794  54.910  1.00  0.00    -0.077 C 
ATOM      7  C   UNL     1      11.821  15.489  54.178  1.00  0.00     0.039 C 
ATOM      8  C   UNL     1      10.938  17.297  55.576  1.00  0.00    -0.023 CG0
ATOM      9  G   UNL     1      10.906  18.621  56.305  1.00  0.00     0.000 G0
ENDBRANCH   5   6
ENDBRANCH   4   5
ENDBRANCH   2   4
BRANCH   1  10
ATOM     10  C   UNL     1      13.726  18.003  58.503  1.00  0.00     0.111 C 
BRANCH  10  11
ATOM     11  C   UNL     1      12.611  18.980  58.258  1.00  0.00     0.163 C 
ATOM     12  O   UNL     1      12.818  20.211  58.427  1.00  0.00    -0.294 OA
BRANCH  11  13
ATOM     13  C   UNL     1      11.273  18.524  57.797  1.00  0.00    -0.002 C 
ATOM     14  C   UNL     1      10.379  18.014  58.686  1.00  0.00    -0.069 C 
ATOM     15  C   UNL     1       9.033  17.498  58.228  1.00  0.00     0.039 C 
ATOM     16  C   UNL     1      10.679  17.982  60.168  1.00  0.00     0.039 C 
BRANCH  13  17
ATOM     17  C   UNL     1      10.919  18.638  56.318  1.00  0.00     0.066 CG0
ATOM     18  G   UNL     1      10.946  17.318  55.583  1.00  0.00     0.000 G0
ENDBRANCH  13  17
ENDBRANCH  11  13
ENDBRANCH  10  11
ENDBRANCH   1  10
TORSDOF 0
ENDMDL
MODEL 4
REMARK VINA RESULT:    -4.408      1.500      3.901
REMARK INTER + INTRA:          -5.959
REMARK INTER:                  -6.437
REMARK INTRA:                   0.479
REMARK UNBOUND:                 0.253
REMARK SMILES CC1=CCC(=C(C)C)C(=O)CC(C)=CCC1
REMARK SMILES IDX 12 1 14 2 13 3 15 4 16 5 2 6 1 7 3 8 11 10 9 11 10 12 5 13
REMARK SMILES IDX 6 14 7 15 8 16 4 17
REMARK H PARENT
REMARK Flexibility Score: 60.00
ROOT
ATOM      1  C   UNL     1      15.638  18.576  56.002  1.00  0.00    -0.070 C 
ATOM      2  C   UNL     1      15.148  18.669  54.744  1.00  0.00    -0.027 C 
ATOM      3  C   UNL     1      16.954  19.246  56.303  1.00  0.00     0.039 C 
ENDROOT
BRANCH   2   4
ATOM      4  C   UNL     1      13.819  18.114  54.283  1.00  0.00     0.032 C 
BRANCH   4   5
ATOM      5  C   UNL     1      12.641  18.880  54.900  1.00  0.00     0.034 C 
BRANCH   5   6
ATOM      6  C   UNL     1      11.579  17.975  55.509  1.00  0.00    -0.077 C 
ATOM      7  C   UNL     1      10.913  16.944  54.634  1.00  0.00     0.039 C 
ATOM      8  C   UNL     1      11.207  18.033  56.809  1.00  0.00    -0.023 CG0
ATOM      9  G   UNL     1      11.708  19.039  57.820  1.00  0.00     0.000 G0
ENDBRANCH   5   6
ENDBRANCH   4   5
ENDBRANCH   2   4
BRANCH   1  10
ATOM     10  C   UNL     1      14.924  17.830  57.113  1.00  0.00     0.111 C 
BRANCH  10  11
ATOM     11  C   UNL     1      14.290  18.785  58.086  1.00  0.00     0.163 C 
ATOM     12  O   UNL     1      14.921  19.817  58.440  1.00  0.00    -0.294 OA
BRANCH  11  13
ATOM     13  C   UNL     1      12.925  18.548  58.622  1.00  0.00    -0.002 C 
ATOM     14  C   UNL     1      12.755  17.896  59.805  1.00  0.00    -0.069 C 
ATOM     15  C   UNL     1      11.373  17.600  60.341  1.00  0.00     0.039 C 
ATOM     16  C   UNL     1      13.942  17.482  60.647  1.00  0.00     0.039 C 
BRANCH  13  17
ATOM     17  C   UNL     1      11.719  19.044  57.831  1.00  0.00     0.066 CG0
ATOM     18  G   UNL     1      11.195  18.042  56.829  1.00  0.00     0.000 G0
ENDBRANCH  13  17
ENDBRANCH  11  13
ENDBRANCH  10  11
ENDBRANCH   1  10
TORSDOF 0
ENDMDL
MODEL 5
REMARK VINA RESULT:    -4.088      9.922     11.926
REMARK INTER + INTRA:          -5.508
REMARK INTER:                  -6.106
REMARK INTRA:                   0.598
REMARK UNBOUND:                 0.253
REMARK SMILES CC1=CCC(=C(C)C)C(=O)CC(C)=CCC1
REMARK SMILES IDX 12 1 14 2 13 3 15 4 16 5 2 6 1 7 3 8 11 10 9 11 10 12 5 13
REMARK SMILES IDX 6 14 7 15 8 16 4 17
REMARK H PARENT
REMARK Flexibility Score: 60.00
ROOT
ATOM      1  C   UNL     1      16.799  10.037  53.137  1.00  0.00    -0.070 C 
ATOM      2  C   UNL     1      16.533   8.920  53.853  1.00  0.00    -0.027 C 
ATOM      3  C   UNL     1      15.987  10.292  51.893  1.00  0.00     0.039 C 
ENDROOT
BRANCH   2   4
ATOM      4  C   UNL     1      17.203   8.538  55.154  1.00  0.00     0.032 C 
BRANCH   4   5
ATOM      5  C   UNL     1      18.018   7.245  55.013  1.00  0.00     0.034 C 
BRANCH   5   6
ATOM      6  C   UNL     1      18.719   7.111  53.667  1.00  0.00    -0.077 C 
ATOM      7  C   UNL     1      18.223   6.077  52.689  1.00  0.00     0.039 C 
ATOM      8  C   UNL     1      19.761   7.887  53.290  1.00  0.00    -0.023 CG0
ATOM      9  G   UNL     1      20.439   8.925  54.155  1.00  0.00     0.000 G0
ENDBRANCH   5   6
ENDBRANCH   4   5
ENDBRANCH   2   4
BRANCH   1  10
ATOM     10  C   UNL     1      17.874  11.033  53.529  1.00  0.00     0.111 C 
BRANCH  10  11
ATOM     11  C   UNL     1      19.161  10.754  52.805  1.00  0.00     0.163 C 
ATOM     12  O   UNL     1      19.210  10.896  51.554  1.00  0.00    -0.294 OA
BRANCH  11  13
ATOM     13  C   UNL     1      20.384  10.335  53.538  1.00  0.00    -0.002 C 
ATOM     14  C   UNL     1      21.433  11.191  53.669  1.00  0.00    -0.069 C 
ATOM     15  C   UNL     1      22.705  10.766  54.366  1.00  0.00     0.039 C 
ATOM     16  C   UNL     1      21.351  12.613  53.159  1.00  0.00     0.039 C 
BRANCH  13  17
ATOM     17  C   UNL     1      20.445   8.936  54.142  1.00  0.00     0.066 CG0
ATOM     18  G   UNL     1      19.774   7.879  53.295  1.00  0.00     0.000 G0
ENDBRANCH  13  17
ENDBRANCH  11  13
ENDBRANCH  10  11
ENDBRANCH   1  10
TORSDOF 0
ENDMDL
MODEL 6
REMARK VINA RESULT:    -4.060      1.901      4.163
REMARK INTER + INTRA:          -5.468
REMARK INTER:                  -5.918
REMARK INTRA:                   0.450
REMARK UNBOUND:                 0.253
REMARK SMILES CC1=CCC(=C(C)C)C(=O)CC(C)=CCC1
REMARK SMILES IDX 12 1 14 2 13 3 15 4 16 5 2 6 1 7 3 8 11 10 9 11 10 12 5 13
REMARK SMILES IDX 6 14 7 15 8 16 4 17
REMARK H PARENT
REMARK Flexibility Score: 60.00
ROOT
ATOM      1  C   UNL     1      11.507  16.469  55.791  1.00  0.00    -0.070 C 
ATOM      2  C   UNL     1      10.414  16.619  56.575  1.00  0.00    -0.027 C 
ATOM      3  C   UNL     1      11.720  15.137  55.118  1.00  0.00     0.039 C 
ENDROOT
BRANCH   2   4
ATOM      4  C   UNL     1      10.012  17.898  57.274  1.00  0.00     0.032 C 
BRANCH   4   5
ATOM      5  C   UNL     1      10.657  18.012  58.662  1.00  0.00     0.034 C 
BRANCH   5   6
ATOM      6  C   UNL     1      11.474  19.283  58.851  1.00  0.00    -0.077 C 
ATOM      7  C   UNL     1      10.750  20.593  59.031  1.00  0.00     0.039 C 
ATOM      8  C   UNL     1      12.826  19.301  58.884  1.00  0.00    -0.023 CG0
ATOM      9  G   UNL     1      13.725  18.107  58.654  1.00  0.00     0.000 G0
ENDBRANCH   5   6
ENDBRANCH   4   5
ENDBRANCH   2   4
BRANCH   1  10
ATOM     10  C   UNL     1      12.519  17.576  55.565  1.00  0.00     0.111 C 
BRANCH  10  11
ATOM     11  C   UNL     1      13.840  17.240  56.200  1.00  0.00     0.163 C 
ATOM     12  O   UNL     1      14.487  16.240  55.788  1.00  0.00    -0.294 OA
BRANCH  11  13
ATOM     13  C   UNL     1      14.409  18.077  57.288  1.00  0.00    -0.002 C 
ATOM     14  C   UNL     1      15.524  18.824  57.067  1.00  0.00    -0.069 C 
ATOM     15  C   UNL     1      16.147  19.641  58.176  1.00  0.00     0.039 C 
ATOM     16  C   UNL     1      16.159  18.897  55.696  1.00  0.00     0.039 C 
BRANCH  13  17
ATOM     17  C   UNL     1      13.724  18.089  58.650  1.00  0.00     0.066 CG0
ATOM     18  G   UNL     1      12.849  19.299  58.881  1.00  0.00     0.000 G0
ENDBRANCH  13  17
ENDBRANCH  11  13
ENDBRANCH  10  11
ENDBRANCH   1  10
TORSDOF 0
ENDMDL
MODEL 7
REMARK VINA RESULT:    -4.042      2.098      4.288
REMARK INTER + INTRA:          -5.443
REMARK INTER:                  -5.890
REMARK INTRA:                   0.447
REMARK UNBOUND:                 0.253
REMARK SMILES CC1=CCC(=C(C)C)C(=O)CC(C)=CCC1
REMARK SMILES IDX 12 1 14 2 13 3 15 4 16 5 2 6 1 7 3 8 11 10 9 11 10 12 5 13
REMARK SMILES IDX 6 14 7 15 8 16 4 17
REMARK H PARENT
REMARK Flexibility Score: 60.00
ROOT
ATOM      1  C   UNL     1       9.735  18.400  56.428  1.00  0.00    -0.070 C 
ATOM      2  C   UNL     1       9.335  19.147  57.484  1.00  0.00    -0.027 C 
ATOM      3  C   UNL     1       8.763  17.398  55.860  1.00  0.00     0.039 C 
ENDROOT
BRANCH   2   4
ATOM      4  C   UNL     1      10.153  20.237  58.138  1.00  0.00     0.032 C 
BRANCH   4   5
ATOM      5  C   UNL     1      10.378  19.958  59.631  1.00  0.00     0.034 C 
BRANCH   5   6
ATOM      6  C   UNL     1      10.816  18.529  59.923  1.00  0.00    -0.077 C 
ATOM      7  C   UNL     1       9.933  17.659  60.781  1.00  0.00     0.039 C 
ATOM      8  C   UNL     1      11.956  17.986  59.437  1.00  0.00    -0.023 CG0
ATOM      9  G   UNL     1      12.997  18.718  58.621  1.00  0.00     0.000 G0
ENDBRANCH   5   6
ENDBRANCH   4   5
ENDBRANCH   2   4
BRANCH   1  10
ATOM     10  C   UNL     1      11.110  18.526  55.801  1.00  0.00     0.111 C 
BRANCH  10  11
ATOM     11  C   UNL     1      12.092  17.596  56.457  1.00  0.00     0.163 C 
ATOM     12  O   UNL     1      11.941  16.351  56.337  1.00  0.00    -0.294 OA
BRANCH  11  13
ATOM     13  C   UNL     1      13.252  18.117  57.227  1.00  0.00    -0.002 C 
ATOM     14  C   UNL     1      14.506  18.058  56.702  1.00  0.00    -0.069 C 
ATOM     15  C   UNL     1      15.704  18.536  57.490  1.00  0.00     0.039 C 
ATOM     16  C   UNL     1      14.743  17.553  55.296  1.00  0.00     0.039 C 
BRANCH  13  17
ATOM     17  C   UNL     1      13.017  18.718  58.608  1.00  0.00     0.066 CG0
ATOM     18  G   UNL     1      11.966  17.992  59.416  1.00  0.00     0.000 G0
ENDBRANCH  13  17
ENDBRANCH  11  13
ENDBRANCH  10  11
ENDBRANCH   1  10
TORSDOF 0
ENDMDL
MODEL 8
REMARK VINA RESULT:    -3.941      2.006      4.078
REMARK INTER + INTRA:          -5.300
REMARK INTER:                  -5.862
REMARK INTRA:                   0.562
REMARK UNBOUND:                 0.253
REMARK SMILES CC1=CCC(=C(C)C)C(=O)CC(C)=CCC1
REMARK SMILES IDX 12 1 14 2 13 3 15 4 16 5 2 6 1 7 3 8 11 10 9 11 10 12 5 13
REMARK SMILES IDX 6 14 7 15 8 16 4 17
REMARK H PARENT
REMARK Flexibility Score: 60.00
ROOT
ATOM      1  C   UNL     1      10.796  17.953  59.558  1.00  0.00    -0.070 C 
ATOM      2  C   UNL     1       9.603  17.989  58.919  1.00  0.00    -0.027 C 
ATOM      3  C   UNL     1      10.829  18.319  61.019  1.00  0.00     0.039 C 
ENDROOT
BRANCH   2   4
ATOM      4  C   UNL     1       9.375  17.596  57.477  1.00  0.00     0.032 C 
BRANCH   4   5
ATOM      5  C   UNL     1       8.706  18.725  56.680  1.00  0.00     0.034 C 
BRANCH   5   6
ATOM      6  C   UNL     1       9.476  20.038  56.723  1.00  0.00    -0.077 C 
ATOM      7  C   UNL     1       8.780  21.272  57.238  1.00  0.00     0.039 C 
ATOM      8  C   UNL     1      10.768  20.156  56.338  1.00  0.00    -0.023 CG0
ATOM      9  G   UNL     1      11.607  19.054  55.733  1.00  0.00     0.000 G0
ENDBRANCH   5   6
ENDBRANCH   4   5
ENDBRANCH   2   4
BRANCH   1  10
ATOM     10  C   UNL     1      12.089  17.563  58.869  1.00  0.00     0.111 C 
BRANCH  10  11
ATOM     11  C   UNL     1      12.656  18.715  58.089  1.00  0.00     0.163 C 
ATOM     12  O   UNL     1      13.034  19.750  58.700  1.00  0.00    -0.294 OA
BRANCH  11  13
ATOM     13  C   UNL     1      12.800  18.650  56.611  1.00  0.00    -0.002 C 
ATOM     14  C   UNL     1      13.965  18.226  56.053  1.00  0.00    -0.069 C 
ATOM     15  C   UNL     1      14.148  18.202  54.553  1.00  0.00     0.039 C 
ATOM     16  C   UNL     1      15.106  17.723  56.910  1.00  0.00     0.039 C 
BRANCH  13  17
ATOM     17  C   UNL     1      11.624  19.064  55.732  1.00  0.00     0.066 CG0
ATOM     18  G   UNL     1      10.765  20.150  56.337  1.00  0.00     0.000 G0
ENDBRANCH  13  17
ENDBRANCH  11  13
ENDBRANCH  10  11
ENDBRANCH   1  10
TORSDOF 0
ENDMDL
MODEL 9
REMARK VINA RESULT:    -3.938      2.017      4.264
REMARK INTER + INTRA:          -5.297
REMARK INTER:                  -5.804
REMARK INTRA:                   0.507
REMARK UNBOUND:                 0.253
REMARK SMILES CC1=CCC(=C(C)C)C(=O)CC(C)=CCC1
REMARK SMILES IDX 12 1 14 2 13 3 15 4 16 5 2 6 1 7 3 8 11 10 9 11 10 12 5 13
REMARK SMILES IDX 6 14 7 15 8 16 4 17
REMARK H PARENT
REMARK Flexibility Score: 60.00
ROOT
ATOM      1  C   UNL     1       9.339  17.564  56.911  1.00  0.00    -0.070 C 
ATOM      2  C   UNL     1       9.030  17.991  58.158  1.00  0.00    -0.027 C 
ATOM      3  C   UNL     1       8.323  17.776  55.818  1.00  0.00     0.039 C 
ENDROOT
BRANCH   2   4
ATOM      4  C   UNL     1       9.950  17.917  59.356  1.00  0.00     0.032 C 
BRANCH   4   5
ATOM      5  C   UNL     1      10.298  19.313  59.891  1.00  0.00     0.034 C 
BRANCH   5   6
ATOM      6  C   UNL     1      10.745  20.285  58.808  1.00  0.00    -0.077 C 
ATOM      7  C   UNL     1       9.894  21.494  58.519  1.00  0.00     0.039 C 
ATOM      8  C   UNL     1      11.885  20.131  58.095  1.00  0.00    -0.023 CG0
ATOM      9  G   UNL     1      12.828  18.954  58.192  1.00  0.00     0.000 G0
ENDBRANCH   5   6
ENDBRANCH   4   5
ENDBRANCH   2   4
BRANCH   1  10
ATOM     10  C   UNL     1      10.652  16.885  56.572  1.00  0.00     0.111 C 
BRANCH  10  11
ATOM     11  C   UNL     1      11.672  17.884  56.103  1.00  0.00     0.163 C 
ATOM     12  O   UNL     1      11.466  18.524  55.037  1.00  0.00    -0.294 OA
BRANCH  11  13
ATOM     13  C   UNL     1      12.910  18.148  56.882  1.00  0.00    -0.002 C 
ATOM     14  C   UNL     1      14.110  17.685  56.442  1.00  0.00    -0.069 C 
ATOM     15  C   UNL     1      15.371  17.899  57.248  1.00  0.00     0.039 C 
ATOM     16  C   UNL     1      14.235  16.976  55.112  1.00  0.00     0.039 C 
BRANCH  13  17
ATOM     17  C   UNL     1      12.814  18.946  58.179  1.00  0.00     0.066 CG0
ATOM     18  G   UNL     1      11.895  20.142  58.090  1.00  0.00     0.000 G0
ENDBRANCH  13  17
ENDBRANCH  11  13
ENDBRANCH  10  11
ENDBRANCH   1  10
TORSDOF 0
ENDMDL
