MODEL 1
REMARK VINA RESULT:    -2.739      0.000      0.000
REMARK INTER + INTRA:          -2.980
REMARK INTER:                  -2.980
REMARK INTRA:                   0.000
REMARK UNBOUND:                 0.000
REMARK SMILES [NH3+]CC(=O)[O-]
REMARK SMILES IDX 2 1 1 2 3 6 4 7 5 8
REMARK H PARENT 1 3 1 4 1 5
REMARK Flexibility Score: inf
ROOT
ATOM      1  C   UNL     1     -39.230  18.787 -29.848  1.00  0.00     0.312 C 
ENDROOT
BRANCH   1   2
ATOM      2  N   UNL     1     -39.177  17.328 -29.768  1.00  0.00    -0.353 N 
ATOM      3  H   UNL     1     -39.668  16.998 -28.906  1.00  0.00     0.344 HD
ATOM      4  H   UNL     1     -38.177  17.025 -29.726  1.00  0.00     0.344 HD
ATOM      5  H   UNL     1     -39.624  16.906 -30.615  1.00  0.00     0.344 HD
ENDBRANCH   1   2
BRANCH   1   6
ATOM      6  C   UNL     1     -40.339  19.225 -30.755  1.00  0.00     0.096 C 
ATOM      7  O   UNL     1     -41.215  18.402 -31.129  1.00  0.00    -0.544 OA
ATOM      8  O   UNL     1     -40.376  20.532 -31.227  1.00  0.00    -0.544 OA
ENDBRANCH   1   6
TORSDOF 2
ENDMDL
MODEL 2
REMARK VINA RESULT:    -2.697      4.657      4.838
REMARK INTER + INTRA:          -2.934
REMARK INTER:                  -2.934
REMARK INTRA:                   0.000
REMARK UNBOUND:                 0.000
REMARK SMILES [NH3+]CC(=O)[O-]
REMARK SMILES IDX 2 1 1 2 3 6 4 7 5 8
REMARK H PARENT 1 3 1 4 1 5
REMARK Flexibility Score: inf
ROOT
ATOM      1  C   UNL     1     -41.349  22.443 -29.104  1.00  0.00     0.312 C 
ENDROOT
BRANCH   1   2
ATOM      2  N   UNL     1     -42.278  23.557 -28.923  1.00  0.00    -0.353 N 
ATOM      3  H   UNL     1     -42.031  24.341 -29.570  1.00  0.00     0.344 HD
ATOM      4  H   UNL     1     -42.214  23.899 -27.937  1.00  0.00     0.344 HD
ATOM      5  H   UNL     1     -43.258  23.240 -29.108  1.00  0.00     0.344 HD
ENDBRANCH   1   2
BRANCH   1   6
ATOM      6  C   UNL     1     -41.640  21.349 -28.125  1.00  0.00     0.096 C 
ATOM      7  O   UNL     1     -40.699  20.680 -27.623  1.00  0.00    -0.544 OA
ATOM      8  O   UNL     1     -42.955  21.033 -27.805  1.00  0.00    -0.544 OA
ENDBRANCH   1   6
TORSDOF 2
ENDMDL
MODEL 3
REMARK VINA RESULT:    -2.670      2.202      2.390
REMARK INTER + INTRA:          -2.905
REMARK INTER:                  -2.905
REMARK INTRA:                   0.000
REMARK UNBOUND:                 0.000
REMARK SMILES [NH3+]CC(=O)[O-]
REMARK SMILES IDX 2 1 1 2 3 6 4 7 5 8
REMARK H PARENT 1 3 1 4 1 5
REMARK Flexibility Score: inf
ROOT
ATOM      1  C   UNL     1     -40.363  19.313 -30.483  1.00  0.00     0.312 C 
ENDROOT
BRANCH   1   2
ATOM      2  N   UNL     1     -41.041  18.395 -31.395  1.00  0.00    -0.353 N 
ATOM      3  H   UNL     1     -42.038  18.269 -31.103  1.00  0.00     0.344 HD
ATOM      4  H   UNL     1     -40.561  17.467 -31.366  1.00  0.00     0.344 HD
ATOM      5  H   UNL     1     -41.002  18.766 -32.372  1.00  0.00     0.344 HD
ENDBRANCH   1   2
BRANCH   1   6
ATOM      6  C   UNL     1     -39.112  18.691 -29.942  1.00  0.00     0.096 C 
ATOM      7  O   UNL     1     -39.153  17.559 -29.394  1.00  0.00    -0.544 OA
ATOM      8  O   UNL     1     -37.910  19.386 -29.997  1.00  0.00    -0.544 OA
ENDBRANCH   1   6
TORSDOF 2
ENDMDL
MODEL 4
REMARK VINA RESULT:    -2.661      4.512      4.624
REMARK INTER + INTRA:          -2.894
REMARK INTER:                  -2.894
REMARK INTRA:                   0.000
REMARK UNBOUND:                 0.000
REMARK SMILES [NH3+]CC(=O)[O-]
REMARK SMILES IDX 2 1 1 2 3 6 4 7 5 8
REMARK H PARENT 1 3 1 4 1 5
REMARK Flexibility Score: inf
ROOT
ATOM      1  C   UNL     1     -41.641  21.308 -28.380  1.00  0.00     0.312 C 
ENDROOT
BRANCH   1   2
ATOM      2  N   UNL     1     -42.877  21.228 -27.605  1.00  0.00    -0.353 N 
ATOM      3  H   UNL     1     -42.933  22.028 -26.934  1.00  0.00     0.344 HD
ATOM      4  H   UNL     1     -42.884  20.333 -27.064  1.00  0.00     0.344 HD
ATOM      5  H   UNL     1     -43.704  21.243 -28.245  1.00  0.00     0.344 HD
ENDBRANCH   1   2
BRANCH   1   6
ATOM      6  C   UNL     1     -41.418  22.703 -28.875  1.00  0.00     0.096 C 
ATOM      7  O   UNL     1     -42.374  23.365 -29.358  1.00  0.00    -0.544 OA
ATOM      8  O   UNL     1     -40.142  23.254 -28.851  1.00  0.00    -0.544 OA
ENDBRANCH   1   6
TORSDOF 2
ENDMDL
MODEL 5
REMARK VINA RESULT:    -2.587      1.955      2.028
REMARK INTER + INTRA:          -2.814
REMARK INTER:                  -2.814
REMARK INTRA:                   0.000
REMARK UNBOUND:                 0.000
REMARK SMILES [NH3+]CC(=O)[O-]
REMARK SMILES IDX 2 1 1 2 3 6 4 7 5 8
REMARK H PARENT 1 3 1 4 1 5
REMARK Flexibility Score: inf
ROOT
ATOM      1  C   UNL     1     -40.111  18.968 -30.413  1.00  0.00     0.312 C 
ENDROOT
BRANCH   1   2
ATOM      2  N   UNL     1     -41.028  18.380 -31.387  1.00  0.00    -0.353 N 
ATOM      3  H   UNL     1     -42.018  18.586 -31.118  1.00  0.00     0.344 HD
ATOM      4  H   UNL     1     -40.891  17.343 -31.402  1.00  0.00     0.344 HD
ATOM      5  H   UNL     1     -40.832  18.762 -32.341  1.00  0.00     0.344 HD
ENDBRANCH   1   2
BRANCH   1   6
ATOM      6  C   UNL     1     -40.327  20.446 -30.310  1.00  0.00     0.096 C 
ATOM      7  O   UNL     1     -40.913  20.933 -29.308  1.00  0.00    -0.544 OA
ATOM      8  O   UNL     1     -39.928  21.282 -31.346  1.00  0.00    -0.544 OA
ENDBRANCH   1   6
TORSDOF 2
ENDMDL
MODEL 6
REMARK VINA RESULT:    -2.559      3.828      4.052
REMARK INTER + INTRA:          -2.783
REMARK INTER:                  -2.783
REMARK INTRA:                   0.000
REMARK UNBOUND:                 0.000
REMARK SMILES [NH3+]CC(=O)[O-]
REMARK SMILES IDX 2 1 1 2 3 6 4 7 5 8
REMARK H PARENT 1 3 1 4 1 5
REMARK Flexibility Score: inf
ROOT
ATOM      1  C   UNL     1     -41.813  21.817 -28.477  1.00  0.00     0.312 C 
ENDROOT
BRANCH   1   2
ATOM      2  N   UNL     1     -42.946  21.284 -27.723  1.00  0.00    -0.353 N 
ATOM      3  H   UNL     1     -42.751  20.299 -27.429  1.00  0.00     0.344 HD
ATOM      4  H   UNL     1     -43.796  21.293 -28.331  1.00  0.00     0.344 HD
ATOM      5  H   UNL     1     -43.127  21.876 -26.880  1.00  0.00     0.344 HD
ENDBRANCH   1   2
BRANCH   1   6
ATOM      6  C   UNL     1     -40.674  20.845 -28.476  1.00  0.00     0.096 C 
ATOM      7  O   UNL     1     -40.077  20.570 -27.403  1.00  0.00    -0.544 OA
ATOM      8  O   UNL     1     -40.238  20.282 -29.670  1.00  0.00    -0.544 OA
ENDBRANCH   1   6
TORSDOF 2
ENDMDL
MODEL 7
REMARK VINA RESULT:    -2.552     12.334     12.570
REMARK INTER + INTRA:          -2.776
REMARK INTER:                  -2.776
REMARK INTRA:                   0.000
REMARK UNBOUND:                 0.000
REMARK SMILES [NH3+]CC(=O)[O-]
REMARK SMILES IDX 2 1 1 2 3 6 4 7 5 8
REMARK H PARENT 1 3 1 4 1 5
REMARK Flexibility Score: inf
ROOT
ATOM      1  C   UNL     1     -48.672   8.732 -29.278  1.00  0.00     0.312 C 
ENDROOT
BRANCH   1   2
ATOM      2  N   UNL     1     -47.370   8.684 -28.617  1.00  0.00    -0.353 N 
ATOM      3  H   UNL     1     -47.030   7.696 -28.562  1.00  0.00     0.344 HD
ATOM      4  H   UNL     1     -47.465   9.063 -27.647  1.00  0.00     0.344 HD
ATOM      5  H   UNL     1     -46.679   9.268 -29.142  1.00  0.00     0.344 HD
ENDBRANCH   1   2
BRANCH   1   6
ATOM      6  C   UNL     1     -48.840  10.020 -30.022  1.00  0.00     0.096 C 
ATOM      7  O   UNL     1     -49.182  11.066 -29.410  1.00  0.00    -0.544 OA
ATOM      8  O   UNL     1     -48.667  10.055 -31.400  1.00  0.00    -0.544 OA
ENDBRANCH   1   6
TORSDOF 2
ENDMDL
MODEL 8
REMARK VINA RESULT:    -2.521     12.486     12.780
REMARK INTER + INTRA:          -2.742
REMARK INTER:                  -2.742
REMARK INTRA:                   0.000
REMARK UNBOUND:                 0.000
REMARK SMILES [NH3+]CC(=O)[O-]
REMARK SMILES IDX 2 1 1 2 3 6 4 7 5 8
REMARK H PARENT 1 3 1 4 1 5
REMARK Flexibility Score: inf
ROOT
ATOM      1  C   UNL     1     -48.580  10.351 -29.868  1.00  0.00     0.312 C 
ENDROOT
BRANCH   1   2
ATOM      2  N   UNL     1     -47.682   9.415 -29.196  1.00  0.00    -0.353 N 
ATOM      3  H   UNL     1     -48.085   9.128 -28.275  1.00  0.00     0.344 HD
ATOM      4  H   UNL     1     -46.761   9.883 -29.031  1.00  0.00     0.344 HD
ATOM      5  H   UNL     1     -47.529   8.571 -29.795  1.00  0.00     0.344 HD
ENDBRANCH   1   2
BRANCH   1   6
ATOM      6  C   UNL     1     -49.211   9.710 -31.065  1.00  0.00     0.096 C 
ATOM      7  O   UNL     1     -48.937   8.518 -31.364  1.00  0.00    -0.544 OA
ATOM      8  O   UNL     1     -50.063  10.445 -31.881  1.00  0.00    -0.544 OA
ENDBRANCH   1   6
TORSDOF 2
ENDMDL
MODEL 9
REMARK VINA RESULT:    -2.509      2.131      2.454
REMARK INTER + INTRA:          -2.729
REMARK INTER:                  -2.729
REMARK INTRA:                   0.000
REMARK UNBOUND:                 0.000
REMARK SMILES [NH3+]CC(=O)[O-]
REMARK SMILES IDX 2 1 1 2 3 6 4 7 5 8
REMARK H PARENT 1 3 1 4 1 5
REMARK Flexibility Score: inf
ROOT
ATOM      1  C   UNL     1     -37.520  18.679 -30.100  1.00  0.00     0.312 C 
ENDROOT
BRANCH   1   2
ATOM      2  N   UNL     1     -37.345  17.348 -30.678  1.00  0.00    -0.353 N 
ATOM      3  H   UNL     1     -36.351  17.214 -30.976  1.00  0.00     0.344 HD
ATOM      4  H   UNL     1     -37.964  17.256 -31.516  1.00  0.00     0.344 HD
ATOM      5  H   UNL     1     -37.608  16.616 -29.980  1.00  0.00     0.344 HD
ENDBRANCH   1   2
BRANCH   1   6
ATOM      6  C   UNL     1     -38.870  18.805 -29.465  1.00  0.00     0.096 C 
ATOM      7  O   UNL     1     -38.972  19.092 -28.243  1.00  0.00    -0.544 OA
ATOM      8  O   UNL     1     -40.016  18.553 -30.210  1.00  0.00    -0.544 OA
ENDBRANCH   1   6
TORSDOF 2
ENDMDL
