MODEL 1
REMARK VINA RESULT:    -3.495      0.000      0.000
REMARK INTER + INTRA:          -8.212
REMARK INTER:                  -6.765
REMARK INTRA:                  -1.447
REMARK UNBOUND:                -1.447
REMARK SMILES CCCCCCCCCCCCCCCCCC(=O)[O-]
REMARK SMILES IDX 10 1 11 2 12 3 13 4 14 5 15 6 16 7 17 8 18 9 19 10 20 11
REMARK SMILES IDX 9 12 8 13 7 14 6 15 5 16 4 17 3 18 2 19 1 20
REMARK H PARENT
REMARK Flexibility Score: inf
ROOT
ATOM      1  C   UNL     1      -6.394   7.905  -4.769  1.00  0.00     0.000 C 
ENDROOT
BRANCH   1   2
ATOM      2  C   UNL     1      -7.787   7.450  -4.298  1.00  0.00     0.000 C 
BRANCH   2   3
ATOM      3  C   UNL     1      -7.730   6.186  -3.427  1.00  0.00     0.000 C 
BRANCH   3   4
ATOM      4  C   UNL     1      -8.591   5.042  -3.990  1.00  0.00     0.000 C 
BRANCH   4   5
ATOM      5  C   UNL     1      -8.761   3.884  -2.995  1.00  0.00     0.000 C 
BRANCH   5   6
ATOM      6  C   UNL     1      -7.905   2.661  -3.361  1.00  0.00     0.000 C 
BRANCH   6   7
ATOM      7  C   UNL     1      -6.883   2.356  -2.256  1.00  0.00     0.006 C 
BRANCH   7   8
ATOM      8  C   UNL     1      -6.346   0.921  -2.342  1.00  0.00     0.053 C 
BRANCH   8   9
ATOM      9  C   UNL     1      -5.949   0.395  -0.996  1.00  0.00     0.041 C 
ATOM     10  O   UNL     1      -4.749   0.098  -0.759  1.00  0.00    -0.550 OA
ATOM     11  O   UNL     1      -6.901   0.267   0.007  1.00  0.00    -0.550 OA
ENDBRANCH   8   9
ENDBRANCH   7   8
ENDBRANCH   6   7
ENDBRANCH   5   6
ENDBRANCH   4   5
ENDBRANCH   3   4
ENDBRANCH   2   3
ENDBRANCH   1   2
BRANCH   1  12
ATOM     12  C   UNL     1      -6.328   8.131  -6.288  1.00  0.00     0.000 C 
BRANCH  12  13
ATOM     13  C   UNL     1      -4.887   8.169  -6.817  1.00  0.00    -0.000 C 
BRANCH  13  14
ATOM     14  C   UNL     1      -3.878   8.097  -5.665  1.00  0.00    -0.000 C 
BRANCH  14  15
ATOM     15  C   UNL     1      -2.613   8.903  -5.988  1.00  0.00    -0.000 C 
BRANCH  15  16
ATOM     16  C   UNL     1      -2.597  10.232  -5.222  1.00  0.00    -0.000 C 
BRANCH  16  17
ATOM     17  C   UNL     1      -3.413  10.132  -3.928  1.00  0.00    -0.000 C 
BRANCH  17  18
ATOM     18  C   UNL     1      -4.370  11.325  -3.788  1.00  0.00    -0.000 C 
BRANCH  18  19
ATOM     19  C   UNL     1      -5.306  11.476  -4.997  1.00  0.00    -0.003 C 
ATOM     20  C   UNL     1      -5.643  12.935  -5.305  1.00  0.00     0.004 C 
ENDBRANCH  18  19
ENDBRANCH  17  18
ENDBRANCH  16  17
ENDBRANCH  15  16
ENDBRANCH  14  15
ENDBRANCH  13  14
ENDBRANCH  12  13
ENDBRANCH   1  12
TORSDOF 16
ENDMDL
MODEL 2
REMARK VINA RESULT:    -3.495      6.274      8.088
REMARK INTER + INTRA:          -8.211
REMARK INTER:                  -5.642
REMARK INTRA:                  -2.569
REMARK UNBOUND:                -1.447
REMARK SMILES CCCCCCCCCCCCCCCCCC(=O)[O-]
REMARK SMILES IDX 10 1 11 2 12 3 13 4 14 5 15 6 16 7 17 8 18 9 19 10 20 11
REMARK SMILES IDX 9 12 8 13 7 14 6 15 5 16 4 17 3 18 2 19 1 20
REMARK H PARENT
REMARK Flexibility Score: inf
ROOT
ATOM      1  C   UNL     1      -3.536   8.618  -5.091  1.00  0.00     0.000 C 
ENDROOT
BRANCH   1   2
ATOM      2  C   UNL     1      -3.305   7.676  -6.287  1.00  0.00     0.000 C 
BRANCH   2   3
ATOM      3  C   UNL     1      -3.829   8.261  -7.608  1.00  0.00     0.000 C 
BRANCH   3   4
ATOM      4  C   UNL     1      -2.766   9.093  -8.346  1.00  0.00     0.000 C 
BRANCH   4   5
ATOM      5  C   UNL     1      -2.996  10.605  -8.205  1.00  0.00     0.000 C 
BRANCH   5   6
ATOM      6  C   UNL     1      -1.883  11.300  -7.404  1.00  0.00     0.000 C 
BRANCH   6   7
ATOM      7  C   UNL     1      -0.750  10.317  -7.074  1.00  0.00     0.006 C 
BRANCH   7   8
ATOM      8  C   UNL     1      -0.267  10.453  -5.624  1.00  0.00     0.053 C 
BRANCH   8   9
ATOM      9  C   UNL     1       1.228  10.478  -5.537  1.00  0.00     0.041 C 
ATOM     10  O   UNL     1       1.921   9.765  -6.309  1.00  0.00    -0.550 OA
ATOM     11  O   UNL     1       1.857  11.316  -4.624  1.00  0.00    -0.550 OA
ENDBRANCH   8   9
ENDBRANCH   7   8
ENDBRANCH   6   7
ENDBRANCH   5   6
ENDBRANCH   4   5
ENDBRANCH   3   4
ENDBRANCH   2   3
ENDBRANCH   1   2
BRANCH   1  12
ATOM     12  C   UNL     1      -4.911   9.303  -5.136  1.00  0.00     0.000 C 
BRANCH  12  13
ATOM     13  C   UNL     1      -4.880  10.725  -4.555  1.00  0.00    -0.000 C 
BRANCH  13  14
ATOM     14  C   UNL     1      -3.679  10.910  -3.621  1.00  0.00    -0.000 C 
BRANCH  14  15
ATOM     15  C   UNL     1      -2.951  12.228  -3.914  1.00  0.00    -0.000 C 
BRANCH  15  16
ATOM     16  C   UNL     1      -2.661  12.997  -2.620  1.00  0.00    -0.000 C 
BRANCH  16  17
ATOM     17  C   UNL     1      -3.489  12.443  -1.454  1.00  0.00    -0.000 C 
BRANCH  17  18
ATOM     18  C   UNL     1      -4.359  13.544  -0.826  1.00  0.00    -0.000 C 
BRANCH  18  19
ATOM     19  C   UNL     1      -5.831  13.450  -1.255  1.00  0.00    -0.003 C 
ATOM     20  C   UNL     1      -6.104  14.149  -2.586  1.00  0.00     0.004 C 
ENDBRANCH  18  19
ENDBRANCH  17  18
ENDBRANCH  16  17
ENDBRANCH  15  16
ENDBRANCH  14  15
ENDBRANCH  13  14
ENDBRANCH  12  13
ENDBRANCH   1  12
TORSDOF 16
ENDMDL
MODEL 3
REMARK VINA RESULT:    -3.442      6.018      8.566
REMARK INTER + INTRA:          -8.108
REMARK INTER:                  -6.133
REMARK INTRA:                  -1.974
REMARK UNBOUND:                -1.447
REMARK SMILES CCCCCCCCCCCCCCCCCC(=O)[O-]
REMARK SMILES IDX 10 1 11 2 12 3 13 4 14 5 15 6 16 7 17 8 18 9 19 10 20 11
REMARK SMILES IDX 9 12 8 13 7 14 6 15 5 16 4 17 3 18 2 19 1 20
REMARK H PARENT
REMARK Flexibility Score: inf
ROOT
ATOM      1  C   UNL     1      -3.338   7.652  -7.176  1.00  0.00     0.000 C 
ENDROOT
BRANCH   1   2
ATOM      2  C   UNL     1      -2.048   8.309  -7.701  1.00  0.00     0.000 C 
BRANCH   2   3
ATOM      3  C   UNL     1      -2.264   9.769  -8.131  1.00  0.00     0.000 C 
BRANCH   3   4
ATOM      4  C   UNL     1      -1.373  10.750  -7.349  1.00  0.00     0.000 C 
BRANCH   4   5
ATOM      5  C   UNL     1      -0.529  10.053  -6.272  1.00  0.00     0.000 C 
BRANCH   5   6
ATOM      6  C   UNL     1       0.282  11.044  -5.422  1.00  0.00     0.000 C 
BRANCH   6   7
ATOM      7  C   UNL     1       1.761  11.038  -5.835  1.00  0.00     0.006 C 
BRANCH   7   8
ATOM      8  C   UNL     1       2.483   9.759  -5.391  1.00  0.00     0.053 C 
BRANCH   8   9
ATOM      9  C   UNL     1       2.797   8.867  -6.553  1.00  0.00     0.041 C 
ATOM     10  O   UNL     1       2.686   9.296  -7.731  1.00  0.00    -0.550 OA
ATOM     11  O   UNL     1       3.244   7.571  -6.332  1.00  0.00    -0.550 OA
ENDBRANCH   8   9
ENDBRANCH   7   8
ENDBRANCH   6   7
ENDBRANCH   5   6
ENDBRANCH   4   5
ENDBRANCH   3   4
ENDBRANCH   2   3
ENDBRANCH   1   2
BRANCH   1  12
ATOM     12  C   UNL     1      -3.475   7.757  -5.649  1.00  0.00     0.000 C 
BRANCH  12  13
ATOM     13  C   UNL     1      -4.724   8.542  -5.221  1.00  0.00    -0.000 C 
BRANCH  13  14
ATOM     14  C   UNL     1      -4.445  10.049  -5.204  1.00  0.00    -0.000 C 
BRANCH  14  15
ATOM     15  C   UNL     1      -3.553  10.432  -4.016  1.00  0.00    -0.000 C 
BRANCH  15  16
ATOM     16  C   UNL     1      -3.057  11.877  -4.143  1.00  0.00    -0.000 C 
BRANCH  16  17
ATOM     17  C   UNL     1      -3.009  12.565  -2.774  1.00  0.00    -0.000 C 
BRANCH  17  18
ATOM     18  C   UNL     1      -4.358  12.445  -2.050  1.00  0.00    -0.000 C 
BRANCH  18  19
ATOM     19  C   UNL     1      -4.306  12.978  -0.610  1.00  0.00    -0.003 C 
ATOM     20  C   UNL     1      -2.878  13.205  -0.116  1.00  0.00     0.004 C 
ENDBRANCH  18  19
ENDBRANCH  17  18
ENDBRANCH  16  17
ENDBRANCH  15  16
ENDBRANCH  14  15
ENDBRANCH  13  14
ENDBRANCH  12  13
ENDBRANCH   1  12
TORSDOF 16
ENDMDL
MODEL 4
REMARK VINA RESULT:    -3.436      5.347      8.229
REMARK INTER + INTRA:          -8.098
REMARK INTER:                  -6.307
REMARK INTRA:                  -1.791
REMARK UNBOUND:                -1.447
REMARK SMILES CCCCCCCCCCCCCCCCCC(=O)[O-]
REMARK SMILES IDX 10 1 11 2 12 3 13 4 14 5 15 6 16 7 17 8 18 9 19 10 20 11
REMARK SMILES IDX 9 12 8 13 7 14 6 15 5 16 4 17 3 18 2 19 1 20
REMARK H PARENT
REMARK Flexibility Score: inf
ROOT
ATOM      1  C   UNL     1      -1.171  11.878  -4.788  1.00  0.00     0.000 C 
ENDROOT
BRANCH   1   2
ATOM      2  C   UNL     1      -2.467  12.050  -3.975  1.00  0.00     0.000 C 
BRANCH   2   3
ATOM      3  C   UNL     1      -3.244  10.733  -3.820  1.00  0.00     0.000 C 
BRANCH   3   4
ATOM      4  C   UNL     1      -4.621  10.777  -4.504  1.00  0.00     0.000 C 
BRANCH   4   5
ATOM      5  C   UNL     1      -4.729   9.793  -5.679  1.00  0.00     0.000 C 
BRANCH   5   6
ATOM      6  C   UNL     1      -4.663   8.325  -5.228  1.00  0.00     0.000 C 
BRANCH   6   7
ATOM      7  C   UNL     1      -3.430   7.625  -5.817  1.00  0.00     0.006 C 
BRANCH   7   8
ATOM      8  C   UNL     1      -3.148   8.062  -7.261  1.00  0.00     0.053 C 
BRANCH   8   9
ATOM      9  C   UNL     1      -2.070   7.234  -7.891  1.00  0.00     0.041 C 
ATOM     10  O   UNL     1      -1.044   7.786  -8.368  1.00  0.00    -0.550 OA
ATOM     11  O   UNL     1      -2.185   5.851  -7.920  1.00  0.00    -0.550 OA
ENDBRANCH   8   9
ENDBRANCH   7   8
ENDBRANCH   6   7
ENDBRANCH   5   6
ENDBRANCH   4   5
ENDBRANCH   3   4
ENDBRANCH   2   3
ENDBRANCH   1   2
BRANCH   1  12
ATOM     12  C   UNL     1      -1.243  10.701  -5.773  1.00  0.00     0.000 C 
BRANCH  12  13
ATOM     13  C   UNL     1       0.118  10.020  -5.979  1.00  0.00    -0.000 C 
BRANCH  13  14
ATOM     14  C   UNL     1       1.245  10.844  -5.346  1.00  0.00    -0.000 C 
BRANCH  14  15
ATOM     15  C   UNL     1       2.605  10.472  -5.950  1.00  0.00    -0.000 C 
BRANCH  15  16
ATOM     16  C   UNL     1       2.474   9.290  -6.917  1.00  0.00    -0.000 C 
BRANCH  16  17
ATOM     17  C   UNL     1       3.560   8.239  -6.653  1.00  0.00    -0.000 C 
BRANCH  17  18
ATOM     18  C   UNL     1       3.678   7.936  -5.152  1.00  0.00    -0.000 C 
BRANCH  18  19
ATOM     19  C   UNL     1       5.109   8.120  -4.623  1.00  0.00    -0.003 C 
ATOM     20  C   UNL     1       6.135   8.288  -5.742  1.00  0.00     0.004 C 
ENDBRANCH  18  19
ENDBRANCH  17  18
ENDBRANCH  16  17
ENDBRANCH  15  16
ENDBRANCH  14  15
ENDBRANCH  13  14
ENDBRANCH  12  13
ENDBRANCH   1  12
TORSDOF 16
ENDMDL
MODEL 5
REMARK VINA RESULT:    -3.399      6.086      8.374
REMARK INTER + INTRA:          -8.025
REMARK INTER:                  -5.923
REMARK INTRA:                  -2.102
REMARK UNBOUND:                -1.447
REMARK SMILES CCCCCCCCCCCCCCCCCC(=O)[O-]
REMARK SMILES IDX 10 1 11 2 12 3 13 4 14 5 15 6 16 7 17 8 18 9 19 10 20 11
REMARK SMILES IDX 9 12 8 13 7 14 6 15 5 16 4 17 3 18 2 19 1 20
REMARK H PARENT
REMARK Flexibility Score: inf
ROOT
ATOM      1  C   UNL     1      -5.420   9.156  -4.790  1.00  0.00     0.000 C 
ENDROOT
BRANCH   1   2
ATOM      2  C   UNL     1      -4.934   8.058  -5.753  1.00  0.00     0.000 C 
BRANCH   2   3
ATOM      3  C   UNL     1      -3.411   7.858  -5.697  1.00  0.00     0.000 C 
BRANCH   3   4
ATOM      4  C   UNL     1      -2.749   7.977  -7.081  1.00  0.00     0.000 C 
BRANCH   4   5
ATOM      5  C   UNL     1      -1.779   9.164  -7.172  1.00  0.00     0.000 C 
BRANCH   5   6
ATOM      6  C   UNL     1      -1.653   9.927  -5.844  1.00  0.00     0.000 C 
BRANCH   6   7
ATOM      7  C   UNL     1      -1.315  11.405  -6.091  1.00  0.00     0.006 C 
BRANCH   7   8
ATOM      8  C   UNL     1      -0.407  11.984  -4.998  1.00  0.00     0.053 C 
BRANCH   8   9
ATOM      9  C   UNL     1       1.042  11.867  -5.360  1.00  0.00     0.041 C 
ATOM     10  O   UNL     1       1.493  12.465  -6.372  1.00  0.00    -0.550 OA
ATOM     11  O   UNL     1       1.900  11.125  -4.560  1.00  0.00    -0.550 OA
ENDBRANCH   8   9
ENDBRANCH   7   8
ENDBRANCH   6   7
ENDBRANCH   5   6
ENDBRANCH   4   5
ENDBRANCH   3   4
ENDBRANCH   2   3
ENDBRANCH   1   2
BRANCH   1  12
ATOM     12  C   UNL     1      -5.949  10.397  -5.527  1.00  0.00     0.000 C 
BRANCH  12  13
ATOM     13  C   UNL     1      -5.027  11.615  -5.368  1.00  0.00    -0.000 C 
BRANCH  13  14
ATOM     14  C   UNL     1      -4.403  11.651  -3.969  1.00  0.00    -0.000 C 
BRANCH  14  15
ATOM     15  C   UNL     1      -4.102  13.091  -3.535  1.00  0.00    -0.000 C 
BRANCH  15  16
ATOM     16  C   UNL     1      -5.366  13.959  -3.594  1.00  0.00    -0.000 C 
BRANCH  16  17
ATOM     17  C   UNL     1      -6.236  13.749  -2.348  1.00  0.00    -0.000 C 
BRANCH  17  18
ATOM     18  C   UNL     1      -5.617  14.438  -1.123  1.00  0.00    -0.000 C 
BRANCH  18  19
ATOM     19  C   UNL     1      -5.484  13.494   0.081  1.00  0.00    -0.003 C 
ATOM     20  C   UNL     1      -4.303  12.532  -0.050  1.00  0.00     0.004 C 
ENDBRANCH  18  19
ENDBRANCH  17  18
ENDBRANCH  16  17
ENDBRANCH  15  16
ENDBRANCH  14  15
ENDBRANCH  13  14
ENDBRANCH  12  13
ENDBRANCH   1  12
TORSDOF 16
ENDMDL
MODEL 6
REMARK VINA RESULT:    -3.388      6.485      8.970
REMARK INTER + INTRA:          -8.004
REMARK INTER:                  -5.507
REMARK INTRA:                  -2.498
REMARK UNBOUND:                -1.447
REMARK SMILES CCCCCCCCCCCCCCCCCC(=O)[O-]
REMARK SMILES IDX 10 1 11 2 12 3 13 4 14 5 15 6 16 7 17 8 18 9 19 10 20 11
REMARK SMILES IDX 9 12 8 13 7 14 6 15 5 16 4 17 3 18 2 19 1 20
REMARK H PARENT
REMARK Flexibility Score: inf
ROOT
ATOM      1  C   UNL     1      -0.872   8.497  -7.959  1.00  0.00     0.000 C 
ENDROOT
BRANCH   1   2
ATOM      2  C   UNL     1      -0.940  10.020  -8.169  1.00  0.00     0.000 C 
BRANCH   2   3
ATOM      3  C   UNL     1      -1.227  10.782  -6.865  1.00  0.00     0.000 C 
BRANCH   3   4
ATOM      4  C   UNL     1      -0.318  10.333  -5.708  1.00  0.00     0.000 C 
BRANCH   4   5
ATOM      5  C   UNL     1       0.987  11.140  -5.636  1.00  0.00     0.000 C 
BRANCH   5   6
ATOM      6  C   UNL     1       2.182  10.291  -5.174  1.00  0.00     0.000 C 
BRANCH   6   7
ATOM      7  C   UNL     1       2.500   9.190  -6.197  1.00  0.00     0.006 C 
BRANCH   7   8
ATOM      8  C   UNL     1       3.333   8.054  -5.587  1.00  0.00     0.053 C 
BRANCH   8   9
ATOM      9  C   UNL     1       4.756   8.467  -5.365  1.00  0.00     0.041 C 
ATOM     10  O   UNL     1       5.342   8.169  -4.291  1.00  0.00    -0.550 OA
ATOM     11  O   UNL     1       5.444   9.151  -6.358  1.00  0.00    -0.550 OA
ENDBRANCH   8   9
ENDBRANCH   7   8
ENDBRANCH   6   7
ENDBRANCH   5   6
ENDBRANCH   4   5
ENDBRANCH   3   4
ENDBRANCH   2   3
ENDBRANCH   1   2
BRANCH   1  12
ATOM     12  C   UNL     1      -2.171   7.785  -8.368  1.00  0.00     0.000 C 
BRANCH  12  13
ATOM     13  C   UNL     1      -2.749   6.916  -7.241  1.00  0.00    -0.000 C 
BRANCH  13  14
ATOM     14  C   UNL     1      -3.248   7.785  -6.081  1.00  0.00    -0.000 C 
BRANCH  14  15
ATOM     15  C   UNL     1      -4.433   8.656  -6.515  1.00  0.00    -0.000 C 
BRANCH  15  16
ATOM     16  C   UNL     1      -4.645   9.823  -5.542  1.00  0.00    -0.000 C 
BRANCH  16  17
ATOM     17  C   UNL     1      -3.727   9.694  -4.320  1.00  0.00    -0.000 C 
BRANCH  17  18
ATOM     18  C   UNL     1      -3.584  11.041  -3.595  1.00  0.00    -0.000 C 
BRANCH  18  19
ATOM     19  C   UNL     1      -3.727  12.240  -4.545  1.00  0.00    -0.003 C 
ATOM     20  C   UNL     1      -2.582  13.243  -4.407  1.00  0.00     0.004 C 
ENDBRANCH  18  19
ENDBRANCH  17  18
ENDBRANCH  16  17
ENDBRANCH  15  16
ENDBRANCH  14  15
ENDBRANCH  13  14
ENDBRANCH  12  13
ENDBRANCH   1  12
TORSDOF 16
ENDMDL
MODEL 7
REMARK VINA RESULT:    -3.366     12.496     15.081
REMARK INTER + INTRA:          -7.962
REMARK INTER:                  -6.076
REMARK INTRA:                  -1.886
REMARK UNBOUND:                -1.447
REMARK SMILES CCCCCCCCCCCCCCCCCC(=O)[O-]
REMARK SMILES IDX 10 1 11 2 12 3 13 4 14 5 15 6 16 7 17 8 18 9 19 10 20 11
REMARK SMILES IDX 9 12 8 13 7 14 6 15 5 16 4 17 3 18 2 19 1 20
REMARK H PARENT
REMARK Flexibility Score: inf
ROOT
ATOM      1  C   UNL     1       7.188  10.805   2.115  1.00  0.00     0.000 C 
ENDROOT
BRANCH   1   2
ATOM      2  C   UNL     1       7.639   9.491   2.777  1.00  0.00     0.000 C 
BRANCH   2   3
ATOM      3  C   UNL     1       6.968   8.257   2.153  1.00  0.00     0.000 C 
BRANCH   3   4
ATOM      4  C   UNL     1       7.902   7.499   1.194  1.00  0.00     0.000 C 
BRANCH   4   5
ATOM      5  C   UNL     1       9.383   7.836   1.422  1.00  0.00     0.000 C 
BRANCH   5   6
ATOM      6  C   UNL     1      10.194   6.631   1.922  1.00  0.00     0.000 C 
BRANCH   6   7
ATOM      7  C   UNL     1       9.762   5.343   1.204  1.00  0.00     0.006 C 
BRANCH   7   8
ATOM      8  C   UNL     1      10.442   4.097   1.787  1.00  0.00     0.053 C 
BRANCH   8   9
ATOM      9  C   UNL     1      10.036   2.852   1.059  1.00  0.00     0.041 C 
ATOM     10  O   UNL     1       8.854   2.428   1.138  1.00  0.00    -0.550 OA
ATOM     11  O   UNL     1      10.958   2.179   0.268  1.00  0.00    -0.550 OA
ENDBRANCH   8   9
ENDBRANCH   7   8
ENDBRANCH   6   7
ENDBRANCH   5   6
ENDBRANCH   4   5
ENDBRANCH   3   4
ENDBRANCH   2   3
ENDBRANCH   1   2
BRANCH   1  12
ATOM     12  C   UNL     1       8.296  11.452   1.269  1.00  0.00     0.000 C 
BRANCH  12  13
ATOM     13  C   UNL     1       8.200  11.075  -0.217  1.00  0.00    -0.000 C 
BRANCH  13  14
ATOM     14  C   UNL     1       6.747  11.121  -0.702  1.00  0.00    -0.000 C 
BRANCH  14  15
ATOM     15  C   UNL     1       6.339   9.792  -1.350  1.00  0.00    -0.000 C 
BRANCH  15  16
ATOM     16  C   UNL     1       7.565   9.040  -1.883  1.00  0.00    -0.000 C 
BRANCH  16  17
ATOM     17  C   UNL     1       7.287   8.443  -3.268  1.00  0.00    -0.000 C 
BRANCH  17  18
ATOM     18  C   UNL     1       6.019   9.054  -3.884  1.00  0.00    -0.000 C 
BRANCH  18  19
ATOM     19  C   UNL     1       5.193   8.027  -4.673  1.00  0.00    -0.003 C 
ATOM     20  C   UNL     1       4.003   8.656  -5.397  1.00  0.00     0.004 C 
ENDBRANCH  18  19
ENDBRANCH  17  18
ENDBRANCH  16  17
ENDBRANCH  15  16
ENDBRANCH  14  15
ENDBRANCH  13  14
ENDBRANCH  12  13
ENDBRANCH   1  12
TORSDOF 16
ENDMDL
MODEL 8
REMARK VINA RESULT:    -3.333      5.161      8.740
REMARK INTER + INTRA:          -7.898
REMARK INTER:                  -4.698
REMARK INTRA:                  -3.200
REMARK UNBOUND:                -1.447
REMARK SMILES CCCCCCCCCCCCCCCCCC(=O)[O-]
REMARK SMILES IDX 10 1 11 2 12 3 13 4 14 5 15 6 16 7 17 8 18 9 19 10 20 11
REMARK SMILES IDX 9 12 8 13 7 14 6 15 5 16 4 17 3 18 2 19 1 20
REMARK H PARENT
REMARK Flexibility Score: inf
ROOT
ATOM      1  C   UNL     1      -3.705  11.313  -3.610  1.00  0.00     0.000 C 
ENDROOT
BRANCH   1   2
ATOM      2  C   UNL     1      -4.642  12.425  -4.115  1.00  0.00     0.000 C 
BRANCH   2   3
ATOM      3  C   UNL     1      -5.746  11.889  -5.041  1.00  0.00     0.000 C 
BRANCH   3   4
ATOM      4  C   UNL     1      -5.651  12.465  -6.465  1.00  0.00     0.000 C 
BRANCH   4   5
ATOM      5  C   UNL     1      -4.280  13.094  -6.757  1.00  0.00     0.000 C 
BRANCH   5   6
ATOM      6  C   UNL     1      -3.534  12.382  -7.896  1.00  0.00     0.000 C 
BRANCH   6   7
ATOM      7  C   UNL     1      -2.053  12.185  -7.544  1.00  0.00     0.006 C 
BRANCH   7   8
ATOM      8  C   UNL     1      -1.651  12.953  -6.277  1.00  0.00     0.053 C 
BRANCH   8   9
ATOM      9  C   UNL     1      -0.316  12.510  -5.759  1.00  0.00     0.041 C 
ATOM     10  O   UNL     1      -0.236  11.869  -4.679  1.00  0.00    -0.550 OA
ATOM     11  O   UNL     1       0.835  12.776  -6.489  1.00  0.00    -0.550 OA
ENDBRANCH   8   9
ENDBRANCH   7   8
ENDBRANCH   6   7
ENDBRANCH   5   6
ENDBRANCH   4   5
ENDBRANCH   3   4
ENDBRANCH   2   3
ENDBRANCH   1   2
BRANCH   1  12
ATOM     12  C   UNL     1      -3.974   9.960  -4.288  1.00  0.00     0.000 C 
BRANCH  12  13
ATOM     13  C   UNL     1      -2.822   9.519  -5.204  1.00  0.00    -0.000 C 
BRANCH  13  14
ATOM     14  C   UNL     1      -3.285   8.436  -6.185  1.00  0.00    -0.000 C 
BRANCH  14  15
ATOM     15  C   UNL     1      -4.420   8.950  -7.078  1.00  0.00    -0.000 C 
BRANCH  15  16
ATOM     16  C   UNL     1      -5.607   7.980  -7.073  1.00  0.00    -0.000 C 
BRANCH  16  17
ATOM     17  C   UNL     1      -6.933   8.732  -6.905  1.00  0.00    -0.000 C 
BRANCH  17  18
ATOM     18  C   UNL     1      -7.369   8.757  -5.432  1.00  0.00    -0.000 C 
BRANCH  18  19
ATOM     19  C   UNL     1      -6.769   7.599  -4.620  1.00  0.00    -0.003 C 
ATOM     20  C   UNL     1      -7.800   6.906  -3.730  1.00  0.00     0.004 C 
ENDBRANCH  18  19
ENDBRANCH  17  18
ENDBRANCH  16  17
ENDBRANCH  15  16
ENDBRANCH  14  15
ENDBRANCH  13  14
ENDBRANCH  12  13
ENDBRANCH   1  12
TORSDOF 16
ENDMDL
MODEL 9
REMARK VINA RESULT:    -3.284     13.646     15.788
REMARK INTER + INTRA:          -7.803
REMARK INTER:                  -5.186
REMARK INTRA:                  -2.617
REMARK UNBOUND:                -1.447
REMARK SMILES CCCCCCCCCCCCCCCCCC(=O)[O-]
REMARK SMILES IDX 10 1 11 2 12 3 13 4 14 5 15 6 16 7 17 8 18 9 19 10 20 11
REMARK SMILES IDX 9 12 8 13 7 14 6 15 5 16 4 17 3 18 2 19 1 20
REMARK H PARENT
REMARK Flexibility Score: inf
ROOT
ATOM      1  C   UNL     1       8.502  11.253   2.757  1.00  0.00     0.000 C 
ENDROOT
BRANCH   1   2
ATOM      2  C   UNL     1       7.360  10.242   2.545  1.00  0.00     0.000 C 
BRANCH   2   3
ATOM      3  C   UNL     1       7.794   8.796   2.832  1.00  0.00     0.000 C 
BRANCH   3   4
ATOM      4  C   UNL     1       7.331   7.814   1.742  1.00  0.00     0.000 C 
BRANCH   4   5
ATOM      5  C   UNL     1       8.460   6.889   1.262  1.00  0.00     0.000 C 
BRANCH   5   6
ATOM      6  C   UNL     1       9.665   6.884   2.214  1.00  0.00     0.000 C 
BRANCH   6   7
ATOM      7  C   UNL     1      10.337   5.503   2.243  1.00  0.00     0.006 C 
BRANCH   7   8
ATOM      8  C   UNL     1       9.951   4.645   1.031  1.00  0.00     0.053 C 
BRANCH   8   9
ATOM      9  C   UNL     1       9.872   3.190   1.382  1.00  0.00     0.041 C 
ATOM     10  O   UNL     1      10.749   2.667   2.118  1.00  0.00    -0.550 OA
ATOM     11  O   UNL     1       8.809   2.422   0.924  1.00  0.00    -0.550 OA
ENDBRANCH   8   9
ENDBRANCH   7   8
ENDBRANCH   6   7
ENDBRANCH   5   6
ENDBRANCH   4   5
ENDBRANCH   3   4
ENDBRANCH   2   3
ENDBRANCH   1   2
BRANCH   1  12
ATOM     12  C   UNL     1       9.753  10.912   1.932  1.00  0.00     0.000 C 
BRANCH  12  13
ATOM     13  C   UNL     1       9.510  11.019   0.419  1.00  0.00    -0.000 C 
BRANCH  13  14
ATOM     14  C   UNL     1      10.629  10.325  -0.367  1.00  0.00    -0.000 C 
BRANCH  14  15
ATOM     15  C   UNL     1      10.158   8.975  -0.921  1.00  0.00    -0.000 C 
BRANCH  15  16
ATOM     16  C   UNL     1       9.258   9.167  -2.148  1.00  0.00    -0.000 C 
BRANCH  16  17
ATOM     17  C   UNL     1       7.938   8.403  -1.989  1.00  0.00    -0.000 C 
BRANCH  17  18
ATOM     18  C   UNL     1       6.735   9.339  -2.177  1.00  0.00    -0.000 C 
BRANCH  18  19
ATOM     19  C   UNL     1       6.210   9.901  -0.847  1.00  0.00    -0.003 C 
ATOM     20  C   UNL     1       6.011  11.416  -0.884  1.00  0.00     0.004 C 
ENDBRANCH  18  19
ENDBRANCH  17  18
ENDBRANCH  16  17
ENDBRANCH  15  16
ENDBRANCH  14  15
ENDBRANCH  13  14
ENDBRANCH  12  13
ENDBRANCH   1  12
TORSDOF 16
ENDMDL
