MODEL 1
REMARK VINA RESULT:     0.000      0.000      0.000
REMARK INTER + INTRA:          -0.096
REMARK INTER:                   0.000
REMARK INTRA:                  -0.096
REMARK UNBOUND:                -0.096
REMARK SMILES C=C(C)[C@@H]1CC[C@@H](C)[C@H](O)C1
REMARK SMILES IDX 8 1 7 2 6 3 5 4 4 5 11 6 9 7 10 8 2 10 1 11 3 12
REMARK H PARENT 10 9
REMARK Flexibility Score: inf
ROOT
ATOM      1  C   UNL     1     133.444 121.993 148.364  1.00  0.00     0.010 C 
ATOM      2  C   UNL     1     134.834 122.375 148.889  1.00  0.00     0.015 C 
ATOM      3  C   UNL     1     135.723 122.860 147.724  1.00  0.00     0.006 C 
ATOM      4  C   UNL     1     137.130 123.227 148.214  1.00  0.00     0.008 C 
ATOM      5  C   UNL     1     137.792 122.031 148.927  1.00  0.00     0.017 C 
ATOM      6  C   UNL     1     136.919 121.545 150.102  1.00  0.00     0.040 C 
ATOM      7  C   UNL     1     135.500 121.180 149.619  1.00  0.00     0.117 C 
ENDROOT
BRANCH   7   8
ATOM      8  O   UNL     1     134.718 120.749 150.706  1.00  0.00    -0.393 OA
ATOM      9  H   UNL     1     134.099 121.488 150.943  1.00  0.00     0.210 HD
ENDBRANCH   7   8
BRANCH   5  10
ATOM     10  C   UNL     1     139.204 122.371 149.388  1.00  0.00    -0.077 C 
ATOM     11  C   UNL     1     139.564 122.258 150.678  1.00  0.00     0.008 C 
ATOM     12  C   UNL     1     140.231 122.844 148.392  1.00  0.00     0.039 C 
ENDBRANCH   5  10
TORSDOF 2
ENDMDL
MODEL 2
REMARK VINA RESULT:     0.000      5.621      7.172
REMARK INTER + INTRA:          -0.096
REMARK INTER:                   0.000
REMARK INTRA:                  -0.096
REMARK UNBOUND:                -0.096
REMARK SMILES C=C(C)[C@@H]1CC[C@@H](C)[C@H](O)C1
REMARK SMILES IDX 8 1 7 2 6 3 5 4 4 5 11 6 9 7 10 8 2 10 1 11 3 12
REMARK H PARENT 10 9
REMARK Flexibility Score: inf
ROOT
ATOM      1  C   UNL     1     141.294 119.846 147.214  1.00  0.00     0.010 C 
ATOM      2  C   UNL     1     140.913 120.735 146.023  1.00  0.00     0.015 C 
ATOM      3  C   UNL     1     141.598 120.221 144.740  1.00  0.00     0.006 C 
ATOM      4  C   UNL     1     141.254 121.106 143.534  1.00  0.00     0.008 C 
ATOM      5  C   UNL     1     141.650 122.572 143.799  1.00  0.00     0.017 C 
ATOM      6  C   UNL     1     140.962 123.102 145.073  1.00  0.00     0.040 C 
ATOM      7  C   UNL     1     141.296 122.214 146.289  1.00  0.00     0.117 C 
ENDROOT
BRANCH   7   8
ATOM      8  O   UNL     1     140.651 122.708 147.438  1.00  0.00    -0.393 OA
ATOM      9  H   UNL     1     140.407 123.654 147.262  1.00  0.00     0.210 HD
ENDBRANCH   7   8
BRANCH   5  10
ATOM     10  C   UNL     1     141.347 123.455 142.595  1.00  0.00    -0.077 C 
ATOM     11  C   UNL     1     140.551 124.534 142.702  1.00  0.00     0.008 C 
ATOM     12  C   UNL     1     141.942 123.131 141.249  1.00  0.00     0.039 C 
ENDBRANCH   5  10
TORSDOF 2
ENDMDL
MODEL 3
REMARK VINA RESULT:     0.000      3.305      5.161
REMARK INTER + INTRA:          -0.096
REMARK INTER:                   0.000
REMARK INTRA:                  -0.096
REMARK UNBOUND:                -0.096
REMARK SMILES C=C(C)[C@@H]1CC[C@@H](C)[C@H](O)C1
REMARK SMILES IDX 8 1 7 2 6 3 5 4 4 5 11 6 9 7 10 8 2 10 1 11 3 12
REMARK H PARENT 10 9
REMARK Flexibility Score: inf
ROOT
ATOM      1  C   UNL     1     136.921 117.021 150.285  1.00  0.00     0.010 C 
ATOM      2  C   UNL     1     136.206 118.119 149.487  1.00  0.00     0.015 C 
ATOM      3  C   UNL     1     135.284 117.484 148.424  1.00  0.00     0.006 C 
ATOM      4  C   UNL     1     134.572 118.559 147.593  1.00  0.00     0.008 C 
ATOM      5  C   UNL     1     135.593 119.498 146.921  1.00  0.00     0.017 C 
ATOM      6  C   UNL     1     136.512 120.149 147.974  1.00  0.00     0.040 C 
ATOM      7  C   UNL     1     137.227 119.075 148.819  1.00  0.00     0.117 C 
ENDROOT
BRANCH   7   8
ATOM      8  O   UNL     1     138.052 119.689 149.779  1.00  0.00    -0.393 OA
ATOM      9  H   UNL     1     138.831 119.092 149.932  1.00  0.00     0.210 HD
ENDBRANCH   7   8
BRANCH   5  10
ATOM     10  C   UNL     1     134.899 120.549 146.063  1.00  0.00    -0.077 C 
ATOM     11  C   UNL     1     135.097 121.862 146.271  1.00  0.00     0.008 C 
ATOM     12  C   UNL     1     133.972 120.128 144.953  1.00  0.00     0.039 C 
ENDBRANCH   5  10
TORSDOF 2
ENDMDL
MODEL 4
REMARK VINA RESULT:     0.000      3.720      5.526
REMARK INTER + INTRA:          -0.096
REMARK INTER:                   0.000
REMARK INTRA:                  -0.096
REMARK UNBOUND:                -0.096
REMARK SMILES C=C(C)[C@@H]1CC[C@@H](C)[C@H](O)C1
REMARK SMILES IDX 8 1 7 2 6 3 5 4 4 5 11 6 9 7 10 8 2 10 1 11 3 12
REMARK H PARENT 10 9
REMARK Flexibility Score: inf
ROOT
ATOM      1  C   UNL     1     140.392 125.924 150.546  1.00  0.00     0.010 C 
ATOM      2  C   UNL     1     140.137 125.381 149.134  1.00  0.00     0.015 C 
ATOM      3  C   UNL     1     140.340 126.502 148.092  1.00  0.00     0.006 C 
ATOM      4  C   UNL     1     140.068 125.995 146.670  1.00  0.00     0.008 C 
ATOM      5  C   UNL     1     138.645 125.414 146.557  1.00  0.00     0.017 C 
ATOM      6  C   UNL     1     138.434 124.284 147.584  1.00  0.00     0.040 C 
ATOM      7  C   UNL     1     138.711 124.783 149.017  1.00  0.00     0.117 C 
ENDROOT
BRANCH   7   8
ATOM      8  O   UNL     1     138.523 123.735 149.937  1.00  0.00    -0.393 OA
ATOM      9  H   UNL     1     138.809 124.063 150.829  1.00  0.00     0.210 HD
ENDBRANCH   7   8
BRANCH   5  10
ATOM     10  C   UNL     1     138.350 124.939 145.139  1.00  0.00    -0.077 C 
ATOM     11  C   UNL     1     137.978 123.672 144.890  1.00  0.00     0.008 C 
ATOM     12  C   UNL     1     138.471 125.895 143.981  1.00  0.00     0.039 C 
ENDBRANCH   5  10
TORSDOF 2
ENDMDL
MODEL 5
REMARK VINA RESULT:     0.000      6.718      8.696
REMARK INTER + INTRA:          -0.096
REMARK INTER:                   0.000
REMARK INTRA:                  -0.096
REMARK UNBOUND:                -0.096
REMARK SMILES C=C(C)[C@@H]1CC[C@@H](C)[C@H](O)C1
REMARK SMILES IDX 8 1 7 2 6 3 5 4 4 5 11 6 9 7 10 8 2 10 1 11 3 12
REMARK H PARENT 10 9
REMARK Flexibility Score: inf
ROOT
ATOM      1  C   UNL     1     140.221 126.285 144.810  1.00  0.00     0.010 C 
ATOM      2  C   UNL     1     138.953 127.149 144.816  1.00  0.00     0.015 C 
ATOM      3  C   UNL     1     137.894 126.526 145.750  1.00  0.00     0.006 C 
ATOM      4  C   UNL     1     136.604 127.355 145.759  1.00  0.00     0.008 C 
ATOM      5  C   UNL     1     136.036 127.502 144.334  1.00  0.00     0.017 C 
ATOM      6  C   UNL     1     137.081 128.136 143.393  1.00  0.00     0.040 C 
ATOM      7  C   UNL     1     138.384 127.312 143.383  1.00  0.00     0.117 C 
ENDROOT
BRANCH   7   8
ATOM      8  O   UNL     1     139.327 127.911 142.528  1.00  0.00    -0.393 OA
ATOM      9  H   UNL     1     138.828 128.468 141.874  1.00  0.00     0.210 HD
ENDBRANCH   7   8
BRANCH   5  10
ATOM     10  C   UNL     1     134.734 128.295 144.333  1.00  0.00    -0.077 C 
ATOM     11  C   UNL     1     134.596 129.409 143.595  1.00  0.00     0.008 C 
ATOM     12  C   UNL     1     133.568 127.834 145.168  1.00  0.00     0.039 C 
ENDBRANCH   5  10
TORSDOF 2
ENDMDL
MODEL 6
REMARK VINA RESULT:     0.000      4.997      5.671
REMARK INTER + INTRA:          -0.096
REMARK INTER:                   0.000
REMARK INTRA:                  -0.096
REMARK UNBOUND:                -0.096
REMARK SMILES C=C(C)[C@@H]1CC[C@@H](C)[C@H](O)C1
REMARK SMILES IDX 8 1 7 2 6 3 5 4 4 5 11 6 9 7 10 8 2 10 1 11 3 12
REMARK H PARENT 10 9
REMARK Flexibility Score: inf
ROOT
ATOM      1  C   UNL     1     135.033 126.290 145.976  1.00  0.00     0.010 C 
ATOM      2  C   UNL     1     135.147 126.885 147.385  1.00  0.00     0.015 C 
ATOM      3  C   UNL     1     136.101 128.098 147.371  1.00  0.00     0.006 C 
ATOM      4  C   UNL     1     136.254 128.701 148.773  1.00  0.00     0.008 C 
ATOM      5  C   UNL     1     136.755 127.641 149.774  1.00  0.00     0.017 C 
ATOM      6  C   UNL     1     135.804 126.429 149.807  1.00  0.00     0.040 C 
ATOM      7  C   UNL     1     135.638 125.820 148.400  1.00  0.00     0.117 C 
ENDROOT
BRANCH   7   8
ATOM      8  O   UNL     1     134.760 124.723 148.450  1.00  0.00    -0.393 OA
ATOM      9  H   UNL     1     134.755 124.300 147.552  1.00  0.00     0.210 HD
ENDBRANCH   7   8
BRANCH   5  10
ATOM     10  C   UNL     1     136.946 128.236 151.164  1.00  0.00    -0.077 C 
ATOM     11  C   UNL     1     136.314 127.727 152.235  1.00  0.00     0.008 C 
ATOM     12  C   UNL     1     137.860 129.418 151.362  1.00  0.00     0.039 C 
ENDBRANCH   5  10
TORSDOF 2
ENDMDL
MODEL 7
REMARK VINA RESULT:     0.000      7.112      9.425
REMARK INTER + INTRA:          -0.096
REMARK INTER:                   0.000
REMARK INTRA:                  -0.096
REMARK UNBOUND:                -0.096
REMARK SMILES C=C(C)[C@@H]1CC[C@@H](C)[C@H](O)C1
REMARK SMILES IDX 8 1 7 2 6 3 5 4 4 5 11 6 9 7 10 8 2 10 1 11 3 12
REMARK H PARENT 10 9
REMARK Flexibility Score: inf
ROOT
ATOM      1  C   UNL     1     135.034 121.971 144.552  1.00  0.00     0.010 C 
ATOM      2  C   UNL     1     134.211 122.660 143.456  1.00  0.00     0.015 C 
ATOM      3  C   UNL     1     132.706 122.411 143.689  1.00  0.00     0.006 C 
ATOM      4  C   UNL     1     131.858 123.070 142.593  1.00  0.00     0.008 C 
ATOM      5  C   UNL     1     132.272 122.561 141.199  1.00  0.00     0.017 C 
ATOM      6  C   UNL     1     133.772 122.816 140.948  1.00  0.00     0.040 C 
ATOM      7  C   UNL     1     134.632 122.163 142.049  1.00  0.00     0.117 C 
ENDROOT
BRANCH   7   8
ATOM      8  O   UNL     1     135.995 122.415 141.808  1.00  0.00    -0.393 OA
ATOM      9  H   UNL     1     136.112 122.527 140.828  1.00  0.00     0.210 HD
ENDBRANCH   7   8
BRANCH   5  10
ATOM     10  C   UNL     1     131.413 123.181 140.104  1.00  0.00    -0.077 C 
ATOM     11  C   UNL     1     131.963 123.869 139.089  1.00  0.00     0.008 C 
ATOM     12  C   UNL     1     129.914 123.029 140.142  1.00  0.00     0.039 C 
ENDBRANCH   5  10
TORSDOF 2
ENDMDL
MODEL 8
REMARK VINA RESULT:     0.000      9.048     10.733
REMARK INTER + INTRA:          -0.096
REMARK INTER:                   0.000
REMARK INTRA:                  -0.096
REMARK UNBOUND:                -0.096
REMARK SMILES C=C(C)[C@@H]1CC[C@@H](C)[C@H](O)C1
REMARK SMILES IDX 8 1 7 2 6 3 5 4 4 5 11 6 9 7 10 8 2 10 1 11 3 12
REMARK H PARENT 10 9
REMARK Flexibility Score: inf
ROOT
ATOM      1  C   UNL     1     143.213 127.515 140.338  1.00  0.00     0.010 C 
ATOM      2  C   UNL     1     142.256 127.575 141.535  1.00  0.00     0.015 C 
ATOM      3  C   UNL     1     140.805 127.339 141.064  1.00  0.00     0.006 C 
ATOM      4  C   UNL     1     139.820 127.417 142.237  1.00  0.00     0.008 C 
ATOM      5  C   UNL     1     139.932 128.775 142.958  1.00  0.00     0.017 C 
ATOM      6  C   UNL     1     141.374 129.017 143.446  1.00  0.00     0.040 C 
ATOM      7  C   UNL     1     142.373 128.934 142.273  1.00  0.00     0.117 C 
ENDROOT
BRANCH   7   8
ATOM      8  O   UNL     1     143.682 129.147 142.740  1.00  0.00    -0.393 OA
ATOM      9  H   UNL     1     143.642 129.213 143.730  1.00  0.00     0.210 HD
ENDBRANCH   7   8
BRANCH   5  10
ATOM     10  C   UNL     1     138.933 128.879 144.104  1.00  0.00    -0.077 C 
ATOM     11  C   UNL     1     139.336 129.131 145.361  1.00  0.00     0.008 C 
ATOM     12  C   UNL     1     137.459 128.700 143.842  1.00  0.00     0.039 C 
ENDBRANCH   5  10
TORSDOF 2
ENDMDL
MODEL 9
REMARK VINA RESULT:     0.000      6.369      7.825
REMARK INTER + INTRA:          -0.096
REMARK INTER:                   0.000
REMARK INTRA:                  -0.096
REMARK UNBOUND:                -0.096
REMARK SMILES C=C(C)[C@@H]1CC[C@@H](C)[C@H](O)C1
REMARK SMILES IDX 8 1 7 2 6 3 5 4 4 5 11 6 9 7 10 8 2 10 1 11 3 12
REMARK H PARENT 10 9
REMARK Flexibility Score: inf
ROOT
ATOM      1  C   UNL     1     132.972 119.775 143.531  1.00  0.00     0.010 C 
ATOM      2  C   UNL     1     132.712 121.254 143.216  1.00  0.00     0.015 C 
ATOM      3  C   UNL     1     133.244 121.595 141.808  1.00  0.00     0.006 C 
ATOM      4  C   UNL     1     133.019 123.075 141.473  1.00  0.00     0.008 C 
ATOM      5  C   UNL     1     133.682 123.983 142.527  1.00  0.00     0.017 C 
ATOM      6  C   UNL     1     133.150 123.660 143.938  1.00  0.00     0.040 C 
ATOM      7  C   UNL     1     133.365 122.173 144.281  1.00  0.00     0.117 C 
ENDROOT
BRANCH   7   8
ATOM      8  O   UNL     1     132.865 121.897 145.566  1.00  0.00    -0.393 OA
ATOM      9  H   UNL     1     132.525 122.749 145.946  1.00  0.00     0.210 HD
ENDBRANCH   7   8
BRANCH   5  10
ATOM     10  C   UNL     1     133.497 125.457 142.187  1.00  0.00    -0.077 C 
ATOM     11  C   UNL     1     132.914 126.305 143.050  1.00  0.00     0.008 C 
ATOM     12  C   UNL     1     133.973 125.992 140.861  1.00  0.00     0.039 C 
ENDBRANCH   5  10
TORSDOF 2
ENDMDL
