MODEL 1
REMARK VINA RESULT:    -5.421      0.000      0.000
REMARK INTER + INTRA:          -5.896
REMARK INTER:                  -5.896
REMARK INTRA:                   0.000
REMARK UNBOUND:                 0.000
REMARK SMILES Oc1cccc(O)c1O
REMARK SMILES IDX 4 1 5 2 6 3 8 4 2 5 3 6 7 7 1 9 9 11
REMARK H PARENT 7 8 1 10 9 12
REMARK Flexibility Score: inf
ROOT
ATOM      1  C   UNL     1       1.111  45.465  12.466  1.00  0.00     0.008 A 
ATOM      2  C   UNL     1       1.673  46.736  12.604  1.00  0.00     0.050 A 
ATOM      3  C   UNL     1       1.348  47.754  11.702  1.00  0.00     0.161 A 
ATOM      4  C   UNL     1       0.449  47.497  10.649  1.00  0.00     0.200 A 
ATOM      5  C   UNL     1      -0.116  46.215  10.512  1.00  0.00     0.161 A 
ATOM      6  C   UNL     1       0.220  45.203  11.423  1.00  0.00     0.050 A 
ENDROOT
BRANCH   3   7
ATOM      7  O   UNL     1       1.924  49.014  11.865  1.00  0.00    -0.504 OA
ATOM      8  H   UNL     1       1.571  49.684  12.536  1.00  0.00     0.293 HD
ENDBRANCH   3   7
BRANCH   5   9
ATOM      9  O   UNL     1      -1.006  45.950   9.472  1.00  0.00    -0.504 OA
ATOM     10  H   UNL     1      -1.364  46.689   8.878  1.00  0.00     0.293 HD
ENDBRANCH   5   9
BRANCH   4  11
ATOM     11  O   UNL     1       0.127  48.516   9.752  1.00  0.00    -0.502 OA
ATOM     12  H   UNL     1      -0.781  48.965   9.748  1.00  0.00     0.293 HD
ENDBRANCH   4  11
TORSDOF 3
ENDMDL
MODEL 2
REMARK VINA RESULT:    -5.416      0.017      2.808
REMARK INTER + INTRA:          -5.891
REMARK INTER:                  -5.891
REMARK INTRA:                   0.000
REMARK UNBOUND:                 0.000
REMARK SMILES Oc1cccc(O)c1O
REMARK SMILES IDX 4 1 5 2 6 3 8 4 2 5 3 6 7 7 1 9 9 11
REMARK H PARENT 7 8 1 10 9 12
REMARK Flexibility Score: inf
ROOT
ATOM      1  C   UNL     1       1.120  45.450  12.462  1.00  0.00     0.008 A 
ATOM      2  C   UNL     1       0.222  45.202  11.421  1.00  0.00     0.050 A 
ATOM      3  C   UNL     1      -0.115  46.220  10.522  1.00  0.00     0.161 A 
ATOM      4  C   UNL     1       0.453  47.500  10.666  1.00  0.00     0.200 A 
ATOM      5  C   UNL     1       1.358  47.746  11.716  1.00  0.00     0.161 A 
ATOM      6  C   UNL     1       1.687  46.717  12.611  1.00  0.00     0.050 A 
ENDROOT
BRANCH   3   7
ATOM      7  O   UNL     1      -1.014  45.943   9.492  1.00  0.00    -0.504 OA
ATOM      8  H   UNL     1      -0.999  45.066   8.986  1.00  0.00     0.293 HD
ENDBRANCH   3   7
BRANCH   5   9
ATOM      9  O   UNL     1       1.925  49.011  11.868  1.00  0.00    -0.504 OA
ATOM     10  H   UNL     1       2.309  49.318  12.754  1.00  0.00     0.293 HD
ENDBRANCH   5   9
BRANCH   4  11
ATOM     11  O   UNL     1       0.115  48.511   9.767  1.00  0.00    -0.502 OA
ATOM     12  H   UNL     1      -0.414  49.329  10.047  1.00  0.00     0.293 HD
ENDBRANCH   4  11
TORSDOF 3
ENDMDL
MODEL 3
REMARK VINA RESULT:    -5.326     16.744     17.309
REMARK INTER + INTRA:          -5.793
REMARK INTER:                  -5.793
REMARK INTRA:                   0.000
REMARK UNBOUND:                 0.000
REMARK SMILES Oc1cccc(O)c1O
REMARK SMILES IDX 4 1 5 2 6 3 8 4 2 5 3 6 7 7 1 9 9 11
REMARK H PARENT 7 8 1 10 9 12
REMARK Flexibility Score: inf
ROOT
ATOM      1  C   UNL     1       9.068  45.999  -4.322  1.00  0.00     0.008 A 
ATOM      2  C   UNL     1       8.256  46.811  -3.527  1.00  0.00     0.050 A 
ATOM      3  C   UNL     1       6.904  46.982  -3.844  1.00  0.00     0.161 A 
ATOM      4  C   UNL     1       6.359  46.333  -4.967  1.00  0.00     0.200 A 
ATOM      5  C   UNL     1       7.179  45.515  -5.766  1.00  0.00     0.161 A 
ATOM      6  C   UNL     1       8.534  45.352  -5.439  1.00  0.00     0.050 A 
ENDROOT
BRANCH   3   7
ATOM      7  O   UNL     1       6.117  47.800  -3.032  1.00  0.00    -0.504 OA
ATOM      8  H   UNL     1       5.116  47.880  -3.158  1.00  0.00     0.293 HD
ENDBRANCH   3   7
BRANCH   5   9
ATOM      9  O   UNL     1       6.649  44.868  -6.882  1.00  0.00    -0.504 OA
ATOM     10  H   UNL     1       7.138  44.107  -7.338  1.00  0.00     0.293 HD
ENDBRANCH   5   9
BRANCH   4  11
ATOM     11  O   UNL     1       5.010  46.507  -5.278  1.00  0.00    -0.502 OA
ATOM     12  H   UNL     1       4.297  45.855  -4.972  1.00  0.00     0.293 HD
ENDBRANCH   4  11
TORSDOF 3
ENDMDL
MODEL 4
REMARK VINA RESULT:    -5.292     16.859     17.581
REMARK INTER + INTRA:          -5.756
REMARK INTER:                  -5.756
REMARK INTRA:                   0.000
REMARK UNBOUND:                 0.000
REMARK SMILES Oc1cccc(O)c1O
REMARK SMILES IDX 4 1 5 2 6 3 8 4 2 5 3 6 7 7 1 9 9 11
REMARK H PARENT 7 8 1 10 9 12
REMARK Flexibility Score: inf
ROOT
ATOM      1  C   UNL     1       9.194  45.989  -4.462  1.00  0.00     0.008 A 
ATOM      2  C   UNL     1       8.618  45.354  -5.565  1.00  0.00     0.050 A 
ATOM      3  C   UNL     1       7.258  45.521  -5.844  1.00  0.00     0.161 A 
ATOM      4  C   UNL     1       6.465  46.332  -5.010  1.00  0.00     0.200 A 
ATOM      5  C   UNL     1       7.048  46.971  -3.900  1.00  0.00     0.161 A 
ATOM      6  C   UNL     1       8.414  46.794  -3.630  1.00  0.00     0.050 A 
ENDROOT
BRANCH   3   7
ATOM      7  O   UNL     1       6.710  44.875  -6.953  1.00  0.00    -0.504 OA
ATOM      8  H   UNL     1       7.250  44.691  -7.789  1.00  0.00     0.293 HD
ENDBRANCH   3   7
BRANCH   5   9
ATOM      9  O   UNL     1       6.271  47.775  -3.067  1.00  0.00    -0.504 OA
ATOM     10  H   UNL     1       6.608  48.086  -2.164  1.00  0.00     0.293 HD
ENDBRANCH   5   9
BRANCH   4  11
ATOM     11  O   UNL     1       5.109  46.496  -5.293  1.00  0.00    -0.502 OA
ATOM     12  H   UNL     1       4.633  47.381  -5.164  1.00  0.00     0.293 HD
ENDBRANCH   4  11
TORSDOF 3
ENDMDL
MODEL 5
REMARK VINA RESULT:    -5.283     16.763     17.495
REMARK INTER + INTRA:          -5.746
REMARK INTER:                  -5.746
REMARK INTRA:                   0.000
REMARK UNBOUND:                 0.000
REMARK SMILES Oc1cccc(O)c1O
REMARK SMILES IDX 4 1 5 2 6 3 8 4 2 5 3 6 7 7 1 9 9 11
REMARK H PARENT 7 8 1 10 9 12
REMARK Flexibility Score: inf
ROOT
ATOM      1  C   UNL     1       7.256  46.200  -5.854  1.00  0.00     0.008 A 
ATOM      2  C   UNL     1       8.140  45.191  -5.466  1.00  0.00     0.050 A 
ATOM      3  C   UNL     1       7.668  44.063  -4.786  1.00  0.00     0.161 A 
ATOM      4  C   UNL     1       6.296  43.944  -4.491  1.00  0.00     0.200 A 
ATOM      5  C   UNL     1       5.408  44.963  -4.884  1.00  0.00     0.161 A 
ATOM      6  C   UNL     1       5.894  46.089  -5.565  1.00  0.00     0.050 A 
ENDROOT
BRANCH   3   7
ATOM      7  O   UNL     1       8.574  43.071  -4.410  1.00  0.00    -0.504 OA
ATOM      8  H   UNL     1       8.273  42.195  -4.001  1.00  0.00     0.293 HD
ENDBRANCH   3   7
BRANCH   5   9
ATOM      9  O   UNL     1       4.048  44.855  -4.596  1.00  0.00    -0.504 OA
ATOM     10  H   UNL     1       3.650  44.002  -4.222  1.00  0.00     0.293 HD
ENDBRANCH   5   9
BRANCH   4  11
ATOM     11  O   UNL     1       5.831  42.818  -3.813  1.00  0.00    -0.502 OA
ATOM     12  H   UNL     1       5.313  42.885  -2.945  1.00  0.00     0.293 HD
ENDBRANCH   4  11
TORSDOF 3
ENDMDL
MODEL 6
REMARK VINA RESULT:    -5.274     16.769     17.577
REMARK INTER + INTRA:          -5.736
REMARK INTER:                  -5.736
REMARK INTRA:                   0.000
REMARK UNBOUND:                 0.000
REMARK SMILES Oc1cccc(O)c1O
REMARK SMILES IDX 4 1 5 2 6 3 8 4 2 5 3 6 7 7 1 9 9 11
REMARK H PARENT 7 8 1 10 9 12
REMARK Flexibility Score: inf
ROOT
ATOM      1  C   UNL     1       7.243  46.152  -5.932  1.00  0.00     0.008 A 
ATOM      2  C   UNL     1       5.886  46.067  -5.612  1.00  0.00     0.050 A 
ATOM      3  C   UNL     1       5.400  44.974  -4.887  1.00  0.00     0.161 A 
ATOM      4  C   UNL     1       6.281  43.955  -4.478  1.00  0.00     0.200 A 
ATOM      5  C   UNL     1       7.648  44.044  -4.802  1.00  0.00     0.161 A 
ATOM      6  C   UNL     1       8.123  45.144  -5.530  1.00  0.00     0.050 A 
ENDROOT
BRANCH   3   7
ATOM      7  O   UNL     1       4.040  44.916  -4.581  1.00  0.00    -0.504 OA
ATOM      8  H   UNL     1       3.669  45.268  -3.707  1.00  0.00     0.293 HD
ENDBRANCH   3   7
BRANCH   5   9
ATOM      9  O   UNL     1       8.528  43.039  -4.402  1.00  0.00    -0.504 OA
ATOM     10  H   UNL     1       8.347  42.468  -3.584  1.00  0.00     0.293 HD
ENDBRANCH   5   9
BRANCH   4  11
ATOM     11  O   UNL     1       5.790  42.868  -3.754  1.00  0.00    -0.502 OA
ATOM     12  H   UNL     1       6.134  41.925  -3.896  1.00  0.00     0.293 HD
ENDBRANCH   4  11
TORSDOF 3
ENDMDL
MODEL 7
REMARK VINA RESULT:    -5.222     16.750     17.393
REMARK INTER + INTRA:          -5.680
REMARK INTER:                  -5.680
REMARK INTRA:                   0.000
REMARK UNBOUND:                 0.000
REMARK SMILES Oc1cccc(O)c1O
REMARK SMILES IDX 4 1 5 2 6 3 8 4 2 5 3 6 7 7 1 9 9 11
REMARK H PARENT 7 8 1 10 9 12
REMARK Flexibility Score: inf
ROOT
ATOM      1  C   UNL     1       8.740  44.240  -5.000  1.00  0.00     0.008 A 
ATOM      2  C   UNL     1       8.161  45.393  -5.536  1.00  0.00     0.050 A 
ATOM      3  C   UNL     1       6.788  45.622  -5.398  1.00  0.00     0.161 A 
ATOM      4  C   UNL     1       5.986  44.687  -4.716  1.00  0.00     0.200 A 
ATOM      5  C   UNL     1       6.572  43.526  -4.177  1.00  0.00     0.161 A 
ATOM      6  C   UNL     1       7.950  43.308  -4.323  1.00  0.00     0.050 A 
ENDROOT
BRANCH   3   7
ATOM      7  O   UNL     1       6.237  46.782  -5.942  1.00  0.00    -0.504 OA
ATOM      8  H   UNL     1       6.723  47.670  -5.920  1.00  0.00     0.293 HD
ENDBRANCH   3   7
BRANCH   5   9
ATOM      9  O   UNL     1       5.786  42.594  -3.502  1.00  0.00    -0.504 OA
ATOM     10  H   UNL     1       5.534  41.707  -3.922  1.00  0.00     0.293 HD
ENDBRANCH   5   9
BRANCH   4  11
ATOM     11  O   UNL     1       4.617  44.921  -4.581  1.00  0.00    -0.502 OA
ATOM     12  H   UNL     1       3.922  44.248  -4.883  1.00  0.00     0.293 HD
ENDBRANCH   4  11
TORSDOF 3
ENDMDL
MODEL 8
REMARK VINA RESULT:    -5.207     16.768     17.487
REMARK INTER + INTRA:          -5.664
REMARK INTER:                  -5.664
REMARK INTRA:                   0.000
REMARK UNBOUND:                 0.000
REMARK SMILES Oc1cccc(O)c1O
REMARK SMILES IDX 4 1 5 2 6 3 8 4 2 5 3 6 7 7 1 9 9 11
REMARK H PARENT 7 8 1 10 9 12
REMARK Flexibility Score: inf
ROOT
ATOM      1  C   UNL     1       8.794  44.252  -4.984  1.00  0.00     0.008 A 
ATOM      2  C   UNL     1       7.996  43.326  -4.306  1.00  0.00     0.050 A 
ATOM      3  C   UNL     1       6.621  43.545  -4.172  1.00  0.00     0.161 A 
ATOM      4  C   UNL     1       6.038  44.702  -4.722  1.00  0.00     0.200 A 
ATOM      5  C   UNL     1       6.844  45.632  -5.405  1.00  0.00     0.161 A 
ATOM      6  C   UNL     1       8.221  45.402  -5.531  1.00  0.00     0.050 A 
ENDROOT
BRANCH   3   7
ATOM      7  O   UNL     1       5.850  42.603  -3.491  1.00  0.00    -0.504 OA
ATOM      8  H   UNL     1       6.260  41.789  -3.051  1.00  0.00     0.293 HD
ENDBRANCH   3   7
BRANCH   5   9
ATOM      9  O   UNL     1       6.275  46.782  -5.952  1.00  0.00    -0.504 OA
ATOM     10  H   UNL     1       6.422  47.695  -5.540  1.00  0.00     0.293 HD
ENDBRANCH   5   9
BRANCH   4  11
ATOM     11  O   UNL     1       4.666  44.914  -4.586  1.00  0.00    -0.502 OA
ATOM     12  H   UNL     1       4.281  45.818  -4.338  1.00  0.00     0.293 HD
ENDBRANCH   4  11
TORSDOF 3
ENDMDL
MODEL 9
REMARK VINA RESULT:    -5.206      7.145      8.689
REMARK INTER + INTRA:          -5.663
REMARK INTER:                  -5.663
REMARK INTRA:                   0.000
REMARK UNBOUND:                 0.000
REMARK SMILES Oc1cccc(O)c1O
REMARK SMILES IDX 4 1 5 2 6 3 8 4 2 5 3 6 7 7 1 9 9 11
REMARK H PARENT 7 8 1 10 9 12
REMARK Flexibility Score: inf
ROOT
ATOM      1  C   UNL     1      -2.088  44.825   1.839  1.00  0.00     0.008 A 
ATOM      2  C   UNL     1      -3.109  44.404   2.694  1.00  0.00     0.050 A 
ATOM      3  C   UNL     1      -3.079  44.748   4.050  1.00  0.00     0.161 A 
ATOM      4  C   UNL     1      -2.017  45.522   4.555  1.00  0.00     0.200 A 
ATOM      5  C   UNL     1      -0.990  45.945   3.690  1.00  0.00     0.161 A 
ATOM      6  C   UNL     1      -1.031  45.592   2.333  1.00  0.00     0.050 A 
ENDROOT
BRANCH   3   7
ATOM      7  O   UNL     1      -4.113  44.315   4.881  1.00  0.00    -0.504 OA
ATOM      8  H   UNL     1      -4.796  43.631   4.578  1.00  0.00     0.293 HD
ENDBRANCH   3   7
BRANCH   5   9
ATOM      9  O   UNL     1       0.067  46.710   4.180  1.00  0.00    -0.504 OA
ATOM     10  H   UNL     1      -0.012  47.714   4.294  1.00  0.00     0.293 HD
ENDBRANCH   5   9
BRANCH   4  11
ATOM     11  O   UNL     1      -1.993  45.863   5.907  1.00  0.00    -0.502 OA
ATOM     12  H   UNL     1      -2.495  45.330   6.608  1.00  0.00     0.293 HD
ENDBRANCH   4  11
TORSDOF 3
ENDMDL
