MODEL 1
REMARK VINA RESULT:    -3.601      0.000      0.000
REMARK INTER + INTRA:          -4.650
REMARK INTER:                  -4.443
REMARK INTRA:                  -0.206
REMARK UNBOUND:                -0.206
REMARK SMILES CCCCCC(=O)[O-]
REMARK SMILES IDX 4 1 5 2 6 3 7 4 8 5 3 6 2 7 1 8
REMARK H PARENT
REMARK Flexibility Score: inf
ROOT
ATOM      1  C   UNL     1      -1.625 -47.680  17.610  1.00  0.00     0.006 C 
ENDROOT
BRANCH   1   2
ATOM      2  C   UNL     1      -2.405 -48.907  18.094  1.00  0.00     0.053 C 
BRANCH   2   3
ATOM      3  C   UNL     1      -3.867 -48.599  18.177  1.00  0.00     0.041 C 
ATOM      4  O   UNL     1      -4.506 -48.278  17.141  1.00  0.00    -0.550 OA
ATOM      5  O   UNL     1      -4.534 -48.714  19.390  1.00  0.00    -0.550 OA
ENDBRANCH   2   3
ENDBRANCH   1   2
BRANCH   1   6
ATOM      6  C   UNL     1      -1.852 -46.483  18.545  1.00  0.00     0.000 C 
BRANCH   6   7
ATOM      7  C   UNL     1      -2.274 -45.214  17.786  1.00  0.00    -0.003 C 
ATOM      8  C   UNL     1      -1.741 -45.176  16.354  1.00  0.00     0.004 C 
ENDBRANCH   6   7
ENDBRANCH   1   6
TORSDOF 4
ENDMDL
MODEL 2
REMARK VINA RESULT:    -3.562      2.056      3.772
REMARK INTER + INTRA:          -4.601
REMARK INTER:                  -4.348
REMARK INTRA:                  -0.253
REMARK UNBOUND:                -0.206
REMARK SMILES CCCCCC(=O)[O-]
REMARK SMILES IDX 4 1 5 2 6 3 7 4 8 5 3 6 2 7 1 8
REMARK H PARENT
REMARK Flexibility Score: inf
ROOT
ATOM      1  C   UNL     1      -2.336 -48.951  17.725  1.00  0.00     0.006 C 
ENDROOT
BRANCH   1   2
ATOM      2  C   UNL     1      -1.392 -47.878  17.171  1.00  0.00     0.053 C 
BRANCH   2   3
ATOM      3  C   UNL     1      -1.728 -46.538  17.744  1.00  0.00     0.041 C 
ATOM      4  O   UNL     1      -1.968 -46.417  18.974  1.00  0.00    -0.550 OA
ATOM      5  O   UNL     1      -1.729 -45.414  16.929  1.00  0.00    -0.550 OA
ENDBRANCH   2   3
ENDBRANCH   1   2
BRANCH   1   6
ATOM      6  C   UNL     1      -3.657 -48.976  16.942  1.00  0.00     0.000 C 
BRANCH   6   7
ATOM      7  C   UNL     1      -4.883 -48.772  17.846  1.00  0.00    -0.003 C 
ATOM      8  C   UNL     1      -4.539 -48.844  19.335  1.00  0.00     0.004 C 
ENDBRANCH   6   7
ENDBRANCH   1   6
TORSDOF 4
ENDMDL
MODEL 3
REMARK VINA RESULT:    -3.506      2.174      3.747
REMARK INTER + INTRA:          -4.533
REMARK INTER:                  -4.402
REMARK INTRA:                  -0.130
REMARK UNBOUND:                -0.206
REMARK SMILES CCCCCC(=O)[O-]
REMARK SMILES IDX 4 1 5 2 6 3 7 4 8 5 3 6 2 7 1 8
REMARK H PARENT
REMARK Flexibility Score: inf
ROOT
ATOM      1  C   UNL     1      -1.642 -47.703  17.657  1.00  0.00     0.006 C 
ENDROOT
BRANCH   1   2
ATOM      2  C   UNL     1      -1.925 -46.474  18.528  1.00  0.00     0.053 C 
BRANCH   2   3
ATOM      3  C   UNL     1      -2.345 -45.316  17.679  1.00  0.00     0.041 C 
ATOM      4  O   UNL     1      -3.352 -44.631  17.996  1.00  0.00    -0.550 OA
ATOM      5  O   UNL     1      -1.597 -44.964  16.563  1.00  0.00    -0.550 OA
ENDBRANCH   2   3
ENDBRANCH   1   2
BRANCH   1   6
ATOM      6  C   UNL     1      -2.490 -48.901  18.106  1.00  0.00     0.000 C 
BRANCH   6   7
ATOM      7  C   UNL     1      -3.855 -48.478  18.673  1.00  0.00    -0.003 C 
ATOM      8  C   UNL     1      -5.018 -48.848  17.753  1.00  0.00     0.004 C 
ENDBRANCH   6   7
ENDBRANCH   1   6
TORSDOF 4
ENDMDL
MODEL 4
REMARK VINA RESULT:    -3.451      2.546      3.284
REMARK INTER + INTRA:          -4.465
REMARK INTER:                  -4.334
REMARK INTRA:                  -0.131
REMARK UNBOUND:                -0.206
REMARK SMILES CCCCCC(=O)[O-]
REMARK SMILES IDX 4 1 5 2 6 3 7 4 8 5 3 6 2 7 1 8
REMARK H PARENT
REMARK Flexibility Score: inf
ROOT
ATOM      1  C   UNL     1      -4.879 -48.856  17.766  1.00  0.00     0.006 C 
ENDROOT
BRANCH   1   2
ATOM      2  C   UNL     1      -4.487 -48.582  19.222  1.00  0.00     0.053 C 
BRANCH   2   3
ATOM      3  C   UNL     1      -4.867 -47.189  19.613  1.00  0.00     0.041 C 
ATOM      4  O   UNL     1      -4.692 -46.793  20.795  1.00  0.00    -0.550 OA
ATOM      5  O   UNL     1      -5.369 -46.312  18.660  1.00  0.00    -0.550 OA
ENDBRANCH   2   3
ENDBRANCH   1   2
BRANCH   1   6
ATOM      6  C   UNL     1      -3.634 -48.992  16.879  1.00  0.00     0.000 C 
BRANCH   6   7
ATOM      7  C   UNL     1      -2.327 -48.952  17.687  1.00  0.00    -0.003 C 
ATOM      8  C   UNL     1      -1.083 -48.925  16.798  1.00  0.00     0.004 C 
ENDBRANCH   6   7
ENDBRANCH   1   6
TORSDOF 4
ENDMDL
MODEL 5
REMARK VINA RESULT:    -3.363      1.538      2.232
REMARK INTER + INTRA:          -4.355
REMARK INTER:                  -4.128
REMARK INTRA:                  -0.228
REMARK UNBOUND:                -0.206
REMARK SMILES CCCCCC(=O)[O-]
REMARK SMILES IDX 4 1 5 2 6 3 7 4 8 5 3 6 2 7 1 8
REMARK H PARENT
REMARK Flexibility Score: inf
ROOT
ATOM      1  C   UNL     1      -3.722 -48.692  17.783  1.00  0.00     0.006 C 
ENDROOT
BRANCH   1   2
ATOM      2  C   UNL     1      -4.526 -48.661  19.087  1.00  0.00     0.053 C 
BRANCH   2   3
ATOM      3  C   UNL     1      -4.883 -47.254  19.449  1.00  0.00     0.041 C 
ATOM      4  O   UNL     1      -5.463 -46.513  18.613  1.00  0.00    -0.550 OA
ATOM      5  O   UNL     1      -4.618 -46.775  20.725  1.00  0.00    -0.550 OA
ENDBRANCH   2   3
ENDBRANCH   1   2
BRANCH   1   6
ATOM      6  C   UNL     1      -2.223 -48.513  18.058  1.00  0.00     0.000 C 
BRANCH   6   7
ATOM      7  C   UNL     1      -1.581 -47.444  17.159  1.00  0.00    -0.003 C 
ATOM      8  C   UNL     1      -1.895 -46.019  17.618  1.00  0.00     0.004 C 
ENDBRANCH   6   7
ENDBRANCH   1   6
TORSDOF 4
ENDMDL
MODEL 6
REMARK VINA RESULT:    -3.352      1.730      2.581
REMARK INTER + INTRA:          -4.342
REMARK INTER:                  -4.101
REMARK INTRA:                  -0.241
REMARK UNBOUND:                -0.206
REMARK SMILES CCCCCC(=O)[O-]
REMARK SMILES IDX 4 1 5 2 6 3 7 4 8 5 3 6 2 7 1 8
REMARK H PARENT
REMARK Flexibility Score: inf
ROOT
ATOM      1  C   UNL     1      -3.847 -48.552  18.702  1.00  0.00     0.006 C 
ENDROOT
BRANCH   1   2
ATOM      2  C   UNL     1      -5.037 -48.483  17.739  1.00  0.00     0.053 C 
BRANCH   2   3
ATOM      3  C   UNL     1      -5.341 -47.062  17.384  1.00  0.00     0.041 C 
ATOM      4  O   UNL     1      -4.885 -46.563  16.322  1.00  0.00    -0.550 OA
ATOM      5  O   UNL     1      -6.168 -46.302  18.201  1.00  0.00    -0.550 OA
ENDBRANCH   2   3
ENDBRANCH   1   2
BRANCH   1   6
ATOM      6  C   UNL     1      -2.554 -48.900  17.951  1.00  0.00     0.000 C 
BRANCH   6   7
ATOM      7  C   UNL     1      -1.675 -47.667  17.688  1.00  0.00    -0.003 C 
ATOM      8  C   UNL     1      -1.935 -46.532  18.679  1.00  0.00     0.004 C 
ENDBRANCH   6   7
ENDBRANCH   1   6
TORSDOF 4
ENDMDL
MODEL 7
REMARK VINA RESULT:    -3.343      2.303      3.367
REMARK INTER + INTRA:          -4.331
REMARK INTER:                  -4.122
REMARK INTRA:                  -0.209
REMARK UNBOUND:                -0.206
REMARK SMILES CCCCCC(=O)[O-]
REMARK SMILES IDX 4 1 5 2 6 3 7 4 8 5 3 6 2 7 1 8
REMARK H PARENT
REMARK Flexibility Score: inf
ROOT
ATOM      1  C   UNL     1      -3.853 -48.880  17.445  1.00  0.00     0.006 C 
ENDROOT
BRANCH   1   2
ATOM      2  C   UNL     1      -2.345 -48.975  17.702  1.00  0.00     0.053 C 
BRANCH   2   3
ATOM      3  C   UNL     1      -1.690 -47.651  17.471  1.00  0.00     0.041 C 
ATOM      4  O   UNL     1      -1.316 -47.322  16.314  1.00  0.00    -0.550 OA
ATOM      5  O   UNL     1      -1.534 -46.758  18.524  1.00  0.00    -0.550 OA
ENDBRANCH   2   3
ENDBRANCH   1   2
BRANCH   1   6
ATOM      6  C   UNL     1      -4.621 -48.672  18.758  1.00  0.00     0.000 C 
BRANCH   6   7
ATOM      7  C   UNL     1      -5.019 -47.204  18.982  1.00  0.00    -0.003 C 
ATOM      8  C   UNL     1      -4.674 -46.706  20.386  1.00  0.00     0.004 C 
ENDBRANCH   6   7
ENDBRANCH   1   6
TORSDOF 4
ENDMDL
MODEL 8
REMARK VINA RESULT:    -3.179      2.059      3.478
REMARK INTER + INTRA:          -4.129
REMARK INTER:                  -3.885
REMARK INTRA:                  -0.244
REMARK UNBOUND:                -0.206
REMARK SMILES CCCCCC(=O)[O-]
REMARK SMILES IDX 4 1 5 2 6 3 7 4 8 5 3 6 2 7 1 8
REMARK H PARENT
REMARK Flexibility Score: inf
ROOT
ATOM      1  C   UNL     1      -1.817 -46.414  18.888  1.00  0.00     0.006 C 
ENDROOT
BRANCH   1   2
ATOM      2  C   UNL     1      -2.744 -45.211  18.686  1.00  0.00     0.053 C 
BRANCH   2   3
ATOM      3  C   UNL     1      -3.955 -45.331  19.556  1.00  0.00     0.041 C 
ATOM      4  O   UNL     1      -4.155 -46.380  20.221  1.00  0.00    -0.550 OA
ATOM      5  O   UNL     1      -4.839 -44.265  19.669  1.00  0.00    -0.550 OA
ENDBRANCH   2   3
ENDBRANCH   1   2
BRANCH   1   6
ATOM      6  C   UNL     1      -1.866 -47.353  17.674  1.00  0.00     0.000 C 
BRANCH   6   7
ATOM      7  C   UNL     1      -2.491 -48.717  18.008  1.00  0.00    -0.003 C 
ATOM      8  C   UNL     1      -3.974 -48.792  17.644  1.00  0.00     0.004 C 
ENDBRANCH   6   7
ENDBRANCH   1   6
TORSDOF 4
ENDMDL
MODEL 9
REMARK VINA RESULT:    -3.173      2.139      2.830
REMARK INTER + INTRA:          -4.121
REMARK INTER:                  -3.890
REMARK INTRA:                  -0.231
REMARK UNBOUND:                -0.206
REMARK SMILES CCCCCC(=O)[O-]
REMARK SMILES IDX 4 1 5 2 6 3 7 4 8 5 3 6 2 7 1 8
REMARK H PARENT
REMARK Flexibility Score: inf
ROOT
ATOM      1  C   UNL     1      -4.458 -48.528  19.272  1.00  0.00     0.006 C 
ENDROOT
BRANCH   1   2
ATOM      2  C   UNL     1      -4.783 -48.545  17.774  1.00  0.00     0.053 C 
BRANCH   2   3
ATOM      3  C   UNL     1      -3.621 -49.070  16.992  1.00  0.00     0.041 C 
ATOM      4  O   UNL     1      -2.467 -49.070  17.495  1.00  0.00    -0.550 OA
ATOM      5  O   UNL     1      -3.820 -49.605  15.726  1.00  0.00    -0.550 OA
ENDBRANCH   2   3
ENDBRANCH   1   2
BRANCH   1   6
ATOM      6  C   UNL     1      -4.677 -47.128  19.864  1.00  0.00     0.000 C 
BRANCH   6   7
ATOM      7  C   UNL     1      -3.988 -46.026  19.044  1.00  0.00    -0.003 C 
ATOM      8  C   UNL     1      -2.492 -45.915  19.341  1.00  0.00     0.004 C 
ENDBRANCH   6   7
ENDBRANCH   1   6
TORSDOF 4
ENDMDL
