MODEL 1
REMARK VINA RESULT:    -2.895      0.000      0.000
REMARK INTER + INTRA:          -3.254
REMARK INTER:                  -3.233
REMARK INTRA:                  -0.021
REMARK UNBOUND:                -0.021
REMARK SMILES CCCC(=O)[O-]
REMARK SMILES IDX 3 1 4 2 5 3 6 4 2 5 1 6
REMARK H PARENT
REMARK Flexibility Score: inf
ROOT
ATOM      1  C   UNL     1      24.931   0.827  18.297  1.00  0.00     0.052 C 
ENDROOT
BRANCH   1   2
ATOM      2  C   UNL     1      24.959  -0.510  17.627  1.00  0.00     0.041 C 
ATOM      3  O   UNL     1      25.200  -1.549  18.296  1.00  0.00    -0.550 OA
ATOM      4  O   UNL     1      24.767  -0.605  16.254  1.00  0.00    -0.550 OA
ENDBRANCH   1   2
BRANCH   1   5
ATOM      5  C   UNL     1      25.636   1.875  17.432  1.00  0.00     0.003 C 
ATOM      6  C   UNL     1      24.912   3.216  17.491  1.00  0.00     0.004 C 
ENDBRANCH   1   5
TORSDOF 2
ENDMDL
MODEL 2
REMARK VINA RESULT:    -2.888      0.091      1.324
REMARK INTER + INTRA:          -3.246
REMARK INTER:                  -3.224
REMARK INTRA:                  -0.022
REMARK UNBOUND:                -0.021
REMARK SMILES CCCC(=O)[O-]
REMARK SMILES IDX 3 1 4 2 5 3 6 4 2 5 1 6
REMARK H PARENT
REMARK Flexibility Score: inf
ROOT
ATOM      1  C   UNL     1      24.902   0.776  18.235  1.00  0.00     0.052 C 
ENDROOT
BRANCH   1   2
ATOM      2  C   UNL     1      24.972  -0.553  17.553  1.00  0.00     0.041 C 
ATOM      3  O   UNL     1      24.750  -0.644  16.317  1.00  0.00    -0.550 OA
ATOM      4  O   UNL     1      25.235  -1.701  18.290  1.00  0.00    -0.550 OA
ENDBRANCH   1   2
BRANCH   1   5
ATOM      5  C   UNL     1      25.658   1.834  17.427  1.00  0.00     0.003 C 
ATOM      6  C   UNL     1      24.944   3.181  17.478  1.00  0.00     0.004 C 
ENDBRANCH   1   5
TORSDOF 2
ENDMDL
MODEL 3
REMARK VINA RESULT:    -2.788      1.427      1.839
REMARK INTER + INTRA:          -3.135
REMARK INTER:                  -3.097
REMARK INTRA:                  -0.039
REMARK UNBOUND:                -0.021
REMARK SMILES CCCC(=O)[O-]
REMARK SMILES IDX 3 1 4 2 5 3 6 4 2 5 1 6
REMARK H PARENT
REMARK Flexibility Score: inf
ROOT
ATOM      1  C   UNL     1      24.986   1.566  17.126  1.00  0.00     0.052 C 
ENDROOT
BRANCH   1   2
ATOM      2  C   UNL     1      24.726   0.676  18.299  1.00  0.00     0.041 C 
ATOM      3  O   UNL     1      23.965   1.057  19.227  1.00  0.00    -0.550 OA
ATOM      4  O   UNL     1      25.364  -0.554  18.394  1.00  0.00    -0.550 OA
ENDBRANCH   1   2
BRANCH   1   5
ATOM      5  C   UNL     1      25.384   2.968  17.593  1.00  0.00     0.003 C 
ATOM      6  C   UNL     1      24.339   4.003  17.185  1.00  0.00     0.004 C 
ENDBRANCH   1   5
TORSDOF 2
ENDMDL
MODEL 4
REMARK VINA RESULT:    -2.730      8.939      9.760
REMARK INTER + INTRA:          -3.070
REMARK INTER:                  -3.032
REMARK INTRA:                  -0.038
REMARK UNBOUND:                -0.021
REMARK SMILES CCCC(=O)[O-]
REMARK SMILES IDX 3 1 4 2 5 3 6 4 2 5 1 6
REMARK H PARENT
REMARK Flexibility Score: inf
ROOT
ATOM      1  C   UNL     1      27.901   1.498   8.643  1.00  0.00     0.052 C 
ENDROOT
BRANCH   1   2
ATOM      2  C   UNL     1      28.592   2.633   9.330  1.00  0.00     0.041 C 
ATOM      3  O   UNL     1      28.763   3.727   8.731  1.00  0.00    -0.550 OA
ATOM      4  O   UNL     1      29.092   2.467  10.615  1.00  0.00    -0.550 OA
ENDBRANCH   1   2
BRANCH   1   5
ATOM      5  C   UNL     1      28.835   0.290   8.531  1.00  0.00     0.003 C 
ATOM      6  C   UNL     1      28.386  -0.841   9.450  1.00  0.00     0.004 C 
ENDBRANCH   1   5
TORSDOF 2
ENDMDL
MODEL 5
REMARK VINA RESULT:    -2.723     10.033     10.839
REMARK INTER + INTRA:          -3.062
REMARK INTER:                  -3.050
REMARK INTRA:                  -0.012
REMARK UNBOUND:                -0.021
REMARK SMILES CCCC(=O)[O-]
REMARK SMILES IDX 3 1 4 2 5 3 6 4 2 5 1 6
REMARK H PARENT
REMARK Flexibility Score: inf
ROOT
ATOM      1  C   UNL     1      28.731   0.574   7.539  1.00  0.00     0.052 C 
ENDROOT
BRANCH   1   2
ATOM      2  C   UNL     1      28.545   2.013   7.175  1.00  0.00     0.041 C 
ATOM      3  O   UNL     1      28.337   2.342   5.977  1.00  0.00    -0.550 OA
ATOM      4  O   UNL     1      28.649   2.997   8.150  1.00  0.00    -0.550 OA
ENDBRANCH   1   2
BRANCH   1   5
ATOM      5  C   UNL     1      28.834   0.415   9.058  1.00  0.00     0.003 C 
ATOM      6  C   UNL     1      28.365  -0.968   9.500  1.00  0.00     0.004 C 
ENDBRANCH   1   5
TORSDOF 2
ENDMDL
MODEL 6
REMARK VINA RESULT:    -2.609      2.108      2.229
REMARK INTER + INTRA:          -2.935
REMARK INTER:                  -2.887
REMARK INTRA:                  -0.048
REMARK UNBOUND:                -0.021
REMARK SMILES CCCC(=O)[O-]
REMARK SMILES IDX 3 1 4 2 5 3 6 4 2 5 1 6
REMARK H PARENT
REMARK Flexibility Score: inf
ROOT
ATOM      1  C   UNL     1      24.762   1.071  18.777  1.00  0.00     0.052 C 
ENDROOT
BRANCH   1   2
ATOM      2  C   UNL     1      23.275   0.919  18.736  1.00  0.00     0.041 C 
ATOM      3  O   UNL     1      22.604   0.953  19.801  1.00  0.00    -0.550 OA
ATOM      4  O   UNL     1      22.632   0.690  17.526  1.00  0.00    -0.550 OA
ENDBRANCH   1   2
BRANCH   1   5
ATOM      5  C   UNL     1      25.274   1.686  17.472  1.00  0.00     0.003 C 
ATOM      6  C   UNL     1      25.240   3.210  17.530  1.00  0.00     0.004 C 
ENDBRANCH   1   5
TORSDOF 2
ENDMDL
MODEL 7
REMARK VINA RESULT:    -2.550      9.397     10.128
REMARK INTER + INTRA:          -2.869
REMARK INTER:                  -2.856
REMARK INTRA:                  -0.014
REMARK UNBOUND:                -0.021
REMARK SMILES CCCC(=O)[O-]
REMARK SMILES IDX 3 1 4 2 5 3 6 4 2 5 1 6
REMARK H PARENT
REMARK Flexibility Score: inf
ROOT
ATOM      1  C   UNL     1      27.813   4.378   8.840  1.00  0.00     0.052 C 
ENDROOT
BRANCH   1   2
ATOM      2  C   UNL     1      26.826   5.459   8.534  1.00  0.00     0.041 C 
ATOM      3  O   UNL     1      26.810   6.515   9.220  1.00  0.00    -0.550 OA
ATOM      4  O   UNL     1      25.890   5.282   7.523  1.00  0.00    -0.550 OA
ENDBRANCH   1   2
BRANCH   1   5
ATOM      5  C   UNL     1      27.716   3.964  10.310  1.00  0.00     0.003 C 
ATOM      6  C   UNL     1      29.034   3.375  10.805  1.00  0.00     0.004 C 
ENDBRANCH   1   5
TORSDOF 2
ENDMDL
MODEL 8
REMARK VINA RESULT:    -2.531      9.794     10.678
REMARK INTER + INTRA:          -2.848
REMARK INTER:                  -2.809
REMARK INTRA:                  -0.039
REMARK UNBOUND:                -0.021
REMARK SMILES CCCC(=O)[O-]
REMARK SMILES IDX 3 1 4 2 5 3 6 4 2 5 1 6
REMARK H PARENT
REMARK Flexibility Score: inf
ROOT
ATOM      1  C   UNL     1      26.113   6.260   8.153  1.00  0.00     0.052 C 
ENDROOT
BRANCH   1   2
ATOM      2  C   UNL     1      26.913   5.402   9.082  1.00  0.00     0.041 C 
ATOM      3  O   UNL     1      26.713   5.455  10.324  1.00  0.00    -0.550 OA
ATOM      4  O   UNL     1      27.914   4.579   8.581  1.00  0.00    -0.550 OA
ENDBRANCH   1   2
BRANCH   1   5
ATOM      5  C   UNL     1      26.718   7.664   8.065  1.00  0.00     0.003 C 
ATOM      6  C   UNL     1      25.880   8.674   8.843  1.00  0.00     0.004 C 
ENDBRANCH   1   5
TORSDOF 2
ENDMDL
MODEL 9
REMARK VINA RESULT:    -2.500      9.110      9.859
REMARK INTER + INTRA:          -2.813
REMARK INTER:                  -2.758
REMARK INTRA:                  -0.055
REMARK UNBOUND:                -0.021
REMARK SMILES CCCC(=O)[O-]
REMARK SMILES IDX 3 1 4 2 5 3 6 4 2 5 1 6
REMARK H PARENT
REMARK Flexibility Score: inf
ROOT
ATOM      1  C   UNL     1      27.527   2.526   8.902  1.00  0.00     0.052 C 
ENDROOT
BRANCH   1   2
ATOM      2  C   UNL     1      28.436   1.813   7.952  1.00  0.00     0.041 C 
ATOM      3  O   UNL     1      28.760   2.351   6.861  1.00  0.00    -0.550 OA
ATOM      4  O   UNL     1      28.887   0.533   8.247  1.00  0.00    -0.550 OA
ENDBRANCH   1   2
BRANCH   1   5
ATOM      5  C   UNL     1      28.289   3.620   9.654  1.00  0.00     0.003 C 
ATOM      6  C   UNL     1      29.121   3.032  10.790  1.00  0.00     0.004 C 
ENDBRANCH   1   5
TORSDOF 2
ENDMDL
