MODEL 1
REMARK VINA RESULT:    -5.355      0.000      0.000
REMARK INTER + INTRA:         -14.869
REMARK INTER:                 -11.617
REMARK INTRA:                  -3.252
REMARK UNBOUND:                -3.252
REMARK SMILES CCCCCCCCCCCCCCCCCCCCCC(=O)[O-]
REMARK SMILES IDX 12 1 11 2 10 3 9 4 8 5 7 6 6 7 5 8 4 9 3 10 2 11 1 12 13 13
REMARK SMILES IDX 14 14 15 15 16 16 17 17 18 18 19 19 20 20 21 21 22 22 23 23
REMARK SMILES IDX 24 24
REMARK H PARENT
REMARK Flexibility Score: inf
ROOT
ATOM      1  C   UNL     1      -0.299 -27.499   5.812  1.00  0.00     0.000 C 
ENDROOT
BRANCH   1   2
ATOM      2  C   UNL     1       0.958 -26.861   5.194  1.00  0.00     0.000 C 
BRANCH   2   3
ATOM      3  C   UNL     1       2.028 -27.903   4.827  1.00  0.00     0.000 C 
BRANCH   3   4
ATOM      4  C   UNL     1       2.038 -28.328   3.346  1.00  0.00    -0.000 C 
BRANCH   4   5
ATOM      5  C   UNL     1       1.808 -29.830   3.091  1.00  0.00    -0.000 C 
BRANCH   5   6
ATOM      6  C   UNL     1       0.530 -30.116   2.282  1.00  0.00    -0.000 C 
BRANCH   6   7
ATOM      7  C   UNL     1       0.015 -28.873   1.534  1.00  0.00    -0.000 C 
BRANCH   7   8
ATOM      8  C   UNL     1      -1.400 -28.429   1.948  1.00  0.00    -0.000 C 
BRANCH   8   9
ATOM      9  C   UNL     1      -1.691 -26.960   1.587  1.00  0.00    -0.000 C 
BRANCH   9  10
ATOM     10  C   UNL     1      -1.761 -26.042   2.820  1.00  0.00    -0.000 C 
BRANCH  10  11
ATOM     11  C   UNL     1      -1.044 -24.688   2.650  1.00  0.00    -0.003 C 
ATOM     12  C   UNL     1       0.430 -24.837   2.270  1.00  0.00     0.004 C 
ENDBRANCH  10  11
ENDBRANCH   9  10
ENDBRANCH   8   9
ENDBRANCH   7   8
ENDBRANCH   6   7
ENDBRANCH   5   6
ENDBRANCH   4   5
ENDBRANCH   3   4
ENDBRANCH   2   3
ENDBRANCH   1   2
BRANCH   1  13
ATOM     13  C   UNL     1      -0.141 -29.016   6.024  1.00  0.00     0.000 C 
BRANCH  13  14
ATOM     14  C   UNL     1      -0.033 -29.424   7.511  1.00  0.00     0.000 C 
BRANCH  14  15
ATOM     15  C   UNL     1       1.414 -29.535   8.020  1.00  0.00     0.000 C 
BRANCH  15  16
ATOM     16  C   UNL     1       1.683 -28.655   9.251  1.00  0.00     0.000 C 
BRANCH  16  17
ATOM     17  C   UNL     1       1.924 -27.183   8.884  1.00  0.00     0.000 C 
BRANCH  17  18
ATOM     18  C   UNL     1       0.682 -26.303   9.104  1.00  0.00     0.000 C 
BRANCH  18  19
ATOM     19  C   UNL     1      -0.285 -26.907  10.137  1.00  0.00     0.000 C 
BRANCH  19  20
ATOM     20  C   UNL     1      -1.760 -26.704   9.748  1.00  0.00     0.006 C 
BRANCH  20  21
ATOM     21  C   UNL     1      -2.562 -26.023  10.866  1.00  0.00     0.053 C 
BRANCH  21  22
ATOM     22  C   UNL     1      -3.888 -25.532  10.373  1.00  0.00     0.041 C 
ATOM     23  O   UNL     1      -4.795 -26.354  10.073  1.00  0.00    -0.550 OA
ATOM     24  O   UNL     1      -4.117 -24.169  10.228  1.00  0.00    -0.550 OA
ENDBRANCH  21  22
ENDBRANCH  20  21
ENDBRANCH  19  20
ENDBRANCH  18  19
ENDBRANCH  17  18
ENDBRANCH  16  17
ENDBRANCH  15  16
ENDBRANCH  14  15
ENDBRANCH  13  14
ENDBRANCH   1  13
TORSDOF 20
ENDMDL
MODEL 2
REMARK VINA RESULT:    -5.317      2.961      8.050
REMARK INTER + INTRA:         -14.785
REMARK INTER:                 -12.287
REMARK INTRA:                  -2.498
REMARK UNBOUND:                -3.252
REMARK SMILES CCCCCCCCCCCCCCCCCCCCCC(=O)[O-]
REMARK SMILES IDX 12 1 11 2 10 3 9 4 8 5 7 6 6 7 5 8 4 9 3 10 2 11 1 12 13 13
REMARK SMILES IDX 14 14 15 15 16 16 17 17 18 18 19 19 20 20 21 21 22 22 23 23
REMARK SMILES IDX 24 24
REMARK H PARENT
REMARK Flexibility Score: inf
ROOT
ATOM      1  C   UNL     1      -0.978 -25.251   3.869  1.00  0.00     0.000 C 
ENDROOT
BRANCH   1   2
ATOM      2  C   UNL     1      -0.815 -26.433   4.840  1.00  0.00     0.000 C 
BRANCH   2   3
ATOM      3  C   UNL     1       0.588 -26.490   5.469  1.00  0.00     0.000 C 
BRANCH   3   4
ATOM      4  C   UNL     1       0.703 -27.386   6.717  1.00  0.00    -0.000 C 
BRANCH   4   5
ATOM      5  C   UNL     1       1.396 -26.737   7.930  1.00  0.00    -0.000 C 
BRANCH   5   6
ATOM      6  C   UNL     1       0.905 -27.298   9.277  1.00  0.00    -0.000 C 
BRANCH   6   7
ATOM      7  C   UNL     1      -0.097 -26.361   9.976  1.00  0.00    -0.000 C 
BRANCH   7   8
ATOM      8  C   UNL     1      -1.571 -26.646   9.634  1.00  0.00    -0.000 C 
BRANCH   8   9
ATOM      9  C   UNL     1      -2.532 -26.242  10.767  1.00  0.00    -0.000 C 
BRANCH   9  10
ATOM     10  C   UNL     1      -3.989 -26.091  10.294  1.00  0.00    -0.000 C 
BRANCH  10  11
ATOM     11  C   UNL     1      -4.619 -24.717  10.594  1.00  0.00    -0.003 C 
ATOM     12  C   UNL     1      -3.812 -23.898  11.603  1.00  0.00     0.004 C 
ENDBRANCH  10  11
ENDBRANCH   9  10
ENDBRANCH   8   9
ENDBRANCH   7   8
ENDBRANCH   6   7
ENDBRANCH   5   6
ENDBRANCH   4   5
ENDBRANCH   3   4
ENDBRANCH   2   3
ENDBRANCH   1   2
BRANCH   1  13
ATOM     13  C   UNL     1       0.314 -24.956   3.084  1.00  0.00     0.000 C 
BRANCH  13  14
ATOM     14  C   UNL     1       0.063 -24.340   1.689  1.00  0.00     0.000 C 
BRANCH  14  15
ATOM     15  C   UNL     1      -1.401 -23.936   1.444  1.00  0.00     0.000 C 
BRANCH  15  16
ATOM     16  C   UNL     1      -2.053 -24.720   0.294  1.00  0.00     0.000 C 
BRANCH  16  17
ATOM     17  C   UNL     1      -1.554 -26.170   0.211  1.00  0.00     0.000 C 
BRANCH  17  18
ATOM     18  C   UNL     1      -2.423 -27.147   1.021  1.00  0.00     0.000 C 
BRANCH  18  19
ATOM     19  C   UNL     1      -1.578 -28.168   1.803  1.00  0.00     0.000 C 
BRANCH  19  20
ATOM     20  C   UNL     1      -0.129 -28.244   1.291  1.00  0.00     0.006 C 
BRANCH  20  21
ATOM     21  C   UNL     1       0.870 -28.513   2.425  1.00  0.00     0.053 C 
BRANCH  21  22
ATOM     22  C   UNL     1       0.608 -29.827   3.092  1.00  0.00     0.041 C 
ATOM     23  O   UNL     1       0.553 -30.883   2.408  1.00  0.00    -0.550 OA
ATOM     24  O   UNL     1       0.405 -29.882   4.466  1.00  0.00    -0.550 OA
ENDBRANCH  21  22
ENDBRANCH  20  21
ENDBRANCH  19  20
ENDBRANCH  18  19
ENDBRANCH  17  18
ENDBRANCH  16  17
ENDBRANCH  15  16
ENDBRANCH  14  15
ENDBRANCH  13  14
ENDBRANCH   1  13
TORSDOF 20
ENDMDL
MODEL 3
REMARK VINA RESULT:    -5.303      3.437      7.808
REMARK INTER + INTRA:         -14.755
REMARK INTER:                 -12.216
REMARK INTRA:                  -2.539
REMARK UNBOUND:                -3.252
REMARK SMILES CCCCCCCCCCCCCCCCCCCCCC(=O)[O-]
REMARK SMILES IDX 12 1 11 2 10 3 9 4 8 5 7 6 6 7 5 8 4 9 3 10 2 11 1 12 13 13
REMARK SMILES IDX 14 14 15 15 16 16 17 17 18 18 19 19 20 20 21 21 22 22 23 23
REMARK SMILES IDX 24 24
REMARK H PARENT
REMARK Flexibility Score: inf
ROOT
ATOM      1  C   UNL     1      -0.374 -27.072   5.790  1.00  0.00     0.000 C 
ENDROOT
BRANCH   1   2
ATOM      2  C   UNL     1      -0.284 -27.191   7.322  1.00  0.00     0.000 C 
BRANCH   2   3
ATOM      3  C   UNL     1      -0.888 -28.504   7.848  1.00  0.00     0.000 C 
BRANCH   3   4
ATOM      4  C   UNL     1       0.093 -29.403   8.625  1.00  0.00    -0.000 C 
BRANCH   4   5
ATOM      5  C   UNL     1       1.010 -28.667   9.620  1.00  0.00    -0.000 C 
BRANCH   5   6
ATOM      6  C   UNL     1       0.556 -28.816  11.084  1.00  0.00    -0.000 C 
BRANCH   6   7
ATOM      7  C   UNL     1       0.390 -27.458  11.791  1.00  0.00    -0.000 C 
BRANCH   7   8
ATOM      8  C   UNL     1      -0.254 -26.367  10.916  1.00  0.00    -0.000 C 
BRANCH   8   9
ATOM      9  C   UNL     1      -1.721 -26.090  11.296  1.00  0.00    -0.000 C 
BRANCH   9  10
ATOM     10  C   UNL     1      -2.679 -26.177  10.095  1.00  0.00    -0.000 C 
BRANCH  10  11
ATOM     11  C   UNL     1      -4.135 -25.779  10.410  1.00  0.00    -0.003 C 
ATOM     12  C   UNL     1      -4.283 -24.303  10.781  1.00  0.00     0.004 C 
ENDBRANCH  10  11
ENDBRANCH   9  10
ENDBRANCH   8   9
ENDBRANCH   7   8
ENDBRANCH   6   7
ENDBRANCH   5   6
ENDBRANCH   4   5
ENDBRANCH   3   4
ENDBRANCH   2   3
ENDBRANCH   1   2
BRANCH   1  13
ATOM     13  C   UNL     1       1.014 -27.060   5.122  1.00  0.00     0.000 C 
BRANCH  13  14
ATOM     14  C   UNL     1       1.710 -28.440   5.119  1.00  0.00     0.000 C 
BRANCH  14  15
ATOM     15  C   UNL     1       0.874 -29.554   4.466  1.00  0.00     0.000 C 
BRANCH  15  16
ATOM     16  C   UNL     1       1.384 -29.944   3.070  1.00  0.00     0.000 C 
BRANCH  16  17
ATOM     17  C   UNL     1       0.285 -29.867   1.998  1.00  0.00     0.000 C 
BRANCH  17  18
ATOM     18  C   UNL     1      -0.050 -28.423   1.589  1.00  0.00     0.000 C 
BRANCH  18  19
ATOM     19  C   UNL     1      -1.433 -27.980   2.096  1.00  0.00     0.000 C 
BRANCH  19  20
ATOM     20  C   UNL     1      -1.562 -26.450   2.188  1.00  0.00     0.006 C 
BRANCH  20  21
ATOM     21  C   UNL     1      -2.673 -25.908   1.278  1.00  0.00     0.053 C 
BRANCH  21  22
ATOM     22  C   UNL     1      -2.183 -25.686  -0.119  1.00  0.00     0.041 C 
ATOM     23  O   UNL     1      -0.967 -25.432  -0.331  1.00  0.00    -0.550 OA
ATOM     24  O   UNL     1      -3.072 -25.739  -1.186  1.00  0.00    -0.550 OA
ENDBRANCH  21  22
ENDBRANCH  20  21
ENDBRANCH  19  20
ENDBRANCH  18  19
ENDBRANCH  17  18
ENDBRANCH  16  17
ENDBRANCH  15  16
ENDBRANCH  14  15
ENDBRANCH  13  14
ENDBRANCH   1  13
TORSDOF 20
ENDMDL
MODEL 4
REMARK VINA RESULT:    -5.283      1.098      1.971
REMARK INTER + INTRA:         -14.712
REMARK INTER:                 -12.292
REMARK INTRA:                  -2.420
REMARK UNBOUND:                -3.252
REMARK SMILES CCCCCCCCCCCCCCCCCCCCCC(=O)[O-]
REMARK SMILES IDX 12 1 11 2 10 3 9 4 8 5 7 6 6 7 5 8 4 9 3 10 2 11 1 12 13 13
REMARK SMILES IDX 14 14 15 15 16 16 17 17 18 18 19 19 20 20 21 21 22 22 23 23
REMARK SMILES IDX 24 24
REMARK H PARENT
REMARK Flexibility Score: inf
ROOT
ATOM      1  C   UNL     1      -0.129 -29.444   5.345  1.00  0.00     0.000 C 
ENDROOT
BRANCH   1   2
ATOM      2  C   UNL     1       1.372 -29.435   5.002  1.00  0.00     0.000 C 
BRANCH   2   3
ATOM      3  C   UNL     1       1.633 -29.589   3.495  1.00  0.00     0.000 C 
BRANCH   3   4
ATOM      4  C   UNL     1       0.653 -30.524   2.759  1.00  0.00    -0.000 C 
BRANCH   4   5
ATOM      5  C   UNL     1      -0.160 -29.866   1.629  1.00  0.00    -0.000 C 
BRANCH   5   6
ATOM      6  C   UNL     1      -0.168 -28.328   1.707  1.00  0.00    -0.000 C 
BRANCH   6   7
ATOM      7  C   UNL     1      -1.562 -27.762   2.035  1.00  0.00    -0.000 C 
BRANCH   7   8
ATOM      8  C   UNL     1      -1.866 -26.410   1.364  1.00  0.00    -0.000 C 
BRANCH   8   9
ATOM      9  C   UNL     1      -1.654 -25.215   2.313  1.00  0.00    -0.000 C 
BRANCH   9  10
ATOM     10  C   UNL     1      -0.631 -25.507   3.426  1.00  0.00    -0.000 C 
BRANCH  10  11
ATOM     11  C   UNL     1       0.799 -25.017   3.122  1.00  0.00    -0.003 C 
ATOM     12  C   UNL     1       1.875 -25.847   3.822  1.00  0.00     0.004 C 
ENDBRANCH  10  11
ENDBRANCH   9  10
ENDBRANCH   8   9
ENDBRANCH   7   8
ENDBRANCH   6   7
ENDBRANCH   5   6
ENDBRANCH   4   5
ENDBRANCH   3   4
ENDBRANCH   2   3
ENDBRANCH   1   2
BRANCH   1  13
ATOM     13  C   UNL     1      -0.427 -28.745   6.685  1.00  0.00     0.000 C 
BRANCH  13  14
ATOM     14  C   UNL     1      -0.174 -27.221   6.657  1.00  0.00     0.000 C 
BRANCH  14  15
ATOM     15  C   UNL     1       1.129 -26.796   7.355  1.00  0.00     0.000 C 
BRANCH  15  16
ATOM     16  C   UNL     1       1.237 -27.326   8.793  1.00  0.00     0.000 C 
BRANCH  16  17
ATOM     17  C   UNL     1       1.635 -26.232   9.797  1.00  0.00     0.000 C 
BRANCH  17  18
ATOM     18  C   UNL     1       0.720 -26.195  11.032  1.00  0.00     0.000 C 
BRANCH  18  19
ATOM     19  C   UNL     1      -0.616 -26.919  10.790  1.00  0.00     0.000 C 
BRANCH  19  20
ATOM     20  C   UNL     1      -1.831 -26.032  11.112  1.00  0.00     0.006 C 
BRANCH  20  21
ATOM     21  C   UNL     1      -2.881 -26.065   9.993  1.00  0.00     0.053 C 
BRANCH  21  22
ATOM     22  C   UNL     1      -4.223 -25.614  10.482  1.00  0.00     0.041 C 
ATOM     23  O   UNL     1      -4.371 -24.449  10.937  1.00  0.00    -0.550 OA
ATOM     24  O   UNL     1      -5.304 -26.486  10.452  1.00  0.00    -0.550 OA
ENDBRANCH  21  22
ENDBRANCH  20  21
ENDBRANCH  19  20
ENDBRANCH  18  19
ENDBRANCH  17  18
ENDBRANCH  16  17
ENDBRANCH  15  16
ENDBRANCH  14  15
ENDBRANCH  13  14
ENDBRANCH   1  13
TORSDOF 20
ENDMDL
MODEL 5
REMARK VINA RESULT:    -5.177      0.852      2.729
REMARK INTER + INTRA:         -14.482
REMARK INTER:                 -11.508
REMARK INTRA:                  -2.973
REMARK UNBOUND:                -3.252
REMARK SMILES CCCCCCCCCCCCCCCCCCCCCC(=O)[O-]
REMARK SMILES IDX 12 1 11 2 10 3 9 4 8 5 7 6 6 7 5 8 4 9 3 10 2 11 1 12 13 13
REMARK SMILES IDX 14 14 15 15 16 16 17 17 18 18 19 19 20 20 21 21 22 22 23 23
REMARK SMILES IDX 24 24
REMARK H PARENT
REMARK Flexibility Score: inf
ROOT
ATOM      1  C   UNL     1       0.738 -27.420   5.431  1.00  0.00     0.000 C 
ENDROOT
BRANCH   1   2
ATOM      2  C   UNL     1       0.379 -26.162   4.620  1.00  0.00     0.000 C 
BRANCH   2   3
ATOM      3  C   UNL     1       1.564 -25.637   3.791  1.00  0.00     0.000 C 
BRANCH   3   4
ATOM      4  C   UNL     1       1.186 -24.638   2.681  1.00  0.00    -0.000 C 
BRANCH   4   5
ATOM      5  C   UNL     1      -0.310 -24.594   2.318  1.00  0.00    -0.000 C 
BRANCH   5   6
ATOM      6  C   UNL     1      -0.569 -24.706   0.805  1.00  0.00    -0.000 C 
BRANCH   6   7
ATOM      7  C   UNL     1      -1.067 -26.103   0.393  1.00  0.00    -0.000 C 
BRANCH   7   8
ATOM      8  C   UNL     1      -2.164 -26.676   1.310  1.00  0.00    -0.000 C 
BRANCH   8   9
ATOM      9  C   UNL     1      -1.728 -27.974   2.016  1.00  0.00    -0.000 C 
BRANCH   9  10
ATOM     10  C   UNL     1      -0.245 -28.315   1.784  1.00  0.00    -0.000 C 
BRANCH  10  11
ATOM     11  C   UNL     1       0.179 -29.704   2.301  1.00  0.00    -0.003 C 
ATOM     12  C   UNL     1       1.624 -29.739   2.800  1.00  0.00     0.004 C 
ENDBRANCH  10  11
ENDBRANCH   9  10
ENDBRANCH   8   9
ENDBRANCH   7   8
ENDBRANCH   6   7
ENDBRANCH   5   6
ENDBRANCH   4   5
ENDBRANCH   3   4
ENDBRANCH   2   3
ENDBRANCH   1   2
BRANCH   1  13
ATOM     13  C   UNL     1      -0.511 -28.176   5.921  1.00  0.00     0.000 C 
BRANCH  13  14
ATOM     14  C   UNL     1      -0.189 -29.346   6.878  1.00  0.00     0.000 C 
BRANCH  14  15
ATOM     15  C   UNL     1       1.246 -29.319   7.430  1.00  0.00     0.000 C 
BRANCH  15  16
ATOM     16  C   UNL     1       1.312 -28.885   8.903  1.00  0.00     0.000 C 
BRANCH  16  17
ATOM     17  C   UNL     1       1.647 -27.395   9.065  1.00  0.00     0.000 C 
BRANCH  17  18
ATOM     18  C   UNL     1       0.396 -26.501   9.091  1.00  0.00     0.000 C 
BRANCH  18  19
ATOM     19  C   UNL     1      -0.710 -27.073   9.995  1.00  0.00     0.000 C 
BRANCH  19  20
ATOM     20  C   UNL     1      -2.096 -26.492   9.666  1.00  0.00     0.006 C 
BRANCH  20  21
ATOM     21  C   UNL     1      -2.688 -25.708  10.845  1.00  0.00     0.053 C 
BRANCH  21  22
ATOM     22  C   UNL     1      -4.043 -25.161  10.521  1.00  0.00     0.041 C 
ATOM     23  O   UNL     1      -4.348 -23.986  10.856  1.00  0.00    -0.550 OA
ATOM     24  O   UNL     1      -4.976 -25.956   9.866  1.00  0.00    -0.550 OA
ENDBRANCH  21  22
ENDBRANCH  20  21
ENDBRANCH  19  20
ENDBRANCH  18  19
ENDBRANCH  17  18
ENDBRANCH  16  17
ENDBRANCH  15  16
ENDBRANCH  14  15
ENDBRANCH  13  14
ENDBRANCH   1  13
TORSDOF 20
ENDMDL
MODEL 6
REMARK VINA RESULT:    -5.085      3.710      8.003
REMARK INTER + INTRA:         -14.283
REMARK INTER:                 -12.067
REMARK INTRA:                  -2.215
REMARK UNBOUND:                -3.252
REMARK SMILES CCCCCCCCCCCCCCCCCCCCCC(=O)[O-]
REMARK SMILES IDX 12 1 11 2 10 3 9 4 8 5 7 6 6 7 5 8 4 9 3 10 2 11 1 12 13 13
REMARK SMILES IDX 14 14 15 15 16 16 17 17 18 18 19 19 20 20 21 21 22 22 23 23
REMARK SMILES IDX 24 24
REMARK H PARENT
REMARK Flexibility Score: inf
ROOT
ATOM      1  C   UNL     1      -0.496 -28.335   7.348  1.00  0.00     0.000 C 
ENDROOT
BRANCH   1   2
ATOM      2  C   UNL     1      -0.124 -26.892   7.733  1.00  0.00     0.000 C 
BRANCH   2   3
ATOM      3  C   UNL     1       1.341 -26.761   8.184  1.00  0.00     0.000 C 
BRANCH   3   4
ATOM      4  C   UNL     1       1.531 -26.299   9.642  1.00  0.00    -0.000 C 
BRANCH   4   5
ATOM      5  C   UNL     1       1.679 -27.432  10.676  1.00  0.00    -0.000 C 
BRANCH   5   6
ATOM      6  C   UNL     1       0.363 -27.759  11.405  1.00  0.00    -0.000 C 
BRANCH   6   7
ATOM      7  C   UNL     1      -0.631 -26.584  11.383  1.00  0.00    -0.000 C 
BRANCH   7   8
ATOM      8  C   UNL     1      -1.998 -26.926  10.762  1.00  0.00    -0.000 C 
BRANCH   8   9
ATOM      9  C   UNL     1      -2.642 -25.723  10.046  1.00  0.00    -0.000 C 
BRANCH   9  10
ATOM     10  C   UNL     1      -4.167 -25.655  10.241  1.00  0.00    -0.000 C 
BRANCH  10  11
ATOM     11  C   UNL     1      -4.656 -24.417  11.020  1.00  0.00    -0.003 C 
ATOM     12  C   UNL     1      -3.574 -23.806  11.910  1.00  0.00     0.004 C 
ENDBRANCH  10  11
ENDBRANCH   9  10
ENDBRANCH   8   9
ENDBRANCH   7   8
ENDBRANCH   6   7
ENDBRANCH   5   6
ENDBRANCH   4   5
ENDBRANCH   3   4
ENDBRANCH   2   3
ENDBRANCH   1   2
BRANCH   1  13
ATOM     13  C   UNL     1       0.721 -29.143   6.862  1.00  0.00     0.000 C 
BRANCH  13  14
ATOM     14  C   UNL     1       0.755 -29.350   5.331  1.00  0.00     0.000 C 
BRANCH  14  15
ATOM     15  C   UNL     1      -0.405 -28.666   4.587  1.00  0.00     0.000 C 
BRANCH  15  16
ATOM     16  C   UNL     1       0.018 -27.363   3.890  1.00  0.00     0.000 C 
BRANCH  16  17
ATOM     17  C   UNL     1      -0.892 -26.179   4.250  1.00  0.00     0.000 C 
BRANCH  17  18
ATOM     18  C   UNL     1      -1.494 -25.491   3.012  1.00  0.00     0.000 C 
BRANCH  18  19
ATOM     19  C   UNL     1      -1.999 -26.505   1.971  1.00  0.00     0.000 C 
BRANCH  19  20
ATOM     20  C   UNL     1      -1.324 -26.322   0.600  1.00  0.00     0.006 C 
BRANCH  20  21
ATOM     21  C   UNL     1      -1.312 -24.854   0.154  1.00  0.00     0.053 C 
BRANCH  21  22
ATOM     22  C   UNL     1      -2.328 -24.593  -0.914  1.00  0.00     0.041 C 
ATOM     23  O   UNL     1      -3.321 -25.358  -1.043  1.00  0.00    -0.550 OA
ATOM     24  O   UNL     1      -2.169 -23.516  -1.778  1.00  0.00    -0.550 OA
ENDBRANCH  21  22
ENDBRANCH  20  21
ENDBRANCH  19  20
ENDBRANCH  18  19
ENDBRANCH  17  18
ENDBRANCH  16  17
ENDBRANCH  15  16
ENDBRANCH  14  15
ENDBRANCH  13  14
ENDBRANCH   1  13
TORSDOF 20
ENDMDL
MODEL 7
REMARK VINA RESULT:    -5.077      1.780      3.475
REMARK INTER + INTRA:         -14.265
REMARK INTER:                 -12.280
REMARK INTRA:                  -1.985
REMARK UNBOUND:                -3.252
REMARK SMILES CCCCCCCCCCCCCCCCCCCCCC(=O)[O-]
REMARK SMILES IDX 12 1 11 2 10 3 9 4 8 5 7 6 6 7 5 8 4 9 3 10 2 11 1 12 13 13
REMARK SMILES IDX 14 14 15 15 16 16 17 17 18 18 19 19 20 20 21 21 22 22 23 23
REMARK SMILES IDX 24 24
REMARK H PARENT
REMARK Flexibility Score: inf
ROOT
ATOM      1  C   UNL     1       0.712 -28.415   2.802  1.00  0.00     0.000 C 
ENDROOT
BRANCH   1   2
ATOM      2  C   UNL     1      -0.380 -28.454   1.718  1.00  0.00     0.000 C 
BRANCH   2   3
ATOM      3  C   UNL     1      -1.602 -27.594   2.081  1.00  0.00     0.000 C 
BRANCH   3   4
ATOM      4  C   UNL     1      -1.518 -26.893   3.451  1.00  0.00    -0.000 C 
BRANCH   4   5
ATOM      5  C   UNL     1      -1.298 -25.369   3.398  1.00  0.00    -0.000 C 
BRANCH   5   6
ATOM      6  C   UNL     1       0.169 -24.979   3.144  1.00  0.00    -0.000 C 
BRANCH   6   7
ATOM      7  C   UNL     1       0.405 -24.467   1.712  1.00  0.00    -0.000 C 
BRANCH   7   8
ATOM      8  C   UNL     1      -0.830 -23.811   1.066  1.00  0.00    -0.000 C 
BRANCH   8   9
ATOM      9  C   UNL     1      -0.589 -23.410  -0.402  1.00  0.00    -0.000 C 
BRANCH   9  10
ATOM     10  C   UNL     1      -1.331 -24.317  -1.401  1.00  0.00    -0.000 C 
BRANCH  10  11
ATOM     11  C   UNL     1      -2.416 -25.210  -0.768  1.00  0.00    -0.003 C 
ATOM     12  C   UNL     1      -3.517 -25.601  -1.754  1.00  0.00     0.004 C 
ENDBRANCH  10  11
ENDBRANCH   9  10
ENDBRANCH   8   9
ENDBRANCH   7   8
ENDBRANCH   6   7
ENDBRANCH   5   6
ENDBRANCH   4   5
ENDBRANCH   3   4
ENDBRANCH   2   3
ENDBRANCH   1   2
BRANCH   1  13
ATOM     13  C   UNL     1       0.574 -29.569   3.813  1.00  0.00     0.000 C 
BRANCH  13  14
ATOM     14  C   UNL     1       1.274 -29.295   5.163  1.00  0.00     0.000 C 
BRANCH  14  15
ATOM     15  C   UNL     1       0.316 -29.276   6.366  1.00  0.00     0.000 C 
BRANCH  15  16
ATOM     16  C   UNL     1      -0.487 -27.970   6.470  1.00  0.00     0.000 C 
BRANCH  16  17
ATOM     17  C   UNL     1       0.232 -26.900   7.305  1.00  0.00     0.000 C 
BRANCH  17  18
ATOM     18  C   UNL     1      -0.069 -27.015   8.809  1.00  0.00     0.000 C 
BRANCH  18  19
ATOM     19  C   UNL     1      -1.514 -27.470   9.081  1.00  0.00     0.000 C 
BRANCH  19  20
ATOM     20  C   UNL     1      -2.132 -26.761  10.299  1.00  0.00     0.006 C 
BRANCH  20  21
ATOM     21  C   UNL     1      -2.931 -25.514   9.896  1.00  0.00     0.053 C 
BRANCH  21  22
ATOM     22  C   UNL     1      -4.249 -25.451  10.602  1.00  0.00     0.041 C 
ATOM     23  O   UNL     1      -5.017 -26.449  10.598  1.00  0.00    -0.550 OA
ATOM     24  O   UNL     1      -4.639 -24.283  11.246  1.00  0.00    -0.550 OA
ENDBRANCH  21  22
ENDBRANCH  20  21
ENDBRANCH  19  20
ENDBRANCH  18  19
ENDBRANCH  17  18
ENDBRANCH  16  17
ENDBRANCH  15  16
ENDBRANCH  14  15
ENDBRANCH  13  14
ENDBRANCH   1  13
TORSDOF 20
ENDMDL
MODEL 8
REMARK VINA RESULT:    -5.044      1.276      2.240
REMARK INTER + INTRA:         -14.193
REMARK INTER:                 -11.592
REMARK INTRA:                  -2.600
REMARK UNBOUND:                -3.252
REMARK SMILES CCCCCCCCCCCCCCCCCCCCCC(=O)[O-]
REMARK SMILES IDX 12 1 11 2 10 3 9 4 8 5 7 6 6 7 5 8 4 9 3 10 2 11 1 12 13 13
REMARK SMILES IDX 14 14 15 15 16 16 17 17 18 18 19 19 20 20 21 21 22 22 23 23
REMARK SMILES IDX 24 24
REMARK H PARENT
REMARK Flexibility Score: inf
ROOT
ATOM      1  C   UNL     1      -0.322 -27.809   7.071  1.00  0.00     0.000 C 
ENDROOT
BRANCH   1   2
ATOM      2  C   UNL     1      -0.331 -29.101   6.235  1.00  0.00     0.000 C 
BRANCH   2   3
ATOM      3  C   UNL     1       0.888 -29.210   5.304  1.00  0.00     0.000 C 
BRANCH   3   4
ATOM      4  C   UNL     1       0.566 -29.644   3.861  1.00  0.00    -0.000 C 
BRANCH   4   5
ATOM      5  C   UNL     1       1.329 -28.883   2.760  1.00  0.00    -0.000 C 
BRANCH   5   6
ATOM      6  C   UNL     1       1.797 -27.486   3.205  1.00  0.00    -0.000 C 
BRANCH   6   7
ATOM      7  C   UNL     1       0.846 -26.368   2.739  1.00  0.00    -0.000 C 
BRANCH   7   8
ATOM      8  C   UNL     1      -0.194 -25.946   3.793  1.00  0.00    -0.000 C 
BRANCH   8   9
ATOM      9  C   UNL     1      -1.642 -26.073   3.283  1.00  0.00    -0.000 C 
BRANCH   9  10
ATOM     10  C   UNL     1      -1.722 -26.429   1.788  1.00  0.00    -0.000 C 
BRANCH  10  11
ATOM     11  C   UNL     1      -2.392 -25.353   0.910  1.00  0.00    -0.003 C 
ATOM     12  C   UNL     1      -2.539 -25.781  -0.550  1.00  0.00     0.004 C 
ENDBRANCH  10  11
ENDBRANCH   9  10
ENDBRANCH   8   9
ENDBRANCH   7   8
ENDBRANCH   6   7
ENDBRANCH   5   6
ENDBRANCH   4   5
ENDBRANCH   3   4
ENDBRANCH   2   3
ENDBRANCH   1   2
BRANCH   1  13
ATOM     13  C   UNL     1       0.914 -26.936   6.785  1.00  0.00     0.000 C 
BRANCH  13  14
ATOM     14  C   UNL     1       1.786 -26.672   8.032  1.00  0.00     0.000 C 
BRANCH  14  15
ATOM     15  C   UNL     1       2.062 -27.930   8.874  1.00  0.00     0.000 C 
BRANCH  15  16
ATOM     16  C   UNL     1       1.686 -27.754  10.353  1.00  0.00     0.000 C 
BRANCH  16  17
ATOM     17  C   UNL     1       1.298 -26.307  10.695  1.00  0.00     0.000 C 
BRANCH  17  18
ATOM     18  C   UNL     1      -0.171 -26.171  11.131  1.00  0.00     0.000 C 
BRANCH  18  19
ATOM     19  C   UNL     1      -1.087 -27.179  10.415  1.00  0.00     0.000 C 
BRANCH  19  20
ATOM     20  C   UNL     1      -2.438 -26.562  10.014  1.00  0.00     0.006 C 
BRANCH  20  21
ATOM     21  C   UNL     1      -2.882 -25.463  10.989  1.00  0.00     0.053 C 
BRANCH  21  22
ATOM     22  C   UNL     1      -4.165 -24.826  10.556  1.00  0.00     0.041 C 
ATOM     23  O   UNL     1      -4.443 -23.652  10.919  1.00  0.00    -0.550 OA
ATOM     24  O   UNL     1      -5.063 -25.535   9.767  1.00  0.00    -0.550 OA
ENDBRANCH  21  22
ENDBRANCH  20  21
ENDBRANCH  19  20
ENDBRANCH  18  19
ENDBRANCH  17  18
ENDBRANCH  16  17
ENDBRANCH  15  16
ENDBRANCH  14  15
ENDBRANCH  13  14
ENDBRANCH   1  13
TORSDOF 20
ENDMDL
MODEL 9
REMARK VINA RESULT:    -5.035      1.149      1.788
REMARK INTER + INTRA:         -14.173
REMARK INTER:                 -11.383
REMARK INTRA:                  -2.790
REMARK UNBOUND:                -3.252
REMARK SMILES CCCCCCCCCCCCCCCCCCCCCC(=O)[O-]
REMARK SMILES IDX 12 1 11 2 10 3 9 4 8 5 7 6 6 7 5 8 4 9 3 10 2 11 1 12 13 13
REMARK SMILES IDX 14 14 15 15 16 16 17 17 18 18 19 19 20 20 21 21 22 22 23 23
REMARK SMILES IDX 24 24
REMARK H PARENT
REMARK Flexibility Score: inf
ROOT
ATOM      1  C   UNL     1      -0.341 -27.061   7.778  1.00  0.00     0.000 C 
ENDROOT
BRANCH   1   2
ATOM      2  C   UNL     1       0.158 -27.221   6.330  1.00  0.00     0.000 C 
BRANCH   2   3
ATOM      3  C   UNL     1      -0.496 -28.411   5.609  1.00  0.00     0.000 C 
BRANCH   3   4
ATOM      4  C   UNL     1       0.481 -29.518   5.168  1.00  0.00    -0.000 C 
BRANCH   4   5
ATOM      5  C   UNL     1       1.812 -29.020   4.573  1.00  0.00    -0.000 C 
BRANCH   5   6
ATOM      6  C   UNL     1       1.768 -28.862   3.042  1.00  0.00    -0.000 C 
BRANCH   6   7
ATOM      7  C   UNL     1       0.715 -29.774   2.386  1.00  0.00    -0.000 C 
BRANCH   7   8
ATOM      8  C   UNL     1      -0.093 -29.097   1.263  1.00  0.00    -0.000 C 
BRANCH   8   9
ATOM      9  C   UNL     1      -1.209 -28.183   1.802  1.00  0.00    -0.000 C 
BRANCH   9  10
ATOM     10  C   UNL     1      -1.115 -26.742   1.271  1.00  0.00    -0.000 C 
BRANCH  10  11
ATOM     11  C   UNL     1      -0.415 -25.754   2.225  1.00  0.00    -0.003 C 
ATOM     12  C   UNL     1      -1.223 -25.477   3.493  1.00  0.00     0.004 C 
ENDBRANCH  10  11
ENDBRANCH   9  10
ENDBRANCH   8   9
ENDBRANCH   7   8
ENDBRANCH   6   7
ENDBRANCH   5   6
ENDBRANCH   4   5
ENDBRANCH   3   4
ENDBRANCH   2   3
ENDBRANCH   1   2
BRANCH   1  13
ATOM     13  C   UNL     1      -0.872 -28.383   8.363  1.00  0.00     0.000 C 
BRANCH  13  14
ATOM     14  C   UNL     1       0.196 -29.190   9.135  1.00  0.00     0.000 C 
BRANCH  14  15
ATOM     15  C   UNL     1       1.535 -28.450   9.298  1.00  0.00     0.000 C 
BRANCH  15  16
ATOM     16  C   UNL     1       1.718 -27.848  10.699  1.00  0.00     0.000 C 
BRANCH  16  17
ATOM     17  C   UNL     1       1.650 -26.313  10.695  1.00  0.00     0.000 C 
BRANCH  17  18
ATOM     18  C   UNL     1       0.579 -25.761  11.652  1.00  0.00     0.000 C 
BRANCH  18  19
ATOM     19  C   UNL     1      -0.727 -26.572  11.594  1.00  0.00     0.000 C 
BRANCH  19  20
ATOM     20  C   UNL     1      -1.969 -25.674  11.453  1.00  0.00     0.006 C 
BRANCH  20  21
ATOM     21  C   UNL     1      -2.839 -26.079  10.256  1.00  0.00     0.053 C 
BRANCH  21  22
ATOM     22  C   UNL     1      -4.256 -25.623  10.424  1.00  0.00     0.041 C 
ATOM     23  O   UNL     1      -5.207 -26.375  10.084  1.00  0.00    -0.550 OA
ATOM     24  O   UNL     1      -4.524 -24.360  10.937  1.00  0.00    -0.550 OA
ENDBRANCH  21  22
ENDBRANCH  20  21
ENDBRANCH  19  20
ENDBRANCH  18  19
ENDBRANCH  17  18
ENDBRANCH  16  17
ENDBRANCH  15  16
ENDBRANCH  14  15
ENDBRANCH  13  14
ENDBRANCH   1  13
TORSDOF 20
ENDMDL
