MODEL 1
REMARK VINA RESULT:    -3.574      0.000      0.000
REMARK INTER + INTRA:          -4.255
REMARK INTER:                  -4.200
REMARK INTRA:                  -0.054
REMARK UNBOUND:                -0.054
REMARK SMILES CCCCC(=O)[O-]
REMARK SMILES IDX 4 1 5 2 6 3 7 4 3 5 2 6 1 7
REMARK H PARENT
REMARK Flexibility Score: inf
ROOT
ATOM      1  C   UNL     1      -4.354  35.448  21.358  1.00  0.00     0.053 C 
ENDROOT
BRANCH   1   2
ATOM      2  C   UNL     1      -5.060  35.841  20.097  1.00  0.00     0.041 C 
ATOM      3  O   UNL     1      -5.725  34.989  19.452  1.00  0.00    -0.550 OA
ATOM      4  O   UNL     1      -4.955  37.140  19.617  1.00  0.00    -0.550 OA
ENDBRANCH   1   2
BRANCH   1   5
ATOM      5  C   UNL     1      -5.334  35.237  22.524  1.00  0.00     0.006 C 
BRANCH   5   6
ATOM      6  C   UNL     1      -5.694  36.526  23.284  1.00  0.00    -0.003 C 
ATOM      7  C   UNL     1      -5.682  36.344  24.802  1.00  0.00     0.004 C 
ENDBRANCH   5   6
ENDBRANCH   1   5
TORSDOF 3
ENDMDL
MODEL 2
REMARK VINA RESULT:    -3.551      1.308      1.802
REMARK INTER + INTRA:          -4.228
REMARK INTER:                  -4.132
REMARK INTRA:                  -0.096
REMARK UNBOUND:                -0.054
REMARK SMILES CCCCC(=O)[O-]
REMARK SMILES IDX 4 1 5 2 6 3 7 4 3 5 2 6 1 7
REMARK H PARENT
REMARK Flexibility Score: inf
ROOT
ATOM      1  C   UNL     1      -4.809  35.705  21.472  1.00  0.00     0.053 C 
ENDROOT
BRANCH   1   2
ATOM      2  C   UNL     1      -4.961  37.103  20.956  1.00  0.00     0.041 C 
ATOM      3  O   UNL     1      -5.115  38.062  21.759  1.00  0.00    -0.550 OA
ATOM      4  O   UNL     1      -4.965  37.343  19.588  1.00  0.00    -0.550 OA
ENDBRANCH   1   2
BRANCH   1   5
ATOM      5  C   UNL     1      -6.107  35.184  22.110  1.00  0.00     0.006 C 
BRANCH   5   6
ATOM      6  C   UNL     1      -5.929  34.627  23.533  1.00  0.00    -0.003 C 
ATOM      7  C   UNL     1      -5.721  35.724  24.578  1.00  0.00     0.004 C 
ENDBRANCH   5   6
ENDBRANCH   1   5
TORSDOF 3
ENDMDL
MODEL 3
REMARK VINA RESULT:    -3.381      2.781      3.785
REMARK INTER + INTRA:          -4.028
REMARK INTER:                  -4.000
REMARK INTRA:                  -0.027
REMARK UNBOUND:                -0.054
REMARK SMILES CCCCC(=O)[O-]
REMARK SMILES IDX 4 1 5 2 6 3 7 4 3 5 2 6 1 7
REMARK H PARENT
REMARK Flexibility Score: inf
ROOT
ATOM      1  C   UNL     1      -5.993  35.371  22.152  1.00  0.00     0.053 C 
ENDROOT
BRANCH   1   2
ATOM      2  C   UNL     1      -5.844  35.033  23.604  1.00  0.00     0.041 C 
ATOM      3  O   UNL     1      -6.125  33.877  24.018  1.00  0.00    -0.550 OA
ATOM      4  O   UNL     1      -5.426  36.004  24.504  1.00  0.00    -0.550 OA
ENDBRANCH   1   2
BRANCH   1   5
ATOM      5  C   UNL     1      -4.637  35.406  21.428  1.00  0.00     0.006 C 
BRANCH   5   6
ATOM      6  C   UNL     1      -4.656  36.174  20.094  1.00  0.00    -0.003 C 
ATOM      7  C   UNL     1      -5.210  37.592  20.234  1.00  0.00     0.004 C 
ENDBRANCH   5   6
ENDBRANCH   1   5
TORSDOF 3
ENDMDL
MODEL 4
REMARK VINA RESULT:    -3.360      2.719      3.994
REMARK INTER + INTRA:          -4.004
REMARK INTER:                  -3.904
REMARK INTRA:                  -0.100
REMARK UNBOUND:                -0.054
REMARK SMILES CCCCC(=O)[O-]
REMARK SMILES IDX 4 1 5 2 6 3 7 4 3 5 2 6 1 7
REMARK H PARENT
REMARK Flexibility Score: inf
ROOT
ATOM      1  C   UNL     1      -5.909  35.351  22.764  1.00  0.00     0.053 C 
ENDROOT
BRANCH   1   2
ATOM      2  C   UNL     1      -5.748  36.393  23.828  1.00  0.00     0.041 C 
ATOM      3  O   UNL     1      -5.436  37.573  23.518  1.00  0.00    -0.550 OA
ATOM      4  O   UNL     1      -5.909  36.052  25.165  1.00  0.00    -0.550 OA
ENDBRANCH   1   2
BRANCH   1   5
ATOM      5  C   UNL     1      -4.836  35.477  21.670  1.00  0.00     0.006 C 
BRANCH   5   6
ATOM      6  C   UNL     1      -5.396  35.814  20.277  1.00  0.00    -0.003 C 
ATOM      7  C   UNL     1      -5.092  37.250  19.846  1.00  0.00     0.004 C 
ENDBRANCH   5   6
ENDBRANCH   1   5
TORSDOF 3
ENDMDL
MODEL 5
REMARK VINA RESULT:    -3.171      1.302      1.663
REMARK INTER + INTRA:          -3.781
REMARK INTER:                  -3.676
REMARK INTRA:                  -0.105
REMARK UNBOUND:                -0.054
REMARK SMILES CCCCC(=O)[O-]
REMARK SMILES IDX 4 1 5 2 6 3 7 4 3 5 2 6 1 7
REMARK H PARENT
REMARK Flexibility Score: inf
ROOT
ATOM      1  C   UNL     1      -6.019  35.231  21.345  1.00  0.00     0.053 C 
ENDROOT
BRANCH   1   2
ATOM      2  C   UNL     1      -5.613  35.206  19.903  1.00  0.00     0.041 C 
ATOM      3  O   UNL     1      -6.125  34.368  19.115  1.00  0.00    -0.550 OA
ATOM      4  O   UNL     1      -4.645  36.087  19.438  1.00  0.00    -0.550 OA
ENDBRANCH   1   2
BRANCH   1   5
ATOM      5  C   UNL     1      -4.992  35.970  22.218  1.00  0.00     0.006 C 
BRANCH   5   6
ATOM      6  C   UNL     1      -5.519  37.277  22.837  1.00  0.00    -0.003 C 
ATOM      7  C   UNL     1      -4.983  38.525  22.135  1.00  0.00     0.004 C 
ENDBRANCH   5   6
ENDBRANCH   1   5
TORSDOF 3
ENDMDL
MODEL 6
REMARK VINA RESULT:    -3.137      2.477      3.861
REMARK INTER + INTRA:          -3.741
REMARK INTER:                  -3.701
REMARK INTRA:                  -0.040
REMARK UNBOUND:                -0.054
REMARK SMILES CCCCC(=O)[O-]
REMARK SMILES IDX 4 1 5 2 6 3 7 4 3 5 2 6 1 7
REMARK H PARENT
REMARK Flexibility Score: inf
ROOT
ATOM      1  C   UNL     1      -5.540  35.281  22.538  1.00  0.00     0.053 C 
ENDROOT
BRANCH   1   2
ATOM      2  C   UNL     1      -5.478  36.405  23.526  1.00  0.00     0.041 C 
ATOM      3  O   UNL     1      -5.517  36.165  24.762  1.00  0.00    -0.550 OA
ATOM      4  O   UNL     1      -5.411  37.719  23.081  1.00  0.00    -0.550 OA
ENDBRANCH   1   2
BRANCH   1   5
ATOM      5  C   UNL     1      -4.585  35.503  21.354  1.00  0.00     0.006 C 
BRANCH   5   6
ATOM      6  C   UNL     1      -5.283  35.950  20.058  1.00  0.00    -0.003 C 
ATOM      7  C   UNL     1      -5.698  34.775  19.171  1.00  0.00     0.004 C 
ENDBRANCH   5   6
ENDBRANCH   1   5
TORSDOF 3
ENDMDL
MODEL 7
REMARK VINA RESULT:    -3.124      1.328      1.700
REMARK INTER + INTRA:          -3.726
REMARK INTER:                  -3.704
REMARK INTRA:                  -0.022
REMARK UNBOUND:                -0.054
REMARK SMILES CCCCC(=O)[O-]
REMARK SMILES IDX 4 1 5 2 6 3 7 4 3 5 2 6 1 7
REMARK H PARENT
REMARK Flexibility Score: inf
ROOT
ATOM      1  C   UNL     1      -4.784  36.439  22.058  1.00  0.00     0.053 C 
ENDROOT
BRANCH   1   2
ATOM      2  C   UNL     1      -5.204  37.026  20.746  1.00  0.00     0.041 C 
ATOM      3  O   UNL     1      -5.122  36.343  19.690  1.00  0.00    -0.550 OA
ATOM      4  O   UNL     1      -5.654  38.338  20.683  1.00  0.00    -0.550 OA
ENDBRANCH   1   2
BRANCH   1   5
ATOM      5  C   UNL     1      -5.936  36.425  23.076  1.00  0.00     0.006 C 
BRANCH   5   6
ATOM      6  C   UNL     1      -5.789  35.359  24.177  1.00  0.00    -0.003 C 
ATOM      7  C   UNL     1      -6.125  33.950  23.687  1.00  0.00     0.004 C 
ENDBRANCH   5   6
ENDBRANCH   1   5
TORSDOF 3
ENDMDL
MODEL 8
REMARK VINA RESULT:    -3.041      3.050      4.102
REMARK INTER + INTRA:          -3.628
REMARK INTER:                  -3.602
REMARK INTRA:                  -0.027
REMARK UNBOUND:                -0.054
REMARK SMILES CCCCC(=O)[O-]
REMARK SMILES IDX 4 1 5 2 6 3 7 4 3 5 2 6 1 7
REMARK H PARENT
REMARK Flexibility Score: inf
ROOT
ATOM      1  C   UNL     1      -5.358  37.775  22.074  1.00  0.00     0.053 C 
ENDROOT
BRANCH   1   2
ATOM      2  C   UNL     1      -5.317  39.164  22.635  1.00  0.00     0.041 C 
ATOM      3  O   UNL     1      -4.933  39.358  23.818  1.00  0.00    -0.550 OA
ATOM      4  O   UNL     1      -5.733  40.239  21.860  1.00  0.00    -0.550 OA
ENDBRANCH   1   2
BRANCH   1   5
ATOM      5  C   UNL     1      -5.022  37.751  20.574  1.00  0.00     0.006 C 
BRANCH   5   6
ATOM      6  C   UNL     1      -4.918  36.337  19.976  1.00  0.00    -0.003 C 
ATOM      7  C   UNL     1      -4.372  35.310  20.969  1.00  0.00     0.004 C 
ENDBRANCH   5   6
ENDBRANCH   1   5
TORSDOF 3
ENDMDL
MODEL 9
REMARK VINA RESULT:    -2.970      3.142      3.809
REMARK INTER + INTRA:          -3.545
REMARK INTER:                  -3.504
REMARK INTRA:                  -0.041
REMARK UNBOUND:                -0.054
REMARK SMILES CCCCC(=O)[O-]
REMARK SMILES IDX 4 1 5 2 6 3 7 4 3 5 2 6 1 7
REMARK H PARENT
REMARK Flexibility Score: inf
ROOT
ATOM      1  C   UNL     1      -5.085  35.580  22.435  1.00  0.00     0.053 C 
ENDROOT
BRANCH   1   2
ATOM      2  C   UNL     1      -5.543  35.094  23.775  1.00  0.00     0.041 C 
ATOM      3  O   UNL     1      -5.377  35.808  24.799  1.00  0.00    -0.550 OA
ATOM      4  O   UNL     1      -6.125  33.839  23.898  1.00  0.00    -0.550 OA
ENDBRANCH   1   2
BRANCH   1   5
ATOM      5  C   UNL     1      -5.748  36.912  22.048  1.00  0.00     0.006 C 
BRANCH   5   6
ATOM      6  C   UNL     1      -4.754  38.018  21.653  1.00  0.00    -0.003 C 
ATOM      7  C   UNL     1      -5.170  39.400  22.161  1.00  0.00     0.004 C 
ENDBRANCH   5   6
ENDBRANCH   1   5
TORSDOF 3
ENDMDL
