MODEL 1
REMARK VINA RESULT:    -6.972      0.000      0.000
REMARK INTER + INTRA:         -11.236
REMARK INTER:                  -9.826
REMARK INTRA:                  -1.411
REMARK UNBOUND:                -1.411
REMARK SMILES COc1c(O[C@H]2O[C@@H](C(=O)[O-])[C@H](O)[C@@H](O)[C@@H]2O)cc(O)c2c(=O)cc(-c3ccccc3)oc12
REMARK SMILES IDX 5 1 6 2 8 3 12 4 7 5 14 6 16 7 9 8 10 9 11 10 13 11 15 13
REMARK SMILES IDX 17 15 4 17 3 18 18 19 33 20 19 21 21 22 32 23 22 24 25 25
REMARK SMILES IDX 24 26 23 27 2 28 1 29 20 30 26 32 27 33 31 34 28 35 30 36
REMARK SMILES IDX 29 37
REMARK H PARENT 13 12 15 14 17 16 20 31
REMARK Flexibility Score: inf
ROOT
ATOM      1  O   UNL     1       5.473   0.777  -7.054  1.00  0.00    -0.458 OA
ENDROOT
BRANCH   1   2
ATOM      2  C   UNL     1       4.805  -0.202  -7.862  1.00  0.00     0.339 C 
ATOM      3  C   UNL     1       5.588  -1.939  -6.443  1.00  0.00     0.199 C 
ATOM      4  C   UNL     1       4.365  -1.606  -5.535  1.00  0.00     0.180 C 
ATOM      5  O   UNL     1       5.478  -1.446  -7.777  1.00  0.00    -0.328 OA
ATOM      6  C   UNL     1       3.110  -1.476  -6.407  1.00  0.00     0.181 C 
ATOM      7  C   UNL     1       3.313  -0.352  -7.447  1.00  0.00     0.214 C 
BRANCH   3   8
ATOM      8  C   UNL     1       6.911  -1.523  -5.849  1.00  0.00     0.073 C 
ATOM      9  O   UNL     1       7.002  -1.349  -4.605  1.00  0.00    -0.547 OA
ATOM     10  O   UNL     1       8.032  -1.317  -6.646  1.00  0.00    -0.547 OA
ENDBRANCH   3   8
BRANCH   4  11
ATOM     11  O   UNL     1       4.172  -2.618  -4.581  1.00  0.00    -0.387 OA
ATOM     12  H   UNL     1       4.021  -2.168  -3.709  1.00  0.00     0.211 HD
ENDBRANCH   4  11
BRANCH   6  13
ATOM     13  O   UNL     1       1.994  -1.174  -5.609  1.00  0.00    -0.387 OA
ATOM     14  H   UNL     1       1.361  -0.657  -6.173  1.00  0.00     0.211 HD
ENDBRANCH   6  13
BRANCH   7  15
ATOM     15  O   UNL     1       2.495  -0.573  -8.570  1.00  0.00    -0.384 OA
ATOM     16  H   UNL     1       3.001  -0.285  -9.379  1.00  0.00     0.211 HD
ENDBRANCH   7  15
ENDBRANCH   1   2
BRANCH   1  17
ATOM     17  C   UNL     1       5.303   2.170  -7.138  1.00  0.00     0.172 A 
ATOM     18  C   UNL     1       5.706   2.947  -6.043  1.00  0.00     0.205 A 
ATOM     19  C   UNL     1       4.744   2.787  -8.269  1.00  0.00     0.097 A 
ATOM     20  C   UNL     1       5.551   4.355  -6.087  1.00  0.00     0.188 A 
ATOM     21  C   UNL     1       4.584   4.174  -8.326  1.00  0.00     0.134 A 
ATOM     22  C   UNL     1       4.987   4.972  -7.234  1.00  0.00     0.111 A 
ATOM     23  O   UNL     1       5.938   5.105  -5.057  1.00  0.00    -0.452 OA
ATOM     24  C   UNL     1       4.852   6.376  -7.230  1.00  0.00     0.197 A 
ATOM     25  C   UNL     1       5.838   6.432  -5.031  1.00  0.00     0.138 A 
ATOM     26  C   UNL     1       5.282   7.106  -6.125  1.00  0.00     0.100 A 
ATOM     27  O   UNL     1       4.346   6.993  -8.209  1.00  0.00    -0.289 OA
BRANCH  18  28
ATOM     28  O   UNL     1       6.244   2.253  -4.941  1.00  0.00    -0.490 OA
ATOM     29  C   UNL     1       7.624   2.094  -4.631  1.00  0.00     0.278 C 
ENDBRANCH  18  28
BRANCH  21  30
ATOM     30  O   UNL     1       4.028   4.748  -9.470  1.00  0.00    -0.507 OA
ATOM     31  H   UNL     1       3.993   4.253 -10.354  1.00  0.00     0.293 HD
ENDBRANCH  21  30
BRANCH  25  32
ATOM     32  C   UNL     1       6.311   7.165  -3.833  1.00  0.00     0.017 A 
ATOM     33  C   UNL     1       7.517   7.894  -3.848  1.00  0.00     0.012 A 
ATOM     34  C   UNL     1       5.557   7.119  -2.646  1.00  0.00     0.012 A 
ATOM     35  C   UNL     1       7.946   8.573  -2.704  1.00  0.00     0.001 A 
ATOM     36  C   UNL     1       5.992   7.799  -1.505  1.00  0.00     0.001 A 
ATOM     37  C   UNL     1       7.184   8.526  -1.533  1.00  0.00     0.000 A 
ENDBRANCH  25  32
ENDBRANCH   1  17
TORSDOF 9
ENDMDL
MODEL 2
REMARK VINA RESULT:    -6.943      6.257      9.853
REMARK INTER + INTRA:         -11.195
REMARK INTER:                  -9.935
REMARK INTRA:                  -1.260
REMARK UNBOUND:                -1.411
REMARK SMILES COc1c(O[C@H]2O[C@@H](C(=O)[O-])[C@H](O)[C@@H](O)[C@@H]2O)cc(O)c2c(=O)cc(-c3ccccc3)oc12
REMARK SMILES IDX 5 1 6 2 8 3 12 4 7 5 14 6 16 7 9 8 10 9 11 10 13 11 15 13
REMARK SMILES IDX 17 15 4 17 3 18 18 19 33 20 19 21 21 22 32 23 22 24 25 25
REMARK SMILES IDX 24 26 23 27 2 28 1 29 20 30 26 32 27 33 31 34 28 35 30 36
REMARK SMILES IDX 29 37
REMARK H PARENT 13 12 15 14 17 16 20 31
REMARK Flexibility Score: inf
ROOT
ATOM      1  O   UNL     1       6.554  -5.699  -2.062  1.00  0.00    -0.458 OA
ENDROOT
BRANCH   1   2
ATOM      2  C   UNL     1       6.869  -6.787  -1.182  1.00  0.00     0.339 C 
ATOM      3  C   UNL     1       8.740  -5.591  -0.337  1.00  0.00     0.199 C 
ATOM      4  C   UNL     1       7.726  -4.889   0.618  1.00  0.00     0.180 C 
ATOM      5  O   UNL     1       8.259  -6.807  -0.908  1.00  0.00    -0.328 OA
ATOM      6  C   UNL     1       6.810  -5.945   1.247  1.00  0.00     0.181 C 
ATOM      7  C   UNL     1       6.047  -6.701   0.137  1.00  0.00     0.214 C 
BRANCH   3   8
ATOM      8  C   UNL     1       9.270  -4.688  -1.423  1.00  0.00     0.073 C 
ATOM      9  O   UNL     1       8.939  -3.473  -1.432  1.00  0.00    -0.547 OA
ATOM     10  O   UNL     1      10.112  -5.169  -2.421  1.00  0.00    -0.547 OA
ENDBRANCH   3   8
BRANCH   4  11
ATOM     11  O   UNL     1       8.407  -4.194   1.630  1.00  0.00    -0.387 OA
ATOM     12  H   UNL     1       9.186  -4.750   1.891  1.00  0.00     0.211 HD
ENDBRANCH   4  11
BRANCH   6  13
ATOM     13  O   UNL     1       5.887  -5.335   2.112  1.00  0.00    -0.387 OA
ATOM     14  H   UNL     1       5.000  -5.742   1.929  1.00  0.00     0.211 HD
ENDBRANCH   6  13
BRANCH   7  15
ATOM     15  O   UNL     1       5.674  -7.982   0.585  1.00  0.00    -0.384 OA
ATOM     16  H   UNL     1       5.490  -7.923   1.563  1.00  0.00     0.211 HD
ENDBRANCH   7  15
ENDBRANCH   1   2
BRANCH   1  17
ATOM     17  C   UNL     1       5.679  -5.755  -3.161  1.00  0.00     0.172 A 
ATOM     18  C   UNL     1       5.442  -4.570  -3.871  1.00  0.00     0.205 A 
ATOM     19  C   UNL     1       5.045  -6.945  -3.552  1.00  0.00     0.097 A 
ATOM     20  C   UNL     1       4.566  -4.581  -4.985  1.00  0.00     0.188 A 
ATOM     21  C   UNL     1       4.177  -6.973  -4.646  1.00  0.00     0.134 A 
ATOM     22  C   UNL     1       3.930  -5.789  -5.374  1.00  0.00     0.111 A 
ATOM     23  O   UNL     1       4.340  -3.465  -5.674  1.00  0.00    -0.452 OA
ATOM     24  C   UNL     1       3.066  -5.751  -6.488  1.00  0.00     0.197 A 
ATOM     25  C   UNL     1       3.542  -3.401  -6.738  1.00  0.00     0.138 A 
ATOM     26  C   UNL     1       2.875  -4.553  -7.171  1.00  0.00     0.100 A 
ATOM     27  O   UNL     1       2.454  -6.782  -6.885  1.00  0.00    -0.289 OA
BRANCH  18  28
ATOM     28  O   UNL     1       6.104  -3.414  -3.409  1.00  0.00    -0.490 OA
ATOM     29  C   UNL     1       7.048  -2.632  -4.132  1.00  0.00     0.278 C 
ENDBRANCH  18  28
BRANCH  21  30
ATOM     30  O   UNL     1       3.571  -8.177  -5.004  1.00  0.00    -0.507 OA
ATOM     31  H   UNL     1       3.897  -8.728  -5.789  1.00  0.00     0.293 HD
ENDBRANCH  21  30
BRANCH  25  32
ATOM     32  C   UNL     1       3.372  -2.103  -7.432  1.00  0.00     0.017 A 
ATOM     33  C   UNL     1       2.872  -0.972  -6.757  1.00  0.00     0.012 A 
ATOM     34  C   UNL     1       3.693  -1.996  -8.797  1.00  0.00     0.012 A 
ATOM     35  C   UNL     1       2.715   0.242  -7.433  1.00  0.00     0.001 A 
ATOM     36  C   UNL     1       3.533  -0.780  -9.468  1.00  0.00     0.001 A 
ATOM     37  C   UNL     1       3.045   0.337  -8.788  1.00  0.00     0.000 A 
ENDBRANCH  25  32
ENDBRANCH   1  17
TORSDOF 9
ENDMDL
MODEL 3
REMARK VINA RESULT:    -6.619      4.376      9.749
REMARK INTER + INTRA:         -10.738
REMARK INTER:                  -9.512
REMARK INTRA:                  -1.226
REMARK UNBOUND:                -1.411
REMARK SMILES COc1c(O[C@H]2O[C@@H](C(=O)[O-])[C@H](O)[C@@H](O)[C@@H]2O)cc(O)c2c(=O)cc(-c3ccccc3)oc12
REMARK SMILES IDX 5 1 6 2 8 3 12 4 7 5 14 6 16 7 9 8 10 9 11 10 13 11 15 13
REMARK SMILES IDX 17 15 4 17 3 18 18 19 33 20 19 21 21 22 32 23 22 24 25 25
REMARK SMILES IDX 24 26 23 27 2 28 1 29 20 30 26 32 27 33 31 34 28 35 30 36
REMARK SMILES IDX 29 37
REMARK H PARENT 13 12 15 14 17 16 20 31
REMARK Flexibility Score: inf
ROOT
ATOM      1  O   UNL     1       5.526  -1.340  -5.698  1.00  0.00    -0.458 OA
ENDROOT
BRANCH   1   2
ATOM      2  C   UNL     1       4.331  -0.643  -5.320  1.00  0.00     0.339 C 
ATOM      3  C   UNL     1       5.052   1.283  -6.510  1.00  0.00     0.199 C 
ATOM      4  C   UNL     1       4.454   0.595  -7.776  1.00  0.00     0.180 C 
ATOM      5  O   UNL     1       4.573   0.753  -5.276  1.00  0.00    -0.328 OA
ATOM      6  C   UNL     1       3.059   0.053  -7.445  1.00  0.00     0.181 C 
ATOM      7  C   UNL     1       3.158  -0.968  -6.291  1.00  0.00     0.214 C 
BRANCH   3   8
ATOM      8  C   UNL     1       6.560   1.323  -6.502  1.00  0.00     0.073 C 
ATOM      9  O   UNL     1       7.194   0.946  -7.523  1.00  0.00    -0.547 OA
ATOM     10  O   UNL     1       7.269   1.759  -5.387  1.00  0.00    -0.547 OA
ENDBRANCH   3   8
BRANCH   4  11
ATOM     11  O   UNL     1       4.363   1.512  -8.836  1.00  0.00    -0.387 OA
ATOM     12  H   UNL     1       4.050   1.007  -9.630  1.00  0.00     0.211 HD
ENDBRANCH   4  11
BRANCH   6  13
ATOM     13  O   UNL     1       2.500  -0.571  -8.572  1.00  0.00    -0.387 OA
ATOM     14  H   UNL     1       2.265   0.145  -9.218  1.00  0.00     0.211 HD
ENDBRANCH   6  13
BRANCH   7  15
ATOM     15  O   UNL     1       1.935  -1.043  -5.598  1.00  0.00    -0.384 OA
ATOM     16  H   UNL     1       1.205  -0.820  -6.240  1.00  0.00     0.211 HD
ENDBRANCH   7  15
ENDBRANCH   1   2
BRANCH   1  17
ATOM     17  C   UNL     1       6.355  -2.080  -4.836  1.00  0.00     0.172 A 
ATOM     18  C   UNL     1       5.826  -3.240  -4.255  1.00  0.00     0.205 A 
ATOM     19  C   UNL     1       7.671  -1.687  -4.547  1.00  0.00     0.097 A 
ATOM     20  C   UNL     1       6.627  -4.015  -3.380  1.00  0.00     0.188 A 
ATOM     21  C   UNL     1       8.473  -2.439  -3.686  1.00  0.00     0.134 A 
ATOM     22  C   UNL     1       7.958  -3.612  -3.093  1.00  0.00     0.111 A 
ATOM     23  O   UNL     1       6.140  -5.124  -2.827  1.00  0.00    -0.452 OA
ATOM     24  C   UNL     1       8.717  -4.414  -2.216  1.00  0.00     0.197 A 
ATOM     25  C   UNL     1       6.837  -5.910  -2.009  1.00  0.00     0.138 A 
ATOM     26  C   UNL     1       8.153  -5.567  -1.675  1.00  0.00     0.100 A 
ATOM     27  O   UNL     1       9.902  -4.112  -1.903  1.00  0.00    -0.289 OA
BRANCH  18  28
ATOM     28  O   UNL     1       4.493  -3.560  -4.583  1.00  0.00    -0.490 OA
ATOM     29  C   UNL     1       4.063  -4.520  -5.541  1.00  0.00     0.278 C 
ENDBRANCH  18  28
BRANCH  21  30
ATOM     30  O   UNL     1       9.778  -2.016  -3.428  1.00  0.00    -0.507 OA
ATOM     31  H   UNL     1      10.582  -2.584  -3.670  1.00  0.00     0.293 HD
ENDBRANCH  21  30
BRANCH  25  32
ATOM     32  C   UNL     1       6.193  -7.126  -1.460  1.00  0.00     0.017 A 
ATOM     33  C   UNL     1       5.573  -8.071  -2.302  1.00  0.00     0.012 A 
ATOM     34  C   UNL     1       6.177  -7.338  -0.069  1.00  0.00     0.012 A 
ATOM     35  C   UNL     1       4.967  -9.208  -1.762  1.00  0.00     0.001 A 
ATOM     36  C   UNL     1       5.568  -8.477   0.465  1.00  0.00     0.001 A 
ATOM     37  C   UNL     1       4.965  -9.412  -0.379  1.00  0.00     0.000 A 
ENDBRANCH  25  32
ENDBRANCH   1  17
TORSDOF 9
ENDMDL
MODEL 4
REMARK VINA RESULT:    -6.429      4.971      9.840
REMARK INTER + INTRA:         -10.471
REMARK INTER:                  -9.011
REMARK INTRA:                  -1.460
REMARK UNBOUND:                -1.411
REMARK SMILES COc1c(O[C@H]2O[C@@H](C(=O)[O-])[C@H](O)[C@@H](O)[C@@H]2O)cc(O)c2c(=O)cc(-c3ccccc3)oc12
REMARK SMILES IDX 5 1 6 2 8 3 12 4 7 5 14 6 16 7 9 8 10 9 11 10 13 11 15 13
REMARK SMILES IDX 17 15 4 17 3 18 18 19 33 20 19 21 21 22 32 23 22 24 25 25
REMARK SMILES IDX 24 26 23 27 2 28 1 29 20 30 26 32 27 33 31 34 28 35 30 36
REMARK SMILES IDX 29 37
REMARK H PARENT 13 12 15 14 17 16 20 31
REMARK Flexibility Score: inf
ROOT
ATOM      1  O   UNL     1       5.036  -1.741  -5.790  1.00  0.00    -0.458 OA
ENDROOT
BRANCH   1   2
ATOM      2  C   UNL     1       5.248  -0.453  -6.385  1.00  0.00     0.339 C 
ATOM      3  C   UNL     1       4.950  -1.381  -8.552  1.00  0.00     0.199 C 
ATOM      4  C   UNL     1       3.421  -1.203  -8.303  1.00  0.00     0.180 C 
ATOM      5  O   UNL     1       5.777  -0.600  -7.691  1.00  0.00    -0.328 OA
ATOM      6  C   UNL     1       3.161   0.199  -7.739  1.00  0.00     0.181 C 
ATOM      7  C   UNL     1       3.932   0.378  -6.413  1.00  0.00     0.214 C 
BRANCH   3   8
ATOM      8  C   UNL     1       5.401  -2.821  -8.531  1.00  0.00     0.073 C 
ATOM      9  O   UNL     1       4.541  -3.738  -8.598  1.00  0.00    -0.547 OA
ATOM     10  O   UNL     1       6.746  -3.159  -8.428  1.00  0.00    -0.547 OA
ENDBRANCH   3   8
BRANCH   4  11
ATOM     11  O   UNL     1       2.706  -1.368  -9.501  1.00  0.00    -0.387 OA
ATOM     12  H   UNL     1       2.482  -2.332  -9.574  1.00  0.00     0.211 HD
ENDBRANCH   4  11
BRANCH   6  13
ATOM     13  O   UNL     1       1.788   0.382  -7.507  1.00  0.00    -0.387 OA
ATOM     14  H   UNL     1       1.345  -0.493  -7.663  1.00  0.00     0.211 HD
ENDBRANCH   6  13
BRANCH   7  15
ATOM     15  O   UNL     1       4.190   1.742  -6.178  1.00  0.00    -0.384 OA
ATOM     16  H   UNL     1       3.890   2.253  -6.980  1.00  0.00     0.211 HD
ENDBRANCH   7  15
ENDBRANCH   1   2
BRANCH   1  17
ATOM     17  C   UNL     1       5.904  -2.387  -4.893  1.00  0.00     0.172 A 
ATOM     18  C   UNL     1       5.458  -3.568  -4.285  1.00  0.00     0.205 A 
ATOM     19  C   UNL     1       7.179  -1.882  -4.593  1.00  0.00     0.097 A 
ATOM     20  C   UNL     1       6.301  -4.251  -3.374  1.00  0.00     0.188 A 
ATOM     21  C   UNL     1       8.022  -2.542  -3.695  1.00  0.00     0.134 A 
ATOM     22  C   UNL     1       7.590  -3.736  -3.077  1.00  0.00     0.111 A 
ATOM     23  O   UNL     1       5.893  -5.380  -2.797  1.00  0.00    -0.452 OA
ATOM     24  C   UNL     1       8.393  -4.449  -2.163  1.00  0.00     0.197 A 
ATOM     25  C   UNL     1       6.634  -6.083  -1.943  1.00  0.00     0.138 A 
ATOM     26  C   UNL     1       7.912  -5.627  -1.598  1.00  0.00     0.100 A 
ATOM     27  O   UNL     1       9.544  -4.044  -1.839  1.00  0.00    -0.289 OA
BRANCH  18  28
ATOM     28  O   UNL     1       4.161  -4.003  -4.627  1.00  0.00    -0.490 OA
ATOM     29  C   UNL     1       3.829  -5.123  -5.440  1.00  0.00     0.278 C 
ENDBRANCH  18  28
BRANCH  21  30
ATOM     30  O   UNL     1       9.283  -2.009  -3.428  1.00  0.00    -0.507 OA
ATOM     31  H   UNL     1       9.868  -2.367  -2.682  1.00  0.00     0.293 HD
ENDBRANCH  21  30
BRANCH  25  32
ATOM     32  C   UNL     1       6.079  -7.331  -1.370  1.00  0.00     0.017 A 
ATOM     33  C   UNL     1       5.481  -8.311  -2.187  1.00  0.00     0.012 A 
ATOM     34  C   UNL     1       6.125  -7.539   0.021  1.00  0.00     0.012 A 
ATOM     35  C   UNL     1       4.959  -9.479  -1.623  1.00  0.00     0.001 A 
ATOM     36  C   UNL     1       5.600  -8.708   0.579  1.00  0.00     0.001 A 
ATOM     37  C   UNL     1       5.018  -9.677  -0.241  1.00  0.00     0.000 A 
ENDBRANCH  25  32
ENDBRANCH   1  17
TORSDOF 9
ENDMDL
MODEL 5
REMARK VINA RESULT:    -6.408      2.143      8.009
REMARK INTER + INTRA:         -10.441
REMARK INTER:                  -8.928
REMARK INTRA:                  -1.513
REMARK UNBOUND:                -1.411
REMARK SMILES COc1c(O[C@H]2O[C@@H](C(=O)[O-])[C@H](O)[C@@H](O)[C@@H]2O)cc(O)c2c(=O)cc(-c3ccccc3)oc12
REMARK SMILES IDX 5 1 6 2 8 3 12 4 7 5 14 6 16 7 9 8 10 9 11 10 13 11 15 13
REMARK SMILES IDX 17 15 4 17 3 18 18 19 33 20 19 21 21 22 32 23 22 24 25 25
REMARK SMILES IDX 24 26 23 27 2 28 1 29 20 30 26 32 27 33 31 34 28 35 30 36
REMARK SMILES IDX 29 37
REMARK H PARENT 13 12 15 14 17 16 20 31
REMARK Flexibility Score: inf
ROOT
ATOM      1  O   UNL     1       5.509   6.274  -6.578  1.00  0.00    -0.458 OA
ENDROOT
BRANCH   1   2
ATOM      2  C   UNL     1       4.972   7.604  -6.586  1.00  0.00     0.339 C 
ATOM      3  C   UNL     1       6.394   8.213  -4.784  1.00  0.00     0.199 C 
ATOM      4  C   UNL     1       7.486   8.465  -5.869  1.00  0.00     0.180 C 
ATOM      5  O   UNL     1       5.062   8.175  -5.292  1.00  0.00    -0.328 OA
ATOM      6  C   UNL     1       6.877   9.276  -7.020  1.00  0.00     0.181 C 
ATOM      7  C   UNL     1       5.694   8.497  -7.636  1.00  0.00     0.214 C 
BRANCH   3   8
ATOM      8  C   UNL     1       6.657   6.993  -3.937  1.00  0.00     0.073 C 
ATOM      9  O   UNL     1       7.819   6.510  -3.893  1.00  0.00    -0.547 OA
ATOM     10  O   UNL     1       5.641   6.382  -3.210  1.00  0.00    -0.547 OA
ENDBRANCH   3   8
BRANCH   4  11
ATOM     11  O   UNL     1       8.571   9.169  -5.321  1.00  0.00    -0.387 OA
ATOM     12  H   UNL     1       9.256   9.247  -6.035  1.00  0.00     0.211 HD
ENDBRANCH   4  11
BRANCH   6  13
ATOM     13  O   UNL     1       7.843   9.514  -8.011  1.00  0.00    -0.387 OA
ATOM     14  H   UNL     1       7.586   8.978  -8.806  1.00  0.00     0.211 HD
ENDBRANCH   6  13
BRANCH   7  15
ATOM     15  O   UNL     1       4.792   9.385  -8.251  1.00  0.00    -0.384 OA
ATOM     16  H   UNL     1       3.915   8.920  -8.336  1.00  0.00     0.211 HD
ENDBRANCH   7  15
ENDBRANCH   1   2
BRANCH   1  17
ATOM     17  C   UNL     1       4.814   5.102  -6.927  1.00  0.00     0.172 A 
ATOM     18  C   UNL     1       5.229   3.897  -6.346  1.00  0.00     0.205 A 
ATOM     19  C   UNL     1       3.740   5.112  -7.831  1.00  0.00     0.097 A 
ATOM     20  C   UNL     1       4.557   2.692  -6.671  1.00  0.00     0.188 A 
ATOM     21  C   UNL     1       3.068   3.933  -8.163  1.00  0.00     0.134 A 
ATOM     22  C   UNL     1       3.471   2.710  -7.584  1.00  0.00     0.111 A 
ATOM     23  O   UNL     1       4.935   1.541  -6.118  1.00  0.00    -0.452 OA
ATOM     24  C   UNL     1       2.833   1.487  -7.878  1.00  0.00     0.197 A 
ATOM     25  C   UNL     1       4.344   0.374  -6.363  1.00  0.00     0.138 A 
ATOM     26  C   UNL     1       3.272   0.317  -7.262  1.00  0.00     0.100 A 
ATOM     27  O   UNL     1       1.870   1.423  -8.691  1.00  0.00    -0.289 OA
BRANCH  18  28
ATOM     28  O   UNL     1       6.324   3.967  -5.460  1.00  0.00    -0.490 OA
ATOM     29  C   UNL     1       7.663   3.569  -5.734  1.00  0.00     0.278 C 
ENDBRANCH  18  28
BRANCH  21  30
ATOM     30  O   UNL     1       2.003   3.987  -9.062  1.00  0.00    -0.507 OA
ATOM     31  H   UNL     1       1.709   3.175  -9.593  1.00  0.00     0.293 HD
ENDBRANCH  21  30
BRANCH  25  32
ATOM     32  C   UNL     1       4.846  -0.843  -5.683  1.00  0.00     0.017 A 
ATOM     33  C   UNL     1       6.086  -0.849  -5.014  1.00  0.00     0.012 A 
ATOM     34  C   UNL     1       4.086  -2.026  -5.721  1.00  0.00     0.012 A 
ATOM     35  C   UNL     1       6.543  -2.010  -4.384  1.00  0.00     0.001 A 
ATOM     36  C   UNL     1       4.548  -3.184  -5.090  1.00  0.00     0.001 A 
ATOM     37  C   UNL     1       5.775  -3.177  -4.422  1.00  0.00     0.000 A 
ENDBRANCH  25  32
ENDBRANCH   1  17
TORSDOF 9
ENDMDL
MODEL 6
REMARK VINA RESULT:    -6.377      4.718      8.334
REMARK INTER + INTRA:         -10.397
REMARK INTER:                  -8.879
REMARK INTRA:                  -1.518
REMARK UNBOUND:                -1.411
REMARK SMILES COc1c(O[C@H]2O[C@@H](C(=O)[O-])[C@H](O)[C@@H](O)[C@@H]2O)cc(O)c2c(=O)cc(-c3ccccc3)oc12
REMARK SMILES IDX 5 1 6 2 8 3 12 4 7 5 14 6 16 7 9 8 10 9 11 10 13 11 15 13
REMARK SMILES IDX 17 15 4 17 3 18 18 19 33 20 19 21 21 22 32 23 22 24 25 25
REMARK SMILES IDX 24 26 23 27 2 28 1 29 20 30 26 32 27 33 31 34 28 35 30 36
REMARK SMILES IDX 29 37
REMARK H PARENT 13 12 15 14 17 16 20 31
REMARK Flexibility Score: inf
ROOT
ATOM      1  O   UNL     1       6.765  -5.329  -2.447  1.00  0.00    -0.458 OA
ENDROOT
BRANCH   1   2
ATOM      2  C   UNL     1       7.455  -6.572  -2.637  1.00  0.00     0.339 C 
ATOM      3  C   UNL     1       7.435  -6.967  -0.295  1.00  0.00     0.199 C 
ATOM      4  C   UNL     1       5.998  -7.535  -0.509  1.00  0.00     0.180 C 
ATOM      5  O   UNL     1       8.217  -6.889  -1.485  1.00  0.00    -0.328 OA
ATOM      6  C   UNL     1       6.006  -8.485  -1.713  1.00  0.00     0.181 C 
ATOM      7  C   UNL     1       6.461  -7.722  -2.976  1.00  0.00     0.214 C 
BRANCH   3   8
ATOM      8  C   UNL     1       7.457  -5.640   0.422  1.00  0.00     0.073 C 
ATOM      9  O   UNL     1       6.449  -5.279   1.085  1.00  0.00    -0.547 OA
ATOM     10  O   UNL     1       8.564  -4.799   0.360  1.00  0.00    -0.547 OA
ENDBRANCH   3   8
BRANCH   4  11
ATOM     11  O   UNL     1       5.569  -8.229   0.634  1.00  0.00    -0.387 OA
ATOM     12  H   UNL     1       5.055  -9.017   0.319  1.00  0.00     0.211 HD
ENDBRANCH   4  11
BRANCH   6  13
ATOM     13  O   UNL     1       4.720  -9.010  -1.925  1.00  0.00    -0.387 OA
ATOM     14  H   UNL     1       4.095  -8.494  -1.352  1.00  0.00     0.211 HD
ENDBRANCH   6  13
BRANCH   7  15
ATOM     15  O   UNL     1       7.019  -8.613  -3.911  1.00  0.00    -0.384 OA
ATOM     16  H   UNL     1       6.391  -8.680  -4.683  1.00  0.00     0.211 HD
ENDBRANCH   7  15
ENDBRANCH   1   2
BRANCH   1  17
ATOM     17  C   UNL     1       7.117  -4.095  -3.022  1.00  0.00     0.172 A 
ATOM     18  C   UNL     1       6.136  -3.408  -3.750  1.00  0.00     0.205 A 
ATOM     19  C   UNL     1       8.405  -3.550  -2.892  1.00  0.00     0.097 A 
ATOM     20  C   UNL     1       6.449  -2.161  -4.347  1.00  0.00     0.188 A 
ATOM     21  C   UNL     1       8.729  -2.323  -3.476  1.00  0.00     0.134 A 
ATOM     22  C   UNL     1       7.752  -1.616  -4.209  1.00  0.00     0.111 A 
ATOM     23  O   UNL     1       5.523  -1.494  -5.033  1.00  0.00    -0.452 OA
ATOM     24  C   UNL     1       8.017  -0.373  -4.822  1.00  0.00     0.197 A 
ATOM     25  C   UNL     1       5.738  -0.313  -5.608  1.00  0.00     0.138 A 
ATOM     26  C   UNL     1       7.004   0.279  -5.521  1.00  0.00     0.100 A 
ATOM     27  O   UNL     1       9.156   0.167  -4.755  1.00  0.00    -0.289 OA
BRANCH  18  28
ATOM     28  O   UNL     1       4.873  -4.027  -3.848  1.00  0.00    -0.490 OA
ATOM     29  C   UNL     1       4.412  -4.847  -4.916  1.00  0.00     0.278 C 
ENDBRANCH  18  28
BRANCH  21  30
ATOM     30  O   UNL     1      10.019  -1.815  -3.319  1.00  0.00    -0.507 OA
ATOM     31  H   UNL     1      10.484  -1.299  -4.057  1.00  0.00     0.293 HD
ENDBRANCH  21  30
BRANCH  25  32
ATOM     32  C   UNL     1       4.629   0.343  -6.340  1.00  0.00     0.017 A 
ATOM     33  C   UNL     1       3.502  -0.387  -6.767  1.00  0.00     0.012 A 
ATOM     34  C   UNL     1       4.707   1.715  -6.638  1.00  0.00     0.012 A 
ATOM     35  C   UNL     1       2.469   0.252  -7.461  1.00  0.00     0.001 A 
ATOM     36  C   UNL     1       3.671   2.348  -7.333  1.00  0.00     0.001 A 
ATOM     37  C   UNL     1       2.554   1.617  -7.744  1.00  0.00     0.000 A 
ENDBRANCH  25  32
ENDBRANCH   1  17
TORSDOF 9
ENDMDL
MODEL 7
REMARK VINA RESULT:    -6.364     14.577     17.895
REMARK INTER + INTRA:         -10.379
REMARK INTER:                  -9.159
REMARK INTRA:                  -1.220
REMARK UNBOUND:                -1.411
REMARK SMILES COc1c(O[C@H]2O[C@@H](C(=O)[O-])[C@H](O)[C@@H](O)[C@@H]2O)cc(O)c2c(=O)cc(-c3ccccc3)oc12
REMARK SMILES IDX 5 1 6 2 8 3 12 4 7 5 14 6 16 7 9 8 10 9 11 10 13 11 15 13
REMARK SMILES IDX 17 15 4 17 3 18 18 19 33 20 19 21 21 22 32 23 22 24 25 25
REMARK SMILES IDX 24 26 23 27 2 28 1 29 20 30 26 32 27 33 31 34 28 35 30 36
REMARK SMILES IDX 29 37
REMARK H PARENT 13 12 15 14 17 16 20 31
REMARK Flexibility Score: inf
ROOT
ATOM      1  O   UNL     1      -0.734   2.821   7.866  1.00  0.00    -0.458 OA
ENDROOT
BRANCH   1   2
ATOM      2  C   UNL     1      -1.511   3.852   8.491  1.00  0.00     0.339 C 
ATOM      3  C   UNL     1       0.355   5.321   8.438  1.00  0.00     0.199 C 
ATOM      4  C   UNL     1      -0.077   5.647   6.975  1.00  0.00     0.180 C 
ATOM      5  O   UNL     1      -0.668   4.720   9.229  1.00  0.00    -0.328 OA
ATOM      6  C   UNL     1      -1.588   5.902   6.939  1.00  0.00     0.181 C 
ATOM      7  C   UNL     1      -2.339   4.648   7.440  1.00  0.00     0.214 C 
BRANCH   3   8
ATOM      8  C   UNL     1       1.620   4.504   8.525  1.00  0.00     0.073 C 
ATOM      9  O   UNL     1       2.360   4.400   7.511  1.00  0.00    -0.547 OA
ATOM     10  O   UNL     1       1.984   3.854   9.700  1.00  0.00    -0.547 OA
ENDBRANCH   3   8
BRANCH   4  11
ATOM     11  O   UNL     1       0.603   6.782   6.504  1.00  0.00    -0.387 OA
ATOM     12  H   UNL     1       0.518   6.781   5.515  1.00  0.00     0.211 HD
ENDBRANCH   4  11
BRANCH   6  13
ATOM     13  O   UNL     1      -2.000   6.197   5.629  1.00  0.00    -0.387 OA
ATOM     14  H   UNL     1      -2.176   5.331   5.175  1.00  0.00     0.211 HD
ENDBRANCH   6  13
BRANCH   7  15
ATOM     15  O   UNL     1      -3.599   5.007   7.956  1.00  0.00    -0.384 OA
ATOM     16  H   UNL     1      -3.869   5.868   7.532  1.00  0.00     0.211 HD
ENDBRANCH   7  15
ENDBRANCH   1   2
BRANCH   1  17
ATOM     17  C   UNL     1      -0.746   1.458   8.210  1.00  0.00     0.172 A 
ATOM     18  C   UNL     1      -1.911   0.726   7.945  1.00  0.00     0.205 A 
ATOM     19  C   UNL     1       0.359   0.828   8.806  1.00  0.00     0.097 A 
ATOM     20  C   UNL     1      -1.966  -0.651   8.277  1.00  0.00     0.188 A 
ATOM     21  C   UNL     1       0.320  -0.528   9.140  1.00  0.00     0.134 A 
ATOM     22  C   UNL     1      -0.845  -1.281   8.878  1.00  0.00     0.111 A 
ATOM     23  O   UNL     1      -3.063  -1.361   8.023  1.00  0.00    -0.452 OA
ATOM     24  C   UNL     1      -0.946  -2.653   9.191  1.00  0.00     0.197 A 
ATOM     25  C   UNL     1      -3.183  -2.659   8.292  1.00  0.00     0.138 A 
ATOM     26  C   UNL     1      -2.119  -3.342   8.894  1.00  0.00     0.100 A 
ATOM     27  O   UNL     1       0.005  -3.277   9.740  1.00  0.00    -0.289 OA
BRANCH  18  28
ATOM     28  O   UNL     1      -2.981   1.432   7.360  1.00  0.00    -0.490 OA
ATOM     29  C   UNL     1      -3.385   1.380   5.996  1.00  0.00     0.278 C 
ENDBRANCH  18  28
BRANCH  21  30
ATOM     30  O   UNL     1       1.441  -1.116   9.727  1.00  0.00    -0.507 OA
ATOM     31  H   UNL     1       2.236  -0.566  10.031  1.00  0.00     0.293 HD
ENDBRANCH  21  30
BRANCH  25  32
ATOM     32  C   UNL     1      -4.451  -3.348   7.957  1.00  0.00     0.017 A 
ATOM     33  C   UNL     1      -4.691  -4.677   8.359  1.00  0.00     0.012 A 
ATOM     34  C   UNL     1      -5.430  -2.677   7.202  1.00  0.00     0.012 A 
ATOM     35  C   UNL     1      -5.893  -5.310   8.027  1.00  0.00     0.001 A 
ATOM     36  C   UNL     1      -6.629  -3.315   6.871  1.00  0.00     0.001 A 
ATOM     37  C   UNL     1      -6.861  -4.629   7.284  1.00  0.00     0.000 A 
ENDBRANCH  25  32
ENDBRANCH   1  17
TORSDOF 9
ENDMDL
MODEL 8
REMARK VINA RESULT:    -6.360      3.288      8.317
REMARK INTER + INTRA:         -10.374
REMARK INTER:                  -9.370
REMARK INTRA:                  -1.004
REMARK UNBOUND:                -1.411
REMARK SMILES COc1c(O[C@H]2O[C@@H](C(=O)[O-])[C@H](O)[C@@H](O)[C@@H]2O)cc(O)c2c(=O)cc(-c3ccccc3)oc12
REMARK SMILES IDX 5 1 6 2 8 3 12 4 7 5 14 6 16 7 9 8 10 9 11 10 13 11 15 13
REMARK SMILES IDX 17 15 4 17 3 18 18 19 33 20 19 21 21 22 32 23 22 24 25 25
REMARK SMILES IDX 24 26 23 27 2 28 1 29 20 30 26 32 27 33 31 34 28 35 30 36
REMARK SMILES IDX 29 37
REMARK H PARENT 13 12 15 14 17 16 20 31
REMARK Flexibility Score: inf
ROOT
ATOM      1  O   UNL     1       4.302   1.014  -6.430  1.00  0.00    -0.458 OA
ENDROOT
BRANCH   1   2
ATOM      2  C   UNL     1       5.274   1.652  -7.271  1.00  0.00     0.339 C 
ATOM      3  C   UNL     1       3.561   2.338  -8.767  1.00  0.00     0.199 C 
ATOM      4  C   UNL     1       3.350   3.548  -7.805  1.00  0.00     0.180 C 
ATOM      5  O   UNL     1       4.817   1.680  -8.612  1.00  0.00    -0.328 OA
ATOM      6  C   UNL     1       4.713   4.156  -7.452  1.00  0.00     0.181 C 
ATOM      7  C   UNL     1       5.597   3.089  -6.768  1.00  0.00     0.214 C 
BRANCH   3   8
ATOM      8  C   UNL     1       2.441   1.329  -8.721  1.00  0.00     0.073 C 
ATOM      9  O   UNL     1       1.436   1.554  -7.997  1.00  0.00    -0.547 OA
ATOM     10  O   UNL     1       2.498   0.148  -9.454  1.00  0.00    -0.547 OA
ENDBRANCH   3   8
BRANCH   4  11
ATOM     11  O   UNL     1       2.543   4.524  -8.412  1.00  0.00    -0.387 OA
ATOM     12  H   UNL     1       1.785   4.697  -7.795  1.00  0.00     0.211 HD
ENDBRANCH   4  11
BRANCH   6  13
ATOM     13  O   UNL     1       4.547   5.248  -6.584  1.00  0.00    -0.387 OA
ATOM     14  H   UNL     1       5.394   5.767  -6.601  1.00  0.00     0.211 HD
ENDBRANCH   6  13
BRANCH   7  15
ATOM     15  O   UNL     1       6.959   3.394  -6.950  1.00  0.00    -0.384 OA
ATOM     16  H   UNL     1       7.258   3.938  -6.169  1.00  0.00     0.211 HD
ENDBRANCH   7  15
ENDBRANCH   1   2
BRANCH   1  17
ATOM     17  C   UNL     1       4.310  -0.336  -6.040  1.00  0.00     0.172 A 
ATOM     18  C   UNL     1       5.387  -0.788  -5.266  1.00  0.00     0.205 A 
ATOM     19  C   UNL     1       3.287  -1.226  -6.406  1.00  0.00     0.097 A 
ATOM     20  C   UNL     1       5.435  -2.142  -4.851  1.00  0.00     0.188 A 
ATOM     21  C   UNL     1       3.320  -2.564  -6.007  1.00  0.00     0.134 A 
ATOM     22  C   UNL     1       4.396  -3.035  -5.224  1.00  0.00     0.111 A 
ATOM     23  O   UNL     1       6.448  -2.583  -4.108  1.00  0.00    -0.452 OA
ATOM     24  C   UNL     1       4.488  -4.374  -4.790  1.00  0.00     0.197 A 
ATOM     25  C   UNL     1       6.554  -3.835  -3.670  1.00  0.00     0.138 A 
ATOM     26  C   UNL     1       5.570  -4.772  -4.008  1.00  0.00     0.100 A 
ATOM     27  O   UNL     1       3.609  -5.229  -5.094  1.00  0.00    -0.289 OA
BRANCH  18  28
ATOM     28  O   UNL     1       6.381   0.161  -4.952  1.00  0.00    -0.490 OA
ATOM     29  C   UNL     1       7.749   0.116  -5.342  1.00  0.00     0.278 C 
ENDBRANCH  18  28
BRANCH  21  30
ATOM     30  O   UNL     1       2.282  -3.414  -6.389  1.00  0.00    -0.507 OA
ATOM     31  H   UNL     1       2.427  -4.407  -6.529  1.00  0.00     0.293 HD
ENDBRANCH  21  30
BRANCH  25  32
ATOM     32  C   UNL     1       7.723  -4.210  -2.841  1.00  0.00     0.017 A 
ATOM     33  C   UNL     1       7.618  -5.178  -1.821  1.00  0.00     0.012 A 
ATOM     34  C   UNL     1       8.960  -3.576  -3.054  1.00  0.00     0.012 A 
ATOM     35  C   UNL     1       8.734  -5.512  -1.048  1.00  0.00     0.001 A 
ATOM     36  C   UNL     1      10.072  -3.913  -2.276  1.00  0.00     0.001 A 
ATOM     37  C   UNL     1       9.959  -4.880  -1.275  1.00  0.00     0.000 A 
ENDBRANCH  25  32
ENDBRANCH   1  17
TORSDOF 9
ENDMDL
MODEL 9
REMARK VINA RESULT:    -6.342      2.244      4.157
REMARK INTER + INTRA:         -10.347
REMARK INTER:                  -8.908
REMARK INTRA:                  -1.439
REMARK UNBOUND:                -1.411
REMARK SMILES COc1c(O[C@H]2O[C@@H](C(=O)[O-])[C@H](O)[C@@H](O)[C@@H]2O)cc(O)c2c(=O)cc(-c3ccccc3)oc12
REMARK SMILES IDX 5 1 6 2 8 3 12 4 7 5 14 6 16 7 9 8 10 9 11 10 13 11 15 13
REMARK SMILES IDX 17 15 4 17 3 18 18 19 33 20 19 21 21 22 32 23 22 24 25 25
REMARK SMILES IDX 24 26 23 27 2 28 1 29 20 30 26 32 27 33 31 34 28 35 30 36
REMARK SMILES IDX 29 37
REMARK H PARENT 13 12 15 14 17 16 20 31
REMARK Flexibility Score: inf
ROOT
ATOM      1  O   UNL     1       5.290  -1.752  -5.362  1.00  0.00    -0.458 OA
ENDROOT
BRANCH   1   2
ATOM      2  C   UNL     1       5.048  -2.352  -6.643  1.00  0.00     0.339 C 
ATOM      3  C   UNL     1       5.392  -4.513  -5.719  1.00  0.00     0.199 C 
ATOM      4  C   UNL     1       3.897  -4.447  -5.278  1.00  0.00     0.180 C 
ATOM      5  O   UNL     1       5.741  -3.584  -6.743  1.00  0.00    -0.328 OA
ATOM      6  C   UNL     1       3.045  -3.954  -6.454  1.00  0.00     0.181 C 
ATOM      7  C   UNL     1       3.525  -2.553  -6.892  1.00  0.00     0.214 C 
BRANCH   3   8
ATOM      8  C   UNL     1       6.364  -4.403  -4.570  1.00  0.00     0.073 C 
ATOM      9  O   UNL     1       5.925  -4.371  -3.390  1.00  0.00    -0.547 OA
ATOM     10  O   UNL     1       7.736  -4.326  -4.786  1.00  0.00    -0.547 OA
ENDBRANCH   3   8
BRANCH   4  11
ATOM     11  O   UNL     1       3.448  -5.714  -4.872  1.00  0.00    -0.387 OA
ATOM     12  H   UNL     1       3.868  -6.379  -5.479  1.00  0.00     0.211 HD
ENDBRANCH   4  11
BRANCH   6  13
ATOM     13  O   UNL     1       1.693  -3.886  -6.080  1.00  0.00    -0.387 OA
ATOM     14  H   UNL     1       1.154  -4.000  -6.906  1.00  0.00     0.211 HD
ENDBRANCH   6  13
BRANCH   7  15
ATOM     15  O   UNL     1       3.200  -2.325  -8.243  1.00  0.00    -0.384 OA
ATOM     16  H   UNL     1       4.051  -2.279  -8.759  1.00  0.00     0.211 HD
ENDBRANCH   7  15
ENDBRANCH   1   2
BRANCH   1  17
ATOM     17  C   UNL     1       6.188  -0.702  -5.101  1.00  0.00     0.172 A 
ATOM     18  C   UNL     1       5.723   0.611  -5.256  1.00  0.00     0.205 A 
ATOM     19  C   UNL     1       7.513  -0.935  -4.701  1.00  0.00     0.097 A 
ATOM     20  C   UNL     1       6.595   1.699  -5.003  1.00  0.00     0.188 A 
ATOM     21  C   UNL     1       8.386   0.127  -4.450  1.00  0.00     0.134 A 
ATOM     22  C   UNL     1       7.934   1.456  -4.598  1.00  0.00     0.111 A 
ATOM     23  O   UNL     1       6.164   2.952  -5.138  1.00  0.00    -0.452 OA
ATOM     24  C   UNL     1       8.765   2.570  -4.360  1.00  0.00     0.197 A 
ATOM     25  C   UNL     1       6.920   4.022  -4.905  1.00  0.00     0.138 A 
ATOM     26  C   UNL     1       8.253   3.856  -4.512  1.00  0.00     0.100 A 
ATOM     27  O   UNL     1       9.971   2.431  -4.011  1.00  0.00    -0.289 OA
BRANCH  18  28
ATOM     28  O   UNL     1       4.385   0.762  -5.674  1.00  0.00    -0.490 OA
ATOM     29  C   UNL     1       3.941   1.166  -6.965  1.00  0.00     0.278 C 
ENDBRANCH  18  28
BRANCH  21  30
ATOM     30  O   UNL     1       9.694  -0.148  -4.051  1.00  0.00    -0.507 OA
ATOM     31  H   UNL     1      10.395  -0.480  -4.705  1.00  0.00     0.293 HD
ENDBRANCH  21  30
BRANCH  25  32
ATOM     32  C   UNL     1       6.330   5.370  -5.080  1.00  0.00     0.017 A 
ATOM     33  C   UNL     1       6.489   6.372  -4.102  1.00  0.00     0.012 A 
ATOM     34  C   UNL     1       5.574   5.655  -6.232  1.00  0.00     0.012 A 
ATOM     35  C   UNL     1       5.919   7.635  -4.286  1.00  0.00     0.001 A 
ATOM     36  C   UNL     1       5.005   6.920  -6.409  1.00  0.00     0.001 A 
ATOM     37  C   UNL     1       5.178   7.909  -5.438  1.00  0.00     0.000 A 
ENDBRANCH  25  32
ENDBRANCH   1  17
TORSDOF 9
ENDMDL
