MODEL 1
REMARK VINA RESULT:     5.884      0.000      0.000
REMARK INTER + INTRA:           6.364
REMARK INTER:                   6.400
REMARK INTRA:                  -0.035
REMARK UNBOUND:                -0.035
REMARK SMILES CC1(C)[C@@H]2CC=C(CO)[C@H]1C2
REMARK SMILES IDX 8 1 7 2 1 3 2 4 4 5 3 6 10 7 5 8 11 9 6 10 9 11
REMARK H PARENT 9 12
REMARK Flexibility Score: inf
ROOT
ATOM      1  C   UNL     1      58.443   5.082 -19.882  1.00  0.00     0.187 C 
ENDROOT
BRANCH   1   2
ATOM      2  C   UNL     1      58.953   3.675 -19.999  1.00  0.00    -0.045 C 
ATOM      3  C   UNL     1      57.200   1.310 -19.737  1.00  0.00     0.012 C 
ATOM      4  C   UNL     1      58.237   1.432 -20.890  1.00  0.00    -0.026 C 
ATOM      5  C   UNL     1      59.725   1.102 -20.591  1.00  0.00    -0.000 C 
ATOM      6  C   UNL     1      57.698   0.648 -22.113  1.00  0.00     0.012 C 
ATOM      7  C   UNL     1      58.746   2.846 -21.275  1.00  0.00     0.023 C 
ATOM      8  C   UNL     1      60.124   1.624 -19.167  1.00  0.00     0.031 C 
ATOM      9  C   UNL     1      60.124   2.222 -21.574  1.00  0.00     0.013 C 
ATOM     10  C   UNL     1      59.649   3.080 -18.986  1.00  0.00    -0.025 C 
ENDBRANCH   1   2
BRANCH   1  11
ATOM     11  O   UNL     1      59.392   5.968 -20.406  1.00  0.00    -0.392 OA
ATOM     12  H   UNL     1      59.382   6.763 -19.810  1.00  0.00     0.211 HD
ENDBRANCH   1  11
TORSDOF 2
ENDMDL
MODEL 2
REMARK VINA RESULT:     6.020     16.745     18.404
REMARK INTER + INTRA:           6.513
REMARK INTER:                   6.560
REMARK INTRA:                  -0.048
REMARK UNBOUND:                -0.035
REMARK SMILES CC1(C)[C@@H]2CC=C(CO)[C@H]1C2
REMARK SMILES IDX 8 1 7 2 1 3 2 4 4 5 3 6 10 7 5 8 11 9 6 10 9 11
REMARK H PARENT 9 12
REMARK Flexibility Score: inf
ROOT
ATOM      1  C   UNL     1      40.488   1.614 -15.887  1.00  0.00     0.187 C 
ENDROOT
BRANCH   1   2
ATOM      2  C   UNL     1      40.435   1.768 -17.379  1.00  0.00    -0.045 C 
ATOM      3  C   UNL     1      42.793   2.520 -18.995  1.00  0.00     0.012 C 
ATOM      4  C   UNL     1      41.859   1.349 -19.412  1.00  0.00    -0.026 C 
ATOM      5  C   UNL     1      40.521   1.682 -20.127  1.00  0.00    -0.000 C 
ATOM      6  C   UNL     1      42.701   0.313 -20.199  1.00  0.00     0.012 C 
ATOM      7  C   UNL     1      40.979   0.684 -18.321  1.00  0.00     0.023 C 
ATOM      8  C   UNL     1      39.875   2.968 -19.504  1.00  0.00     0.031 C 
ATOM      9  C   UNL     1      39.880   0.491 -19.385  1.00  0.00     0.013 C 
ATOM     10  C   UNL     1      39.875   2.867 -17.966  1.00  0.00    -0.025 C 
ENDBRANCH   1   2
BRANCH   1  11
ATOM     11  O   UNL     1      40.996   0.350 -15.565  1.00  0.00    -0.392 OA
ATOM     12  H   UNL     1      41.976   0.468 -15.458  1.00  0.00     0.211 HD
ENDBRANCH   1  11
TORSDOF 2
ENDMDL
MODEL 3
REMARK VINA RESULT:     8.845     16.383     18.051
REMARK INTER + INTRA:           9.586
REMARK INTER:                   9.650
REMARK INTRA:                  -0.064
REMARK UNBOUND:                -0.035
REMARK SMILES CC1(C)[C@@H]2CC=C(CO)[C@H]1C2
REMARK SMILES IDX 8 1 7 2 1 3 2 4 4 5 3 6 10 7 5 8 11 9 6 10 9 11
REMARK H PARENT 9 12
REMARK Flexibility Score: inf
ROOT
ATOM      1  C   UNL     1      43.561   2.118 -20.081  1.00  0.00     0.187 C 
ENDROOT
BRANCH   1   2
ATOM      2  C   UNL     1      42.222   2.474 -19.504  1.00  0.00    -0.045 C 
ATOM      3  C   UNL     1      39.913   0.628 -19.557  1.00  0.00     0.012 C 
ATOM      4  C   UNL     1      40.308   1.402 -18.268  1.00  0.00    -0.026 C 
ATOM      5  C   UNL     1      39.875   2.887 -18.129  1.00  0.00    -0.000 C 
ATOM      6  C   UNL     1      39.886   0.552 -17.043  1.00  0.00     0.012 C 
ATOM      7  C   UNL     1      41.760   1.933 -18.142  1.00  0.00     0.023 C 
ATOM      8  C   UNL     1      39.996   3.622 -19.509  1.00  0.00     0.031 C 
ATOM      9  C   UNL     1      41.203   3.159 -17.393  1.00  0.00     0.013 C 
ATOM     10  C   UNL     1      41.365   3.318 -20.151  1.00  0.00    -0.025 C 
ENDBRANCH   1   2
BRANCH   1  11
ATOM     11  O   UNL     1      43.555   0.776 -20.481  1.00  0.00    -0.392 OA
ATOM     12  H   UNL     1      42.656   0.424 -20.247  1.00  0.00     0.211 HD
ENDBRANCH   1  11
TORSDOF 2
ENDMDL
