MODEL 1
REMARK VINA RESULT:    -4.190      0.000      0.000
REMARK INTER + INTRA:         -14.949
REMARK INTER:                 -10.557
REMARK INTRA:                  -4.392
REMARK UNBOUND:                -4.392
REMARK SMILES CCCCCCCCCCCCCCCCCCCCCCCCCCCC(=O)[O-]
REMARK SMILES IDX 15 1 16 2 17 3 18 4 19 5 20 6 21 7 22 8 23 9 24 10 25 11
REMARK SMILES IDX 26 12 27 13 28 14 29 15 30 16 14 17 13 18 12 19 11 20 10 21
REMARK SMILES IDX 9 22 8 23 7 24 6 25 5 26 4 27 3 28 2 29 1 30
REMARK H PARENT
REMARK Flexibility Score: inf
ROOT
ATOM      1  C   UNL     1     163.192 173.221 152.331  1.00  0.00     0.000 C 
ENDROOT
BRANCH   1   2
ATOM      2  C   UNL     1     163.660 174.147 151.196  1.00  0.00     0.000 C 
BRANCH   2   3
ATOM      3  C   UNL     1     165.189 174.156 151.036  1.00  0.00     0.000 C 
BRANCH   3   4
ATOM      4  C   UNL     1     165.630 174.715 149.666  1.00  0.00     0.000 C 
BRANCH   4   5
ATOM      5  C   UNL     1     167.104 175.148 149.620  1.00  0.00     0.000 C 
BRANCH   5   6
ATOM      6  C   UNL     1     167.269 176.658 149.385  1.00  0.00     0.000 C 
BRANCH   6   7
ATOM      7  C   UNL     1     168.122 177.338 150.466  1.00  0.00     0.000 C 
BRANCH   7   8
ATOM      8  C   UNL     1     168.973 176.343 151.275  1.00  0.00     0.000 C 
BRANCH   8   9
ATOM      9  C   UNL     1     169.768 177.019 152.407  1.00  0.00     0.000 C 
BRANCH   9  10
ATOM     10  C   UNL     1     171.276 176.709 152.412  1.00  0.00     0.000 C 
BRANCH  10  11
ATOM     11  C   UNL     1     172.145 177.951 152.663  1.00  0.00     0.000 C 
BRANCH  11  12
ATOM     12  C   UNL     1     173.475 177.843 151.905  1.00  0.00     0.006 C 
BRANCH  12  13
ATOM     13  C   UNL     1     174.686 178.085 152.814  1.00  0.00     0.053 C 
BRANCH  13  14
ATOM     14  C   UNL     1     175.584 176.888 152.886  1.00  0.00     0.041 C 
ATOM     15  O   UNL     1     176.219 176.634 153.944  1.00  0.00    -0.550 OA
ATOM     16  O   UNL     1     175.723 176.054 151.781  1.00  0.00    -0.550 OA
ENDBRANCH  13  14
ENDBRANCH  12  13
ENDBRANCH  11  12
ENDBRANCH  10  11
ENDBRANCH   9  10
ENDBRANCH   8   9
ENDBRANCH   7   8
ENDBRANCH   6   7
ENDBRANCH   5   6
ENDBRANCH   4   5
ENDBRANCH   3   4
ENDBRANCH   2   3
ENDBRANCH   1   2
BRANCH   1  17
ATOM     17  C   UNL     1     161.948 173.762 153.055  1.00  0.00     0.000 C 
BRANCH  17  18
ATOM     18  C   UNL     1     160.641 173.416 152.323  1.00  0.00     0.000 C 
BRANCH  18  19
ATOM     19  C   UNL     1     159.720 174.639 152.150  1.00  0.00     0.000 C 
BRANCH  19  20
ATOM     20  C   UNL     1     160.138 175.822 153.038  1.00  0.00     0.000 C 
BRANCH  20  21
ATOM     21  C   UNL     1     160.176 177.156 152.270  1.00  0.00     0.000 C 
BRANCH  21  22
ATOM     22  C   UNL     1     160.457 176.973 150.770  1.00  0.00    -0.000 C 
BRANCH  22  23
ATOM     23  C   UNL     1     161.955 177.077 150.430  1.00  0.00    -0.000 C 
BRANCH  23  24
ATOM     24  C   UNL     1     162.757 177.860 151.492  1.00  0.00    -0.000 C 
BRANCH  24  25
ATOM     25  C   UNL     1     164.277 177.867 151.255  1.00  0.00    -0.000 C 
BRANCH  25  26
ATOM     26  C   UNL     1     165.092 177.673 152.541  1.00  0.00    -0.000 C 
BRANCH  26  27
ATOM     27  C   UNL     1     164.367 176.736 153.519  1.00  0.00    -0.000 C 
BRANCH  27  28
ATOM     28  C   UNL     1     165.304 176.137 154.584  1.00  0.00    -0.000 C 
BRANCH  28  29
ATOM     29  C   UNL     1     166.638 175.596 154.039  1.00  0.00    -0.003 C 
ATOM     30  C   UNL     1     166.867 174.122 154.375  1.00  0.00     0.004 C 
ENDBRANCH  28  29
ENDBRANCH  27  28
ENDBRANCH  26  27
ENDBRANCH  25  26
ENDBRANCH  24  25
ENDBRANCH  23  24
ENDBRANCH  22  23
ENDBRANCH  21  22
ENDBRANCH  20  21
ENDBRANCH  19  20
ENDBRANCH  18  19
ENDBRANCH  17  18
ENDBRANCH   1  17
TORSDOF 26
ENDMDL
MODEL 2
REMARK VINA RESULT:    -4.174      4.657     11.189
REMARK INTER + INTRA:         -14.910
REMARK INTER:                 -10.188
REMARK INTRA:                  -4.722
REMARK UNBOUND:                -4.392
REMARK SMILES CCCCCCCCCCCCCCCCCCCCCCCCCCCC(=O)[O-]
REMARK SMILES IDX 15 1 16 2 17 3 18 4 19 5 20 6 21 7 22 8 23 9 24 10 25 11
REMARK SMILES IDX 26 12 27 13 28 14 29 15 30 16 14 17 13 18 12 19 11 20 10 21
REMARK SMILES IDX 9 22 8 23 7 24 6 25 5 26 4 27 3 28 2 29 1 30
REMARK H PARENT
REMARK Flexibility Score: inf
ROOT
ATOM      1  C   UNL     1     174.702 174.091 151.058  1.00  0.00     0.000 C 
ENDROOT
BRANCH   1   2
ATOM      2  C   UNL     1     173.802 175.299 150.752  1.00  0.00     0.000 C 
BRANCH   2   3
ATOM      3  C   UNL     1     174.576 176.627 150.758  1.00  0.00     0.000 C 
BRANCH   3   4
ATOM      4  C   UNL     1     173.706 177.809 151.237  1.00  0.00     0.000 C 
BRANCH   4   5
ATOM      5  C   UNL     1     173.386 177.773 152.740  1.00  0.00     0.000 C 
BRANCH   5   6
ATOM      6  C   UNL     1     171.879 177.647 153.020  1.00  0.00     0.000 C 
BRANCH   6   7
ATOM      7  C   UNL     1     171.065 177.324 151.758  1.00  0.00     0.000 C 
BRANCH   7   8
ATOM      8  C   UNL     1     169.596 176.980 152.061  1.00  0.00     0.000 C 
BRANCH   8   9
ATOM      9  C   UNL     1     169.161 175.632 151.456  1.00  0.00     0.000 C 
BRANCH   9  10
ATOM     10  C   UNL     1     167.793 175.650 150.752  1.00  0.00     0.000 C 
BRANCH  10  11
ATOM     11  C   UNL     1     167.619 176.851 149.809  1.00  0.00     0.000 C 
BRANCH  11  12
ATOM     12  C   UNL     1     166.424 177.711 150.244  1.00  0.00     0.006 C 
BRANCH  12  13
ATOM     13  C   UNL     1     165.870 177.293 151.611  1.00  0.00     0.053 C 
BRANCH  13  14
ATOM     14  C   UNL     1     164.373 177.222 151.613  1.00  0.00     0.041 C 
ATOM     15  O   UNL     1     163.696 178.115 152.189  1.00  0.00    -0.550 OA
ATOM     16  O   UNL     1     163.724 176.166 150.981  1.00  0.00    -0.550 OA
ENDBRANCH  13  14
ENDBRANCH  12  13
ENDBRANCH  11  12
ENDBRANCH  10  11
ENDBRANCH   9  10
ENDBRANCH   8   9
ENDBRANCH   7   8
ENDBRANCH   6   7
ENDBRANCH   5   6
ENDBRANCH   4   5
ENDBRANCH   3   4
ENDBRANCH   2   3
ENDBRANCH   1   2
BRANCH   1  17
ATOM     17  C   UNL     1     176.197 174.448 151.017  1.00  0.00     0.000 C 
BRANCH  17  18
ATOM     18  C   UNL     1     177.053 173.338 150.385  1.00  0.00     0.000 C 
BRANCH  18  19
ATOM     19  C   UNL     1     176.205 172.165 149.860  1.00  0.00     0.000 C 
BRANCH  19  20
ATOM     20  C   UNL     1     176.625 170.815 150.465  1.00  0.00     0.000 C 
BRANCH  20  21
ATOM     21  C   UNL     1     175.536 170.205 151.368  1.00  0.00     0.000 C 
BRANCH  21  22
ATOM     22  C   UNL     1     175.323 170.998 152.667  1.00  0.00    -0.000 C 
BRANCH  22  23
ATOM     23  C   UNL     1     176.579 171.029 153.556  1.00  0.00    -0.000 C 
BRANCH  23  24
ATOM     24  C   UNL     1     176.924 172.448 154.055  1.00  0.00    -0.000 C 
BRANCH  24  25
ATOM     25  C   UNL     1     175.832 173.092 154.925  1.00  0.00    -0.000 C 
BRANCH  25  26
ATOM     26  C   UNL     1     175.579 174.568 154.587  1.00  0.00    -0.000 C 
BRANCH  26  27
ATOM     27  C   UNL     1     174.092 174.922 154.732  1.00  0.00    -0.000 C 
BRANCH  27  28
ATOM     28  C   UNL     1     173.161 173.719 154.495  1.00  0.00    -0.000 C 
BRANCH  28  29
ATOM     29  C   UNL     1     171.869 174.044 153.724  1.00  0.00    -0.003 C 
ATOM     30  C   UNL     1     171.554 173.026 152.629  1.00  0.00     0.004 C 
ENDBRANCH  28  29
ENDBRANCH  27  28
ENDBRANCH  26  27
ENDBRANCH  25  26
ENDBRANCH  24  25
ENDBRANCH  23  24
ENDBRANCH  22  23
ENDBRANCH  21  22
ENDBRANCH  20  21
ENDBRANCH  19  20
ENDBRANCH  18  19
ENDBRANCH  17  18
ENDBRANCH   1  17
TORSDOF 26
ENDMDL
MODEL 3
REMARK VINA RESULT:    -4.118      5.674     11.232
REMARK INTER + INTRA:         -14.769
REMARK INTER:                  -9.613
REMARK INTRA:                  -5.156
REMARK UNBOUND:                -4.392
REMARK SMILES CCCCCCCCCCCCCCCCCCCCCCCCCCCC(=O)[O-]
REMARK SMILES IDX 15 1 16 2 17 3 18 4 19 5 20 6 21 7 22 8 23 9 24 10 25 11
REMARK SMILES IDX 26 12 27 13 28 14 29 15 30 16 14 17 13 18 12 19 11 20 10 21
REMARK SMILES IDX 9 22 8 23 7 24 6 25 5 26 4 27 3 28 2 29 1 30
REMARK H PARENT
REMARK Flexibility Score: inf
ROOT
ATOM      1  C   UNL     1     174.151 173.981 151.946  1.00  0.00     0.000 C 
ENDROOT
BRANCH   1   2
ATOM      2  C   UNL     1     173.725 174.821 150.731  1.00  0.00     0.000 C 
BRANCH   2   3
ATOM      3  C   UNL     1     173.476 176.294 151.091  1.00  0.00     0.000 C 
BRANCH   3   4
ATOM      4  C   UNL     1     174.454 177.246 150.368  1.00  0.00     0.000 C 
BRANCH   4   5
ATOM      5  C   UNL     1     175.510 177.869 151.295  1.00  0.00     0.000 C 
BRANCH   5   6
ATOM      6  C   UNL     1     174.974 178.125 152.713  1.00  0.00     0.000 C 
BRANCH   6   7
ATOM      7  C   UNL     1     175.871 177.523 153.805  1.00  0.00     0.000 C 
BRANCH   7   8
ATOM      8  C   UNL     1     175.088 177.096 155.059  1.00  0.00     0.000 C 
BRANCH   8   9
ATOM      9  C   UNL     1     173.608 176.790 154.765  1.00  0.00     0.000 C 
BRANCH   9  10
ATOM     10  C   UNL     1     173.044 175.560 155.496  1.00  0.00     0.000 C 
BRANCH  10  11
ATOM     11  C   UNL     1     171.897 174.880 154.733  1.00  0.00     0.000 C 
BRANCH  11  12
ATOM     12  C   UNL     1     171.278 175.845 153.713  1.00  0.00     0.006 C 
BRANCH  12  13
ATOM     13  C   UNL     1     169.927 175.348 153.184  1.00  0.00     0.053 C 
BRANCH  13  14
ATOM     14  C   UNL     1     169.120 176.454 152.574  1.00  0.00     0.041 C 
ATOM     15  O   UNL     1     168.748 177.431 153.278  1.00  0.00    -0.550 OA
ATOM     16  O   UNL     1     168.776 176.404 151.227  1.00  0.00    -0.550 OA
ENDBRANCH  13  14
ENDBRANCH  12  13
ENDBRANCH  11  12
ENDBRANCH  10  11
ENDBRANCH   9  10
ENDBRANCH   8   9
ENDBRANCH   7   8
ENDBRANCH   6   7
ENDBRANCH   5   6
ENDBRANCH   4   5
ENDBRANCH   3   4
ENDBRANCH   2   3
ENDBRANCH   1   2
BRANCH   1  17
ATOM     17  C   UNL     1     175.518 174.408 152.506  1.00  0.00     0.000 C 
BRANCH  17  18
ATOM     18  C   UNL     1     176.659 173.487 152.045  1.00  0.00     0.000 C 
BRANCH  18  19
ATOM     19  C   UNL     1     177.356 174.001 150.772  1.00  0.00     0.000 C 
BRANCH  19  20
ATOM     20  C   UNL     1     177.309 172.983 149.621  1.00  0.00     0.000 C 
BRANCH  20  21
ATOM     21  C   UNL     1     176.608 171.670 150.019  1.00  0.00     0.000 C 
BRANCH  21  22
ATOM     22  C   UNL     1     175.368 171.371 149.160  1.00  0.00    -0.000 C 
BRANCH  22  23
ATOM     23  C   UNL     1     174.252 170.670 149.955  1.00  0.00    -0.000 C 
BRANCH  23  24
ATOM     24  C   UNL     1     174.643 170.395 151.423  1.00  0.00    -0.000 C 
BRANCH  24  25
ATOM     25  C   UNL     1     175.075 168.945 151.699  1.00  0.00    -0.000 C 
BRANCH  25  26
ATOM     26  C   UNL     1     175.427 168.687 153.170  1.00  0.00    -0.000 C 
BRANCH  26  27
ATOM     27  C   UNL     1     176.155 169.892 153.785  1.00  0.00    -0.000 C 
BRANCH  27  28
ATOM     28  C   UNL     1     175.481 170.411 155.069  1.00  0.00    -0.000 C 
BRANCH  28  29
ATOM     29  C   UNL     1     175.016 171.877 155.007  1.00  0.00    -0.003 C 
ATOM     30  C   UNL     1     175.285 172.644 156.301  1.00  0.00     0.004 C 
ENDBRANCH  28  29
ENDBRANCH  27  28
ENDBRANCH  26  27
ENDBRANCH  25  26
ENDBRANCH  24  25
ENDBRANCH  23  24
ENDBRANCH  22  23
ENDBRANCH  21  22
ENDBRANCH  20  21
ENDBRANCH  19  20
ENDBRANCH  18  19
ENDBRANCH  17  18
ENDBRANCH   1  17
TORSDOF 26
ENDMDL
MODEL 4
REMARK VINA RESULT:    -4.113      5.289     10.955
REMARK INTER + INTRA:         -14.756
REMARK INTER:                  -8.990
REMARK INTRA:                  -5.766
REMARK UNBOUND:                -4.392
REMARK SMILES CCCCCCCCCCCCCCCCCCCCCCCCCCCC(=O)[O-]
REMARK SMILES IDX 15 1 16 2 17 3 18 4 19 5 20 6 21 7 22 8 23 9 24 10 25 11
REMARK SMILES IDX 26 12 27 13 28 14 29 15 30 16 14 17 13 18 12 19 11 20 10 21
REMARK SMILES IDX 9 22 8 23 7 24 6 25 5 26 4 27 3 28 2 29 1 30
REMARK H PARENT
REMARK Flexibility Score: inf
ROOT
ATOM      1  C   UNL     1     174.265 176.520 150.538  1.00  0.00     0.000 C 
ENDROOT
BRANCH   1   2
ATOM      2  C   UNL     1     173.725 177.868 151.043  1.00  0.00     0.000 C 
BRANCH   2   3
ATOM      3  C   UNL     1     174.069 178.125 152.519  1.00  0.00     0.000 C 
BRANCH   3   4
ATOM      4  C   UNL     1     175.573 177.929 152.811  1.00  0.00     0.000 C 
BRANCH   4   5
ATOM      5  C   UNL     1     175.862 177.372 154.215  1.00  0.00     0.000 C 
BRANCH   5   6
ATOM      6  C   UNL     1     174.584 176.950 154.958  1.00  0.00     0.000 C 
BRANCH   6   7
ATOM      7  C   UNL     1     174.381 175.428 154.973  1.00  0.00     0.000 C 
BRANCH   7   8
ATOM      8  C   UNL     1     172.982 175.013 155.461  1.00  0.00     0.000 C 
BRANCH   8   9
ATOM      9  C   UNL     1     172.130 174.367 154.353  1.00  0.00     0.000 C 
BRANCH   9  10
ATOM     10  C   UNL     1     170.824 175.112 154.023  1.00  0.00     0.000 C 
BRANCH  10  11
ATOM     11  C   UNL     1     171.021 176.628 153.863  1.00  0.00     0.000 C 
BRANCH  11  12
ATOM     12  C   UNL     1     170.427 177.113 152.534  1.00  0.00     0.006 C 
BRANCH  12  13
ATOM     13  C   UNL     1     169.841 175.966 151.702  1.00  0.00     0.053 C 
BRANCH  13  14
ATOM     14  C   UNL     1     168.419 176.226 151.309  1.00  0.00     0.041 C 
ATOM     15  O   UNL     1     167.488 175.533 151.799  1.00  0.00    -0.550 OA
ATOM     16  O   UNL     1     168.121 177.234 150.397  1.00  0.00    -0.550 OA
ENDBRANCH  13  14
ENDBRANCH  12  13
ENDBRANCH  11  12
ENDBRANCH  10  11
ENDBRANCH   9  10
ENDBRANCH   8   9
ENDBRANCH   7   8
ENDBRANCH   6   7
ENDBRANCH   5   6
ENDBRANCH   4   5
ENDBRANCH   3   4
ENDBRANCH   2   3
ENDBRANCH   1   2
BRANCH   1  17
ATOM     17  C   UNL     1     173.488 175.324 151.113  1.00  0.00     0.000 C 
BRANCH  17  18
ATOM     18  C   UNL     1     174.394 174.119 151.416  1.00  0.00     0.000 C 
BRANCH  18  19
ATOM     19  C   UNL     1     175.877 174.514 151.545  1.00  0.00     0.000 C 
BRANCH  19  20
ATOM     20  C   UNL     1     176.822 173.465 150.936  1.00  0.00     0.000 C 
BRANCH  20  21
ATOM     21  C   UNL     1     176.089 172.466 150.021  1.00  0.00     0.000 C 
BRANCH  21  22
ATOM     22  C   UNL     1     176.610 171.028 150.168  1.00  0.00    -0.000 C 
BRANCH  22  23
ATOM     23  C   UNL     1     175.779 170.195 151.162  1.00  0.00    -0.000 C 
BRANCH  23  24
ATOM     24  C   UNL     1     174.279 170.156 150.802  1.00  0.00    -0.000 C 
BRANCH  24  25
ATOM     25  C   UNL     1     173.356 170.737 151.886  1.00  0.00    -0.000 C 
BRANCH  25  26
ATOM     26  C   UNL     1     173.265 169.859 153.141  1.00  0.00    -0.000 C 
BRANCH  26  27
ATOM     27  C   UNL     1     173.674 170.643 154.396  1.00  0.00    -0.000 C 
BRANCH  27  28
ATOM     28  C   UNL     1     174.679 171.771 154.100  1.00  0.00    -0.000 C 
BRANCH  28  29
ATOM     29  C   UNL     1     175.819 171.906 155.126  1.00  0.00    -0.003 C 
ATOM     30  C   UNL     1     176.934 172.842 154.660  1.00  0.00     0.004 C 
ENDBRANCH  28  29
ENDBRANCH  27  28
ENDBRANCH  26  27
ENDBRANCH  25  26
ENDBRANCH  24  25
ENDBRANCH  23  24
ENDBRANCH  22  23
ENDBRANCH  21  22
ENDBRANCH  20  21
ENDBRANCH  19  20
ENDBRANCH  18  19
ENDBRANCH  17  18
ENDBRANCH   1  17
TORSDOF 26
ENDMDL
MODEL 5
REMARK VINA RESULT:    -4.021      5.150     10.177
REMARK INTER + INTRA:         -14.524
REMARK INTER:                  -9.579
REMARK INTRA:                  -4.945
REMARK UNBOUND:                -4.392
REMARK SMILES CCCCCCCCCCCCCCCCCCCCCCCCCCCC(=O)[O-]
REMARK SMILES IDX 15 1 16 2 17 3 18 4 19 5 20 6 21 7 22 8 23 9 24 10 25 11
REMARK SMILES IDX 26 12 27 13 28 14 29 15 30 16 14 17 13 18 12 19 11 20 10 21
REMARK SMILES IDX 9 22 8 23 7 24 6 25 5 26 4 27 3 28 2 29 1 30
REMARK H PARENT
REMARK Flexibility Score: inf
ROOT
ATOM      1  C   UNL     1     173.590 172.471 150.665  1.00  0.00     0.000 C 
ENDROOT
BRANCH   1   2
ATOM      2  C   UNL     1     173.772 171.658 149.373  1.00  0.00     0.000 C 
BRANCH   2   3
ATOM      3  C   UNL     1     175.226 171.207 149.161  1.00  0.00     0.000 C 
BRANCH   3   4
ATOM      4  C   UNL     1     176.160 171.697 150.288  1.00  0.00     0.000 C 
BRANCH   4   5
ATOM      5  C   UNL     1     177.074 172.861 149.871  1.00  0.00     0.000 C 
BRANCH   5   6
ATOM      6  C   UNL     1     177.384 173.815 151.037  1.00  0.00     0.000 C 
BRANCH   6   7
ATOM      7  C   UNL     1     176.510 173.548 152.271  1.00  0.00     0.000 C 
BRANCH   7   8
ATOM      8  C   UNL     1     177.298 172.944 153.447  1.00  0.00     0.000 C 
BRANCH   8   9
ATOM      9  C   UNL     1     176.476 172.878 154.747  1.00  0.00     0.000 C 
BRANCH   9  10
ATOM     10  C   UNL     1     175.016 172.426 154.566  1.00  0.00     0.000 C 
BRANCH  10  11
ATOM     11  C   UNL     1     174.722 171.068 155.223  1.00  0.00     0.000 C 
BRANCH  11  12
ATOM     12  C   UNL     1     174.142 170.085 154.197  1.00  0.00     0.006 C 
BRANCH  12  13
ATOM     13  C   UNL     1     175.116 169.798 153.047  1.00  0.00     0.053 C 
BRANCH  13  14
ATOM     14  C   UNL     1     176.382 169.159 153.529  1.00  0.00     0.041 C 
ATOM     15  O   UNL     1     177.497 169.556 153.095  1.00  0.00    -0.550 OA
ATOM     16  O   UNL     1     176.332 168.122 154.454  1.00  0.00    -0.550 OA
ENDBRANCH  13  14
ENDBRANCH  12  13
ENDBRANCH  11  12
ENDBRANCH  10  11
ENDBRANCH   9  10
ENDBRANCH   8   9
ENDBRANCH   7   8
ENDBRANCH   6   7
ENDBRANCH   5   6
ENDBRANCH   4   5
ENDBRANCH   3   4
ENDBRANCH   2   3
ENDBRANCH   1   2
BRANCH   1  17
ATOM     17  C   UNL     1     173.185 173.929 150.390  1.00  0.00     0.000 C 
BRANCH  17  18
ATOM     18  C   UNL     1     173.808 174.915 151.391  1.00  0.00     0.000 C 
BRANCH  18  19
ATOM     19  C   UNL     1     174.035 176.311 150.782  1.00  0.00     0.000 C 
BRANCH  19  20
ATOM     20  C   UNL     1     175.351 176.953 151.252  1.00  0.00     0.000 C 
BRANCH  20  21
ATOM     21  C   UNL     1     175.206 177.686 152.599  1.00  0.00     0.000 C 
BRANCH  21  22
ATOM     22  C   UNL     1     175.877 176.938 153.761  1.00  0.00    -0.000 C 
BRANCH  22  23
ATOM     23  C   UNL     1     174.860 176.233 154.678  1.00  0.00    -0.000 C 
BRANCH  23  24
ATOM     24  C   UNL     1     173.439 176.826 154.563  1.00  0.00    -0.000 C 
BRANCH  24  25
ATOM     25  C   UNL     1     172.312 175.785 154.664  1.00  0.00    -0.000 C 
BRANCH  25  26
ATOM     26  C   UNL     1     170.956 176.309 154.170  1.00  0.00    -0.000 C 
BRANCH  26  27
ATOM     27  C   UNL     1     171.135 177.297 153.008  1.00  0.00    -0.000 C 
BRANCH  27  28
ATOM     28  C   UNL     1     170.609 176.752 151.668  1.00  0.00    -0.000 C 
BRANCH  28  29
ATOM     29  C   UNL     1     169.189 176.159 151.724  1.00  0.00    -0.003 C 
ATOM     30  C   UNL     1     168.230 176.812 150.730  1.00  0.00     0.004 C 
ENDBRANCH  28  29
ENDBRANCH  27  28
ENDBRANCH  26  27
ENDBRANCH  25  26
ENDBRANCH  24  25
ENDBRANCH  23  24
ENDBRANCH  22  23
ENDBRANCH  21  22
ENDBRANCH  20  21
ENDBRANCH  19  20
ENDBRANCH  18  19
ENDBRANCH  17  18
ENDBRANCH   1  17
TORSDOF 26
ENDMDL
MODEL 6
REMARK VINA RESULT:    -4.015      6.328     10.787
REMARK INTER + INTRA:         -14.510
REMARK INTER:                 -10.176
REMARK INTRA:                  -4.334
REMARK UNBOUND:                -4.392
REMARK SMILES CCCCCCCCCCCCCCCCCCCCCCCCCCCC(=O)[O-]
REMARK SMILES IDX 15 1 16 2 17 3 18 4 19 5 20 6 21 7 22 8 23 9 24 10 25 11
REMARK SMILES IDX 26 12 27 13 28 14 29 15 30 16 14 17 13 18 12 19 11 20 10 21
REMARK SMILES IDX 9 22 8 23 7 24 6 25 5 26 4 27 3 28 2 29 1 30
REMARK H PARENT
REMARK Flexibility Score: inf
ROOT
ATOM      1  C   UNL     1     175.216 174.236 151.441  1.00  0.00     0.000 C 
ENDROOT
BRANCH   1   2
ATOM      2  C   UNL     1     176.698 174.192 151.032  1.00  0.00     0.000 C 
BRANCH   2   3
ATOM      3  C   UNL     1     176.988 173.102 149.988  1.00  0.00     0.000 C 
BRANCH   3   4
ATOM      4  C   UNL     1     176.048 171.887 150.134  1.00  0.00     0.000 C 
BRANCH   4   5
ATOM      5  C   UNL     1     176.651 170.732 150.951  1.00  0.00     0.000 C 
BRANCH   5   6
ATOM      6  C   UNL     1     175.752 170.305 152.122  1.00  0.00     0.000 C 
BRANCH   6   7
ATOM      7  C   UNL     1     176.319 170.718 153.488  1.00  0.00     0.000 C 
BRANCH   7   8
ATOM      8  C   UNL     1     175.645 171.977 154.063  1.00  0.00     0.000 C 
BRANCH   8   9
ATOM      9  C   UNL     1     176.641 172.921 154.762  1.00  0.00     0.000 C 
BRANCH   9  10
ATOM     10  C   UNL     1     176.560 172.922 156.299  1.00  0.00     0.000 C 
BRANCH  10  11
ATOM     11  C   UNL     1     176.835 174.303 156.914  1.00  0.00     0.000 C 
BRANCH  11  12
ATOM     12  C   UNL     1     177.852 174.193 158.059  1.00  0.00     0.006 C 
BRANCH  12  13
ATOM     13  C   UNL     1     177.329 174.805 159.365  1.00  0.00     0.053 C 
BRANCH  13  14
ATOM     14  C   UNL     1     177.249 173.793 160.466  1.00  0.00     0.041 C 
ATOM     15  O   UNL     1     177.650 174.084 161.625  1.00  0.00    -0.550 OA
ATOM     16  O   UNL     1     176.734 172.526 160.213  1.00  0.00    -0.550 OA
ENDBRANCH  13  14
ENDBRANCH  12  13
ENDBRANCH  11  12
ENDBRANCH  10  11
ENDBRANCH   9  10
ENDBRANCH   8   9
ENDBRANCH   7   8
ENDBRANCH   6   7
ENDBRANCH   5   6
ENDBRANCH   4   5
ENDBRANCH   3   4
ENDBRANCH   2   3
ENDBRANCH   1   2
BRANCH   1  17
ATOM     17  C   UNL     1     174.489 175.469 150.881  1.00  0.00     0.000 C 
BRANCH  17  18
ATOM     18  C   UNL     1     175.404 176.700 150.778  1.00  0.00     0.000 C 
BRANCH  18  19
ATOM     19  C   UNL     1     174.694 178.000 151.197  1.00  0.00     0.000 C 
BRANCH  19  20
ATOM     20  C   UNL     1     174.541 178.124 152.722  1.00  0.00     0.000 C 
BRANCH  20  21
ATOM     21  C   UNL     1     175.847 177.811 153.476  1.00  0.00     0.000 C 
BRANCH  21  22
ATOM     22  C   UNL     1     175.702 176.641 154.462  1.00  0.00    -0.000 C 
BRANCH  22  23
ATOM     23  C   UNL     1     174.749 176.963 155.628  1.00  0.00    -0.000 C 
BRANCH  23  24
ATOM     24  C   UNL     1     173.634 175.909 155.798  1.00  0.00    -0.000 C 
BRANCH  24  25
ATOM     25  C   UNL     1     173.431 175.003 154.572  1.00  0.00    -0.000 C 
BRANCH  25  26
ATOM     26  C   UNL     1     172.289 175.467 153.657  1.00  0.00    -0.000 C 
BRANCH  26  27
ATOM     27  C   UNL     1     171.394 176.494 154.366  1.00  0.00    -0.000 C 
BRANCH  27  28
ATOM     28  C   UNL     1     170.010 176.642 153.709  1.00  0.00    -0.000 C 
BRANCH  28  29
ATOM     29  C   UNL     1     170.034 176.764 152.174  1.00  0.00    -0.003 C 
ATOM     30  C   UNL     1     171.078 177.761 151.671  1.00  0.00     0.004 C 
ENDBRANCH  28  29
ENDBRANCH  27  28
ENDBRANCH  26  27
ENDBRANCH  25  26
ENDBRANCH  24  25
ENDBRANCH  23  24
ENDBRANCH  22  23
ENDBRANCH  21  22
ENDBRANCH  20  21
ENDBRANCH  19  20
ENDBRANCH  18  19
ENDBRANCH  17  18
ENDBRANCH   1  17
TORSDOF 26
ENDMDL
MODEL 7
REMARK VINA RESULT:    -3.998      6.635     10.718
REMARK INTER + INTRA:         -14.467
REMARK INTER:                  -9.063
REMARK INTRA:                  -5.404
REMARK UNBOUND:                -4.392
REMARK SMILES CCCCCCCCCCCCCCCCCCCCCCCCCCCC(=O)[O-]
REMARK SMILES IDX 15 1 16 2 17 3 18 4 19 5 20 6 21 7 22 8 23 9 24 10 25 11
REMARK SMILES IDX 26 12 27 13 28 14 29 15 30 16 14 17 13 18 12 19 11 20 10 21
REMARK SMILES IDX 9 22 8 23 7 24 6 25 5 26 4 27 3 28 2 29 1 30
REMARK H PARENT
REMARK Flexibility Score: inf
ROOT
ATOM      1  C   UNL     1     173.756 176.059 150.779  1.00  0.00     0.000 C 
ENDROOT
BRANCH   1   2
ATOM      2  C   UNL     1     174.560 174.796 151.127  1.00  0.00     0.000 C 
BRANCH   2   3
ATOM      3  C   UNL     1     176.062 174.957 150.843  1.00  0.00     0.000 C 
BRANCH   3   4
ATOM      4  C   UNL     1     176.858 173.672 151.157  1.00  0.00     0.000 C 
BRANCH   4   5
ATOM      5  C   UNL     1     176.877 172.658 150.001  1.00  0.00     0.000 C 
BRANCH   5   6
ATOM      6  C   UNL     1     175.852 171.529 150.190  1.00  0.00     0.000 C 
BRANCH   6   7
ATOM      7  C   UNL     1     176.464 170.269 150.818  1.00  0.00     0.000 C 
BRANCH   7   8
ATOM      8  C   UNL     1     175.835 169.906 152.175  1.00  0.00     0.000 C 
BRANCH   8   9
ATOM      9  C   UNL     1     176.551 170.573 153.363  1.00  0.00     0.000 C 
BRANCH   9  10
ATOM     10  C   UNL     1     175.867 171.843 153.900  1.00  0.00     0.000 C 
BRANCH  10  11
ATOM     11  C   UNL     1     174.415 171.603 154.342  1.00  0.00     0.000 C 
BRANCH  11  12
ATOM     12  C   UNL     1     173.440 172.368 153.436  1.00  0.00     0.006 C 
BRANCH  12  13
ATOM     13  C   UNL     1     172.434 171.439 152.745  1.00  0.00     0.053 C 
BRANCH  13  14
ATOM     14  C   UNL     1     172.079 171.918 151.371  1.00  0.00     0.041 C 
ATOM     15  O   UNL     1     172.255 171.168 150.373  1.00  0.00    -0.550 OA
ATOM     16  O   UNL     1     171.557 173.195 151.190  1.00  0.00    -0.550 OA
ENDBRANCH  13  14
ENDBRANCH  12  13
ENDBRANCH  11  12
ENDBRANCH  10  11
ENDBRANCH   9  10
ENDBRANCH   8   9
ENDBRANCH   7   8
ENDBRANCH   6   7
ENDBRANCH   5   6
ENDBRANCH   4   5
ENDBRANCH   3   4
ENDBRANCH   2   3
ENDBRANCH   1   2
BRANCH   1  17
ATOM     17  C   UNL     1     174.659 177.273 150.502  1.00  0.00     0.000 C 
BRANCH  17  18
ATOM     18  C   UNL     1     174.905 178.125 151.758  1.00  0.00     0.000 C 
BRANCH  18  19
ATOM     19  C   UNL     1     173.721 178.085 152.741  1.00  0.00     0.000 C 
BRANCH  19  20
ATOM     20  C   UNL     1     174.141 177.643 154.153  1.00  0.00     0.000 C 
BRANCH  20  21
ATOM     21  C   UNL     1     175.534 176.985 154.179  1.00  0.00     0.000 C 
BRANCH  21  22
ATOM     22  C   UNL     1     175.482 175.493 154.544  1.00  0.00    -0.000 C 
BRANCH  22  23
ATOM     23  C   UNL     1     176.501 175.114 155.634  1.00  0.00    -0.000 C 
BRANCH  23  24
ATOM     24  C   UNL     1     175.830 174.689 156.958  1.00  0.00    -0.000 C 
BRANCH  24  25
ATOM     25  C   UNL     1     174.345 175.073 157.063  1.00  0.00    -0.000 C 
BRANCH  25  26
ATOM     26  C   UNL     1     173.443 173.903 157.479  1.00  0.00    -0.000 C 
BRANCH  26  27
ATOM     27  C   UNL     1     172.232 173.778 156.543  1.00  0.00    -0.000 C 
BRANCH  27  28
ATOM     28  C   UNL     1     172.060 174.995 155.615  1.00  0.00    -0.000 C 
BRANCH  28  29
ATOM     29  C   UNL     1     170.824 174.939 154.699  1.00  0.00    -0.003 C 
ATOM     30  C   UNL     1     169.552 174.525 155.437  1.00  0.00     0.004 C 
ENDBRANCH  28  29
ENDBRANCH  27  28
ENDBRANCH  26  27
ENDBRANCH  25  26
ENDBRANCH  24  25
ENDBRANCH  23  24
ENDBRANCH  22  23
ENDBRANCH  21  22
ENDBRANCH  20  21
ENDBRANCH  19  20
ENDBRANCH  18  19
ENDBRANCH  17  18
ENDBRANCH   1  17
TORSDOF 26
ENDMDL
MODEL 8
REMARK VINA RESULT:    -3.992      2.568      7.198
REMARK INTER + INTRA:         -14.453
REMARK INTER:                 -10.796
REMARK INTRA:                  -3.657
REMARK UNBOUND:                -4.392
REMARK SMILES CCCCCCCCCCCCCCCCCCCCCCCCCCCC(=O)[O-]
REMARK SMILES IDX 15 1 16 2 17 3 18 4 19 5 20 6 21 7 22 8 23 9 24 10 25 11
REMARK SMILES IDX 26 12 27 13 28 14 29 15 30 16 14 17 13 18 12 19 11 20 10 21
REMARK SMILES IDX 9 22 8 23 7 24 6 25 5 26 4 27 3 28 2 29 1 30
REMARK H PARENT
REMARK Flexibility Score: inf
ROOT
ATOM      1  C   UNL     1     172.022 173.777 154.703  1.00  0.00     0.000 C 
ENDROOT
BRANCH   1   2
ATOM      2  C   UNL     1     173.340 174.139 153.999  1.00  0.00     0.000 C 
BRANCH   2   3
ATOM      3  C   UNL     1     174.447 174.536 154.989  1.00  0.00     0.000 C 
BRANCH   3   4
ATOM      4  C   UNL     1     175.364 175.644 154.428  1.00  0.00     0.000 C 
BRANCH   4   5
ATOM      5  C   UNL     1     174.700 177.030 154.375  1.00  0.00     0.000 C 
BRANCH   5   6
ATOM      6  C   UNL     1     175.220 177.890 153.212  1.00  0.00     0.000 C 
BRANCH   6   7
ATOM      7  C   UNL     1     174.160 178.125 152.127  1.00  0.00     0.000 C 
BRANCH   7   8
ATOM      8  C   UNL     1     174.406 177.294 150.855  1.00  0.00     0.000 C 
BRANCH   8   9
ATOM      9  C   UNL     1     173.694 175.930 150.885  1.00  0.00     0.000 C 
BRANCH   9  10
ATOM     10  C   UNL     1     174.625 174.712 150.750  1.00  0.00     0.000 C 
BRANCH  10  11
ATOM     11  C   UNL     1     176.113 175.075 150.872  1.00  0.00     0.000 C 
BRANCH  11  12
ATOM     12  C   UNL     1     176.917 173.890 151.423  1.00  0.00     0.006 C 
BRANCH  12  13
ATOM     13  C   UNL     1     176.015 172.772 151.960  1.00  0.00     0.053 C 
BRANCH  13  14
ATOM     14  C   UNL     1     176.628 172.068 153.132  1.00  0.00     0.041 C 
ATOM     15  O   UNL     1     176.132 170.990 153.556  1.00  0.00    -0.550 OA
ATOM     16  O   UNL     1     177.747 172.606 153.760  1.00  0.00    -0.550 OA
ENDBRANCH  13  14
ENDBRANCH  12  13
ENDBRANCH  11  12
ENDBRANCH  10  11
ENDBRANCH   9  10
ENDBRANCH   8   9
ENDBRANCH   7   8
ENDBRANCH   6   7
ENDBRANCH   5   6
ENDBRANCH   4   5
ENDBRANCH   3   4
ENDBRANCH   2   3
ENDBRANCH   1   2
BRANCH   1  17
ATOM     17  C   UNL     1     170.990 174.915 154.640  1.00  0.00     0.000 C 
BRANCH  17  18
ATOM     18  C   UNL     1     171.286 175.919 153.513  1.00  0.00     0.000 C 
BRANCH  18  19
ATOM     19  C   UNL     1     170.039 176.243 152.669  1.00  0.00     0.000 C 
BRANCH  19  20
ATOM     20  C   UNL     1     169.610 175.067 151.776  1.00  0.00     0.000 C 
BRANCH  20  21
ATOM     21  C   UNL     1     168.464 175.439 150.816  1.00  0.00     0.000 C 
BRANCH  21  22
ATOM     22  C   UNL     1     168.361 176.952 150.567  1.00  0.00    -0.000 C 
BRANCH  22  23
ATOM     23  C   UNL     1     167.004 177.363 149.967  1.00  0.00    -0.000 C 
BRANCH  23  24
ATOM     24  C   UNL     1     165.812 176.647 150.637  1.00  0.00    -0.000 C 
BRANCH  24  25
ATOM     25  C   UNL     1     165.558 177.073 152.093  1.00  0.00    -0.000 C 
BRANCH  25  26
ATOM     26  C   UNL     1     164.207 177.771 152.294  1.00  0.00    -0.000 C 
BRANCH  26  27
ATOM     27  C   UNL     1     163.332 177.657 151.037  1.00  0.00    -0.000 C 
BRANCH  27  28
ATOM     28  C   UNL     1     162.442 176.401 151.036  1.00  0.00    -0.000 C 
BRANCH  28  29
ATOM     29  C   UNL     1     160.950 176.668 150.766  1.00  0.00    -0.003 C 
ATOM     30  C   UNL     1     160.136 176.852 152.046  1.00  0.00     0.004 C 
ENDBRANCH  28  29
ENDBRANCH  27  28
ENDBRANCH  26  27
ENDBRANCH  25  26
ENDBRANCH  24  25
ENDBRANCH  23  24
ENDBRANCH  22  23
ENDBRANCH  21  22
ENDBRANCH  20  21
ENDBRANCH  19  20
ENDBRANCH  18  19
ENDBRANCH  17  18
ENDBRANCH   1  17
TORSDOF 26
ENDMDL
MODEL 9
REMARK VINA RESULT:    -3.980      6.383     10.594
REMARK INTER + INTRA:         -14.420
REMARK INTER:                  -9.987
REMARK INTRA:                  -4.433
REMARK UNBOUND:                -4.392
REMARK SMILES CCCCCCCCCCCCCCCCCCCCCCCCCCCC(=O)[O-]
REMARK SMILES IDX 15 1 16 2 17 3 18 4 19 5 20 6 21 7 22 8 23 9 24 10 25 11
REMARK SMILES IDX 26 12 27 13 28 14 29 15 30 16 14 17 13 18 12 19 11 20 10 21
REMARK SMILES IDX 9 22 8 23 7 24 6 25 5 26 4 27 3 28 2 29 1 30
REMARK H PARENT
REMARK Flexibility Score: inf
ROOT
ATOM      1  C   UNL     1     173.591 172.406 149.979  1.00  0.00     0.000 C 
ENDROOT
BRANCH   1   2
ATOM      2  C   UNL     1     174.328 171.106 149.615  1.00  0.00     0.000 C 
BRANCH   2   3
ATOM      3  C   UNL     1     175.812 171.342 149.290  1.00  0.00     0.000 C 
BRANCH   3   4
ATOM      4  C   UNL     1     176.749 170.687 150.328  1.00  0.00     0.000 C 
BRANCH   4   5
ATOM      5  C   UNL     1     176.009 169.883 151.409  1.00  0.00     0.000 C 
BRANCH   5   6
ATOM      6  C   UNL     1     176.675 169.998 152.790  1.00  0.00     0.000 C 
BRANCH   6   7
ATOM      7  C   UNL     1     176.019 171.064 153.679  1.00  0.00     0.000 C 
BRANCH   7   8
ATOM      8  C   UNL     1     176.691 172.443 153.561  1.00  0.00     0.000 C 
BRANCH   8   9
ATOM      9  C   UNL     1     176.150 173.461 154.582  1.00  0.00     0.000 C 
BRANCH   9  10
ATOM     10  C   UNL     1     177.032 173.657 155.828  1.00  0.00     0.000 C 
BRANCH  10  11
ATOM     11  C   UNL     1     176.369 174.533 156.902  1.00  0.00     0.000 C 
BRANCH  11  12
ATOM     12  C   UNL     1     177.090 174.377 158.249  1.00  0.00     0.006 C 
BRANCH  12  13
ATOM     13  C   UNL     1     176.112 174.219 159.419  1.00  0.00     0.053 C 
BRANCH  13  14
ATOM     14  C   UNL     1     176.518 173.113 160.345  1.00  0.00     0.041 C 
ATOM     15  O   UNL     1     177.348 173.331 161.267  1.00  0.00    -0.550 OA
ATOM     16  O   UNL     1     175.980 171.839 160.188  1.00  0.00    -0.550 OA
ENDBRANCH  13  14
ENDBRANCH  12  13
ENDBRANCH  11  12
ENDBRANCH  10  11
ENDBRANCH   9  10
ENDBRANCH   8   9
ENDBRANCH   7   8
ENDBRANCH   6   7
ENDBRANCH   5   6
ENDBRANCH   4   5
ENDBRANCH   3   4
ENDBRANCH   2   3
ENDBRANCH   1   2
BRANCH   1  17
ATOM     17  C   UNL     1     173.506 172.627 151.498  1.00  0.00     0.000 C 
BRANCH  17  18
ATOM     18  C   UNL     1     173.743 174.092 151.897  1.00  0.00     0.000 C 
BRANCH  18  19
ATOM     19  C   UNL     1     173.424 175.074 150.755  1.00  0.00     0.000 C 
BRANCH  19  20
ATOM     20  C   UNL     1     174.358 176.296 150.748  1.00  0.00     0.000 C 
BRANCH  20  21
ATOM     21  C   UNL     1     175.541 176.143 151.722  1.00  0.00     0.000 C 
BRANCH  21  22
ATOM     22  C   UNL     1     175.786 177.403 152.567  1.00  0.00    -0.000 C 
BRANCH  22  23
ATOM     23  C   UNL     1     175.928 177.091 154.068  1.00  0.00    -0.000 C 
BRANCH  23  24
ATOM     24  C   UNL     1     175.134 178.068 154.960  1.00  0.00    -0.000 C 
BRANCH  24  25
ATOM     25  C   UNL     1     173.900 177.445 155.635  1.00  0.00    -0.000 C 
BRANCH  25  26
ATOM     26  C   UNL     1     173.336 176.240 154.871  1.00  0.00    -0.000 C 
BRANCH  26  27
ATOM     27  C   UNL     1     172.026 176.602 154.155  1.00  0.00    -0.000 C 
BRANCH  27  28
ATOM     28  C   UNL     1     172.194 177.740 153.132  1.00  0.00    -0.000 C 
BRANCH  28  29
ATOM     29  C   UNL     1     171.131 177.770 152.019  1.00  0.00    -0.003 C 
ATOM     30  C   UNL     1     170.003 176.763 152.244  1.00  0.00     0.004 C 
ENDBRANCH  28  29
ENDBRANCH  27  28
ENDBRANCH  26  27
ENDBRANCH  25  26
ENDBRANCH  24  25
ENDBRANCH  23  24
ENDBRANCH  22  23
ENDBRANCH  21  22
ENDBRANCH  20  21
ENDBRANCH  19  20
ENDBRANCH  18  19
ENDBRANCH  17  18
ENDBRANCH   1  17
TORSDOF 26
ENDMDL
