MODEL 1
REMARK VINA RESULT:    -5.306      0.000      0.000
REMARK INTER + INTRA:         -12.165
REMARK INTER:                  -9.183
REMARK INTRA:                  -2.982
REMARK UNBOUND:                -2.982
REMARK SMILES OC[C@@H]1O[C@@H](O[C@@H]2[C@H](O)[C@@H](O)[C@@H](O)O[C@H]2CO)[C@@H](O)[C@@H](O)[C@H]1O[C@@H]1O[C@H](CO)[C@@H](O)[C@@H](O)[C@@H]1O
REMARK SMILES IDX 22 1 3 2 4 3 5 4 18 5 20 6 23 7 24 8 26 9 29 10 25 11 31 12
REMARK SMILES IDX 33 13 27 14 28 15 30 17 32 19 34 21 2 23 1 24 21 26 19 28
REMARK SMILES IDX 6 30 7 31 15 32 8 33 14 34 10 35 12 36 16 37 17 38 9 40
REMARK SMILES IDX 11 42 13 44
REMARK H PARENT 28 16 30 18 32 20 34 22 1 25 21 27 19 29 17 39 9 41 11 43
REMARK H PARENT 13 45
REMARK Flexibility Score: inf
ROOT
ATOM      1  C   UNL     1      10.654  43.325  55.035  1.00  0.00     0.184 C 
ATOM      2  C   UNL     1       9.635  43.543  56.186  1.00  0.00     0.178 C 
ATOM      3  O   UNL     1       9.996  44.665  56.976  1.00  0.00    -0.341 OA
ATOM      4  C   UNL     1      11.233  44.477  57.638  1.00  0.00     0.282 C 
ATOM      5  C   UNL     1      12.376  44.347  56.617  1.00  0.00     0.202 C 
ATOM      6  C   UNL     1      12.099  43.240  55.587  1.00  0.00     0.180 C 
ENDROOT
BRANCH   1   7
ATOM      7  O   UNL     1      10.343  42.115  54.360  1.00  0.00    -0.341 OA
BRANCH   7   8
ATOM      8  C   UNL     1      10.892  42.036  53.051  1.00  0.00     0.282 C 
ATOM      9  C   UNL     1       9.093  41.796  51.462  1.00  0.00     0.178 C 
ATOM     10  C   UNL     1       8.649  40.585  52.340  1.00  0.00     0.177 C 
ATOM     11  O   UNL     1       9.992  42.673  52.142  1.00  0.00    -0.341 OA
ATOM     12  C   UNL     1       9.873  39.730  52.758  1.00  0.00     0.179 C 
ATOM     13  C   UNL     1      11.175  40.560  52.697  1.00  0.00     0.202 C 
BRANCH   9  14
ATOM     14  C   UNL     1       7.886  42.603  50.963  1.00  0.00     0.191 C 
BRANCH  14  15
ATOM     15  O   UNL     1       6.908  42.691  51.960  1.00  0.00    -0.394 OA
ATOM     16  H   UNL     1       6.040  42.509  51.519  1.00  0.00     0.210 HD
ENDBRANCH  14  15
ENDBRANCH   9  14
BRANCH  10  17
ATOM     17  O   UNL     1       7.666  39.797  51.714  1.00  0.00    -0.387 OA
ATOM     18  H   UNL     1       7.881  38.845  51.892  1.00  0.00     0.211 HD
ENDBRANCH  10  17
BRANCH  12  19
ATOM     19  O   UNL     1      10.005  38.612  51.912  1.00  0.00    -0.387 OA
ATOM     20  H   UNL     1      10.495  37.914  52.415  1.00  0.00     0.211 HD
ENDBRANCH  12  19
BRANCH  13  21
ATOM     21  O   UNL     1      12.135  40.028  53.574  1.00  0.00    -0.385 OA
ATOM     22  H   UNL     1      11.693  39.930  54.458  1.00  0.00     0.211 HD
ENDBRANCH  13  21
ENDBRANCH   7   8
ENDBRANCH   1   7
BRANCH   2  23
ATOM     23  C   UNL     1       8.225  43.808  55.638  1.00  0.00     0.191 C 
BRANCH  23  24
ATOM     24  O   UNL     1       8.230  44.004  54.251  1.00  0.00    -0.394 OA
ATOM     25  H   UNL     1       9.176  44.103  53.974  1.00  0.00     0.210 HD
ENDBRANCH  23  24
ENDBRANCH   2  23
BRANCH   6  26
ATOM     26  O   UNL     1      12.408  41.968  56.117  1.00  0.00    -0.387 OA
ATOM     27  H   UNL     1      11.596  41.404  56.082  1.00  0.00     0.211 HD
ENDBRANCH   6  26
BRANCH   5  28
ATOM     28  O   UNL     1      13.589  44.094  57.273  1.00  0.00    -0.385 OA
ATOM     29  H   UNL     1      14.303  44.135  56.581  1.00  0.00     0.211 HD
ENDBRANCH   5  28
BRANCH   4  30
ATOM     30  O   UNL     1      11.185  43.333  58.485  1.00  0.00    -0.341 OA
BRANCH  30  31
ATOM     31  C   UNL     1      11.031  43.668  59.857  1.00  0.00     0.184 C 
ATOM     32  C   UNL     1       9.630  43.215  60.363  1.00  0.00     0.178 C 
ATOM     33  C   UNL     1      12.168  42.989  60.645  1.00  0.00     0.180 C 
ATOM     34  O   UNL     1       9.493  41.807  60.528  1.00  0.00    -0.342 OA
ATOM     35  C   UNL     1      11.921  41.484  60.734  1.00  0.00     0.201 C 
ATOM     36  C   UNL     1      10.517  41.209  61.306  1.00  0.00     0.279 C 
BRANCH  32  37
ATOM     37  C   UNL     1       9.077  44.017  61.563  1.00  0.00     0.191 C 
BRANCH  37  38
ATOM     38  O   UNL     1       8.032  43.352  62.217  1.00  0.00    -0.394 OA
ATOM     39  H   UNL     1       7.188  43.644  61.786  1.00  0.00     0.210 HD
ENDBRANCH  37  38
ENDBRANCH  32  37
BRANCH  33  40
ATOM     40  O   UNL     1      13.401  43.223  60.013  1.00  0.00    -0.387 OA
ATOM     41  H   UNL     1      13.409  42.675  59.188  1.00  0.00     0.211 HD
ENDBRANCH  33  40
BRANCH  35  42
ATOM     42  O   UNL     1      12.897  40.899  61.556  1.00  0.00    -0.385 OA
ATOM     43  H   UNL     1      12.437  40.215  62.110  1.00  0.00     0.211 HD
ENDBRANCH  35  42
BRANCH  36  44
ATOM     44  O   UNL     1      10.415  41.609  62.647  1.00  0.00    -0.366 OA
ATOM     45  H   UNL     1      11.334  41.748  62.990  1.00  0.00     0.213 HD
ENDBRANCH  36  44
ENDBRANCH  30  31
ENDBRANCH   4  30
TORSDOF 18
ENDMDL
MODEL 2
REMARK VINA RESULT:    -5.002      2.320      3.969
REMARK INTER + INTRA:         -11.640
REMARK INTER:                  -8.835
REMARK INTRA:                  -2.804
REMARK UNBOUND:                -2.982
REMARK SMILES OC[C@@H]1O[C@@H](O[C@@H]2[C@H](O)[C@@H](O)[C@@H](O)O[C@H]2CO)[C@@H](O)[C@@H](O)[C@H]1O[C@@H]1O[C@H](CO)[C@@H](O)[C@@H](O)[C@@H]1O
REMARK SMILES IDX 22 1 3 2 4 3 5 4 18 5 20 6 23 7 24 8 26 9 29 10 25 11 31 12
REMARK SMILES IDX 33 13 27 14 28 15 30 17 32 19 34 21 2 23 1 24 21 26 19 28
REMARK SMILES IDX 6 30 7 31 15 32 8 33 14 34 10 35 12 36 16 37 17 38 9 40
REMARK SMILES IDX 11 42 13 44
REMARK H PARENT 28 16 30 18 32 20 34 22 1 25 21 27 19 29 17 39 9 41 11 43
REMARK H PARENT 13 45
REMARK Flexibility Score: inf
ROOT
ATOM      1  C   UNL     1       9.117  42.203  55.278  1.00  0.00     0.184 C 
ATOM      2  C   UNL     1       9.879  41.030  55.952  1.00  0.00     0.178 C 
ATOM      3  O   UNL     1       9.787  41.112  57.365  1.00  0.00    -0.341 OA
ATOM      4  C   UNL     1      10.416  42.273  57.875  1.00  0.00     0.282 C 
ATOM      5  C   UNL     1       9.699  43.539  57.374  1.00  0.00     0.202 C 
ATOM      6  C   UNL     1       9.594  43.565  55.840  1.00  0.00     0.180 C 
ENDROOT
BRANCH   1   7
ATOM      7  O   UNL     1       9.354  42.170  53.878  1.00  0.00    -0.341 OA
BRANCH   7   8
ATOM      8  C   UNL     1       8.255  42.635  53.105  1.00  0.00     0.282 C 
ATOM      9  C   UNL     1       8.024  41.234  51.155  1.00  0.00     0.178 C 
ATOM     10  C   UNL     1       9.526  41.563  50.896  1.00  0.00     0.177 C 
ATOM     11  O   UNL     1       7.618  41.510  52.496  1.00  0.00    -0.341 OA
ATOM     12  C   UNL     1       9.812  43.066  51.146  1.00  0.00     0.179 C 
ATOM     13  C   UNL     1       8.750  43.683  52.083  1.00  0.00     0.202 C 
BRANCH   9  14
ATOM     14  C   UNL     1       7.702  39.769  50.824  1.00  0.00     0.191 C 
BRANCH  14  15
ATOM     15  O   UNL     1       8.749  38.933  51.231  1.00  0.00    -0.394 OA
ATOM     16  H   UNL     1       9.187  39.385  51.996  1.00  0.00     0.210 HD
ENDBRANCH  14  15
ENDBRANCH   9  14
BRANCH  10  17
ATOM     17  O   UNL     1       9.951  41.169  49.614  1.00  0.00    -0.387 OA
ATOM     18  H   UNL     1      10.787  40.645  49.719  1.00  0.00     0.211 HD
ENDBRANCH  10  17
BRANCH  12  19
ATOM     19  O   UNL     1       9.814  43.776  49.930  1.00  0.00    -0.387 OA
ATOM     20  H   UNL     1      10.698  44.215  49.845  1.00  0.00     0.211 HD
ENDBRANCH  12  19
BRANCH  13  21
ATOM     21  O   UNL     1       9.277  44.800  52.753  1.00  0.00    -0.385 OA
ATOM     22  H   UNL     1      10.093  45.071  52.257  1.00  0.00     0.211 HD
ENDBRANCH  13  21
ENDBRANCH   7   8
ENDBRANCH   1   7
BRANCH   2  23
ATOM     23  C   UNL     1       9.291  39.673  55.536  1.00  0.00     0.191 C 
BRANCH  23  24
ATOM     24  O   UNL     1       9.347  39.480  54.150  1.00  0.00    -0.394 OA
ATOM     25  H   UNL     1      10.238  39.094  53.946  1.00  0.00     0.210 HD
ENDBRANCH  23  24
ENDBRANCH   2  23
BRANCH   6  26
ATOM     26  O   UNL     1      10.805  44.002  55.259  1.00  0.00    -0.387 OA
ATOM     27  H   UNL     1      10.624  44.813  54.721  1.00  0.00     0.211 HD
ENDBRANCH   6  26
BRANCH   5  28
ATOM     28  O   UNL     1      10.364  44.687  57.825  1.00  0.00    -0.385 OA
ATOM     29  H   UNL     1      11.229  44.728  57.336  1.00  0.00     0.211 HD
ENDBRANCH   5  28
BRANCH   4  30
ATOM     30  O   UNL     1      11.794  42.301  57.516  1.00  0.00    -0.341 OA
BRANCH  30  31
ATOM     31  C   UNL     1      12.603  42.955  58.484  1.00  0.00     0.184 C 
ATOM     32  C   UNL     1      13.256  41.904  59.430  1.00  0.00     0.178 C 
ATOM     33  C   UNL     1      13.664  43.785  57.737  1.00  0.00     0.180 C 
ATOM     34  O   UNL     1      14.305  41.148  58.832  1.00  0.00    -0.342 OA
ATOM     35  C   UNL     1      14.717  42.865  57.122  1.00  0.00     0.201 C 
ATOM     36  C   UNL     1      15.303  41.933  58.201  1.00  0.00     0.279 C 
BRANCH  32  37
ATOM     37  C   UNL     1      13.620  42.430  60.837  1.00  0.00     0.191 C 
BRANCH  37  38
ATOM     38  O   UNL     1      14.411  41.525  61.559  1.00  0.00    -0.394 OA
ATOM     39  H   UNL     1      14.198  41.658  62.519  1.00  0.00     0.210 HD
ENDBRANCH  37  38
ENDBRANCH  32  37
BRANCH  33  40
ATOM     40  O   UNL     1      13.057  44.544  56.721  1.00  0.00    -0.387 OA
ATOM     41  H   UNL     1      12.744  45.386  57.141  1.00  0.00     0.211 HD
ENDBRANCH  33  40
BRANCH  35  42
ATOM     42  O   UNL     1      15.739  43.640  56.552  1.00  0.00    -0.385 OA
ATOM     43  H   UNL     1      16.108  44.211  57.276  1.00  0.00     0.211 HD
ENDBRANCH  35  42
BRANCH  36  44
ATOM     44  O   UNL     1      16.046  42.645  59.154  1.00  0.00    -0.366 OA
ATOM     45  H   UNL     1      16.833  43.033  58.693  1.00  0.00     0.213 HD
ENDBRANCH  36  44
ENDBRANCH  30  31
ENDBRANCH   4  30
TORSDOF 18
ENDMDL
MODEL 3
REMARK VINA RESULT:    -4.999      4.929      8.257
REMARK INTER + INTRA:         -11.634
REMARK INTER:                  -9.657
REMARK INTRA:                  -1.976
REMARK UNBOUND:                -2.982
REMARK SMILES OC[C@@H]1O[C@@H](O[C@@H]2[C@H](O)[C@@H](O)[C@@H](O)O[C@H]2CO)[C@@H](O)[C@@H](O)[C@H]1O[C@@H]1O[C@H](CO)[C@@H](O)[C@@H](O)[C@@H]1O
REMARK SMILES IDX 22 1 3 2 4 3 5 4 18 5 20 6 23 7 24 8 26 9 29 10 25 11 31 12
REMARK SMILES IDX 33 13 27 14 28 15 30 17 32 19 34 21 2 23 1 24 21 26 19 28
REMARK SMILES IDX 6 30 7 31 15 32 8 33 14 34 10 35 12 36 16 37 17 38 9 40
REMARK SMILES IDX 11 42 13 44
REMARK H PARENT 28 16 30 18 32 20 34 22 1 25 21 27 19 29 17 39 9 41 11 43
REMARK H PARENT 13 45
REMARK Flexibility Score: inf
ROOT
ATOM      1  C   UNL     1      13.904  42.622  59.064  1.00  0.00     0.184 C 
ATOM      2  C   UNL     1      14.873  43.069  60.193  1.00  0.00     0.178 C 
ATOM      3  O   UNL     1      15.582  44.238  59.818  1.00  0.00    -0.341 OA
ATOM      4  C   UNL     1      16.426  44.017  58.703  1.00  0.00     0.282 C 
ATOM      5  C   UNL     1      15.595  43.661  57.459  1.00  0.00     0.202 C 
ATOM      6  C   UNL     1      14.659  42.470  57.720  1.00  0.00     0.180 C 
ENDROOT
BRANCH   1   7
ATOM      7  O   UNL     1      13.325  41.373  59.415  1.00  0.00    -0.341 OA
BRANCH   7   8
ATOM      8  C   UNL     1      12.001  41.203  58.924  1.00  0.00     0.282 C 
ATOM      9  C   UNL     1      10.480  42.433  60.336  1.00  0.00     0.178 C 
ATOM     10  C   UNL     1      11.128  41.636  61.511  1.00  0.00     0.177 C 
ATOM     11  O   UNL     1      11.274  42.413  59.149  1.00  0.00    -0.341 OA
ATOM     12  C   UNL     1      11.316  40.146  61.128  1.00  0.00     0.179 C 
ATOM     13  C   UNL     1      11.356  39.970  59.593  1.00  0.00     0.202 C 
BRANCH   9  14
ATOM     14  C   UNL     1      10.203  43.892  60.730  1.00  0.00     0.191 C 
BRANCH  14  15
ATOM     15  O   UNL     1      10.380  44.739  59.630  1.00  0.00    -0.394 OA
ATOM     16  H   UNL     1       9.728  44.449  58.944  1.00  0.00     0.210 HD
ENDBRANCH  14  15
ENDBRANCH   9  14
BRANCH  10  17
ATOM     17  O   UNL     1      10.407  41.767  62.712  1.00  0.00    -0.387 OA
ATOM     18  H   UNL     1      10.050  40.873  62.951  1.00  0.00     0.211 HD
ENDBRANCH  10  17
BRANCH  12  19
ATOM     19  O   UNL     1      10.265  39.367  61.648  1.00  0.00    -0.387 OA
ATOM     20  H   UNL     1      10.198  39.567  62.616  1.00  0.00     0.211 HD
ENDBRANCH  12  19
BRANCH  13  21
ATOM     21  O   UNL     1      12.069  38.808  59.253  1.00  0.00    -0.385 OA
ATOM     22  H   UNL     1      12.033  38.730  58.264  1.00  0.00     0.211 HD
ENDBRANCH  13  21
ENDBRANCH   7   8
ENDBRANCH   1   7
BRANCH   2  23
ATOM     23  C   UNL     1      14.108  43.396  61.484  1.00  0.00     0.191 C 
BRANCH  23  24
ATOM     24  O   UNL     1      14.767  44.366  62.252  1.00  0.00    -0.394 OA
ATOM     25  H   UNL     1      14.325  44.383  63.140  1.00  0.00     0.210 HD
ENDBRANCH  23  24
ENDBRANCH   2  23
BRANCH   6  26
ATOM     26  O   UNL     1      15.358  41.247  57.620  1.00  0.00    -0.387 OA
ATOM     27  H   UNL     1      15.430  40.999  56.665  1.00  0.00     0.211 HD
ENDBRANCH   6  26
BRANCH   5  28
ATOM     28  O   UNL     1      16.436  43.377  56.375  1.00  0.00    -0.385 OA
ATOM     29  H   UNL     1      15.848  43.121  55.614  1.00  0.00     0.211 HD
ENDBRANCH   5  28
BRANCH   4  30
ATOM     30  O   UNL     1      17.375  42.992  58.983  1.00  0.00    -0.341 OA
BRANCH  30  31
ATOM     31  C   UNL     1      18.683  43.311  58.529  1.00  0.00     0.184 C 
ATOM     32  C   UNL     1      19.516  43.923  59.694  1.00  0.00     0.178 C 
ATOM     33  C   UNL     1      19.327  42.022  57.984  1.00  0.00     0.180 C 
ATOM     34  O   UNL     1      19.918  42.982  60.685  1.00  0.00    -0.342 OA
ATOM     35  C   UNL     1      19.691  41.087  59.137  1.00  0.00     0.201 C 
ATOM     36  C   UNL     1      20.562  41.829  60.168  1.00  0.00     0.279 C 
BRANCH  32  37
ATOM     37  C   UNL     1      20.664  44.860  59.255  1.00  0.00     0.191 C 
BRANCH  37  38
ATOM     38  O   UNL     1      21.567  45.125  60.293  1.00  0.00    -0.394 OA
ATOM     39  H   UNL     1      21.028  45.350  61.094  1.00  0.00     0.210 HD
ENDBRANCH  37  38
ENDBRANCH  32  37
BRANCH  33  40
ATOM     40  O   UNL     1      18.438  41.367  57.114  1.00  0.00    -0.387 OA
ATOM     41  H   UNL     1      18.976  41.039  56.349  1.00  0.00     0.211 HD
ENDBRANCH  33  40
BRANCH  35  42
ATOM     42  O   UNL     1      20.386  39.976  58.634  1.00  0.00    -0.385 OA
ATOM     43  H   UNL     1      19.804  39.183  58.770  1.00  0.00     0.211 HD
ENDBRANCH  35  42
BRANCH  36  44
ATOM     44  O   UNL     1      21.820  42.162  59.643  1.00  0.00    -0.366 OA
ATOM     45  H   UNL     1      22.134  41.392  59.104  1.00  0.00     0.213 HD
ENDBRANCH  36  44
ENDBRANCH  30  31
ENDBRANCH   4  30
TORSDOF 18
ENDMDL
MODEL 4
REMARK VINA RESULT:    -4.877      5.260      8.606
REMARK INTER + INTRA:         -11.423
REMARK INTER:                  -8.448
REMARK INTRA:                  -2.976
REMARK UNBOUND:                -2.982
REMARK SMILES OC[C@@H]1O[C@@H](O[C@@H]2[C@H](O)[C@@H](O)[C@@H](O)O[C@H]2CO)[C@@H](O)[C@@H](O)[C@H]1O[C@@H]1O[C@H](CO)[C@@H](O)[C@@H](O)[C@@H]1O
REMARK SMILES IDX 22 1 3 2 4 3 5 4 18 5 20 6 23 7 24 8 26 9 29 10 25 11 31 12
REMARK SMILES IDX 33 13 27 14 28 15 30 17 32 19 34 21 2 23 1 24 21 26 19 28
REMARK SMILES IDX 6 30 7 31 15 32 8 33 14 34 10 35 12 36 16 37 17 38 9 40
REMARK SMILES IDX 11 42 13 44
REMARK H PARENT 28 16 30 18 32 20 34 22 1 25 21 27 19 29 17 39 9 41 11 43
REMARK H PARENT 13 45
REMARK Flexibility Score: inf
ROOT
ATOM      1  C   UNL     1      14.817  41.384  58.180  1.00  0.00     0.184 C 
ATOM      2  C   UNL     1      15.627  42.468  57.418  1.00  0.00     0.178 C 
ATOM      3  O   UNL     1      16.663  41.879  56.649  1.00  0.00    -0.341 OA
ATOM      4  C   UNL     1      17.627  41.231  57.459  1.00  0.00     0.282 C 
ATOM      5  C   UNL     1      16.992  40.048  58.211  1.00  0.00     0.202 C 
ATOM      6  C   UNL     1      15.757  40.482  59.018  1.00  0.00     0.180 C 
ENDROOT
BRANCH   1   7
ATOM      7  O   UNL     1      13.889  42.020  59.048  1.00  0.00    -0.341 OA
BRANCH   7   8
ATOM      8  C   UNL     1      12.671  41.303  59.200  1.00  0.00     0.282 C 
ATOM      9  C   UNL     1      10.825  42.810  58.829  1.00  0.00     0.178 C 
ATOM     10  C   UNL     1      11.501  43.703  59.915  1.00  0.00     0.177 C 
ATOM     11  O   UNL     1      11.713  41.834  58.283  1.00  0.00    -0.341 OA
ATOM     12  C   UNL     1      12.000  42.842  61.104  1.00  0.00     0.179 C 
ATOM     13  C   UNL     1      12.211  41.374  60.673  1.00  0.00     0.202 C 
BRANCH   9  14
ATOM     14  C   UNL     1      10.244  43.656  57.685  1.00  0.00     0.191 C 
BRANCH  14  15
ATOM     15  O   UNL     1      10.942  44.863  57.563  1.00  0.00    -0.394 OA
ATOM     16  H   UNL     1      11.807  44.644  57.133  1.00  0.00     0.210 HD
ENDBRANCH  14  15
ENDBRANCH   9  14
BRANCH  10  17
ATOM     17  O   UNL     1      10.663  44.744  60.355  1.00  0.00    -0.387 OA
ATOM     18  H   UNL     1      10.771  44.826  61.338  1.00  0.00     0.211 HD
ENDBRANCH  10  17
BRANCH  12  19
ATOM     19  O   UNL     1      11.070  42.878  62.161  1.00  0.00    -0.387 OA
ATOM     20  H   UNL     1      11.264  42.107  62.752  1.00  0.00     0.211 HD
ENDBRANCH  12  19
BRANCH  13  21
ATOM     21  O   UNL     1      13.157  40.751  61.505  1.00  0.00    -0.385 OA
ATOM     22  H   UNL     1      12.648  40.195  62.151  1.00  0.00     0.211 HD
ENDBRANCH  13  21
ENDBRANCH   7   8
ENDBRANCH   1   7
BRANCH   2  23
ATOM     23  C   UNL     1      14.731  43.252  56.447  1.00  0.00     0.191 C 
BRANCH  23  24
ATOM     24  O   UNL     1      13.759  44.003  57.121  1.00  0.00    -0.394 OA
ATOM     25  H   UNL     1      13.137  43.358  57.547  1.00  0.00     0.210 HD
ENDBRANCH  23  24
ENDBRANCH   2  23
BRANCH   6  26
ATOM     26  O   UNL     1      16.137  41.076  60.242  1.00  0.00    -0.387 OA
ATOM     27  H   UNL     1      15.758  41.988  60.283  1.00  0.00     0.211 HD
ENDBRANCH   6  26
BRANCH   5  28
ATOM     28  O   UNL     1      17.931  39.451  59.063  1.00  0.00    -0.385 OA
ATOM     29  H   UNL     1      17.587  38.542  59.277  1.00  0.00     0.211 HD
ENDBRANCH   5  28
BRANCH   4  30
ATOM     30  O   UNL     1      18.218  42.148  58.374  1.00  0.00    -0.341 OA
BRANCH  30  31
ATOM     31  C   UNL     1      19.634  42.044  58.422  1.00  0.00     0.184 C 
ATOM     32  C   UNL     1      20.278  43.104  57.479  1.00  0.00     0.178 C 
ATOM     33  C   UNL     1      20.078  42.239  59.884  1.00  0.00     0.180 C 
ATOM     34  O   UNL     1      20.201  44.442  57.961  1.00  0.00    -0.342 OA
ATOM     35  C   UNL     1      19.928  43.705  60.290  1.00  0.00     0.201 C 
ATOM     36  C   UNL     1      20.670  44.611  59.288  1.00  0.00     0.279 C 
BRANCH  32  37
ATOM     37  C   UNL     1      21.682  42.736  56.946  1.00  0.00     0.191 C 
BRANCH  37  38
ATOM     38  O   UNL     1      22.336  43.829  56.362  1.00  0.00    -0.394 OA
ATOM     39  H   UNL     1      23.138  44.016  56.916  1.00  0.00     0.210 HD
ENDBRANCH  37  38
ENDBRANCH  32  37
BRANCH  33  40
ATOM     40  O   UNL     1      19.300  41.437  60.737  1.00  0.00    -0.387 OA
ATOM     41  H   UNL     1      18.361  41.522  60.433  1.00  0.00     0.211 HD
ENDBRANCH  33  40
BRANCH  35  42
ATOM     42  O   UNL     1      20.450  43.888  61.579  1.00  0.00    -0.385 OA
ATOM     43  H   UNL     1      21.412  44.110  61.475  1.00  0.00     0.211 HD
ENDBRANCH  35  42
BRANCH  36  44
ATOM     44  O   UNL     1      22.059  44.424  59.348  1.00  0.00    -0.366 OA
ATOM     45  H   UNL     1      22.370  44.188  58.437  1.00  0.00     0.213 HD
ENDBRANCH  36  44
ENDBRANCH  30  31
ENDBRANCH   4  30
TORSDOF 18
ENDMDL
MODEL 5
REMARK VINA RESULT:    -4.872      3.911      7.868
REMARK INTER + INTRA:         -11.415
REMARK INTER:                  -8.431
REMARK INTRA:                  -2.984
REMARK UNBOUND:                -2.982
REMARK SMILES OC[C@@H]1O[C@@H](O[C@@H]2[C@H](O)[C@@H](O)[C@@H](O)O[C@H]2CO)[C@@H](O)[C@@H](O)[C@H]1O[C@@H]1O[C@H](CO)[C@@H](O)[C@@H](O)[C@@H]1O
REMARK SMILES IDX 22 1 3 2 4 3 5 4 18 5 20 6 23 7 24 8 26 9 29 10 25 11 31 12
REMARK SMILES IDX 33 13 27 14 28 15 30 17 32 19 34 21 2 23 1 24 21 26 19 28
REMARK SMILES IDX 6 30 7 31 15 32 8 33 14 34 10 35 12 36 16 37 17 38 9 40
REMARK SMILES IDX 11 42 13 44
REMARK H PARENT 28 16 30 18 32 20 34 22 1 25 21 27 19 29 17 39 9 41 11 43
REMARK H PARENT 13 45
REMARK Flexibility Score: inf
ROOT
ATOM      1  C   UNL     1      13.526  42.880  59.179  1.00  0.00     0.184 C 
ATOM      2  C   UNL     1      14.322  41.573  59.440  1.00  0.00     0.178 C 
ATOM      3  O   UNL     1      15.718  41.823  59.452  1.00  0.00    -0.341 OA
ATOM      4  C   UNL     1      16.191  42.272  58.195  1.00  0.00     0.282 C 
ATOM      5  C   UNL     1      15.564  43.631  57.838  1.00  0.00     0.202 C 
ATOM      6  C   UNL     1      14.028  43.583  57.894  1.00  0.00     0.180 C 
ENDROOT
BRANCH   1   7
ATOM      7  O   UNL     1      12.149  42.566  59.030  1.00  0.00    -0.341 OA
BRANCH   7   8
ATOM      8  C   UNL     1      11.291  43.692  59.169  1.00  0.00     0.282 C 
ATOM      9  C   UNL     1       9.743  43.276  60.971  1.00  0.00     0.178 C 
ATOM     10  C   UNL     1       9.405  41.958  60.207  1.00  0.00     0.177 C 
ATOM     11  O   UNL     1      10.979  43.857  60.554  1.00  0.00    -0.341 OA
ATOM     12  C   UNL     1       9.279  42.222  58.685  1.00  0.00     0.179 C 
ATOM     13  C   UNL     1      10.042  43.502  58.280  1.00  0.00     0.202 C 
BRANCH   9  14
ATOM     14  C   UNL     1       9.782  43.052  62.491  1.00  0.00     0.191 C 
BRANCH  14  15
ATOM     15  O   UNL     1      10.342  41.804  62.789  1.00  0.00    -0.394 OA
ATOM     16  H   UNL     1      11.288  41.972  63.032  1.00  0.00     0.210 HD
ENDBRANCH  14  15
ENDBRANCH   9  14
BRANCH  10  17
ATOM     17  O   UNL     1       8.255  41.323  60.712  1.00  0.00    -0.387 OA
ATOM     18  H   UNL     1       8.470  40.982  61.619  1.00  0.00     0.211 HD
ENDBRANCH  10  17
BRANCH  12  19
ATOM     19  O   UNL     1       7.927  42.363  58.320  1.00  0.00    -0.387 OA
ATOM     20  H   UNL     1       7.387  42.303  59.148  1.00  0.00     0.211 HD
ENDBRANCH  12  19
BRANCH  13  21
ATOM     21  O   UNL     1      10.417  43.441  56.927  1.00  0.00    -0.385 OA
ATOM     22  H   UNL     1       9.785  42.817  56.483  1.00  0.00     0.211 HD
ENDBRANCH  13  21
ENDBRANCH   7   8
ENDBRANCH   1   7
BRANCH   2  23
ATOM     23  C   UNL     1      13.958  40.963  60.802  1.00  0.00     0.191 C 
BRANCH  23  24
ATOM     24  O   UNL     1      13.042  41.757  61.505  1.00  0.00    -0.394 OA
ATOM     25  H   UNL     1      12.821  42.529  60.924  1.00  0.00     0.210 HD
ENDBRANCH  23  24
ENDBRANCH   2  23
BRANCH   6  26
ATOM     26  O   UNL     1      13.498  43.012  56.716  1.00  0.00    -0.387 OA
ATOM     27  H   UNL     1      14.246  42.682  56.159  1.00  0.00     0.211 HD
ENDBRANCH   6  26
BRANCH   5  28
ATOM     28  O   UNL     1      15.981  44.041  56.564  1.00  0.00    -0.385 OA
ATOM     29  H   UNL     1      15.210  44.512  56.148  1.00  0.00     0.211 HD
ENDBRANCH   5  28
BRANCH   4  30
ATOM     30  O   UNL     1      15.919  41.312  57.179  1.00  0.00    -0.341 OA
BRANCH  30  31
ATOM     31  C   UNL     1      17.066  40.558  56.811  1.00  0.00     0.184 C 
ATOM     32  C   UNL     1      16.918  39.089  57.308  1.00  0.00     0.178 C 
ATOM     33  C   UNL     1      17.213  40.629  55.279  1.00  0.00     0.180 C 
ATOM     34  O   UNL     1      15.977  38.313  56.573  1.00  0.00    -0.342 OA
ATOM     35  C   UNL     1      16.136  39.779  54.606  1.00  0.00     0.201 C 
ATOM     36  C   UNL     1      16.165  38.344  55.168  1.00  0.00     0.279 C 
BRANCH  32  37
ATOM     37  C   UNL     1      18.251  38.345  57.550  1.00  0.00     0.191 C 
BRANCH  37  38
ATOM     38  O   UNL     1      18.075  36.962  57.692  1.00  0.00    -0.394 OA
ATOM     39  H   UNL     1      18.761  36.524  57.125  1.00  0.00     0.210 HD
ENDBRANCH  37  38
ENDBRANCH  32  37
BRANCH  33  40
ATOM     40  O   UNL     1      17.096  41.960  54.844  1.00  0.00    -0.387 OA
ATOM     41  H   UNL     1      16.388  41.974  54.151  1.00  0.00     0.211 HD
ENDBRANCH  33  40
BRANCH  35  42
ATOM     42  O   UNL     1      16.359  39.756  53.221  1.00  0.00    -0.385 OA
ATOM     43  H   UNL     1      16.207  40.678  52.887  1.00  0.00     0.211 HD
ENDBRANCH  35  42
BRANCH  36  44
ATOM     44  O   UNL     1      17.345  37.671  54.814  1.00  0.00    -0.366 OA
ATOM     45  H   UNL     1      17.415  36.867  55.389  1.00  0.00     0.213 HD
ENDBRANCH  36  44
ENDBRANCH  30  31
ENDBRANCH   4  30
TORSDOF 18
ENDMDL
MODEL 6
REMARK VINA RESULT:    -4.864     10.505     14.487
REMARK INTER + INTRA:         -11.401
REMARK INTER:                  -8.692
REMARK INTRA:                  -2.709
REMARK UNBOUND:                -2.982
REMARK SMILES OC[C@@H]1O[C@@H](O[C@@H]2[C@H](O)[C@@H](O)[C@@H](O)O[C@H]2CO)[C@@H](O)[C@@H](O)[C@H]1O[C@@H]1O[C@H](CO)[C@@H](O)[C@@H](O)[C@@H]1O
REMARK SMILES IDX 22 1 3 2 4 3 5 4 18 5 20 6 23 7 24 8 26 9 29 10 25 11 31 12
REMARK SMILES IDX 33 13 27 14 28 15 30 17 32 19 34 21 2 23 1 24 21 26 19 28
REMARK SMILES IDX 6 30 7 31 15 32 8 33 14 34 10 35 12 36 16 37 17 38 9 40
REMARK SMILES IDX 11 42 13 44
REMARK H PARENT 28 16 30 18 32 20 34 22 1 25 21 27 19 29 17 39 9 41 11 43
REMARK H PARENT 13 45
REMARK Flexibility Score: inf
ROOT
ATOM      1  C   UNL     1       9.357  32.494  61.845  1.00  0.00     0.184 C 
ATOM      2  C   UNL     1       9.681  32.352  60.333  1.00  0.00     0.178 C 
ATOM      3  O   UNL     1       8.491  32.250  59.568  1.00  0.00    -0.341 OA
ATOM      4  C   UNL     1       7.755  31.082  59.876  1.00  0.00     0.282 C 
ATOM      5  C   UNL     1       7.266  31.121  61.334  1.00  0.00     0.202 C 
ATOM      6  C   UNL     1       8.425  31.351  62.318  1.00  0.00     0.180 C 
ENDROOT
BRANCH   1   7
ATOM      7  O   UNL     1      10.566  32.445  62.588  1.00  0.00    -0.341 OA
BRANCH   7   8
ATOM      8  C   UNL     1      10.601  33.357  63.678  1.00  0.00     0.282 C 
ATOM      9  C   UNL     1      12.800  34.341  63.805  1.00  0.00     0.178 C 
ATOM     10  C   UNL     1      13.318  32.869  63.828  1.00  0.00     0.177 C 
ATOM     11  O   UNL     1      11.456  34.448  63.331  1.00  0.00    -0.341 OA
ATOM     12  C   UNL     1      12.446  31.993  64.764  1.00  0.00     0.179 C 
ATOM     13  C   UNL     1      11.045  32.615  64.958  1.00  0.00     0.202 C 
BRANCH   9  14
ATOM     14  C   UNL     1      13.705  35.244  62.953  1.00  0.00     0.191 C 
BRANCH  14  15
ATOM     15  O   UNL     1      12.986  35.792  61.884  1.00  0.00    -0.394 OA
ATOM     16  H   UNL     1      12.681  35.029  61.331  1.00  0.00     0.210 HD
ENDBRANCH  14  15
ENDBRANCH   9  14
BRANCH  10  17
ATOM     17  O   UNL     1      14.680  32.783  64.170  1.00  0.00    -0.387 OA
ATOM     18  H   UNL     1      15.210  33.032  63.369  1.00  0.00     0.211 HD
ENDBRANCH  10  17
BRANCH  12  19
ATOM     19  O   UNL     1      13.062  31.855  66.023  1.00  0.00    -0.387 OA
ATOM     20  H   UNL     1      13.970  32.245  65.954  1.00  0.00     0.211 HD
ENDBRANCH  12  19
BRANCH  13  21
ATOM     21  O   UNL     1      10.110  31.620  65.289  1.00  0.00    -0.385 OA
ATOM     22  H   UNL     1       9.388  32.066  65.803  1.00  0.00     0.211 HD
ENDBRANCH  13  21
ENDBRANCH   7   8
ENDBRANCH   1   7
BRANCH   2  23
ATOM     23  C   UNL     1      10.453  33.573  59.813  1.00  0.00     0.191 C 
BRANCH  23  24
ATOM     24  O   UNL     1      11.743  33.648  60.355  1.00  0.00    -0.394 OA
ATOM     25  H   UNL     1      12.318  34.086  59.677  1.00  0.00     0.210 HD
ENDBRANCH  23  24
ENDBRANCH   2  23
BRANCH   6  26
ATOM     26  O   UNL     1       9.120  30.147  62.569  1.00  0.00    -0.387 OA
ATOM     27  H   UNL     1      10.085  30.349  62.648  1.00  0.00     0.211 HD
ENDBRANCH   6  26
BRANCH   5  28
ATOM     28  O   UNL     1       6.596  29.933  61.657  1.00  0.00    -0.385 OA
ATOM     29  H   UNL     1       7.068  29.541  62.440  1.00  0.00     0.211 HD
ENDBRANCH   5  28
BRANCH   4  30
ATOM     30  O   UNL     1       8.536  29.914  59.641  1.00  0.00    -0.341 OA
BRANCH  30  31
ATOM     31  C   UNL     1       8.373  29.395  58.329  1.00  0.00     0.184 C 
ATOM     32  C   UNL     1       9.736  29.411  57.576  1.00  0.00     0.178 C 
ATOM     33  C   UNL     1       7.805  27.968  58.447  1.00  0.00     0.180 C 
ATOM     34  O   UNL     1      10.663  28.426  58.021  1.00  0.00    -0.342 OA
ATOM     35  C   UNL     1       8.884  27.011  58.954  1.00  0.00     0.201 C 
ATOM     36  C   UNL     1      10.139  27.110  58.066  1.00  0.00     0.279 C 
BRANCH  32  37
ATOM     37  C   UNL     1       9.630  29.486  56.036  1.00  0.00     0.191 C 
BRANCH  37  38
ATOM     38  O   UNL     1      10.823  29.118  55.398  1.00  0.00    -0.394 OA
ATOM     39  H   UNL     1      11.004  29.805  54.706  1.00  0.00     0.210 HD
ENDBRANCH  37  38
ENDBRANCH  32  37
BRANCH  33  40
ATOM     40  O   UNL     1       6.714  27.953  59.334  1.00  0.00    -0.387 OA
ATOM     41  H   UNL     1       6.128  28.711  59.080  1.00  0.00     0.211 HD
ENDBRANCH  33  40
BRANCH  35  42
ATOM     42  O   UNL     1       8.387  25.699  58.939  1.00  0.00    -0.385 OA
ATOM     43  H   UNL     1       7.755  25.636  58.176  1.00  0.00     0.211 HD
ENDBRANCH  35  42
BRANCH  36  44
ATOM     44  O   UNL     1       9.898  26.630  56.769  1.00  0.00    -0.366 OA
ATOM     45  H   UNL     1       9.801  27.415  56.172  1.00  0.00     0.213 HD
ENDBRANCH  36  44
ENDBRANCH  30  31
ENDBRANCH   4  30
TORSDOF 18
ENDMDL
MODEL 7
REMARK VINA RESULT:    -4.783      4.289      6.928
REMARK INTER + INTRA:         -11.261
REMARK INTER:                  -8.632
REMARK INTRA:                  -2.629
REMARK UNBOUND:                -2.982
REMARK SMILES OC[C@@H]1O[C@@H](O[C@@H]2[C@H](O)[C@@H](O)[C@@H](O)O[C@H]2CO)[C@@H](O)[C@@H](O)[C@H]1O[C@@H]1O[C@H](CO)[C@@H](O)[C@@H](O)[C@@H]1O
REMARK SMILES IDX 22 1 3 2 4 3 5 4 18 5 20 6 23 7 24 8 26 9 29 10 25 11 31 12
REMARK SMILES IDX 33 13 27 14 28 15 30 17 32 19 34 21 2 23 1 24 21 26 19 28
REMARK SMILES IDX 6 30 7 31 15 32 8 33 14 34 10 35 12 36 16 37 17 38 9 40
REMARK SMILES IDX 11 42 13 44
REMARK H PARENT 28 16 30 18 32 20 34 22 1 25 21 27 19 29 17 39 9 41 11 43
REMARK H PARENT 13 45
REMARK Flexibility Score: inf
ROOT
ATOM      1  C   UNL     1      16.308  42.081  59.079  1.00  0.00     0.184 C 
ATOM      2  C   UNL     1      15.302  43.259  58.966  1.00  0.00     0.178 C 
ATOM      3  O   UNL     1      14.761  43.586  60.235  1.00  0.00    -0.341 OA
ATOM      4  C   UNL     1      13.995  42.527  60.779  1.00  0.00     0.282 C 
ATOM      5  C   UNL     1      14.885  41.302  61.050  1.00  0.00     0.202 C 
ATOM      6  C   UNL     1      15.658  40.870  59.793  1.00  0.00     0.180 C 
ENDROOT
BRANCH   1   7
ATOM      7  O   UNL     1      16.714  41.689  57.776  1.00  0.00    -0.341 OA
BRANCH   7   8
ATOM      8  C   UNL     1      18.080  41.300  57.700  1.00  0.00     0.282 C 
ATOM      9  C   UNL     1      19.120  42.459  55.857  1.00  0.00     0.178 C 
ATOM     10  C   UNL     1      17.956  41.875  54.999  1.00  0.00     0.177 C 
ATOM     11  O   UNL     1      18.848  42.422  57.259  1.00  0.00    -0.341 OA
ATOM     12  C   UNL     1      17.695  40.391  55.361  1.00  0.00     0.179 C 
ATOM     13  C   UNL     1      18.216  40.067  56.779  1.00  0.00     0.202 C 
BRANCH   9  14
ATOM     14  C   UNL     1      19.454  43.902  55.449  1.00  0.00     0.191 C 
BRANCH  14  15
ATOM     15  O   UNL     1      18.367  44.490  54.791  1.00  0.00    -0.394 OA
ATOM     16  H   UNL     1      17.622  43.839  54.845  1.00  0.00     0.210 HD
ENDBRANCH  14  15
ENDBRANCH   9  14
BRANCH  10  17
ATOM     17  O   UNL     1      18.174  42.032  53.618  1.00  0.00    -0.387 OA
ATOM     18  H   UNL     1      17.507  41.475  53.140  1.00  0.00     0.211 HD
ENDBRANCH  10  17
BRANCH  12  19
ATOM     19  O   UNL     1      18.330  39.539  54.437  1.00  0.00    -0.387 OA
ATOM     20  H   UNL     1      19.307  39.655  54.549  1.00  0.00     0.211 HD
ENDBRANCH  12  19
BRANCH  13  21
ATOM     21  O   UNL     1      17.513  38.979  57.322  1.00  0.00    -0.385 OA
ATOM     22  H   UNL     1      17.787  38.176  56.807  1.00  0.00     0.211 HD
ENDBRANCH  13  21
ENDBRANCH   7   8
ENDBRANCH   1   7
BRANCH   2  23
ATOM     23  C   UNL     1      15.985  44.523  58.424  1.00  0.00     0.191 C 
BRANCH  23  24
ATOM     24  O   UNL     1      16.337  44.392  57.074  1.00  0.00    -0.394 OA
ATOM     25  H   UNL     1      17.240  44.787  56.969  1.00  0.00     0.210 HD
ENDBRANCH  23  24
ENDBRANCH   2  23
BRANCH   6  26
ATOM     26  O   UNL     1      14.840  40.103  58.935  1.00  0.00    -0.387 OA
ATOM     27  H   UNL     1      15.214  39.190  58.872  1.00  0.00     0.211 HD
ENDBRANCH   6  26
BRANCH   5  28
ATOM     28  O   UNL     1      14.112  40.233  61.524  1.00  0.00    -0.385 OA
ATOM     29  H   UNL     1      13.729  40.520  62.396  1.00  0.00     0.211 HD
ENDBRANCH   5  28
BRANCH   4  30
ATOM     30  O   UNL     1      12.919  42.183  59.911  1.00  0.00    -0.341 OA
BRANCH  30  31
ATOM     31  C   UNL     1      11.733  41.838  60.612  1.00  0.00     0.184 C 
ATOM     32  C   UNL     1      10.886  43.115  60.889  1.00  0.00     0.178 C 
ATOM     33  C   UNL     1      10.956  40.813  59.762  1.00  0.00     0.180 C 
ATOM     34  O   UNL     1      10.239  43.651  59.738  1.00  0.00    -0.342 OA
ATOM     35  C   UNL     1      10.330  41.501  58.550  1.00  0.00     0.201 C 
ATOM     36  C   UNL     1       9.481  42.705  59.002  1.00  0.00     0.279 C 
BRANCH  32  37
ATOM     37  C   UNL     1       9.952  43.027  62.117  1.00  0.00     0.191 C 
BRANCH  37  38
ATOM     38  O   UNL     1      10.361  42.048  63.033  1.00  0.00    -0.394 OA
ATOM     39  H   UNL     1       9.563  41.799  63.566  1.00  0.00     0.210 HD
ENDBRANCH  37  38
ENDBRANCH  32  37
BRANCH  33  40
ATOM     40  O   UNL     1      11.820  39.794  59.326  1.00  0.00    -0.387 OA
ATOM     41  H   UNL     1      12.486  39.654  60.047  1.00  0.00     0.211 HD
ENDBRANCH  33  40
BRANCH  35  42
ATOM     42  O   UNL     1       9.528  40.583  57.856  1.00  0.00    -0.385 OA
ATOM     43  H   UNL     1       9.776  40.647  56.896  1.00  0.00     0.211 HD
ENDBRANCH  35  42
BRANCH  36  44
ATOM     44  O   UNL     1       8.354  42.300  59.734  1.00  0.00    -0.366 OA
ATOM     45  H   UNL     1       8.361  42.793  60.594  1.00  0.00     0.213 HD
ENDBRANCH  36  44
ENDBRANCH  30  31
ENDBRANCH   4  30
TORSDOF 18
ENDMDL
MODEL 8
REMARK VINA RESULT:    -4.755      4.108      6.650
REMARK INTER + INTRA:         -11.212
REMARK INTER:                  -8.543
REMARK INTRA:                  -2.668
REMARK UNBOUND:                -2.982
REMARK SMILES OC[C@@H]1O[C@@H](O[C@@H]2[C@H](O)[C@@H](O)[C@@H](O)O[C@H]2CO)[C@@H](O)[C@@H](O)[C@H]1O[C@@H]1O[C@H](CO)[C@@H](O)[C@@H](O)[C@@H]1O
REMARK SMILES IDX 22 1 3 2 4 3 5 4 18 5 20 6 23 7 24 8 26 9 29 10 25 11 31 12
REMARK SMILES IDX 33 13 27 14 28 15 30 17 32 19 34 21 2 23 1 24 21 26 19 28
REMARK SMILES IDX 6 30 7 31 15 32 8 33 14 34 10 35 12 36 16 37 17 38 9 40
REMARK SMILES IDX 11 42 13 44
REMARK H PARENT 28 16 30 18 32 20 34 22 1 25 21 27 19 29 17 39 9 41 11 43
REMARK H PARENT 13 45
REMARK Flexibility Score: inf
ROOT
ATOM      1  C   UNL     1      13.710  42.982  59.028  1.00  0.00     0.184 C 
ATOM      2  C   UNL     1      12.564  42.676  58.026  1.00  0.00     0.178 C 
ATOM      3  O   UNL     1      11.372  43.348  58.399  1.00  0.00    -0.341 OA
ATOM      4  C   UNL     1      10.873  42.898  59.645  1.00  0.00     0.282 C 
ATOM      5  C   UNL     1      11.865  43.227  60.774  1.00  0.00     0.202 C 
ATOM      6  C   UNL     1      13.268  42.673  60.480  1.00  0.00     0.180 C 
ENDROOT
BRANCH   1   7
ATOM      7  O   UNL     1      14.838  42.180  58.706  1.00  0.00    -0.341 OA
BRANCH   7   8
ATOM      8  C   UNL     1      16.071  42.726  59.156  1.00  0.00     0.282 C 
ATOM      9  C   UNL     1      17.636  42.740  57.321  1.00  0.00     0.178 C 
ATOM     10  C   UNL     1      17.302  41.222  57.191  1.00  0.00     0.177 C 
ATOM     11  O   UNL     1      16.663  43.458  58.081  1.00  0.00    -0.341 OA
ATOM     12  C   UNL     1      17.246  40.549  58.587  1.00  0.00     0.179 C 
ATOM     13  C   UNL     1      16.972  41.592  59.693  1.00  0.00     0.202 C 
BRANCH   9  14
ATOM     14  C   UNL     1      17.785  43.404  55.943  1.00  0.00     0.191 C 
BRANCH  14  15
ATOM     15  O   UNL     1      16.747  44.317  55.723  1.00  0.00    -0.394 OA
ATOM     16  H   UNL     1      17.176  45.187  55.522  1.00  0.00     0.210 HD
ENDBRANCH  14  15
ENDBRANCH   9  14
BRANCH  10  17
ATOM     17  O   UNL     1      18.191  40.547  56.335  1.00  0.00    -0.387 OA
ATOM     18  H   UNL     1      18.127  40.966  55.438  1.00  0.00     0.211 HD
ENDBRANCH  10  17
BRANCH  12  19
ATOM     19  O   UNL     1      18.461  39.896  58.868  1.00  0.00    -0.387 OA
ATOM     20  H   UNL     1      18.410  39.560  59.798  1.00  0.00     0.211 HD
ENDBRANCH  12  19
BRANCH  13  21
ATOM     21  O   UNL     1      16.368  40.980  60.804  1.00  0.00    -0.385 OA
ATOM     22  H   UNL     1      16.660  40.031  60.801  1.00  0.00     0.211 HD
ENDBRANCH  13  21
ENDBRANCH   7   8
ENDBRANCH   1   7
BRANCH   2  23
ATOM     23  C   UNL     1      12.925  43.146  56.609  1.00  0.00     0.191 C 
BRANCH  23  24
ATOM     24  O   UNL     1      14.030  44.007  56.607  1.00  0.00    -0.394 OA
ATOM     25  H   UNL     1      14.562  43.800  57.418  1.00  0.00     0.210 HD
ENDBRANCH  23  24
ENDBRANCH   2  23
BRANCH   6  26
ATOM     26  O   UNL     1      13.344  41.298  60.794  1.00  0.00    -0.387 OA
ATOM     27  H   UNL     1      14.283  41.073  61.010  1.00  0.00     0.211 HD
ENDBRANCH   6  26
BRANCH   5  28
ATOM     28  O   UNL     1      11.399  42.721  61.996  1.00  0.00    -0.385 OA
ATOM     29  H   UNL     1      10.603  43.262  62.246  1.00  0.00     0.211 HD
ENDBRANCH   5  28
BRANCH   4  30
ATOM     30  O   UNL     1      10.603  41.501  59.607  1.00  0.00    -0.341 OA
BRANCH  30  31
ATOM     31  C   UNL     1       9.398  41.153  60.276  1.00  0.00     0.184 C 
ATOM     32  C   UNL     1       8.241  41.002  59.244  1.00  0.00     0.178 C 
ATOM     33  C   UNL     1       9.644  39.844  61.051  1.00  0.00     0.180 C 
ATOM     34  O   UNL     1       8.320  39.829  58.441  1.00  0.00    -0.342 OA
ATOM     35  C   UNL     1       9.732  38.666  60.082  1.00  0.00     0.201 C 
ATOM     36  C   UNL     1       8.486  38.628  59.176  1.00  0.00     0.279 C 
BRANCH  32  37
ATOM     37  C   UNL     1       6.824  41.248  59.812  1.00  0.00     0.191 C 
BRANCH  37  38
ATOM     38  O   UNL     1       6.851  41.772  61.111  1.00  0.00    -0.394 OA
ATOM     39  H   UNL     1       5.908  41.875  61.401  1.00  0.00     0.210 HD
ENDBRANCH  37  38
ENDBRANCH  32  37
BRANCH  33  40
ATOM     40  O   UNL     1      10.837  39.934  61.787  1.00  0.00    -0.387 OA
ATOM     41  H   UNL     1      11.061  40.898  61.852  1.00  0.00     0.211 HD
ENDBRANCH  33  40
BRANCH  35  42
ATOM     42  O   UNL     1       9.832  37.470  60.810  1.00  0.00    -0.385 OA
ATOM     43  H   UNL     1       9.007  37.393  61.356  1.00  0.00     0.211 HD
ENDBRANCH  35  42
BRANCH  36  44
ATOM     44  O   UNL     1       7.324  38.331  59.904  1.00  0.00    -0.366 OA
ATOM     45  H   UNL     1       7.262  38.981  60.650  1.00  0.00     0.213 HD
ENDBRANCH  36  44
ENDBRANCH  30  31
ENDBRANCH   4  30
TORSDOF 18
ENDMDL
MODEL 9
REMARK VINA RESULT:    -4.753      5.860      9.825
REMARK INTER + INTRA:         -11.209
REMARK INTER:                  -9.087
REMARK INTRA:                  -2.122
REMARK UNBOUND:                -2.982
REMARK SMILES OC[C@@H]1O[C@@H](O[C@@H]2[C@H](O)[C@@H](O)[C@@H](O)O[C@H]2CO)[C@@H](O)[C@@H](O)[C@H]1O[C@@H]1O[C@H](CO)[C@@H](O)[C@@H](O)[C@@H]1O
REMARK SMILES IDX 22 1 3 2 4 3 5 4 18 5 20 6 23 7 24 8 26 9 29 10 25 11 31 12
REMARK SMILES IDX 33 13 27 14 28 15 30 17 32 19 34 21 2 23 1 24 21 26 19 28
REMARK SMILES IDX 6 30 7 31 15 32 8 33 14 34 10 35 12 36 16 37 17 38 9 40
REMARK SMILES IDX 11 42 13 44
REMARK H PARENT 28 16 30 18 32 20 34 22 1 25 21 27 19 29 17 39 9 41 11 43
REMARK H PARENT 13 45
REMARK Flexibility Score: inf
ROOT
ATOM      1  C   UNL     1      18.048  42.261  58.394  1.00  0.00     0.184 C 
ATOM      2  C   UNL     1      17.077  41.072  58.628  1.00  0.00     0.178 C 
ATOM      3  O   UNL     1      16.042  41.064  57.659  1.00  0.00    -0.341 OA
ATOM      4  C   UNL     1      15.215  42.210  57.752  1.00  0.00     0.282 C 
ATOM      5  C   UNL     1      16.020  43.483  57.439  1.00  0.00     0.202 C 
ATOM      6  C   UNL     1      17.271  43.600  58.326  1.00  0.00     0.180 C 
ENDROOT
BRANCH   1   7
ATOM      7  O   UNL     1      18.980  42.320  59.464  1.00  0.00    -0.341 OA
BRANCH   7   8
ATOM      8  C   UNL     1      20.238  42.866  59.092  1.00  0.00     0.282 C 
ATOM      9  C   UNL     1      21.991  41.485  60.008  1.00  0.00     0.178 C 
ATOM     10  C   UNL     1      21.272  41.700  61.375  1.00  0.00     0.177 C 
ATOM     11  O   UNL     1      21.158  41.791  58.889  1.00  0.00    -0.341 OA
ATOM     12  C   UNL     1      20.832  43.177  61.540  1.00  0.00     0.179 C 
ATOM     13  C   UNL     1      20.703  43.873  60.167  1.00  0.00     0.202 C 
BRANCH   9  14
ATOM     14  C   UNL     1      22.515  40.048  59.865  1.00  0.00     0.191 C 
BRANCH  14  15
ATOM     15  O   UNL     1      21.623  39.140  60.448  1.00  0.00    -0.394 OA
ATOM     16  H   UNL     1      22.147  38.327  60.657  1.00  0.00     0.210 HD
ENDBRANCH  14  15
ENDBRANCH   9  14
BRANCH  10  17
ATOM     17  O   UNL     1      22.051  41.274  62.466  1.00  0.00    -0.387 OA
ATOM     18  H   UNL     1      22.132  40.286  62.415  1.00  0.00     0.211 HD
ENDBRANCH  10  17
BRANCH  12  19
ATOM     19  O   UNL     1      21.765  43.884  62.323  1.00  0.00    -0.387 OA
ATOM     20  H   UNL     1      22.042  44.682  61.807  1.00  0.00     0.211 HD
ENDBRANCH  12  19
BRANCH  13  21
ATOM     21  O   UNL     1      19.801  44.947  60.245  1.00  0.00    -0.385 OA
ATOM     22  H   UNL     1      19.022  44.708  59.678  1.00  0.00     0.211 HD
ENDBRANCH  13  21
ENDBRANCH   7   8
ENDBRANCH   1   7
BRANCH   2  23
ATOM     23  C   UNL     1      17.811  39.726  58.519  1.00  0.00     0.191 C 
BRANCH  23  24
ATOM     24  O   UNL     1      18.852  39.619  59.450  1.00  0.00    -0.394 OA
ATOM     25  H   UNL     1      19.159  38.677  59.436  1.00  0.00     0.210 HD
ENDBRANCH  23  24
ENDBRANCH   2  23
BRANCH   6  26
ATOM     26  O   UNL     1      16.939  44.105  59.602  1.00  0.00    -0.387 OA
ATOM     27  H   UNL     1      16.872  43.349  60.235  1.00  0.00     0.211 HD
ENDBRANCH   6  26
BRANCH   5  28
ATOM     28  O   UNL     1      15.216  44.620  57.598  1.00  0.00    -0.385 OA
ATOM     29  H   UNL     1      14.458  44.527  56.962  1.00  0.00     0.211 HD
ENDBRANCH   5  28
BRANCH   4  30
ATOM     30  O   UNL     1      14.617  42.299  59.042  1.00  0.00    -0.341 OA
BRANCH  30  31
ATOM     31  C   UNL     1      13.467  43.133  59.061  1.00  0.00     0.184 C 
ATOM     32  C   UNL     1      12.482  42.707  57.933  1.00  0.00     0.178 C 
ATOM     33  C   UNL     1      12.820  43.022  60.455  1.00  0.00     0.180 C 
ATOM     34  O   UNL     1      11.795  41.485  58.185  1.00  0.00    -0.342 OA
ATOM     35  C   UNL     1      12.137  41.663  60.612  1.00  0.00     0.201 C 
ATOM     36  C   UNL     1      11.155  41.425  59.449  1.00  0.00     0.279 C 
BRANCH  32  37
ATOM     37  C   UNL     1      11.547  43.828  57.425  1.00  0.00     0.191 C 
BRANCH  37  38
ATOM     38  O   UNL     1      12.224  44.781  56.651  1.00  0.00    -0.394 OA
ATOM     39  H   UNL     1      11.629  45.013  55.893  1.00  0.00     0.210 HD
ENDBRANCH  37  38
ENDBRANCH  32  37
BRANCH  33  40
ATOM     40  O   UNL     1      13.796  43.172  61.455  1.00  0.00    -0.387 OA
ATOM     41  H   UNL     1      14.162  42.269  61.637  1.00  0.00     0.211 HD
ENDBRANCH  33  40
BRANCH  35  42
ATOM     42  O   UNL     1      11.450  41.626  61.835  1.00  0.00    -0.385 OA
ATOM     43  H   UNL     1      12.133  41.520  62.549  1.00  0.00     0.211 HD
ENDBRANCH  35  42
BRANCH  36  44
ATOM     44  O   UNL     1      10.070  42.314  59.495  1.00  0.00    -0.366 OA
ATOM     45  H   UNL     1       9.440  41.983  60.185  1.00  0.00     0.213 HD
ENDBRANCH  36  44
ENDBRANCH  30  31
ENDBRANCH   4  30
TORSDOF 18
ENDMDL
