MODEL 1
REMARK VINA RESULT:    -7.450      0.000      0.000
REMARK INTER + INTRA:          -9.987
REMARK INTER:                  -9.410
REMARK INTRA:                  -0.577
REMARK UNBOUND:                -0.577
REMARK SMILES O=C(C=Cc1ccc(O)cc1)c1ccc(O)cc1O
REMARK SMILES IDX 4 1 3 2 5 3 6 4 7 5 8 6 11 7 10 8 9 9 2 11 1 12 12 13 18 14
REMARK SMILES IDX 13 15 17 16 14 17 15 18 19 19 16 21
REMARK H PARENT 9 10 19 20 16 22
REMARK Flexibility Score: inf
ROOT
ATOM      1  C   UNL     1      -6.712  61.825  53.970  1.00  0.00     0.012 C 
ATOM      2  C   UNL     1      -6.216  63.024  53.632  1.00  0.00     0.053 C 
ENDROOT
BRANCH   1   3
ATOM      3  C   UNL     1      -5.965  60.815  54.761  1.00  0.00    -0.025 A 
ATOM      4  C   UNL     1      -4.561  60.847  54.733  1.00  0.00     0.012 A 
ATOM      5  C   UNL     1      -3.813  59.913  55.457  1.00  0.00     0.047 A 
ATOM      6  C   UNL     1      -4.457  58.926  56.208  1.00  0.00     0.115 A 
ATOM      7  C   UNL     1      -6.608  59.809  55.510  1.00  0.00     0.012 A 
ATOM      8  C   UNL     1      -5.856  58.875  56.231  1.00  0.00     0.047 A 
BRANCH   6   9
ATOM      9  O   UNL     1      -3.699  58.001  56.923  1.00  0.00    -0.508 OA
ATOM     10  H   UNL     1      -2.718  57.852  56.719  1.00  0.00     0.293 HD
ENDBRANCH   6   9
ENDBRANCH   1   3
BRANCH   2  11
ATOM     11  C   UNL     1      -6.984  64.013  52.844  1.00  0.00     0.189 C 
ATOM     12  O   UNL     1      -8.177  64.244  53.177  1.00  0.00    -0.289 OA
BRANCH  11  13
ATOM     13  C   UNL     1      -6.416  64.736  51.683  1.00  0.00     0.064 A 
ATOM     14  C   UNL     1      -6.023  66.087  51.776  1.00  0.00     0.130 A 
ATOM     15  C   UNL     1      -6.306  64.072  50.450  1.00  0.00     0.020 A 
ATOM     16  C   UNL     1      -5.489  66.737  50.655  1.00  0.00     0.093 A 
ATOM     17  C   UNL     1      -5.777  64.729  49.336  1.00  0.00     0.047 A 
ATOM     18  C   UNL     1      -5.363  66.060  49.435  1.00  0.00     0.119 A 
BRANCH  14  19
ATOM     19  O   UNL     1      -6.182  66.786  52.973  1.00  0.00    -0.507 OA
ATOM     20  H   UNL     1      -6.071  66.332  53.873  1.00  0.00     0.293 HD
ENDBRANCH  14  19
BRANCH  18  21
ATOM     21  O   UNL     1      -4.834  66.701  48.317  1.00  0.00    -0.508 OA
ATOM     22  H   UNL     1      -4.657  66.201  47.455  1.00  0.00     0.293 HD
ENDBRANCH  18  21
ENDBRANCH  11  13
ENDBRANCH   2  11
TORSDOF 6
ENDMDL
MODEL 2
REMARK VINA RESULT:    -7.346     13.218     16.255
REMARK INTER + INTRA:          -9.856
REMARK INTER:                  -9.312
REMARK INTRA:                  -0.544
REMARK UNBOUND:                -0.577
REMARK SMILES O=C(C=Cc1ccc(O)cc1)c1ccc(O)cc1O
REMARK SMILES IDX 4 1 3 2 5 3 6 4 7 5 8 6 11 7 10 8 9 9 2 11 1 12 12 13 18 14
REMARK SMILES IDX 13 15 17 16 14 17 15 18 19 19 16 21
REMARK H PARENT 9 10 19 20 16 22
REMARK Flexibility Score: inf
ROOT
ATOM      1  C   UNL     1     -13.466  61.379  39.438  1.00  0.00     0.012 C 
ATOM      2  C   UNL     1     -12.565  62.344  39.200  1.00  0.00     0.053 C 
ENDROOT
BRANCH   1   3
ATOM      3  C   UNL     1     -14.887  61.454  39.019  1.00  0.00    -0.025 A 
ATOM      4  C   UNL     1     -15.747  60.402  39.375  1.00  0.00     0.012 A 
ATOM      5  C   UNL     1     -17.094  60.424  38.997  1.00  0.00     0.047 A 
ATOM      6  C   UNL     1     -17.596  61.491  38.248  1.00  0.00     0.115 A 
ATOM      7  C   UNL     1     -15.398  62.521  38.252  1.00  0.00     0.012 A 
ATOM      8  C   UNL     1     -16.745  62.538  37.875  1.00  0.00     0.047 A 
BRANCH   6   9
ATOM      9  O   UNL     1     -18.940  61.500  37.879  1.00  0.00    -0.508 OA
ATOM     10  H   UNL     1     -19.672  61.278  38.542  1.00  0.00     0.293 HD
ENDBRANCH   6   9
ENDBRANCH   1   3
BRANCH   2  11
ATOM     11  C   UNL     1     -11.153  62.242  39.629  1.00  0.00     0.189 C 
ATOM     12  O   UNL     1     -10.721  61.117  39.996  1.00  0.00    -0.289 OA
BRANCH  11  13
ATOM     13  C   UNL     1     -10.231  63.400  39.651  1.00  0.00     0.064 A 
ATOM     14  C   UNL     1      -9.832  64.003  40.862  1.00  0.00     0.130 A 
ATOM     15  C   UNL     1      -9.776  63.936  38.434  1.00  0.00     0.020 A 
ATOM     16  C   UNL     1      -8.956  65.097  40.842  1.00  0.00     0.093 A 
ATOM     17  C   UNL     1      -8.907  65.031  38.423  1.00  0.00     0.047 A 
ATOM     18  C   UNL     1      -8.490  65.611  39.624  1.00  0.00     0.119 A 
BRANCH  14  19
ATOM     19  O   UNL     1     -10.320  63.527  42.079  1.00  0.00    -0.507 OA
ATOM     20  H   UNL     1      -9.912  62.721  42.538  1.00  0.00     0.293 HD
ENDBRANCH  14  19
BRANCH  18  21
ATOM     21  O   UNL     1      -7.621  66.699  39.598  1.00  0.00    -0.508 OA
ATOM     22  H   UNL     1      -6.993  66.893  40.368  1.00  0.00     0.293 HD
ENDBRANCH  18  21
ENDBRANCH  11  13
ENDBRANCH   2  11
TORSDOF 6
ENDMDL
MODEL 3
REMARK VINA RESULT:    -7.190      0.989      2.033
REMARK INTER + INTRA:          -9.658
REMARK INTER:                  -9.110
REMARK INTRA:                  -0.549
REMARK UNBOUND:                -0.577
REMARK SMILES O=C(C=Cc1ccc(O)cc1)c1ccc(O)cc1O
REMARK SMILES IDX 4 1 3 2 5 3 6 4 7 5 8 6 11 7 10 8 9 9 2 11 1 12 12 13 18 14
REMARK SMILES IDX 13 15 17 16 14 17 15 18 19 19 16 21
REMARK H PARENT 9 10 19 20 16 22
REMARK Flexibility Score: inf
ROOT
ATOM      1  C   UNL     1      -6.095  62.583  53.605  1.00  0.00     0.012 C 
ATOM      2  C   UNL     1      -7.303  63.136  53.788  1.00  0.00     0.053 C 
ENDROOT
BRANCH   1   3
ATOM      3  C   UNL     1      -5.584  61.435  54.394  1.00  0.00    -0.025 A 
ATOM      4  C   UNL     1      -6.510  60.603  55.045  1.00  0.00     0.012 A 
ATOM      5  C   UNL     1      -6.077  59.512  55.805  1.00  0.00     0.047 A 
ATOM      6  C   UNL     1      -4.712  59.245  55.936  1.00  0.00     0.115 A 
ATOM      7  C   UNL     1      -4.208  61.166  54.541  1.00  0.00     0.012 A 
ATOM      8  C   UNL     1      -3.778  60.075  55.304  1.00  0.00     0.047 A 
BRANCH   6   9
ATOM      9  O   UNL     1      -4.295  58.154  56.698  1.00  0.00    -0.508 OA
ATOM     10  H   UNL     1      -3.466  58.201  57.278  1.00  0.00     0.293 HD
ENDBRANCH   6   9
ENDBRANCH   1   3
BRANCH   2  11
ATOM     11  C   UNL     1      -7.788  64.280  52.986  1.00  0.00     0.189 C 
ATOM     12  O   UNL     1      -8.874  64.824  53.320  1.00  0.00    -0.289 OA
BRANCH  11  13
ATOM     13  C   UNL     1      -7.060  64.807  51.809  1.00  0.00     0.064 A 
ATOM     14  C   UNL     1      -7.084  64.140  50.567  1.00  0.00     0.130 A 
ATOM     15  C   UNL     1      -6.294  65.977  51.946  1.00  0.00     0.020 A 
ATOM     16  C   UNL     1      -6.383  64.672  49.475  1.00  0.00     0.093 A 
ATOM     17  C   UNL     1      -5.593  66.497  50.854  1.00  0.00     0.047 A 
ATOM     18  C   UNL     1      -5.639  65.851  49.616  1.00  0.00     0.119 A 
BRANCH  14  19
ATOM     19  O   UNL     1      -7.787  62.944  50.424  1.00  0.00    -0.507 OA
ATOM     20  H   UNL     1      -7.314  62.048  50.406  1.00  0.00     0.293 HD
ENDBRANCH  14  19
BRANCH  18  21
ATOM     21  O   UNL     1      -4.939  66.383  48.536  1.00  0.00    -0.508 OA
ATOM     22  H   UNL     1      -5.304  66.334  47.593  1.00  0.00     0.293 HD
ENDBRANCH  18  21
ENDBRANCH  11  13
ENDBRANCH   2  11
TORSDOF 6
ENDMDL
MODEL 4
REMARK VINA RESULT:    -7.064     13.986     17.139
REMARK INTER + INTRA:          -9.500
REMARK INTER:                  -8.897
REMARK INTRA:                  -0.603
REMARK UNBOUND:                -0.577
REMARK SMILES O=C(C=Cc1ccc(O)cc1)c1ccc(O)cc1O
REMARK SMILES IDX 4 1 3 2 5 3 6 4 7 5 8 6 11 7 10 8 9 9 2 11 1 12 12 13 18 14
REMARK SMILES IDX 13 15 17 16 14 17 15 18 19 19 16 21
REMARK H PARENT 9 10 19 20 16 22
REMARK Flexibility Score: inf
ROOT
ATOM      1  C   UNL     1     -16.094  49.119  52.939  1.00  0.00     0.012 C 
ATOM      2  C   UNL     1     -14.881  49.128  53.511  1.00  0.00     0.053 C 
ENDROOT
BRANCH   1   3
ATOM      3  C   UNL     1     -17.318  48.606  53.604  1.00  0.00    -0.025 A 
ATOM      4  C   UNL     1     -17.236  47.401  54.322  1.00  0.00     0.012 A 
ATOM      5  C   UNL     1     -18.364  46.875  54.961  1.00  0.00     0.047 A 
ATOM      6  C   UNL     1     -19.591  47.539  54.881  1.00  0.00     0.115 A 
ATOM      7  C   UNL     1     -18.562  49.264  53.518  1.00  0.00     0.012 A 
ATOM      8  C   UNL     1     -19.688  48.733  54.157  1.00  0.00     0.047 A 
BRANCH   6   9
ATOM      9  O   UNL     1     -20.705  47.003  55.523  1.00  0.00    -0.508 OA
ATOM     10  H   UNL     1     -21.091  46.107  55.251  1.00  0.00     0.293 HD
ENDBRANCH   6   9
ENDBRANCH   1   3
BRANCH   2  11
ATOM     11  C   UNL     1     -13.678  49.646  52.825  1.00  0.00     0.189 C 
ATOM     12  O   UNL     1     -13.744  49.856  51.583  1.00  0.00    -0.289 OA
BRANCH  11  13
ATOM     13  C   UNL     1     -12.404  49.922  53.527  1.00  0.00     0.064 A 
ATOM     14  C   UNL     1     -11.733  51.154  53.380  1.00  0.00     0.130 A 
ATOM     15  C   UNL     1     -11.830  48.918  54.325  1.00  0.00     0.020 A 
ATOM     16  C   UNL     1     -10.530  51.379  54.063  1.00  0.00     0.093 A 
ATOM     17  C   UNL     1     -10.627  49.149  54.997  1.00  0.00     0.047 A 
ATOM     18  C   UNL     1      -9.976  50.379  54.873  1.00  0.00     0.119 A 
BRANCH  14  19
ATOM     19  O   UNL     1     -12.252  52.143  52.544  1.00  0.00    -0.507 OA
ATOM     20  H   UNL     1     -12.195  52.070  51.534  1.00  0.00     0.293 HD
ENDBRANCH  14  19
BRANCH  18  21
ATOM     21  O   UNL     1      -8.780  50.596  55.553  1.00  0.00    -0.508 OA
ATOM     22  H   UNL     1      -8.565  51.492  55.973  1.00  0.00     0.293 HD
ENDBRANCH  18  21
ENDBRANCH  11  13
ENDBRANCH   2  11
TORSDOF 6
ENDMDL
MODEL 5
REMARK VINA RESULT:    -6.938     13.864     16.685
REMARK INTER + INTRA:          -9.340
REMARK INTER:                  -9.550
REMARK INTRA:                   0.210
REMARK UNBOUND:                -0.577
REMARK SMILES O=C(C=Cc1ccc(O)cc1)c1ccc(O)cc1O
REMARK SMILES IDX 4 1 3 2 5 3 6 4 7 5 8 6 11 7 10 8 9 9 2 11 1 12 12 13 18 14
REMARK SMILES IDX 13 15 17 16 14 17 15 18 19 19 16 21
REMARK H PARENT 9 10 19 20 16 22
REMARK Flexibility Score: inf
ROOT
ATOM      1  C   UNL     1     -10.944  62.385  39.794  1.00  0.00     0.012 C 
ATOM      2  C   UNL     1     -11.993  62.115  39.003  1.00  0.00     0.053 C 
ENDROOT
BRANCH   1   3
ATOM      3  C   UNL     1      -9.865  63.340  39.439  1.00  0.00    -0.025 A 
ATOM      4  C   UNL     1      -8.876  63.620  40.398  1.00  0.00     0.012 A 
ATOM      5  C   UNL     1      -7.842  64.518  40.112  1.00  0.00     0.047 A 
ATOM      6  C   UNL     1      -7.788  65.157  38.870  1.00  0.00     0.115 A 
ATOM      7  C   UNL     1      -9.811  63.998  38.194  1.00  0.00     0.012 A 
ATOM      8  C   UNL     1      -8.776  64.896  37.913  1.00  0.00     0.047 A 
BRANCH   6   9
ATOM      9  O   UNL     1      -6.752  66.049  38.601  1.00  0.00    -0.508 OA
ATOM     10  H   UNL     1      -5.937  65.767  38.070  1.00  0.00     0.293 HD
ENDBRANCH   6   9
ENDBRANCH   1   3
BRANCH   2  11
ATOM     11  C   UNL     1     -13.055  61.160  39.382  1.00  0.00     0.189 C 
ATOM     12  O   UNL     1     -12.735  60.157  40.076  1.00  0.00    -0.289 OA
BRANCH  11  13
ATOM     13  C   UNL     1     -14.471  61.325  38.980  1.00  0.00     0.064 A 
ATOM     14  C   UNL     1     -14.988  62.581  38.602  1.00  0.00     0.130 A 
ATOM     15  C   UNL     1     -15.327  60.212  39.017  1.00  0.00     0.020 A 
ATOM     16  C   UNL     1     -16.334  62.697  38.227  1.00  0.00     0.093 A 
ATOM     17  C   UNL     1     -16.669  60.338  38.646  1.00  0.00     0.047 A 
ATOM     18  C   UNL     1     -17.175  61.577  38.246  1.00  0.00     0.119 A 
BRANCH  14  19
ATOM     19  O   UNL     1     -14.172  63.713  38.619  1.00  0.00    -0.507 OA
ATOM     20  H   UNL     1     -14.516  64.620  38.328  1.00  0.00     0.293 HD
ENDBRANCH  14  19
BRANCH  18  21
ATOM     21  O   UNL     1     -18.513  61.686  37.875  1.00  0.00    -0.508 OA
ATOM     22  H   UNL     1     -19.069  62.494  38.129  1.00  0.00     0.293 HD
ENDBRANCH  18  21
ENDBRANCH  11  13
ENDBRANCH   2  11
TORSDOF 6
ENDMDL
MODEL 6
REMARK VINA RESULT:    -6.822     13.260     14.851
REMARK INTER + INTRA:          -9.194
REMARK INTER:                  -8.778
REMARK INTRA:                  -0.415
REMARK UNBOUND:                -0.577
REMARK SMILES O=C(C=Cc1ccc(O)cc1)c1ccc(O)cc1O
REMARK SMILES IDX 4 1 3 2 5 3 6 4 7 5 8 6 11 7 10 8 9 9 2 11 1 12 12 13 18 14
REMARK SMILES IDX 13 15 17 16 14 17 15 18 19 19 16 21
REMARK H PARENT 9 10 19 20 16 22
REMARK Flexibility Score: inf
ROOT
ATOM      1  C   UNL     1      -9.458  50.000  55.150  1.00  0.00     0.012 C 
ATOM      2  C   UNL     1      -9.712  50.654  54.007  1.00  0.00     0.053 C 
ENDROOT
BRANCH   1   3
ATOM      3  C   UNL     1      -8.115  49.498  55.534  1.00  0.00    -0.025 A 
ATOM      4  C   UNL     1      -7.773  49.473  56.896  1.00  0.00     0.012 A 
ATOM      5  C   UNL     1      -6.516  49.015  57.307  1.00  0.00     0.047 A 
ATOM      6  C   UNL     1      -5.581  48.587  56.361  1.00  0.00     0.115 A 
ATOM      7  C   UNL     1      -7.161  49.077  54.585  1.00  0.00     0.012 A 
ATOM      8  C   UNL     1      -5.905  48.622  55.000  1.00  0.00     0.047 A 
BRANCH   6   9
ATOM      9  O   UNL     1      -4.333  48.134  56.785  1.00  0.00    -0.508 OA
ATOM     10  H   UNL     1      -3.769  47.522  56.208  1.00  0.00     0.293 HD
ENDBRANCH   6   9
ENDBRANCH   1   3
BRANCH   2  11
ATOM     11  C   UNL     1     -11.061  51.144  53.650  1.00  0.00     0.189 C 
ATOM     12  O   UNL     1     -11.251  52.389  53.607  1.00  0.00    -0.289 OA
BRANCH  11  13
ATOM     13  C   UNL     1     -12.195  50.240  53.348  1.00  0.00     0.064 A 
ATOM     14  C   UNL     1     -13.081  50.500  52.282  1.00  0.00     0.130 A 
ATOM     15  C   UNL     1     -12.416  49.122  54.169  1.00  0.00     0.020 A 
ATOM     16  C   UNL     1     -14.142  49.620  52.027  1.00  0.00     0.093 A 
ATOM     17  C   UNL     1     -13.480  48.253  53.910  1.00  0.00     0.047 A 
ATOM     18  C   UNL     1     -14.342  48.495  52.837  1.00  0.00     0.119 A 
BRANCH  14  19
ATOM     19  O   UNL     1     -12.918  51.639  51.493  1.00  0.00    -0.507 OA
ATOM     20  H   UNL     1     -13.705  52.090  51.041  1.00  0.00     0.293 HD
ENDBRANCH  14  19
BRANCH  18  21
ATOM     21  O   UNL     1     -15.395  47.618  52.589  1.00  0.00    -0.508 OA
ATOM     22  H   UNL     1     -15.557  46.807  53.174  1.00  0.00     0.293 HD
ENDBRANCH  18  21
ENDBRANCH  11  13
ENDBRANCH   2  11
TORSDOF 6
ENDMDL
MODEL 7
REMARK VINA RESULT:    -6.708     14.439     17.688
REMARK INTER + INTRA:          -9.050
REMARK INTER:                  -8.436
REMARK INTRA:                  -0.613
REMARK UNBOUND:                -0.577
REMARK SMILES O=C(C=Cc1ccc(O)cc1)c1ccc(O)cc1O
REMARK SMILES IDX 4 1 3 2 5 3 6 4 7 5 8 6 11 7 10 8 9 9 2 11 1 12 12 13 18 14
REMARK SMILES IDX 13 15 17 16 14 17 15 18 19 19 16 21
REMARK H PARENT 9 10 19 20 16 22
REMARK Flexibility Score: inf
ROOT
ATOM      1  C   UNL     1     -13.471  49.883  52.988  1.00  0.00     0.012 C 
ATOM      2  C   UNL     1     -14.486  49.062  53.299  1.00  0.00     0.053 C 
ENDROOT
BRANCH   1   3
ATOM      3  C   UNL     1     -12.188  49.929  53.732  1.00  0.00    -0.025 A 
ATOM      4  C   UNL     1     -11.342  51.034  53.540  1.00  0.00     0.012 A 
ATOM      5  C   UNL     1     -10.119  51.120  54.214  1.00  0.00     0.047 A 
ATOM      6  C   UNL     1      -9.720  50.097  55.079  1.00  0.00     0.115 A 
ATOM      7  C   UNL     1     -11.772  48.895  54.596  1.00  0.00     0.012 A 
ATOM      8  C   UNL     1     -10.548  48.985  55.267  1.00  0.00     0.047 A 
BRANCH   6   9
ATOM      9  O   UNL     1      -8.499  50.196  55.743  1.00  0.00    -0.508 OA
ATOM     10  H   UNL     1      -7.776  49.497  55.627  1.00  0.00     0.293 HD
ENDBRANCH   6   9
ENDBRANCH   1   3
BRANCH   2  11
ATOM     11  C   UNL     1     -15.754  49.036  52.539  1.00  0.00     0.189 C 
ATOM     12  O   UNL     1     -15.762  49.519  51.375  1.00  0.00    -0.289 OA
BRANCH  11  13
ATOM     13  C   UNL     1     -17.011  48.475  53.085  1.00  0.00     0.064 A 
ATOM     14  C   UNL     1     -17.683  47.413  52.446  1.00  0.00     0.130 A 
ATOM     15  C   UNL     1     -17.567  49.042  54.244  1.00  0.00     0.020 A 
ATOM     16  C   UNL     1     -18.871  46.908  52.994  1.00  0.00     0.093 A 
ATOM     17  C   UNL     1     -18.754  48.535  54.781  1.00  0.00     0.047 A 
ATOM     18  C   UNL     1     -19.406  47.466  54.162  1.00  0.00     0.119 A 
BRANCH  14  19
ATOM     19  O   UNL     1     -17.183  46.876  51.260  1.00  0.00    -0.507 OA
ATOM     20  H   UNL     1     -17.643  47.030  50.370  1.00  0.00     0.293 HD
ENDBRANCH  14  19
BRANCH  18  21
ATOM     21  O   UNL     1     -20.586  46.969  54.711  1.00  0.00    -0.508 OA
ATOM     22  H   UNL     1     -20.856  47.180  55.664  1.00  0.00     0.293 HD
ENDBRANCH  18  21
ENDBRANCH  11  13
ENDBRANCH   2  11
TORSDOF 6
ENDMDL
MODEL 8
REMARK VINA RESULT:    -6.512     13.680     15.359
REMARK INTER + INTRA:          -8.803
REMARK INTER:                  -8.205
REMARK INTRA:                  -0.598
REMARK UNBOUND:                -0.577
REMARK SMILES O=C(C=Cc1ccc(O)cc1)c1ccc(O)cc1O
REMARK SMILES IDX 4 1 3 2 5 3 6 4 7 5 8 6 11 7 10 8 9 9 2 11 1 12 12 13 18 14
REMARK SMILES IDX 13 15 17 16 14 17 15 18 19 19 16 21
REMARK H PARENT 9 10 19 20 16 22
REMARK Flexibility Score: inf
ROOT
ATOM      1  C   UNL     1     -10.725  48.755  55.378  1.00  0.00     0.012 C 
ATOM      2  C   UNL     1      -9.455  49.041  55.056  1.00  0.00     0.053 C 
ENDROOT
BRANCH   1   3
ATOM      3  C   UNL     1     -11.870  48.918  54.448  1.00  0.00    -0.025 A 
ATOM      4  C   UNL     1     -11.931  50.078  53.658  1.00  0.00     0.012 A 
ATOM      5  C   UNL     1     -12.994  50.280  52.771  1.00  0.00     0.047 A 
ATOM      6  C   UNL     1     -14.016  49.332  52.671  1.00  0.00     0.115 A 
ATOM      7  C   UNL     1     -12.911  47.972  54.351  1.00  0.00     0.012 A 
ATOM      8  C   UNL     1     -13.973  48.179  53.464  1.00  0.00     0.047 A 
BRANCH   6   9
ATOM      9  O   UNL     1     -15.069  49.547  51.783  1.00  0.00    -0.508 OA
ATOM     10  H   UNL     1     -15.107  49.079  50.886  1.00  0.00     0.293 HD
ENDBRANCH   6   9
ENDBRANCH   1   3
BRANCH   2  11
ATOM     11  C   UNL     1      -8.332  48.868  56.002  1.00  0.00     0.189 C 
ATOM     12  O   UNL     1      -8.577  48.368  57.133  1.00  0.00    -0.289 OA
BRANCH  11  13
ATOM     13  C   UNL     1      -6.940  49.258  55.684  1.00  0.00     0.064 A 
ATOM     14  C   UNL     1      -6.094  49.833  56.656  1.00  0.00     0.130 A 
ATOM     15  C   UNL     1      -6.464  49.091  54.373  1.00  0.00     0.020 A 
ATOM     16  C   UNL     1      -4.781  50.188  56.316  1.00  0.00     0.093 A 
ATOM     17  C   UNL     1      -5.156  49.453  54.041  1.00  0.00     0.047 A 
ATOM     18  C   UNL     1      -4.310  49.997  55.011  1.00  0.00     0.119 A 
BRANCH  14  19
ATOM     19  O   UNL     1      -6.564  50.066  57.948  1.00  0.00    -0.507 OA
ATOM     20  H   UNL     1      -6.921  49.316  58.529  1.00  0.00     0.293 HD
ENDBRANCH  14  19
BRANCH  18  21
ATOM     21  O   UNL     1      -3.007  50.350  54.667  1.00  0.00    -0.508 OA
ATOM     22  H   UNL     1      -2.808  51.191  54.140  1.00  0.00     0.293 HD
ENDBRANCH  18  21
ENDBRANCH  11  13
ENDBRANCH   2  11
TORSDOF 6
ENDMDL
MODEL 9
REMARK VINA RESULT:    -6.459     12.739     16.248
REMARK INTER + INTRA:          -8.735
REMARK INTER:                  -8.147
REMARK INTRA:                  -0.588
REMARK UNBOUND:                -0.577
REMARK SMILES O=C(C=Cc1ccc(O)cc1)c1ccc(O)cc1O
REMARK SMILES IDX 4 1 3 2 5 3 6 4 7 5 8 6 11 7 10 8 9 9 2 11 1 12 12 13 18 14
REMARK SMILES IDX 13 15 17 16 14 17 15 18 19 19 16 21
REMARK H PARENT 9 10 19 20 16 22
REMARK Flexibility Score: inf
ROOT
ATOM      1  C   UNL     1     -13.438  61.553  39.061  1.00  0.00     0.012 C 
ATOM      2  C   UNL     1     -12.591  62.529  38.700  1.00  0.00     0.053 C 
ENDROOT
BRANCH   1   3
ATOM      3  C   UNL     1     -14.887  61.557  38.745  1.00  0.00    -0.025 A 
ATOM      4  C   UNL     1     -15.634  60.396  39.008  1.00  0.00     0.012 A 
ATOM      5  C   UNL     1     -17.002  60.350  38.720  1.00  0.00     0.047 A 
ATOM      6  C   UNL     1     -17.640  61.457  38.156  1.00  0.00     0.115 A 
ATOM      7  C   UNL     1     -15.535  62.666  38.163  1.00  0.00     0.012 A 
ATOM      8  C   UNL     1     -16.903  62.614  37.876  1.00  0.00     0.047 A 
BRANCH   6   9
ATOM      9  O   UNL     1     -19.004  61.396  37.875  1.00  0.00    -0.508 OA
ATOM     10  H   UNL     1     -19.407  60.611  37.378  1.00  0.00     0.293 HD
ENDBRANCH   6   9
ENDBRANCH   1   3
BRANCH   2  11
ATOM     11  C   UNL     1     -11.150  62.498  39.028  1.00  0.00     0.189 C 
ATOM     12  O   UNL     1     -10.335  62.217  38.109  1.00  0.00    -0.289 OA
BRANCH  11  13
ATOM     13  C   UNL     1     -10.624  62.776  40.384  1.00  0.00     0.064 A 
ATOM     14  C   UNL     1     -10.332  61.736  41.290  1.00  0.00     0.130 A 
ATOM     15  C   UNL     1     -10.452  64.110  40.791  1.00  0.00     0.020 A 
ATOM     16  C   UNL     1      -9.834  62.039  42.565  1.00  0.00     0.093 A 
ATOM     17  C   UNL     1      -9.961  64.404  42.066  1.00  0.00     0.047 A 
ATOM     18  C   UNL     1      -9.646  63.372  42.954  1.00  0.00     0.119 A 
BRANCH  14  19
ATOM     19  O   UNL     1     -10.553  60.406  40.930  1.00  0.00    -0.507 OA
ATOM     20  H   UNL     1     -11.210  59.821  41.433  1.00  0.00     0.293 HD
ENDBRANCH  14  19
BRANCH  18  21
ATOM     21  O   UNL     1      -9.153  63.680  44.220  1.00  0.00    -0.508 OA
ATOM     22  H   UNL     1      -8.227  63.392  44.512  1.00  0.00     0.293 HD
ENDBRANCH  18  21
ENDBRANCH  11  13
ENDBRANCH   2  11
TORSDOF 6
ENDMDL
