MODEL 1
REMARK VINA RESULT:    -2.498      0.000      0.000
REMARK INTER + INTRA:          -2.498
REMARK INTER:                  -2.498
REMARK INTRA:                   0.000
REMARK UNBOUND:                 0.000
REMARK SMILES CC(=O)[O-]
REMARK SMILES IDX 1 1 2 2 3 3 4 4
REMARK H PARENT
REMARK Flexibility Score: inf
ROOT
ATOM      1  C   UNL     1      28.101  -6.094  52.530  1.00  0.00     0.063 C 
ATOM      2  C   UNL     1      29.262  -6.977  52.223  1.00  0.00     0.038 C 
ATOM      3  O   UNL     1      30.209  -7.085  53.045  1.00  0.00    -0.550 OA
ATOM      4  O   UNL     1      29.328  -7.642  51.004  1.00  0.00    -0.550 OA
ENDROOT
TORSDOF 0
ENDMDL
MODEL 2
REMARK VINA RESULT:    -2.403     16.106     16.683
REMARK INTER + INTRA:          -2.403
REMARK INTER:                  -2.403
REMARK INTRA:                   0.000
REMARK UNBOUND:                 0.000
REMARK SMILES CC(=O)[O-]
REMARK SMILES IDX 1 1 2 2 3 3 4 4
REMARK H PARENT
REMARK Flexibility Score: inf
ROOT
ATOM      1  C   UNL     1      23.716   0.010  39.432  1.00  0.00     0.063 C 
ATOM      2  C   UNL     1      23.583   1.449  39.067  1.00  0.00     0.038 C 
ATOM      3  O   UNL     1      22.572   1.849  38.433  1.00  0.00    -0.550 OA
ATOM      4  O   UNL     1      24.599   2.343  39.379  1.00  0.00    -0.550 OA
ENDROOT
TORSDOF 0
ENDMDL
MODEL 3
REMARK VINA RESULT:    -2.350     12.355     12.511
REMARK INTER + INTRA:          -2.350
REMARK INTER:                  -2.350
REMARK INTRA:                   0.000
REMARK UNBOUND:                 0.000
REMARK SMILES CC(=O)[O-]
REMARK SMILES IDX 1 1 2 2 3 3 4 4
REMARK H PARENT
REMARK Flexibility Score: inf
ROOT
ATOM      1  C   UNL     1      31.805   3.788  49.818  1.00  0.00     0.063 C 
ATOM      2  C   UNL     1      31.081   4.940  49.210  1.00  0.00     0.038 C 
ATOM      3  O   UNL     1      31.721   5.848  48.618  1.00  0.00    -0.550 OA
ATOM      4  O   UNL     1      29.702   5.043  49.342  1.00  0.00    -0.550 OA
ENDROOT
TORSDOF 0
ENDMDL
MODEL 4
REMARK VINA RESULT:    -2.331     15.609     16.105
REMARK INTER + INTRA:          -2.331
REMARK INTER:                  -2.331
REMARK INTRA:                   0.000
REMARK UNBOUND:                 0.000
REMARK SMILES CC(=O)[O-]
REMARK SMILES IDX 1 1 2 2 3 3 4 4
REMARK H PARENT
REMARK Flexibility Score: inf
ROOT
ATOM      1  C   UNL     1      22.861   1.961  38.623  1.00  0.00     0.063 C 
ATOM      2  C   UNL     1      23.436   1.011  39.617  1.00  0.00     0.038 C 
ATOM      3  O   UNL     1      23.985  -0.054  39.229  1.00  0.00    -0.550 OA
ATOM      4  O   UNL     1      23.319   1.269  40.977  1.00  0.00    -0.550 OA
ENDROOT
TORSDOF 0
ENDMDL
MODEL 5
REMARK VINA RESULT:    -2.324     16.086     16.589
REMARK INTER + INTRA:          -2.324
REMARK INTER:                  -2.324
REMARK INTRA:                   0.000
REMARK UNBOUND:                 0.000
REMARK SMILES CC(=O)[O-]
REMARK SMILES IDX 1 1 2 2 3 3 4 4
REMARK H PARENT
REMARK Flexibility Score: inf
ROOT
ATOM      1  C   UNL     1      22.554   2.032  38.505  1.00  0.00     0.063 C 
ATOM      2  C   UNL     1      23.805   1.530  39.143  1.00  0.00     0.038 C 
ATOM      3  O   UNL     1      23.922   0.310  39.430  1.00  0.00    -0.550 OA
ATOM      4  O   UNL     1      24.822   2.417  39.472  1.00  0.00    -0.550 OA
ENDROOT
TORSDOF 0
ENDMDL
MODEL 6
REMARK VINA RESULT:    -2.301     16.133     16.717
REMARK INTER + INTRA:          -2.301
REMARK INTER:                  -2.301
REMARK INTRA:                   0.000
REMARK UNBOUND:                 0.000
REMARK SMILES CC(=O)[O-]
REMARK SMILES IDX 1 1 2 2 3 3 4 4
REMARK H PARENT
REMARK Flexibility Score: inf
ROOT
ATOM      1  C   UNL     1      24.403   2.555  39.496  1.00  0.00     0.063 C 
ATOM      2  C   UNL     1      23.496   1.469  39.029  1.00  0.00     0.038 C 
ATOM      3  O   UNL     1      22.522   1.738  38.278  1.00  0.00    -0.550 OA
ATOM      4  O   UNL     1      23.690   0.164  39.465  1.00  0.00    -0.550 OA
ENDROOT
TORSDOF 0
ENDMDL
MODEL 7
REMARK VINA RESULT:    -2.275     12.083     12.290
REMARK INTER + INTRA:          -2.275
REMARK INTER:                  -2.275
REMARK INTRA:                   0.000
REMARK UNBOUND:                 0.000
REMARK SMILES CC(=O)[O-]
REMARK SMILES IDX 1 1 2 2 3 3 4 4
REMARK H PARENT
REMARK Flexibility Score: inf
ROOT
ATOM      1  C   UNL     1      29.382   5.005  49.212  1.00  0.00     0.063 C 
ATOM      2  C   UNL     1      30.858   4.843  49.340  1.00  0.00     0.038 C 
ATOM      3  O   UNL     1      31.634   5.670  48.794  1.00  0.00    -0.550 OA
ATOM      4  O   UNL     1      31.383   3.749  50.016  1.00  0.00    -0.550 OA
ENDROOT
TORSDOF 0
ENDMDL
MODEL 8
REMARK VINA RESULT:    -2.242      2.823      3.046
REMARK INTER + INTRA:          -2.242
REMARK INTER:                  -2.242
REMARK INTRA:                   0.000
REMARK UNBOUND:                 0.000
REMARK SMILES CC(=O)[O-]
REMARK SMILES IDX 1 1 2 2 3 3 4 4
REMARK H PARENT
REMARK Flexibility Score: inf
ROOT
ATOM      1  C   UNL     1      28.376  -6.253  52.467  1.00  0.00     0.063 C 
ATOM      2  C   UNL     1      27.042  -5.974  53.071  1.00  0.00     0.038 C 
ATOM      3  O   UNL     1      26.906  -5.960  54.322  1.00  0.00    -0.550 OA
ATOM      4  O   UNL     1      25.934  -5.783  52.255  1.00  0.00    -0.550 OA
ENDROOT
TORSDOF 0
ENDMDL
MODEL 9
REMARK VINA RESULT:    -2.174      7.638      8.122
REMARK INTER + INTRA:          -2.174
REMARK INTER:                  -2.174
REMARK INTRA:                   0.000
REMARK UNBOUND:                 0.000
REMARK SMILES CC(=O)[O-]
REMARK SMILES IDX 1 1 2 2 3 3 4 4
REMARK H PARENT
REMARK Flexibility Score: inf
ROOT
ATOM      1  C   UNL     1      23.618  -3.239  57.846  1.00  0.00     0.063 C 
ATOM      2  C   UNL     1      23.915  -2.870  56.433  1.00  0.00     0.038 C 
ATOM      3  O   UNL     1      24.762  -3.527  55.772  1.00  0.00    -0.550 OA
ATOM      4  O   UNL     1      23.301  -1.765  55.858  1.00  0.00    -0.550 OA
ENDROOT
TORSDOF 0
ENDMDL
