MODEL 1
REMARK VINA RESULT:    -2.465      0.000      0.000
REMARK INTER + INTRA:          -2.465
REMARK INTER:                  -2.465
REMARK INTRA:                   0.000
REMARK UNBOUND:                 0.000
REMARK SMILES CC(=O)[O-]
REMARK SMILES IDX 1 1 2 2 3 3 4 4
REMARK H PARENT
REMARK Flexibility Score: inf
ROOT
ATOM      1  C   UNL     1      17.083  20.146  10.701  1.00  0.00     0.063 C 
ATOM      2  C   UNL     1      18.056  20.727   9.732  1.00  0.00     0.038 C 
ATOM      3  O   UNL     1      17.830  20.666   8.496  1.00  0.00    -0.550 OA
ATOM      4  O   UNL     1      19.189  21.386  10.194  1.00  0.00    -0.550 OA
ENDROOT
TORSDOF 0
ENDMDL
MODEL 2
REMARK VINA RESULT:    -2.398      1.484      1.789
REMARK INTER + INTRA:          -2.398
REMARK INTER:                  -2.398
REMARK INTRA:                   0.000
REMARK UNBOUND:                 0.000
REMARK SMILES CC(=O)[O-]
REMARK SMILES IDX 1 1 2 2 3 3 4 4
REMARK H PARENT
REMARK Flexibility Score: inf
ROOT
ATOM      1  C   UNL     1      19.135  21.190  10.033  1.00  0.00     0.063 C 
ATOM      2  C   UNL     1      17.855  20.505   9.689  1.00  0.00     0.038 C 
ATOM      3  O   UNL     1      17.540  20.322   8.485  1.00  0.00    -0.550 OA
ATOM      4  O   UNL     1      17.035  20.018  10.698  1.00  0.00    -0.550 OA
ENDROOT
TORSDOF 0
ENDMDL
MODEL 3
REMARK VINA RESULT:    -2.326      4.357      4.869
REMARK INTER + INTRA:          -2.326
REMARK INTER:                  -2.326
REMARK INTRA:                   0.000
REMARK UNBOUND:                 0.000
REMARK SMILES CC(=O)[O-]
REMARK SMILES IDX 1 1 2 2 3 3 4 4
REMARK H PARENT
REMARK Flexibility Score: inf
ROOT
ATOM      1  C   UNL     1      13.219  17.875  11.406  1.00  0.00     0.063 C 
ATOM      2  C   UNL     1      13.847  19.205  11.158  1.00  0.00     0.038 C 
ATOM      3  O   UNL     1      13.356  20.242  11.675  1.00  0.00    -0.550 OA
ATOM      4  O   UNL     1      15.008  19.295  10.402  1.00  0.00    -0.550 OA
ENDROOT
TORSDOF 0
ENDMDL
MODEL 4
REMARK VINA RESULT:    -2.200     12.088     12.562
REMARK INTER + INTRA:          -2.200
REMARK INTER:                  -2.200
REMARK INTRA:                   0.000
REMARK UNBOUND:                 0.000
REMARK SMILES CC(=O)[O-]
REMARK SMILES IDX 1 1 2 2 3 3 4 4
REMARK H PARENT
REMARK Flexibility Score: inf
ROOT
ATOM      1  C   UNL     1      24.385  32.041   8.143  1.00  0.00     0.063 C 
ATOM      2  C   UNL     1      22.942  31.965   8.513  1.00  0.00     0.038 C 
ATOM      3  O   UNL     1      22.597  31.462   9.613  1.00  0.00    -0.550 OA
ATOM      4  O   UNL     1      21.978  32.498   7.667  1.00  0.00    -0.550 OA
ENDROOT
TORSDOF 0
ENDMDL
MODEL 5
REMARK VINA RESULT:    -2.165     12.669     12.882
REMARK INTER + INTRA:          -2.165
REMARK INTER:                  -2.165
REMARK INTRA:                   0.000
REMARK UNBOUND:                 0.000
REMARK SMILES CC(=O)[O-]
REMARK SMILES IDX 1 1 2 2 3 3 4 4
REMARK H PARENT
REMARK Flexibility Score: inf
ROOT
ATOM      1  C   UNL     1      20.363  33.421   5.718  1.00  0.00     0.063 C 
ATOM      2  C   UNL     1      21.373  32.588   6.431  1.00  0.00     0.038 C 
ATOM      3  O   UNL     1      22.142  31.833   5.781  1.00  0.00    -0.550 OA
ATOM      4  O   UNL     1      21.506  32.686   7.810  1.00  0.00    -0.550 OA
ENDROOT
TORSDOF 0
ENDMDL
MODEL 6
REMARK VINA RESULT:    -2.144     12.131     12.528
REMARK INTER + INTRA:          -2.144
REMARK INTER:                  -2.144
REMARK INTRA:                   0.000
REMARK UNBOUND:                 0.000
REMARK SMILES CC(=O)[O-]
REMARK SMILES IDX 1 1 2 2 3 3 4 4
REMARK H PARENT
REMARK Flexibility Score: inf
ROOT
ATOM      1  C   UNL     1      24.525  32.084   8.108  1.00  0.00     0.063 C 
ATOM      2  C   UNL     1      23.058  31.979   8.354  1.00  0.00     0.038 C 
ATOM      3  O   UNL     1      22.242  32.309   7.456  1.00  0.00    -0.550 OA
ATOM      4  O   UNL     1      22.590  31.464   9.556  1.00  0.00    -0.550 OA
ENDROOT
TORSDOF 0
ENDMDL
MODEL 7
REMARK VINA RESULT:    -2.111     11.868     12.182
REMARK INTER + INTRA:          -2.111
REMARK INTER:                  -2.111
REMARK INTRA:                   0.000
REMARK UNBOUND:                 0.000
REMARK SMILES CC(=O)[O-]
REMARK SMILES IDX 1 1 2 2 3 3 4 4
REMARK H PARENT
REMARK Flexibility Score: inf
ROOT
ATOM      1  C   UNL     1      22.708  31.749   8.941  1.00  0.00     0.063 C 
ATOM      2  C   UNL     1      22.070  31.910   7.602  1.00  0.00     0.038 C 
ATOM      3  O   UNL     1      21.250  32.843   7.402  1.00  0.00    -0.550 OA
ATOM      4  O   UNL     1      22.421  31.065   6.558  1.00  0.00    -0.550 OA
ENDROOT
TORSDOF 0
ENDMDL
MODEL 8
REMARK VINA RESULT:    -2.085     13.113     13.412
REMARK INTER + INTRA:          -2.085
REMARK INTER:                  -2.085
REMARK INTRA:                   0.000
REMARK UNBOUND:                 0.000
REMARK SMILES CC(=O)[O-]
REMARK SMILES IDX 1 1 2 2 3 3 4 4
REMARK H PARENT
REMARK Flexibility Score: inf
ROOT
ATOM      1  C   UNL     1      26.046  31.727   8.233  1.00  0.00     0.063 C 
ATOM      2  C   UNL     1      24.679  31.986   7.696  1.00  0.00     0.038 C 
ATOM      3  O   UNL     1      23.713  32.159   8.485  1.00  0.00    -0.550 OA
ATOM      4  O   UNL     1      24.478  32.092   6.326  1.00  0.00    -0.550 OA
ENDROOT
TORSDOF 0
ENDMDL
