MODEL 1
REMARK VINA RESULT:    -3.995      0.000      0.000
REMARK INTER + INTRA:          -3.995
REMARK INTER:                  -3.995
REMARK INTRA:                   0.000
REMARK UNBOUND:                 0.000
REMARK SMILES C=C1CC[C@@H]2C[C@H]1C2(C)C
REMARK SMILES IDX 9 1 8 2 5 3 4 4 3 5 2 6 1 7 7 8 6 9 10 10
REMARK H PARENT
REMARK Flexibility Score: inf
ROOT
ATOM      1  C   UNL     1       8.556   8.249  13.792  1.00  0.00     0.012 C 
ATOM      2  C   UNL     1       7.299   7.664  13.103  1.00  0.00    -0.026 C 
ATOM      3  C   UNL     1       7.408   6.129  12.908  1.00  0.00    -0.004 C 
ATOM      4  C   UNL     1       6.352   5.619  11.875  1.00  0.00     0.008 C 
ATOM      5  C   UNL     1       4.892   6.111  12.208  1.00  0.00     0.031 C 
ATOM      6  C   UNL     1       4.866   7.116  13.368  1.00  0.00    -0.074 C 
ATOM      7  C   UNL     1       3.735   7.751  13.692  1.00  0.00     0.008 C 
ATOM      8  C   UNL     1       6.176   7.347  14.118  1.00  0.00     0.021 C 
ATOM      9  C   UNL     1       6.781   5.947  14.300  1.00  0.00     0.012 C 
ATOM     10  C   UNL     1       6.956   8.549  11.875  1.00  0.00     0.012 C 
ENDROOT
TORSDOF 0
ENDMDL
MODEL 2
REMARK VINA RESULT:    -3.973      8.837     10.104
REMARK INTER + INTRA:          -3.973
REMARK INTER:                  -3.973
REMARK INTRA:                   0.000
REMARK UNBOUND:                 0.000
REMARK SMILES C=C1CC[C@@H]2C[C@H]1C2(C)C
REMARK SMILES IDX 9 1 8 2 5 3 4 4 3 5 2 6 1 7 7 8 6 9 10 10
REMARK H PARENT
REMARK Flexibility Score: inf
ROOT
ATOM      1  C   UNL     1       1.774  16.614  17.535  1.00  0.00     0.012 C 
ATOM      2  C   UNL     1       0.880  15.395  17.195  1.00  0.00    -0.026 C 
ATOM      3  C   UNL     1       1.158  14.853  15.769  1.00  0.00    -0.004 C 
ATOM      4  C   UNL     1       0.005  13.914  15.291  1.00  0.00     0.008 C 
ATOM      5  C   UNL     1      -0.332  12.786  16.341  1.00  0.00     0.031 C 
ATOM      6  C   UNL     1       0.429  12.973  17.660  1.00  0.00    -0.074 C 
ATOM      7  C   UNL     1       0.160  12.198  18.715  1.00  0.00     0.008 C 
ATOM      8  C   UNL     1       1.492  14.069  17.702  1.00  0.00     0.021 C 
ATOM      9  C   UNL     1       2.243  13.944  16.368  1.00  0.00     0.012 C 
ATOM     10  C   UNL     1      -0.582  15.733  17.592  1.00  0.00     0.012 C 
ENDROOT
TORSDOF 0
ENDMDL
MODEL 3
REMARK VINA RESULT:    -3.957      8.016     10.130
REMARK INTER + INTRA:          -3.957
REMARK INTER:                  -3.957
REMARK INTRA:                   0.000
REMARK UNBOUND:                 0.000
REMARK SMILES C=C1CC[C@@H]2C[C@H]1C2(C)C
REMARK SMILES IDX 9 1 8 2 5 3 4 4 3 5 2 6 1 7 7 8 6 9 10 10
REMARK H PARENT
REMARK Flexibility Score: inf
ROOT
ATOM      1  C   UNL     1       0.392  12.765  18.639  1.00  0.00     0.012 C 
ATOM      2  C   UNL     1       0.539  13.596  17.340  1.00  0.00    -0.026 C 
ATOM      3  C   UNL     1       0.350  15.113  17.599  1.00  0.00    -0.004 C 
ATOM      4  C   UNL     1       0.097  15.882  16.263  1.00  0.00     0.008 C 
ATOM      5  C   UNL     1       1.180  15.559  15.163  1.00  0.00     0.031 C 
ATOM      6  C   UNL     1       2.132  14.436  15.596  1.00  0.00    -0.074 C 
ATOM      7  C   UNL     1       3.019  13.929  14.735  1.00  0.00     0.008 C 
ATOM      8  C   UNL     1       2.015  13.940  17.035  1.00  0.00     0.021 C 
ATOM      9  C   UNL     1       1.858  15.212  17.882  1.00  0.00     0.012 C 
ATOM     10  C   UNL     1      -0.307  12.918  16.228  1.00  0.00     0.012 C 
ENDROOT
TORSDOF 0
ENDMDL
MODEL 4
REMARK VINA RESULT:    -3.952      8.324     10.434
REMARK INTER + INTRA:          -3.952
REMARK INTER:                  -3.952
REMARK INTRA:                   0.000
REMARK UNBOUND:                 0.000
REMARK SMILES C=C1CC[C@@H]2C[C@H]1C2(C)C
REMARK SMILES IDX 9 1 8 2 5 3 4 4 3 5 2 6 1 7 7 8 6 9 10 10
REMARK H PARENT
REMARK Flexibility Score: inf
ROOT
ATOM      1  C   UNL     1       1.866  16.916  17.503  1.00  0.00     0.012 C 
ATOM      2  C   UNL     1       1.405  15.438  17.548  1.00  0.00    -0.026 C 
ATOM      3  C   UNL     1      -0.111  15.314  17.851  1.00  0.00    -0.004 C 
ATOM      4  C   UNL     1      -0.478  13.860  18.290  1.00  0.00     0.008 C 
ATOM      5  C   UNL     1       0.055  12.770  17.284  1.00  0.00     0.031 C 
ATOM      6  C   UNL     1       0.958  13.373  16.198  1.00  0.00    -0.074 C 
ATOM      7  C   UNL     1       1.617  12.581  15.347  1.00  0.00     0.008 C 
ATOM      8  C   UNL     1       1.059  14.895  16.142  1.00  0.00     0.021 C 
ATOM      9  C   UNL     1      -0.380  15.396  16.340  1.00  0.00     0.012 C 
ATOM     10  C   UNL     1       2.408  14.638  18.422  1.00  0.00     0.012 C 
ENDROOT
TORSDOF 0
ENDMDL
MODEL 5
REMARK VINA RESULT:    -3.930      8.356     10.144
REMARK INTER + INTRA:          -3.930
REMARK INTER:                  -3.930
REMARK INTRA:                   0.000
REMARK UNBOUND:                 0.000
REMARK SMILES C=C1CC[C@@H]2C[C@H]1C2(C)C
REMARK SMILES IDX 9 1 8 2 5 3 4 4 3 5 2 6 1 7 7 8 6 9 10 10
REMARK H PARENT
REMARK Flexibility Score: inf
ROOT
ATOM      1  C   UNL     1       2.615  13.888  15.554  1.00  0.00     0.012 C 
ATOM      2  C   UNL     1       1.510  14.135  16.611  1.00  0.00    -0.026 C 
ATOM      3  C   UNL     1       0.276  14.849  16.001  1.00  0.00    -0.004 C 
ATOM      4  C   UNL     1      -0.635  15.448  17.120  1.00  0.00     0.008 C 
ATOM      5  C   UNL     1      -1.001  14.393  18.233  1.00  0.00     0.031 C 
ATOM      6  C   UNL     1      -0.242  13.071  18.054  1.00  0.00    -0.074 C 
ATOM      7  C   UNL     1      -0.315  12.115  18.986  1.00  0.00     0.008 C 
ATOM      8  C   UNL     1       0.584  12.909  16.780  1.00  0.00     0.021 C 
ATOM      9  C   UNL     1      -0.304  13.467  15.658  1.00  0.00     0.012 C 
ATOM     10  C   UNL     1       2.171  14.742  17.878  1.00  0.00     0.012 C 
ENDROOT
TORSDOF 0
ENDMDL
MODEL 6
REMARK VINA RESULT:    -3.814      8.501     10.428
REMARK INTER + INTRA:          -3.814
REMARK INTER:                  -3.814
REMARK INTRA:                   0.000
REMARK UNBOUND:                 0.000
REMARK SMILES C=C1CC[C@@H]2C[C@H]1C2(C)C
REMARK SMILES IDX 9 1 8 2 5 3 4 4 3 5 2 6 1 7 7 8 6 9 10 10
REMARK H PARENT
REMARK Flexibility Score: inf
ROOT
ATOM      1  C   UNL     1      -0.983  12.778  19.199  1.00  0.00     0.012 C 
ATOM      2  C   UNL     1       0.148  13.310  18.284  1.00  0.00    -0.026 C 
ATOM      3  C   UNL     1      -0.006  12.811  16.824  1.00  0.00    -0.004 C 
ATOM      4  C   UNL     1       1.321  13.007  16.022  1.00  0.00     0.008 C 
ATOM      5  C   UNL     1       1.884  14.475  16.131  1.00  0.00     0.031 C 
ATOM      6  C   UNL     1       1.097  15.327  17.136  1.00  0.00    -0.074 C 
ATOM      7  C   UNL     1       1.521  16.551  17.468  1.00  0.00     0.008 C 
ATOM      8  C   UNL     1      -0.172  14.715  17.724  1.00  0.00     0.021 C 
ATOM      9  C   UNL     1      -0.877  14.044  16.535  1.00  0.00     0.012 C 
ATOM     10  C   UNL     1       1.505  13.095  19.007  1.00  0.00     0.012 C 
ENDROOT
TORSDOF 0
ENDMDL
MODEL 7
REMARK VINA RESULT:    -3.753      9.272     11.028
REMARK INTER + INTRA:          -3.753
REMARK INTER:                  -3.753
REMARK INTRA:                   0.000
REMARK UNBOUND:                 0.000
REMARK SMILES C=C1CC[C@@H]2C[C@H]1C2(C)C
REMARK SMILES IDX 9 1 8 2 5 3 4 4 3 5 2 6 1 7 7 8 6 9 10 10
REMARK H PARENT
REMARK Flexibility Score: inf
ROOT
ATOM      1  C   UNL     1      -0.077  12.934  17.198  1.00  0.00     0.012 C 
ATOM      2  C   UNL     1       0.264  14.445  17.161  1.00  0.00    -0.026 C 
ATOM      3  C   UNL     1       1.752  14.711  17.508  1.00  0.00    -0.004 C 
ATOM      4  C   UNL     1       1.985  16.214  17.862  1.00  0.00     0.008 C 
ATOM      5  C   UNL     1       1.407  17.191  16.768  1.00  0.00     0.031 C 
ATOM      6  C   UNL     1       0.599  16.450  15.694  1.00  0.00    -0.074 C 
ATOM      7  C   UNL     1      -0.087  17.130  14.770  1.00  0.00     0.008 C 
ATOM      8  C   UNL     1       0.621  14.924  15.736  1.00  0.00     0.021 C 
ATOM      9  C   UNL     1       2.086  14.556  16.015  1.00  0.00     0.012 C 
ATOM     10  C   UNL     1      -0.833  15.214  17.946  1.00  0.00     0.012 C 
ENDROOT
TORSDOF 0
ENDMDL
MODEL 8
REMARK VINA RESULT:    -3.722      9.040     11.071
REMARK INTER + INTRA:          -3.722
REMARK INTER:                  -3.722
REMARK INTRA:                   0.000
REMARK UNBOUND:                 0.000
REMARK SMILES C=C1CC[C@@H]2C[C@H]1C2(C)C
REMARK SMILES IDX 9 1 8 2 5 3 4 4 3 5 2 6 1 7 7 8 6 9 10 10
REMARK H PARENT
REMARK Flexibility Score: inf
ROOT
ATOM      1  C   UNL     1       0.819  13.060  17.439  1.00  0.00     0.012 C 
ATOM      2  C   UNL     1       1.018  14.417  16.720  1.00  0.00    -0.026 C 
ATOM      3  C   UNL     1      -0.295  14.928  16.073  1.00  0.00    -0.004 C 
ATOM      4  C   UNL     1      -0.006  16.056  15.032  1.00  0.00     0.008 C 
ATOM      5  C   UNL     1       0.897  17.207  15.622  1.00  0.00     0.031 C 
ATOM      6  C   UNL     1       1.425  16.873  17.023  1.00  0.00    -0.074 C 
ATOM      7  C   UNL     1       2.323  17.665  17.617  1.00  0.00     0.008 C 
ATOM      8  C   UNL     1       0.879  15.613  17.691  1.00  0.00     0.021 C 
ATOM      9  C   UNL     1      -0.630  15.630  17.399  1.00  0.00     0.012 C 
ATOM     10  C   UNL     1       2.295  14.324  15.842  1.00  0.00     0.012 C 
ENDROOT
TORSDOF 0
ENDMDL
MODEL 9
REMARK VINA RESULT:    -3.697      9.061     10.845
REMARK INTER + INTRA:          -3.697
REMARK INTER:                  -3.697
REMARK INTRA:                   0.000
REMARK UNBOUND:                 0.000
REMARK SMILES C=C1CC[C@@H]2C[C@H]1C2(C)C
REMARK SMILES IDX 9 1 8 2 5 3 4 4 3 5 2 6 1 7 7 8 6 9 10 10
REMARK H PARENT
REMARK Flexibility Score: inf
ROOT
ATOM      1  C   UNL     1      -0.345  17.388  15.598  1.00  0.00     0.012 C 
ATOM      2  C   UNL     1       0.057  15.940  15.973  1.00  0.00    -0.026 C 
ATOM      3  C   UNL     1       1.596  15.760  16.017  1.00  0.00    -0.004 C 
ATOM      4  C   UNL     1       1.986  14.248  15.991  1.00  0.00     0.008 C 
ATOM      5  C   UNL     1       1.220  13.406  17.083  1.00  0.00     0.031 C 
ATOM      6  C   UNL     1       0.145  14.230  17.805  1.00  0.00    -0.074 C 
ATOM      7  C   UNL     1      -0.701  13.644  18.657  1.00  0.00     0.008 C 
ATOM      8  C   UNL     1       0.095  15.726  17.503  1.00  0.00     0.021 C 
ATOM      9  C   UNL     1       1.564  16.178  17.496  1.00  0.00     0.012 C 
ATOM     10  C   UNL     1      -0.783  14.959  15.111  1.00  0.00     0.012 C 
ENDROOT
TORSDOF 0
ENDMDL
