MODEL 1
REMARK VINA RESULT:    -3.281      0.000      0.000
REMARK INTER + INTRA:          -3.695
REMARK INTER:                  -3.665
REMARK INTRA:                  -0.030
REMARK UNBOUND:                -0.030
REMARK SMILES CC(C)CC=O
REMARK SMILES IDX 4 1 2 2 1 3 3 4 5 5 6 6
REMARK H PARENT
REMARK Flexibility Score: inf
ROOT
ATOM      1  C   UNL     1      24.365  57.125  -8.331  1.00  0.00     0.075 C 
ENDROOT
BRANCH   1   2
ATOM      2  C   UNL     1      24.401  55.603  -8.075  1.00  0.00    -0.010 C 
ATOM      3  C   UNL     1      23.315  55.177  -7.076  1.00  0.00     0.008 C 
ATOM      4  C   UNL     1      25.782  55.186  -7.557  1.00  0.00     0.008 C 
ENDBRANCH   1   2
BRANCH   1   5
ATOM      5  C   UNL     1      25.726  57.689  -8.626  1.00  0.00     0.224 C 
ATOM      6  O   UNL     1      25.896  58.898  -8.625  1.00  0.00    -0.303 OA
ENDBRANCH   1   5
TORSDOF 2
ENDMDL
MODEL 2
REMARK VINA RESULT:    -3.120     15.686     16.600
REMARK INTER + INTRA:          -3.515
REMARK INTER:                  -3.478
REMARK INTRA:                  -0.036
REMARK UNBOUND:                -0.030
REMARK SMILES CC(C)CC=O
REMARK SMILES IDX 4 1 2 2 1 3 3 4 5 5 6 6
REMARK H PARENT
REMARK Flexibility Score: inf
ROOT
ATOM      1  C   UNL     1      19.163  44.861   0.367  1.00  0.00     0.075 C 
ENDROOT
BRANCH   1   2
ATOM      2  C   UNL     1      19.755  44.092   1.566  1.00  0.00    -0.010 C 
ATOM      3  C   UNL     1      20.561  42.868   1.105  1.00  0.00     0.008 C 
ATOM      4  C   UNL     1      18.637  43.653   2.518  1.00  0.00     0.008 C 
ENDBRANCH   1   2
BRANCH   1   5
ATOM      5  C   UNL     1      17.684  44.643   0.219  1.00  0.00     0.224 C 
ATOM      6  O   UNL     1      16.982  45.528  -0.243  1.00  0.00    -0.303 OA
ENDBRANCH   1   5
TORSDOF 2
ENDMDL
MODEL 3
REMARK VINA RESULT:    -3.111     16.509     17.792
REMARK INTER + INTRA:          -3.505
REMARK INTER:                  -3.458
REMARK INTRA:                  -0.047
REMARK UNBOUND:                -0.030
REMARK SMILES CC(C)CC=O
REMARK SMILES IDX 4 1 2 2 1 3 3 4 5 5 6 6
REMARK H PARENT
REMARK Flexibility Score: inf
ROOT
ATOM      1  C   UNL     1      18.773  43.566   2.551  1.00  0.00     0.075 C 
ENDROOT
BRANCH   1   2
ATOM      2  C   UNL     1      19.879  44.007   1.569  1.00  0.00    -0.010 C 
ATOM      3  C   UNL     1      19.302  44.828   0.406  1.00  0.00     0.008 C 
ATOM      4  C   UNL     1      20.624  42.782   1.025  1.00  0.00     0.008 C 
ENDBRANCH   1   2
BRANCH   1   5
ATOM      5  C   UNL     1      17.671  42.806   1.870  1.00  0.00     0.224 C 
ATOM      6  O   UNL     1      17.327  41.716   2.300  1.00  0.00    -0.303 OA
ENDBRANCH   1   5
TORSDOF 2
ENDMDL
MODEL 4
REMARK VINA RESULT:    -2.922     15.760     17.065
REMARK INTER + INTRA:          -3.294
REMARK INTER:                  -3.257
REMARK INTRA:                  -0.037
REMARK UNBOUND:                -0.030
REMARK SMILES CC(C)CC=O
REMARK SMILES IDX 4 1 2 2 1 3 3 4 5 5 6 6
REMARK H PARENT
REMARK Flexibility Score: inf
ROOT
ATOM      1  C   UNL     1      19.584  43.032   1.734  1.00  0.00     0.075 C 
ENDROOT
BRANCH   1   2
ATOM      2  C   UNL     1      18.745  43.690   0.618  1.00  0.00    -0.010 C 
ATOM      3  C   UNL     1      19.288  45.080   0.253  1.00  0.00     0.008 C 
ATOM      4  C   UNL     1      17.278  43.799   1.051  1.00  0.00     0.008 C 
ENDBRANCH   1   2
BRANCH   1   5
ATOM      5  C   UNL     1      20.995  42.751   1.302  1.00  0.00     0.224 C 
ATOM      6  O   UNL     1      21.203  42.116   0.281  1.00  0.00    -0.303 OA
ENDBRANCH   1   5
TORSDOF 2
ENDMDL
MODEL 5
REMARK VINA RESULT:    -2.916     16.063     17.496
REMARK INTER + INTRA:          -3.287
REMARK INTER:                  -3.257
REMARK INTRA:                  -0.030
REMARK UNBOUND:                -0.030
REMARK SMILES CC(C)CC=O
REMARK SMILES IDX 4 1 2 2 1 3 3 4 5 5 6 6
REMARK H PARENT
REMARK Flexibility Score: inf
ROOT
ATOM      1  C   UNL     1      18.314  43.643   2.153  1.00  0.00     0.075 C 
ENDROOT
BRANCH   1   2
ATOM      2  C   UNL     1      19.156  43.592   0.861  1.00  0.00    -0.010 C 
ATOM      3  C   UNL     1      20.519  42.926   1.105  1.00  0.00     0.008 C 
ATOM      4  C   UNL     1      19.358  45.006   0.304  1.00  0.00     0.008 C 
ENDBRANCH   1   2
BRANCH   1   5
ATOM      5  C   UNL     1      16.872  43.299   1.913  1.00  0.00     0.224 C 
ATOM      6  O   UNL     1      16.012  44.156   2.040  1.00  0.00    -0.303 OA
ENDBRANCH   1   5
TORSDOF 2
ENDMDL
MODEL 6
REMARK VINA RESULT:    -2.911     16.054     17.321
REMARK INTER + INTRA:          -3.281
REMARK INTER:                  -3.252
REMARK INTRA:                  -0.029
REMARK UNBOUND:                -0.030
REMARK SMILES CC(C)CC=O
REMARK SMILES IDX 4 1 2 2 1 3 3 4 5 5 6 6
REMARK H PARENT
REMARK Flexibility Score: inf
ROOT
ATOM      1  C   UNL     1      19.450  42.478   0.420  1.00  0.00     0.075 C 
ENDROOT
BRANCH   1   2
ATOM      2  C   UNL     1      19.716  43.797   1.177  1.00  0.00    -0.010 C 
ATOM      3  C   UNL     1      18.990  43.824   2.530  1.00  0.00     0.008 C 
ATOM      4  C   UNL     1      19.278  44.994   0.325  1.00  0.00     0.008 C 
ENDBRANCH   1   2
BRANCH   1   5
ATOM      5  C   UNL     1      18.037  42.379  -0.080  1.00  0.00     0.224 C 
ATOM      6  O   UNL     1      17.767  41.614  -0.992  1.00  0.00    -0.303 OA
ENDBRANCH   1   5
TORSDOF 2
ENDMDL
MODEL 7
REMARK VINA RESULT:    -2.864      2.436      3.305
REMARK INTER + INTRA:          -3.229
REMARK INTER:                  -3.200
REMARK INTRA:                  -0.029
REMARK UNBOUND:                -0.030
REMARK SMILES CC(C)CC=O
REMARK SMILES IDX 4 1 2 2 1 3 3 4 5 5 6 6
REMARK H PARENT
REMARK Flexibility Score: inf
ROOT
ATOM      1  C   UNL     1      23.723  56.003  -8.116  1.00  0.00     0.075 C 
ENDROOT
BRANCH   1   2
ATOM      2  C   UNL     1      25.211  56.205  -8.472  1.00  0.00    -0.010 C 
ATOM      3  C   UNL     1      26.130  55.481  -7.477  1.00  0.00     0.008 C 
ATOM      4  C   UNL     1      25.550  57.700  -8.503  1.00  0.00     0.008 C 
ENDBRANCH   1   2
BRANCH   1   5
ATOM      5  C   UNL     1      23.538  55.192  -6.865  1.00  0.00     0.224 C 
ATOM      6  O   UNL     1      22.422  54.818  -6.542  1.00  0.00    -0.303 OA
ENDBRANCH   1   5
TORSDOF 2
ENDMDL
MODEL 8
REMARK VINA RESULT:    -2.785      7.196      8.217
REMARK INTER + INTRA:          -3.141
REMARK INTER:                  -3.135
REMARK INTRA:                  -0.006
REMARK UNBOUND:                -0.030
REMARK SMILES CC(C)CC=O
REMARK SMILES IDX 4 1 2 2 1 3 3 4 5 5 6 6
REMARK H PARENT
REMARK Flexibility Score: inf
ROOT
ATOM      1  C   UNL     1      30.671  58.529 -12.822  1.00  0.00     0.075 C 
ENDROOT
BRANCH   1   2
ATOM      2  C   UNL     1      31.672  57.372 -13.028  1.00  0.00    -0.010 C 
ATOM      3  C   UNL     1      32.843  57.797 -13.927  1.00  0.00     0.008 C 
ATOM      4  C   UNL     1      30.961  56.157 -13.636  1.00  0.00     0.008 C 
ENDBRANCH   1   2
BRANCH   1   5
ATOM      5  C   UNL     1      30.678  59.050 -11.413  1.00  0.00     0.224 C 
ATOM      6  O   UNL     1      29.629  59.375 -10.880  1.00  0.00    -0.303 OA
ENDBRANCH   1   5
TORSDOF 2
ENDMDL
MODEL 9
REMARK VINA RESULT:    -2.783     17.445     17.847
REMARK INTER + INTRA:          -3.138
REMARK INTER:                  -3.074
REMARK INTRA:                  -0.065
REMARK UNBOUND:                -0.030
REMARK SMILES CC(C)CC=O
REMARK SMILES IDX 4 1 2 2 1 3 3 4 5 5 6 6
REMARK H PARENT
REMARK Flexibility Score: inf
ROOT
ATOM      1  C   UNL     1      14.507  42.369 -14.203  1.00  0.00     0.075 C 
ENDROOT
BRANCH   1   2
ATOM      2  C   UNL     1      14.651  41.983 -12.716  1.00  0.00    -0.010 C 
ATOM      3  C   UNL     1      14.237  43.139 -11.793  1.00  0.00     0.008 C 
ATOM      4  C   UNL     1      16.095  41.565 -12.415  1.00  0.00     0.008 C 
ENDBRANCH   1   2
BRANCH   1   5
ATOM      5  C   UNL     1      14.972  43.771 -14.479  1.00  0.00     0.224 C 
ATOM      6  O   UNL     1      15.992  43.959 -15.122  1.00  0.00    -0.303 OA
ENDBRANCH   1   5
TORSDOF 2
ENDMDL
