MODEL 1
REMARK VINA RESULT:    -4.229      0.000      0.000
REMARK INTER + INTRA:          -4.617
REMARK INTER:                  -4.599
REMARK INTRA:                  -0.017
REMARK UNBOUND:                -0.017
REMARK SMILES OCc1ccco1
REMARK SMILES IDX 2 1 3 2 5 3 6 4 4 5 7 6 1 7
REMARK H PARENT 1 8
REMARK Flexibility Score: inf
ROOT
ATOM      1  C   UNL     1      25.574  -4.862  -4.290  1.00  0.00     0.231 C 
ENDROOT
BRANCH   1   2
ATOM      2  C   UNL     1      25.353  -5.781  -3.131  1.00  0.00     0.129 A 
ATOM      3  C   UNL     1      24.544  -7.337  -1.810  1.00  0.00     0.042 A 
ATOM      4  C   UNL     1      25.573  -6.650  -1.198  1.00  0.00     0.195 A 
ATOM      5  C   UNL     1      24.397  -6.774  -3.059  1.00  0.00     0.048 A 
ATOM      6  O   UNL     1      26.034  -5.727  -2.011  1.00  0.00    -0.467 OA
ENDBRANCH   1   2
BRANCH   1   7
ATOM      7  O   UNL     1      26.936  -4.814  -4.614  1.00  0.00    -0.388 OA
ATOM      8  H   UNL     1      27.393  -4.373  -3.850  1.00  0.00     0.211 HD
ENDBRANCH   1   7
TORSDOF 2
ENDMDL
MODEL 2
REMARK VINA RESULT:    -4.006      1.198      2.919
REMARK INTER + INTRA:          -4.375
REMARK INTER:                  -4.359
REMARK INTRA:                  -0.015
REMARK UNBOUND:                -0.017
REMARK SMILES OCc1ccco1
REMARK SMILES IDX 2 1 3 2 5 3 6 4 4 5 7 6 1 7
REMARK H PARENT 1 8
REMARK Flexibility Score: inf
ROOT
ATOM      1  C   UNL     1      26.281  -6.363  -0.016  1.00  0.00     0.231 C 
ENDROOT
BRANCH   1   2
ATOM      2  C   UNL     1      25.604  -6.438  -1.347  1.00  0.00     0.129 A 
ATOM      3  C   UNL     1      24.280  -7.021  -2.999  1.00  0.00     0.042 A 
ATOM      4  C   UNL     1      25.179  -6.053  -3.400  1.00  0.00     0.195 A 
ATOM      5  C   UNL     1      24.555  -7.274  -1.672  1.00  0.00     0.048 A 
ATOM      6  O   UNL     1      25.957  -5.728  -2.392  1.00  0.00    -0.467 OA
ENDBRANCH   1   2
BRANCH   1   7
ATOM      7  O   UNL     1      27.535  -6.983  -0.078  1.00  0.00    -0.388 OA
ATOM      8  H   UNL     1      27.759  -7.073  -1.042  1.00  0.00     0.211 HD
ENDBRANCH   1   7
TORSDOF 2
ENDMDL
MODEL 3
REMARK VINA RESULT:    -3.820      5.353      6.918
REMARK INTER + INTRA:          -4.172
REMARK INTER:                  -4.157
REMARK INTRA:                  -0.015
REMARK UNBOUND:                -0.017
REMARK SMILES OCc1ccco1
REMARK SMILES IDX 2 1 3 2 5 3 6 4 4 5 7 6 1 7
REMARK H PARENT 1 8
REMARK Flexibility Score: inf
ROOT
ATOM      1  C   UNL     1      29.365  -6.979   4.132  1.00  0.00     0.231 C 
ENDROOT
BRANCH   1   2
ATOM      2  C   UNL     1      28.500  -7.449   3.007  1.00  0.00     0.129 A 
ATOM      3  C   UNL     1      27.165  -8.655   1.747  1.00  0.00     0.042 A 
ATOM      4  C   UNL     1      27.544  -7.494   1.102  1.00  0.00     0.195 A 
ATOM      5  C   UNL     1      27.785  -8.629   2.978  1.00  0.00     0.048 A 
ATOM      6  O   UNL     1      28.343  -6.797   1.879  1.00  0.00    -0.467 OA
ENDBRANCH   1   2
BRANCH   1   7
ATOM      7  O   UNL     1      30.716  -7.164   3.810  1.00  0.00    -0.388 OA
ATOM      8  H   UNL     1      31.206  -7.228   4.671  1.00  0.00     0.211 HD
ENDBRANCH   1   7
TORSDOF 2
ENDMDL
MODEL 4
REMARK VINA RESULT:    -3.506     11.049     12.374
REMARK INTER + INTRA:          -3.830
REMARK INTER:                  -3.814
REMARK INTRA:                  -0.017
REMARK UNBOUND:                -0.017
REMARK SMILES OCc1ccco1
REMARK SMILES IDX 2 1 3 2 5 3 6 4 4 5 7 6 1 7
REMARK H PARENT 1 8
REMARK Flexibility Score: inf
ROOT
ATOM      1  C   UNL     1      26.816   4.152  -6.783  1.00  0.00     0.231 C 
ENDROOT
BRANCH   1   2
ATOM      2  C   UNL     1      27.968   4.519  -7.662  1.00  0.00     0.129 A 
ATOM      3  C   UNL     1      29.186   5.355  -9.287  1.00  0.00     0.042 A 
ATOM      4  C   UNL     1      29.952   4.579  -8.440  1.00  0.00     0.195 A 
ATOM      5  C   UNL     1      27.903   5.315  -8.787  1.00  0.00     0.048 A 
ATOM      6  O   UNL     1      29.196   4.092  -7.482  1.00  0.00    -0.467 OA
ENDBRANCH   1   2
BRANCH   1   7
ATOM      7  O   UNL     1      27.138   4.395  -5.441  1.00  0.00    -0.388 OA
ATOM      8  H   UNL     1      27.167   5.382  -5.331  1.00  0.00     0.211 HD
ENDBRANCH   1   7
TORSDOF 2
ENDMDL
MODEL 5
REMARK VINA RESULT:    -3.479     17.443     18.365
REMARK INTER + INTRA:          -3.801
REMARK INTER:                  -3.787
REMARK INTRA:                  -0.014
REMARK UNBOUND:                -0.017
REMARK SMILES OCc1ccco1
REMARK SMILES IDX 2 1 3 2 5 3 6 4 4 5 7 6 1 7
REMARK H PARENT 1 8
REMARK Flexibility Score: inf
ROOT
ATOM      1  C   UNL     1      36.164   1.389   8.610  1.00  0.00     0.231 C 
ENDROOT
BRANCH   1   2
ATOM      2  C   UNL     1      36.419   2.860   8.539  1.00  0.00     0.129 A 
ATOM      3  C   UNL     1      36.447   5.010   8.986  1.00  0.00     0.042 A 
ATOM      4  C   UNL     1      37.066   4.744   7.781  1.00  0.00     0.195 A 
ATOM      5  C   UNL     1      36.025   3.793   9.477  1.00  0.00     0.048 A 
ATOM      6  O   UNL     1      37.031   3.453   7.541  1.00  0.00    -0.467 OA
ENDBRANCH   1   2
BRANCH   1   7
ATOM      7  O   UNL     1      34.992   1.070   7.912  1.00  0.00    -0.388 OA
ATOM      8  H   UNL     1      34.785   0.122   8.124  1.00  0.00     0.211 HD
ENDBRANCH   1   7
TORSDOF 2
ENDMDL
MODEL 6
REMARK VINA RESULT:    -3.436     17.338     18.135
REMARK INTER + INTRA:          -3.755
REMARK INTER:                  -3.733
REMARK INTRA:                  -0.021
REMARK UNBOUND:                -0.017
REMARK SMILES OCc1ccco1
REMARK SMILES IDX 2 1 3 2 5 3 6 4 4 5 7 6 1 7
REMARK H PARENT 1 8
REMARK Flexibility Score: inf
ROOT
ATOM      1  C   UNL     1      38.081   3.741   8.008  1.00  0.00     0.231 C 
ENDROOT
BRANCH   1   2
ATOM      2  C   UNL     1      36.915   2.893   8.402  1.00  0.00     0.129 A 
ATOM      3  C   UNL     1      35.211   2.044   9.496  1.00  0.00     0.042 A 
ATOM      4  C   UNL     1      35.481   1.316   8.354  1.00  0.00     0.195 A 
ATOM      5  C   UNL     1      36.139   3.062   9.531  1.00  0.00     0.048 A 
ATOM      6  O   UNL     1      36.505   1.847   7.724  1.00  0.00    -0.467 OA
ENDBRANCH   1   2
BRANCH   1   7
ATOM      7  O   UNL     1      38.875   3.064   7.073  1.00  0.00    -0.388 OA
ATOM      8  H   UNL     1      39.819   3.268   7.302  1.00  0.00     0.211 HD
ENDBRANCH   1   7
TORSDOF 2
ENDMDL
MODEL 7
REMARK VINA RESULT:    -3.420      4.562      5.917
REMARK INTER + INTRA:          -3.737
REMARK INTER:                  -3.721
REMARK INTRA:                  -0.016
REMARK UNBOUND:                -0.017
REMARK SMILES OCc1ccco1
REMARK SMILES IDX 2 1 3 2 5 3 6 4 4 5 7 6 1 7
REMARK H PARENT 1 8
REMARK Flexibility Score: inf
ROOT
ATOM      1  C   UNL     1      27.178  -7.150   0.592  1.00  0.00     0.231 C 
ENDROOT
BRANCH   1   2
ATOM      2  C   UNL     1      27.304  -8.203   1.646  1.00  0.00     0.129 A 
ATOM      3  C   UNL     1      27.849  -9.286   3.477  1.00  0.00     0.042 A 
ATOM      4  C   UNL     1      27.125 -10.090   2.620  1.00  0.00     0.195 A 
ATOM      5  C   UNL     1      27.970  -8.066   2.848  1.00  0.00     0.048 A 
ATOM      6  O   UNL     1      26.817  -9.416   1.535  1.00  0.00    -0.467 OA
ENDBRANCH   1   2
BRANCH   1   7
ATOM      7  O   UNL     1      27.941  -6.028   0.939  1.00  0.00    -0.388 OA
ATOM      8  H   UNL     1      28.854  -6.185   0.581  1.00  0.00     0.211 HD
ENDBRANCH   1   7
TORSDOF 2
ENDMDL
MODEL 8
REMARK VINA RESULT:    -3.336     10.518     11.718
REMARK INTER + INTRA:          -3.646
REMARK INTER:                  -3.625
REMARK INTRA:                  -0.021
REMARK UNBOUND:                -0.017
REMARK SMILES OCc1ccco1
REMARK SMILES IDX 2 1 3 2 5 3 6 4 4 5 7 6 1 7
REMARK H PARENT 1 8
REMARK Flexibility Score: inf
ROOT
ATOM      1  C   UNL     1      28.276   5.608  -6.572  1.00  0.00     0.231 C 
ENDROOT
BRANCH   1   2
ATOM      2  C   UNL     1      27.141   4.815  -7.136  1.00  0.00     0.129 A 
ATOM      3  C   UNL     1      25.553   4.068  -8.456  1.00  0.00     0.042 A 
ATOM      4  C   UNL     1      25.562   3.388  -7.255  1.00  0.00     0.195 A 
ATOM      5  C   UNL     1      26.571   4.994  -8.380  1.00  0.00     0.048 A 
ATOM      6  O   UNL     1      26.520   3.858  -6.488  1.00  0.00    -0.467 OA
ENDBRANCH   1   2
BRANCH   1   7
ATOM      7  O   UNL     1      28.195   5.638  -5.174  1.00  0.00    -0.388 OA
ATOM      8  H   UNL     1      27.414   6.209  -4.948  1.00  0.00     0.211 HD
ENDBRANCH   1   7
TORSDOF 2
ENDMDL
MODEL 9
REMARK VINA RESULT:    -3.265     17.443     18.260
REMARK INTER + INTRA:          -3.568
REMARK INTER:                  -3.554
REMARK INTRA:                  -0.014
REMARK UNBOUND:                -0.017
REMARK SMILES OCc1ccco1
REMARK SMILES IDX 2 1 3 2 5 3 6 4 4 5 7 6 1 7
REMARK H PARENT 1 8
REMARK Flexibility Score: inf
ROOT
ATOM      1  C   UNL     1      34.625   1.527  10.124  1.00  0.00     0.231 C 
ENDROOT
BRANCH   1   2
ATOM      2  C   UNL     1      35.613   2.388   9.405  1.00  0.00     0.129 A 
ATOM      3  C   UNL     1      37.207   3.084   8.065  1.00  0.00     0.042 A 
ATOM      4  C   UNL     1      36.757   4.106   8.876  1.00  0.00     0.195 A 
ATOM      5  C   UNL     1      36.471   1.971   8.407  1.00  0.00     0.048 A 
ATOM      6  O   UNL     1      35.808   3.659   9.666  1.00  0.00    -0.467 OA
ENDBRANCH   1   2
BRANCH   1   7
ATOM      7  O   UNL     1      33.321   1.875   9.750  1.00  0.00    -0.388 OA
ATOM      8  H   UNL     1      33.166   2.797  10.087  1.00  0.00     0.211 HD
ENDBRANCH   1   7
TORSDOF 2
ENDMDL
