MODEL 1
REMARK VINA RESULT:    -6.139      0.000      0.000
REMARK INTER + INTRA:         -10.523
REMARK INTER:                  -9.369
REMARK INTRA:                  -1.154
REMARK UNBOUND:                -1.154
REMARK SMILES OC[C@@H]1O[C@@H](O[C@@]2(CO)O[C@@H](CO)[C@H](O)[C@H]2O)[C@H](O)[C@@H](O)[C@H]1O
REMARK SMILES IDX 6 1 5 2 3 3 22 4 4 5 20 6 18 7 2 8 1 9 23 11 21 13 19 15
REMARK SMILES IDX 7 17 16 18 10 19 14 20 11 21 8 22 9 23 17 25 15 27 12 29
REMARK SMILES IDX 13 30
REMARK H PARENT 1 10 23 12 21 14 19 16 9 24 17 26 15 28 13 31
REMARK Flexibility Score: inf
ROOT
ATOM      1  O   UNL     1      19.126  -3.206  23.875  1.00  0.00    -0.313 OA
ENDROOT
BRANCH   1   2
ATOM      2  C   UNL     1      18.058  -4.131  24.063  1.00  0.00     0.285 C 
ATOM      3  C   UNL     1      16.993  -3.418  22.088  1.00  0.00     0.178 C 
ATOM      4  C   UNL     1      15.809  -2.771  22.852  1.00  0.00     0.177 C 
ATOM      5  O   UNL     1      17.516  -4.524  22.810  1.00  0.00    -0.341 OA
ATOM      6  C   UNL     1      16.243  -2.346  24.269  1.00  0.00     0.179 C 
ATOM      7  C   UNL     1      16.979  -3.503  24.976  1.00  0.00     0.202 C 
BRANCH   3   8
ATOM      8  C   UNL     1      16.556  -3.906  20.700  1.00  0.00     0.191 C 
BRANCH   8   9
ATOM      9  O   UNL     1      16.363  -2.817  19.837  1.00  0.00    -0.394 OA
ATOM     10  H   UNL     1      17.167  -2.783  19.256  1.00  0.00     0.210 HD
ENDBRANCH   8   9
ENDBRANCH   3   8
BRANCH   4  11
ATOM     11  O   UNL     1      15.265  -1.677  22.151  1.00  0.00    -0.387 OA
ATOM     12  H   UNL     1      14.318  -1.889  21.940  1.00  0.00     0.211 HD
ENDBRANCH   4  11
BRANCH   6  13
ATOM     13  O   UNL     1      17.083  -1.220  24.193  1.00  0.00    -0.387 OA
ATOM     14  H   UNL     1      17.651  -1.230  25.008  1.00  0.00     0.211 HD
ENDBRANCH   6  13
BRANCH   7  15
ATOM     15  O   UNL     1      16.065  -4.473  25.430  1.00  0.00    -0.385 OA
ATOM     16  H   UNL     1      15.208  -4.020  25.638  1.00  0.00     0.211 HD
ENDBRANCH   7  15
ENDBRANCH   1   2
BRANCH   1  17
ATOM     17  C   UNL     1      20.415  -3.806  23.793  1.00  0.00     0.224 C 
ATOM     18  C   UNL     1      21.484  -2.698  23.889  1.00  0.00     0.208 C 
ATOM     19  O   UNL     1      20.589  -4.456  22.540  1.00  0.00    -0.337 OA
ATOM     20  C   UNL     1      21.778  -2.389  22.442  1.00  0.00     0.180 C 
ATOM     21  C   UNL     1      21.571  -3.756  21.804  1.00  0.00     0.179 C 
BRANCH  17  22
ATOM     22  C   UNL     1      20.604  -4.825  24.937  1.00  0.00     0.225 C 
BRANCH  22  23
ATOM     23  O   UNL     1      21.964  -4.954  25.250  1.00  0.00    -0.391 OA
ATOM     24  H   UNL     1      22.157  -4.258  25.931  1.00  0.00     0.210 HD
ENDBRANCH  22  23
ENDBRANCH  17  22
BRANCH  18  25
ATOM     25  O   UNL     1      21.065  -1.569  24.622  1.00  0.00    -0.385 OA
ATOM     26  H   UNL     1      20.351  -1.104  24.114  1.00  0.00     0.211 HD
ENDBRANCH  18  25
BRANCH  20  27
ATOM     27  O   UNL     1      23.100  -1.950  22.267  1.00  0.00    -0.387 OA
ATOM     28  H   UNL     1      23.047  -0.982  22.054  1.00  0.00     0.211 HD
ENDBRANCH  20  27
BRANCH  21  29
ATOM     29  C   UNL     1      21.167  -3.666  20.330  1.00  0.00     0.191 C 
BRANCH  29  30
ATOM     30  O   UNL     1      21.873  -2.638  19.691  1.00  0.00    -0.394 OA
ATOM     31  H   UNL     1      21.448  -1.790  19.985  1.00  0.00     0.210 HD
ENDBRANCH  29  30
ENDBRANCH  21  29
ENDBRANCH   1  17
TORSDOF 13
ENDMDL
MODEL 2
REMARK VINA RESULT:    -5.942      1.825      5.121
REMARK INTER + INTRA:         -10.222
REMARK INTER:                  -8.920
REMARK INTRA:                  -1.302
REMARK UNBOUND:                -1.154
REMARK SMILES OC[C@@H]1O[C@@H](O[C@@]2(CO)O[C@@H](CO)[C@H](O)[C@H]2O)[C@H](O)[C@@H](O)[C@H]1O
REMARK SMILES IDX 6 1 5 2 3 3 22 4 4 5 20 6 18 7 2 8 1 9 23 11 21 13 19 15
REMARK SMILES IDX 7 17 16 18 10 19 14 20 11 21 8 22 9 23 17 25 15 27 12 29
REMARK SMILES IDX 13 30
REMARK H PARENT 1 10 23 12 21 14 19 16 9 24 17 26 15 28 13 31
REMARK Flexibility Score: inf
ROOT
ATOM      1  O   UNL     1      18.226  -3.114  22.091  1.00  0.00    -0.313 OA
ENDROOT
BRANCH   1   2
ATOM      2  C   UNL     1      18.385  -2.585  23.405  1.00  0.00     0.285 C 
ATOM      3  C   UNL     1      20.730  -2.570  23.196  1.00  0.00     0.178 C 
ATOM      4  C   UNL     1      20.922  -3.697  24.243  1.00  0.00     0.177 C 
ATOM      5  O   UNL     1      19.568  -1.804  23.485  1.00  0.00    -0.341 OA
ATOM      6  C   UNL     1      19.673  -4.598  24.308  1.00  0.00     0.179 C 
ATOM      7  C   UNL     1      18.396  -3.740  24.434  1.00  0.00     0.202 C 
BRANCH   3   8
ATOM      8  C   UNL     1      21.941  -1.626  23.170  1.00  0.00     0.191 C 
BRANCH   8   9
ATOM      9  O   UNL     1      23.018  -2.230  22.507  1.00  0.00    -0.394 OA
ATOM     10  H   UNL     1      23.737  -1.547  22.474  1.00  0.00     0.210 HD
ENDBRANCH   8   9
ENDBRANCH   3   8
BRANCH   4  11
ATOM     11  O   UNL     1      22.074  -4.465  23.985  1.00  0.00    -0.387 OA
ATOM     12  H   UNL     1      22.747  -4.252  24.683  1.00  0.00     0.211 HD
ENDBRANCH   4  11
BRANCH   6  13
ATOM     13  O   UNL     1      19.599  -5.396  23.151  1.00  0.00    -0.387 OA
ATOM     14  H   UNL     1      18.831  -6.013  23.276  1.00  0.00     0.211 HD
ENDBRANCH   6  13
BRANCH   7  15
ATOM     15  O   UNL     1      18.247  -3.256  25.747  1.00  0.00    -0.385 OA
ATOM     16  H   UNL     1      18.742  -2.400  25.821  1.00  0.00     0.211 HD
ENDBRANCH   7  15
ENDBRANCH   1   2
BRANCH   1  17
ATOM     17  C   UNL     1      17.561  -2.242  21.182  1.00  0.00     0.224 C 
ATOM     18  C   UNL     1      16.835  -3.093  20.121  1.00  0.00     0.208 C 
ATOM     19  O   UNL     1      18.497  -1.417  20.499  1.00  0.00    -0.337 OA
ATOM     20  C   UNL     1      17.835  -3.146  18.992  1.00  0.00     0.180 C 
ATOM     21  C   UNL     1      18.509  -1.788  19.136  1.00  0.00     0.179 C 
BRANCH  17  22
ATOM     22  C   UNL     1      16.545  -1.358  21.939  1.00  0.00     0.225 C 
BRANCH  22  23
ATOM     23  O   UNL     1      15.324  -2.032  22.071  1.00  0.00    -0.391 OA
ATOM     24  H   UNL     1      14.666  -1.519  21.532  1.00  0.00     0.210 HD
ENDBRANCH  22  23
ENDBRANCH  17  22
BRANCH  18  25
ATOM     25  O   UNL     1      16.453  -4.368  20.582  1.00  0.00    -0.385 OA
ATOM     26  H   UNL     1      16.683  -5.042  19.891  1.00  0.00     0.211 HD
ENDBRANCH  18  25
BRANCH  20  27
ATOM     27  O   UNL     1      17.200  -3.259  17.745  1.00  0.00    -0.387 OA
ATOM     28  H   UNL     1      16.625  -4.067  17.798  1.00  0.00     0.211 HD
ENDBRANCH  20  27
BRANCH  21  29
ATOM     29  C   UNL     1      19.941  -1.778  18.595  1.00  0.00     0.191 C 
BRANCH  29  30
ATOM     30  O   UNL     1      19.988  -2.360  17.322  1.00  0.00    -0.394 OA
ATOM     31  H   UNL     1      19.053  -2.616  17.103  1.00  0.00     0.210 HD
ENDBRANCH  29  30
ENDBRANCH  21  29
ENDBRANCH   1  17
TORSDOF 13
ENDMDL
MODEL 3
REMARK VINA RESULT:    -5.807      2.712      5.656
REMARK INTER + INTRA:         -10.016
REMARK INTER:                  -8.486
REMARK INTRA:                  -1.530
REMARK UNBOUND:                -1.154
REMARK SMILES OC[C@@H]1O[C@@H](O[C@@]2(CO)O[C@@H](CO)[C@H](O)[C@H]2O)[C@H](O)[C@@H](O)[C@H]1O
REMARK SMILES IDX 6 1 5 2 3 3 22 4 4 5 20 6 18 7 2 8 1 9 23 11 21 13 19 15
REMARK SMILES IDX 7 17 16 18 10 19 14 20 11 21 8 22 9 23 17 25 15 27 12 29
REMARK SMILES IDX 13 30
REMARK H PARENT 1 10 23 12 21 14 19 16 9 24 17 26 15 28 13 31
REMARK Flexibility Score: inf
ROOT
ATOM      1  O   UNL     1      17.531  -2.077  20.951  1.00  0.00    -0.313 OA
ENDROOT
BRANCH   1   2
ATOM      2  C   UNL     1      18.887  -1.914  20.545  1.00  0.00     0.285 C 
ATOM      3  C   UNL     1      19.011   0.210  21.554  1.00  0.00     0.178 C 
ATOM      4  C   UNL     1      19.112   0.950  20.194  1.00  0.00     0.177 C 
ATOM      5  O   UNL     1      19.584  -1.087  21.466  1.00  0.00    -0.341 OA
ATOM      6  C   UNL     1      18.442   0.128  19.077  1.00  0.00     0.179 C 
ATOM      7  C   UNL     1      18.936  -1.333  19.113  1.00  0.00     0.202 C 
BRANCH   3   8
ATOM      8  C   UNL     1      19.734   0.988  22.663  1.00  0.00     0.191 C 
BRANCH   8   9
ATOM      9  O   UNL     1      20.627   0.150  23.345  1.00  0.00    -0.394 OA
ATOM     10  H   UNL     1      20.743   0.550  24.246  1.00  0.00     0.210 HD
ENDBRANCH   8   9
ENDBRANCH   3   8
BRANCH   4  11
ATOM     11  O   UNL     1      18.561   2.245  20.258  1.00  0.00    -0.387 OA
ATOM     12  H   UNL     1      19.288   2.876  20.497  1.00  0.00     0.211 HD
ENDBRANCH   4  11
BRANCH   6  13
ATOM     13  O   UNL     1      17.044   0.164  19.231  1.00  0.00    -0.387 OA
ATOM     14  H   UNL     1      16.862   0.580  20.114  1.00  0.00     0.211 HD
ENDBRANCH   6  13
BRANCH   7  15
ATOM     15  O   UNL     1      20.228  -1.438  18.562  1.00  0.00    -0.385 OA
ATOM     16  H   UNL     1      20.830  -1.821  19.252  1.00  0.00     0.211 HD
ENDBRANCH   7  15
ENDBRANCH   1   2
BRANCH   1  17
ATOM     17  C   UNL     1      17.204  -3.391  21.392  1.00  0.00     0.224 C 
ATOM     18  C   UNL     1      16.084  -3.294  22.449  1.00  0.00     0.208 C 
ATOM     19  O   UNL     1      18.325  -4.007  22.015  1.00  0.00    -0.337 OA
ATOM     20  C   UNL     1      16.849  -3.288  23.749  1.00  0.00     0.180 C 
ATOM     21  C   UNL     1      18.041  -4.164  23.390  1.00  0.00     0.179 C 
BRANCH  17  22
ATOM     22  C   UNL     1      16.735  -4.253  20.200  1.00  0.00     0.225 C 
BRANCH  22  23
ATOM     23  O   UNL     1      15.913  -3.498  19.353  1.00  0.00    -0.391 OA
ATOM     24  H   UNL     1      15.475  -2.818  19.929  1.00  0.00     0.210 HD
ENDBRANCH  22  23
ENDBRANCH  17  22
BRANCH  18  25
ATOM     25  O   UNL     1      15.251  -2.169  22.290  1.00  0.00    -0.385 OA
ATOM     26  H   UNL     1      14.319  -2.477  22.146  1.00  0.00     0.211 HD
ENDBRANCH  18  25
BRANCH  20  27
ATOM     27  O   UNL     1      16.101  -3.860  24.790  1.00  0.00    -0.387 OA
ATOM     28  H   UNL     1      16.316  -3.338  25.607  1.00  0.00     0.211 HD
ENDBRANCH  20  27
BRANCH  21  29
ATOM     29  C   UNL     1      19.282  -3.848  24.229  1.00  0.00     0.191 C 
BRANCH  29  30
ATOM     30  O   UNL     1      19.541  -2.471  24.219  1.00  0.00    -0.394 OA
ATOM     31  H   UNL     1      20.372  -2.344  24.750  1.00  0.00     0.210 HD
ENDBRANCH  29  30
ENDBRANCH  21  29
ENDBRANCH   1  17
TORSDOF 13
ENDMDL
MODEL 4
REMARK VINA RESULT:    -5.728      2.563      5.297
REMARK INTER + INTRA:          -9.897
REMARK INTER:                  -8.787
REMARK INTRA:                  -1.110
REMARK UNBOUND:                -1.154
REMARK SMILES OC[C@@H]1O[C@@H](O[C@@]2(CO)O[C@@H](CO)[C@H](O)[C@H]2O)[C@H](O)[C@@H](O)[C@H]1O
REMARK SMILES IDX 6 1 5 2 3 3 22 4 4 5 20 6 18 7 2 8 1 9 23 11 21 13 19 15
REMARK SMILES IDX 7 17 16 18 10 19 14 20 11 21 8 22 9 23 17 25 15 27 12 29
REMARK SMILES IDX 13 30
REMARK H PARENT 1 10 23 12 21 14 19 16 9 24 17 26 15 28 13 31
REMARK Flexibility Score: inf
ROOT
ATOM      1  O   UNL     1      18.040  -2.047  22.417  1.00  0.00    -0.313 OA
ENDROOT
BRANCH   1   2
ATOM      2  C   UNL     1      19.200  -2.120  21.592  1.00  0.00     0.285 C 
ATOM      3  C   UNL     1      18.566  -0.189  20.403  1.00  0.00     0.178 C 
ATOM      4  C   UNL     1      18.285  -0.975  19.096  1.00  0.00     0.177 C 
ATOM      5  O   UNL     1      19.586  -0.822  21.164  1.00  0.00    -0.341 OA
ATOM      6  C   UNL     1      17.909  -2.436  19.411  1.00  0.00     0.179 C 
ATOM      7  C   UNL     1      18.927  -3.055  20.391  1.00  0.00     0.202 C 
BRANCH   3   8
ATOM      8  C   UNL     1      19.008   1.250  20.100  1.00  0.00     0.191 C 
BRANCH   8   9
ATOM      9  O   UNL     1      17.907   2.029  19.717  1.00  0.00    -0.394 OA
ATOM     10  H   UNL     1      18.003   2.893  20.196  1.00  0.00     0.210 HD
ENDBRANCH   8   9
ENDBRANCH   3   8
BRANCH   4  11
ATOM     11  O   UNL     1      17.285  -0.361  18.317  1.00  0.00    -0.387 OA
ATOM     12  H   UNL     1      16.411  -0.752  18.577  1.00  0.00     0.211 HD
ENDBRANCH   4  11
BRANCH   6  13
ATOM     13  O   UNL     1      16.617  -2.487  19.967  1.00  0.00    -0.387 OA
ATOM     14  H   UNL     1      16.731  -2.561  20.951  1.00  0.00     0.211 HD
ENDBRANCH   6  13
BRANCH   7  15
ATOM     15  O   UNL     1      20.120  -3.394  19.725  1.00  0.00    -0.385 OA
ATOM     16  H   UNL     1      19.915  -4.100  19.059  1.00  0.00     0.211 HD
ENDBRANCH   7  15
ENDBRANCH   1   2
BRANCH   1  17
ATOM     17  C   UNL     1      18.140  -2.776  23.637  1.00  0.00     0.224 C 
ATOM     18  C   UNL     1      16.910  -3.697  23.765  1.00  0.00     0.208 C 
ATOM     19  O   UNL     1      18.128  -1.893  24.753  1.00  0.00    -0.337 OA
ATOM     20  C   UNL     1      15.957  -2.872  24.593  1.00  0.00     0.180 C 
ATOM     21  C   UNL     1      16.930  -2.097  25.472  1.00  0.00     0.179 C 
BRANCH  17  22
ATOM     22  C   UNL     1      19.436  -3.615  23.652  1.00  0.00     0.225 C 
BRANCH  22  23
ATOM     23  O   UNL     1      19.681  -4.100  24.944  1.00  0.00    -0.391 OA
ATOM     24  H   UNL     1      18.831  -3.989  25.446  1.00  0.00     0.210 HD
ENDBRANCH  22  23
ENDBRANCH  17  22
BRANCH  18  25
ATOM     25  O   UNL     1      16.367  -4.093  22.526  1.00  0.00    -0.385 OA
ATOM     26  H   UNL     1      16.874  -4.877  22.190  1.00  0.00     0.211 HD
ENDBRANCH  18  25
BRANCH  20  27
ATOM     27  O   UNL     1      15.115  -3.682  25.372  1.00  0.00    -0.387 OA
ATOM     28  H   UNL     1      14.215  -3.630  24.956  1.00  0.00     0.211 HD
ENDBRANCH  20  27
BRANCH  21  29
ATOM     29  C   UNL     1      16.361  -0.758  25.948  1.00  0.00     0.191 C 
BRANCH  29  30
ATOM     30  O   UNL     1      16.778   0.279  25.103  1.00  0.00    -0.394 OA
ATOM     31  H   UNL     1      16.859  -0.121  24.197  1.00  0.00     0.210 HD
ENDBRANCH  29  30
ENDBRANCH  21  29
ENDBRANCH   1  17
TORSDOF 13
ENDMDL
MODEL 5
REMARK VINA RESULT:    -5.721      1.744      3.915
REMARK INTER + INTRA:          -9.885
REMARK INTER:                  -8.345
REMARK INTRA:                  -1.540
REMARK UNBOUND:                -1.154
REMARK SMILES OC[C@@H]1O[C@@H](O[C@@]2(CO)O[C@@H](CO)[C@H](O)[C@H]2O)[C@H](O)[C@@H](O)[C@H]1O
REMARK SMILES IDX 6 1 5 2 3 3 22 4 4 5 20 6 18 7 2 8 1 9 23 11 21 13 19 15
REMARK SMILES IDX 7 17 16 18 10 19 14 20 11 21 8 22 9 23 17 25 15 27 12 29
REMARK SMILES IDX 13 30
REMARK H PARENT 1 10 23 12 21 14 19 16 9 24 17 26 15 28 13 31
REMARK Flexibility Score: inf
ROOT
ATOM      1  O   UNL     1      18.846  -2.517  21.361  1.00  0.00    -0.313 OA
ENDROOT
BRANCH   1   2
ATOM      2  C   UNL     1      18.633  -1.463  22.296  1.00  0.00     0.285 C 
ATOM      3  C   UNL     1      17.712  -2.949  23.873  1.00  0.00     0.178 C 
ATOM      4  C   UNL     1      16.287  -2.351  23.740  1.00  0.00     0.177 C 
ATOM      5  O   UNL     1      18.700  -1.959  23.625  1.00  0.00    -0.341 OA
ATOM      6  C   UNL     1      16.092  -1.716  22.350  1.00  0.00     0.179 C 
ATOM      7  C   UNL     1      17.273  -0.782  22.013  1.00  0.00     0.202 C 
BRANCH   3   8
ATOM      8  C   UNL     1      17.941  -3.526  25.278  1.00  0.00     0.191 C 
BRANCH   8   9
ATOM      9  O   UNL     1      19.241  -4.040  25.389  1.00  0.00    -0.394 OA
ATOM     10  H   UNL     1      19.701  -3.477  26.064  1.00  0.00     0.210 HD
ENDBRANCH   8   9
ENDBRANCH   3   8
BRANCH   4  11
ATOM     11  O   UNL     1      15.288  -3.311  23.993  1.00  0.00    -0.387 OA
ATOM     12  H   UNL     1      14.577  -3.201  23.309  1.00  0.00     0.211 HD
ENDBRANCH   4  11
BRANCH   6  13
ATOM     13  O   UNL     1      15.987  -2.725  21.374  1.00  0.00    -0.387 OA
ATOM     14  H   UNL     1      15.059  -2.692  21.024  1.00  0.00     0.211 HD
ENDBRANCH   6  13
BRANCH   7  15
ATOM     15  O   UNL     1      17.159   0.438  22.705  1.00  0.00    -0.385 OA
ATOM     16  H   UNL     1      16.272   0.462  23.149  1.00  0.00     0.211 HD
ENDBRANCH   7  15
ENDBRANCH   1   2
BRANCH   1  17
ATOM     17  C   UNL     1      20.182  -2.611  20.875  1.00  0.00     0.224 C 
ATOM     18  C   UNL     1      20.776  -3.963  21.319  1.00  0.00     0.208 C 
ATOM     19  O   UNL     1      20.994  -1.586  21.435  1.00  0.00    -0.337 OA
ATOM     20  C   UNL     1      21.499  -3.611  22.594  1.00  0.00     0.180 C 
ATOM     21  C   UNL     1      21.942  -2.185  22.294  1.00  0.00     0.179 C 
BRANCH  17  22
ATOM     22  C   UNL     1      20.199  -2.503  19.335  1.00  0.00     0.225 C 
BRANCH  22  23
ATOM     23  O   UNL     1      20.447  -3.759  18.766  1.00  0.00    -0.391 OA
ATOM     24  H   UNL     1      19.625  -4.003  18.266  1.00  0.00     0.210 HD
ENDBRANCH  22  23
ENDBRANCH  17  22
BRANCH  18  25
ATOM     25  O   UNL     1      19.812  -4.976  21.490  1.00  0.00    -0.385 OA
ATOM     26  H   UNL     1      19.909  -5.639  20.758  1.00  0.00     0.211 HD
ENDBRANCH  18  25
BRANCH  20  27
ATOM     27  O   UNL     1      22.608  -4.445  22.807  1.00  0.00    -0.387 OA
ATOM     28  H   UNL     1      23.351  -3.853  23.097  1.00  0.00     0.211 HD
ENDBRANCH  20  27
BRANCH  21  29
ATOM     29  C   UNL     1      22.122  -1.342  23.559  1.00  0.00     0.191 C 
BRANCH  29  30
ATOM     30  O   UNL     1      21.522  -1.972  24.657  1.00  0.00    -0.394 OA
ATOM     31  H   UNL     1      22.241  -2.089  25.333  1.00  0.00     0.210 HD
ENDBRANCH  29  30
ENDBRANCH  21  29
ENDBRANCH   1  17
TORSDOF 13
ENDMDL
MODEL 6
REMARK VINA RESULT:    -5.710      2.042      5.564
REMARK INTER + INTRA:          -9.868
REMARK INTER:                  -8.436
REMARK INTRA:                  -1.432
REMARK UNBOUND:                -1.154
REMARK SMILES OC[C@@H]1O[C@@H](O[C@@]2(CO)O[C@@H](CO)[C@H](O)[C@H]2O)[C@H](O)[C@@H](O)[C@H]1O
REMARK SMILES IDX 6 1 5 2 3 3 22 4 4 5 20 6 18 7 2 8 1 9 23 11 21 13 19 15
REMARK SMILES IDX 7 17 16 18 10 19 14 20 11 21 8 22 9 23 17 25 15 27 12 29
REMARK SMILES IDX 13 30
REMARK H PARENT 1 10 23 12 21 14 19 16 9 24 17 26 15 28 13 31
REMARK Flexibility Score: inf
ROOT
ATOM      1  O   UNL     1      18.977  -3.347  20.615  1.00  0.00    -0.313 OA
ENDROOT
BRANCH   1   2
ATOM      2  C   UNL     1      19.654  -4.554  20.278  1.00  0.00     0.285 C 
ATOM      3  C   UNL     1      21.707  -3.425  20.044  1.00  0.00     0.178 C 
ATOM      4  C   UNL     1      21.754  -3.640  18.508  1.00  0.00     0.177 C 
ATOM      5  O   UNL     1      21.015  -4.490  20.681  1.00  0.00    -0.341 OA
ATOM      6  C   UNL     1      20.331  -3.789  17.936  1.00  0.00     0.179 C 
ATOM      7  C   UNL     1      19.525  -4.817  18.759  1.00  0.00     0.202 C 
BRANCH   3   8
ATOM      8  C   UNL     1      23.122  -3.342  20.635  1.00  0.00     0.191 C 
BRANCH   8   9
ATOM      9  O   UNL     1      23.067  -3.331  22.035  1.00  0.00    -0.394 OA
ATOM     10  H   UNL     1      23.877  -2.844  22.338  1.00  0.00     0.210 HD
ENDBRANCH   8   9
ENDBRANCH   3   8
BRANCH   4  11
ATOM     11  O   UNL     1      22.447  -2.602  17.853  1.00  0.00    -0.387 OA
ATOM     12  H   UNL     1      23.236  -2.999  17.401  1.00  0.00     0.211 HD
ENDBRANCH   4  11
BRANCH   6  13
ATOM     13  O   UNL     1      19.676  -2.544  17.954  1.00  0.00    -0.387 OA
ATOM     14  H   UNL     1      18.800  -2.686  18.399  1.00  0.00     0.211 HD
ENDBRANCH   6  13
BRANCH   7  15
ATOM     15  O   UNL     1      19.911  -6.131  18.432  1.00  0.00    -0.385 OA
ATOM     16  H   UNL     1      19.120  -6.604  18.063  1.00  0.00     0.211 HD
ENDBRANCH   7  15
ENDBRANCH   1   2
BRANCH   1  17
ATOM     17  C   UNL     1      18.222  -3.414  21.821  1.00  0.00     0.224 C 
ATOM     18  C   UNL     1      18.308  -2.051  22.536  1.00  0.00     0.208 C 
ATOM     19  O   UNL     1      18.765  -4.391  22.701  1.00  0.00    -0.337 OA
ATOM     20  C   UNL     1      19.450  -2.249  23.501  1.00  0.00     0.180 C 
ATOM     21  C   UNL     1      19.303  -3.729  23.827  1.00  0.00     0.179 C 
BRANCH  17  22
ATOM     22  C   UNL     1      16.749  -3.758  21.510  1.00  0.00     0.225 C 
BRANCH  22  23
ATOM     23  O   UNL     1      16.032  -2.590  21.221  1.00  0.00    -0.391 OA
ATOM     24  H   UNL     1      15.593  -2.745  20.344  1.00  0.00     0.210 HD
ENDBRANCH  22  23
ENDBRANCH  17  22
BRANCH  18  25
ATOM     25  O   UNL     1      18.504  -0.964  21.661  1.00  0.00    -0.385 OA
ATOM     26  H   UNL     1      17.985  -0.186  21.994  1.00  0.00     0.211 HD
ENDBRANCH  18  25
BRANCH  20  27
ATOM     27  O   UNL     1      19.294  -1.464  24.654  1.00  0.00    -0.387 OA
ATOM     28  H   UNL     1      18.466  -1.785  25.100  1.00  0.00     0.211 HD
ENDBRANCH  20  27
BRANCH  21  29
ATOM     29  C   UNL     1      20.626  -4.378  24.244  1.00  0.00     0.191 C 
BRANCH  29  30
ATOM     30  O   UNL     1      21.564  -3.398  24.592  1.00  0.00    -0.394 OA
ATOM     31  H   UNL     1      22.055  -3.755  25.378  1.00  0.00     0.210 HD
ENDBRANCH  29  30
ENDBRANCH  21  29
ENDBRANCH   1  17
TORSDOF 13
ENDMDL
MODEL 7
REMARK VINA RESULT:    -5.703      2.900      3.844
REMARK INTER + INTRA:          -9.857
REMARK INTER:                  -8.713
REMARK INTRA:                  -1.145
REMARK UNBOUND:                -1.154
REMARK SMILES OC[C@@H]1O[C@@H](O[C@@]2(CO)O[C@@H](CO)[C@H](O)[C@H]2O)[C@H](O)[C@@H](O)[C@H]1O
REMARK SMILES IDX 6 1 5 2 3 3 22 4 4 5 20 6 18 7 2 8 1 9 23 11 21 13 19 15
REMARK SMILES IDX 7 17 16 18 10 19 14 20 11 21 8 22 9 23 17 25 15 27 12 29
REMARK SMILES IDX 13 30
REMARK H PARENT 1 10 23 12 21 14 19 16 9 24 17 26 15 28 13 31
REMARK Flexibility Score: inf
ROOT
ATOM      1  O   UNL     1      19.292  -1.303  24.218  1.00  0.00    -0.313 OA
ENDROOT
BRANCH   1   2
ATOM      2  C   UNL     1      19.226  -2.467  23.399  1.00  0.00     0.285 C 
ATOM      3  C   UNL     1      16.876  -2.355  23.300  1.00  0.00     0.178 C 
ATOM      4  C   UNL     1      16.689  -3.639  24.150  1.00  0.00     0.177 C 
ATOM      5  O   UNL     1      18.085  -2.415  22.555  1.00  0.00    -0.341 OA
ATOM      6  C   UNL     1      17.897  -3.856  25.081  1.00  0.00     0.179 C 
ATOM      7  C   UNL     1      19.216  -3.731  24.289  1.00  0.00     0.202 C 
BRANCH   3   8
ATOM      8  C   UNL     1      15.709  -2.164  22.321  1.00  0.00     0.191 C 
BRANCH   8   9
ATOM      9  O   UNL     1      15.953  -2.860  21.128  1.00  0.00    -0.394 OA
ATOM     10  H   UNL     1      16.200  -3.784  21.396  1.00  0.00     0.210 HD
ENDBRANCH   8   9
ENDBRANCH   3   8
BRANCH   4  11
ATOM     11  O   UNL     1      15.491  -3.609  24.890  1.00  0.00    -0.387 OA
ATOM     12  H   UNL     1      15.545  -2.854  25.530  1.00  0.00     0.211 HD
ENDBRANCH   4  11
BRANCH   6  13
ATOM     13  O   UNL     1      17.874  -2.910  26.122  1.00  0.00    -0.387 OA
ATOM     14  H   UNL     1      16.927  -2.638  26.243  1.00  0.00     0.211 HD
ENDBRANCH   6  13
BRANCH   7  15
ATOM     15  O   UNL     1      19.455  -4.893  23.531  1.00  0.00    -0.385 OA
ATOM     16  H   UNL     1      20.242  -5.359  23.915  1.00  0.00     0.211 HD
ENDBRANCH   7  15
ENDBRANCH   1   2
BRANCH   1  17
ATOM     17  C   UNL     1      20.311  -0.379  23.847  1.00  0.00     0.224 C 
ATOM     18  C   UNL     1      20.180   0.882  24.724  1.00  0.00     0.208 C 
ATOM     19  O   UNL     1      20.154   0.026  22.493  1.00  0.00    -0.337 OA
ATOM     20  C   UNL     1      19.344   1.801  23.868  1.00  0.00     0.180 C 
ATOM     21  C   UNL     1      19.798   1.393  22.473  1.00  0.00     0.179 C 
BRANCH  17  22
ATOM     22  C   UNL     1      21.704  -1.017  24.039  1.00  0.00     0.225 C 
BRANCH  22  23
ATOM     23  O   UNL     1      22.106  -0.904  25.377  1.00  0.00    -0.391 OA
ATOM     24  H   UNL     1      23.072  -1.132  25.396  1.00  0.00     0.210 HD
ENDBRANCH  22  23
ENDBRANCH  17  22
BRANCH  18  25
ATOM     25  O   UNL     1      19.611   0.635  25.990  1.00  0.00    -0.385 OA
ATOM     26  H   UNL     1      18.673   0.336  25.867  1.00  0.00     0.211 HD
ENDBRANCH  18  25
BRANCH  20  27
ATOM     27  O   UNL     1      19.641   3.150  24.116  1.00  0.00    -0.387 OA
ATOM     28  H   UNL     1      20.583   3.285  23.833  1.00  0.00     0.211 HD
ENDBRANCH  20  27
BRANCH  21  29
ATOM     29  C   UNL     1      18.732   1.649  21.404  1.00  0.00     0.191 C 
BRANCH  29  30
ATOM     30  O   UNL     1      18.447   3.018  21.316  1.00  0.00    -0.394 OA
ATOM     31  H   UNL     1      18.182   3.183  20.374  1.00  0.00     0.210 HD
ENDBRANCH  29  30
ENDBRANCH  21  29
ENDBRANCH   1  17
TORSDOF 13
ENDMDL
MODEL 8
REMARK VINA RESULT:    -5.681      2.065      5.493
REMARK INTER + INTRA:          -9.824
REMARK INTER:                  -8.447
REMARK INTRA:                  -1.377
REMARK UNBOUND:                -1.154
REMARK SMILES OC[C@@H]1O[C@@H](O[C@@]2(CO)O[C@@H](CO)[C@H](O)[C@H]2O)[C@H](O)[C@@H](O)[C@H]1O
REMARK SMILES IDX 6 1 5 2 3 3 22 4 4 5 20 6 18 7 2 8 1 9 23 11 21 13 19 15
REMARK SMILES IDX 7 17 16 18 10 19 14 20 11 21 8 22 9 23 17 25 15 27 12 29
REMARK SMILES IDX 13 30
REMARK H PARENT 1 10 23 12 21 14 19 16 9 24 17 26 15 28 13 31
REMARK Flexibility Score: inf
ROOT
ATOM      1  O   UNL     1      21.206  -3.497  21.256  1.00  0.00    -0.313 OA
ENDROOT
BRANCH   1   2
ATOM      2  C   UNL     1      21.383  -2.716  20.078  1.00  0.00     0.285 C 
ATOM      3  C   UNL     1      19.689  -3.899  18.949  1.00  0.00     0.178 C 
ATOM      4  C   UNL     1      20.686  -4.570  17.967  1.00  0.00     0.177 C 
ATOM      5  O   UNL     1      20.163  -2.623  19.356  1.00  0.00    -0.341 OA
ATOM      6  C   UNL     1      22.084  -4.681  18.604  1.00  0.00     0.179 C 
ATOM      7  C   UNL     1      22.509  -3.328  19.211  1.00  0.00     0.202 C 
BRANCH   3   8
ATOM      8  C   UNL     1      18.308  -3.722  18.301  1.00  0.00     0.191 C 
BRANCH   8   9
ATOM      9  O   UNL     1      18.427  -3.666  16.905  1.00  0.00    -0.394 OA
ATOM     10  H   UNL     1      17.678  -3.097  16.589  1.00  0.00     0.210 HD
ENDBRANCH   8   9
ENDBRANCH   3   8
BRANCH   4  11
ATOM     11  O   UNL     1      20.233  -5.833  17.539  1.00  0.00    -0.387 OA
ATOM     12  H   UNL     1      20.149  -6.415  18.337  1.00  0.00     0.211 HD
ENDBRANCH   4  11
BRANCH   6  13
ATOM     13  O   UNL     1      22.077  -5.672  19.603  1.00  0.00    -0.387 OA
ATOM     14  H   UNL     1      22.133  -6.548  19.140  1.00  0.00     0.211 HD
ENDBRANCH   6  13
BRANCH   7  15
ATOM     15  O   UNL     1      22.921  -2.435  18.203  1.00  0.00    -0.385 OA
ATOM     16  H   UNL     1      22.468  -2.690  17.358  1.00  0.00     0.211 HD
ENDBRANCH   7  15
ENDBRANCH   1   2
BRANCH   1  17
ATOM     17  C   UNL     1      20.909  -2.739  22.425  1.00  0.00     0.224 C 
ATOM     18  C   UNL     1      21.266  -3.582  23.666  1.00  0.00     0.208 C 
ATOM     19  O   UNL     1      19.519  -2.446  22.495  1.00  0.00    -0.337 OA
ATOM     20  C   UNL     1      19.951  -4.230  24.021  1.00  0.00     0.180 C 
ATOM     21  C   UNL     1      18.968  -3.151  23.588  1.00  0.00     0.179 C 
BRANCH  17  22
ATOM     22  C   UNL     1      21.717  -1.423  22.427  1.00  0.00     0.225 C 
BRANCH  22  23
ATOM     23  O   UNL     1      22.938  -1.608  23.088  1.00  0.00    -0.391 OA
ATOM     24  H   UNL     1      23.300  -0.700  23.260  1.00  0.00     0.210 HD
ENDBRANCH  22  23
ENDBRANCH  17  22
BRANCH  18  25
ATOM     25  O   UNL     1      22.299  -4.513  23.440  1.00  0.00    -0.385 OA
ATOM     26  H   UNL     1      21.897  -5.383  23.184  1.00  0.00     0.211 HD
ENDBRANCH  18  25
BRANCH  20  27
ATOM     27  O   UNL     1      19.852  -4.474  25.400  1.00  0.00    -0.387 OA
ATOM     28  H   UNL     1      20.683  -4.951  25.659  1.00  0.00     0.211 HD
ENDBRANCH  20  27
BRANCH  21  29
ATOM     29  C   UNL     1      17.594  -3.716  23.218  1.00  0.00     0.191 C 
BRANCH  29  30
ATOM     30  O   UNL     1      16.982  -4.289  24.341  1.00  0.00    -0.394 OA
ATOM     31  H   UNL     1      16.053  -3.937  24.357  1.00  0.00     0.210 HD
ENDBRANCH  29  30
ENDBRANCH  21  29
ENDBRANCH   1  17
TORSDOF 13
ENDMDL
MODEL 9
REMARK VINA RESULT:    -5.599      2.058      4.685
REMARK INTER + INTRA:          -9.699
REMARK INTER:                  -8.335
REMARK INTRA:                  -1.364
REMARK UNBOUND:                -1.154
REMARK SMILES OC[C@@H]1O[C@@H](O[C@@]2(CO)O[C@@H](CO)[C@H](O)[C@H]2O)[C@H](O)[C@@H](O)[C@H]1O
REMARK SMILES IDX 6 1 5 2 3 3 22 4 4 5 20 6 18 7 2 8 1 9 23 11 21 13 19 15
REMARK SMILES IDX 7 17 16 18 10 19 14 20 11 21 8 22 9 23 17 25 15 27 12 29
REMARK SMILES IDX 13 30
REMARK H PARENT 1 10 23 12 21 14 19 16 9 24 17 26 15 28 13 31
REMARK Flexibility Score: inf
ROOT
ATOM      1  O   UNL     1      17.577  -3.063  21.346  1.00  0.00    -0.313 OA
ENDROOT
BRANCH   1   2
ATOM      2  C   UNL     1      17.412  -4.397  20.873  1.00  0.00     0.285 C 
ATOM      3  C   UNL     1      19.147  -4.134  19.303  1.00  0.00     0.178 C 
ATOM      4  C   UNL     1      18.182  -4.191  18.090  1.00  0.00     0.177 C 
ATOM      5  O   UNL     1      18.645  -4.906  20.385  1.00  0.00    -0.341 OA
ATOM      6  C   UNL     1      16.772  -3.718  18.495  1.00  0.00     0.179 C 
ATOM      7  C   UNL     1      16.314  -4.432  19.784  1.00  0.00     0.202 C 
BRANCH   3   8
ATOM      8  C   UNL     1      20.538  -4.667  18.929  1.00  0.00     0.191 C 
BRANCH   8   9
ATOM      9  O   UNL     1      20.442  -5.585  17.874  1.00  0.00    -0.394 OA
ATOM     10  H   UNL     1      21.205  -6.209  17.984  1.00  0.00     0.210 HD
ENDBRANCH   8   9
ENDBRANCH   3   8
BRANCH   4  11
ATOM     11  O   UNL     1      18.663  -3.442  16.999  1.00  0.00    -0.387 OA
ATOM     12  H   UNL     1      18.142  -2.599  16.952  1.00  0.00     0.211 HD
ENDBRANCH   4  11
BRANCH   6  13
ATOM     13  O   UNL     1      16.775  -2.325  18.695  1.00  0.00    -0.387 OA
ATOM     14  H   UNL     1      16.756  -2.176  19.676  1.00  0.00     0.211 HD
ENDBRANCH   6  13
BRANCH   7  15
ATOM     15  O   UNL     1      15.908  -5.751  19.508  1.00  0.00    -0.385 OA
ATOM     16  H   UNL     1      15.518  -5.772  18.596  1.00  0.00     0.211 HD
ENDBRANCH   7  15
ENDBRANCH   1   2
BRANCH   1  17
ATOM     17  C   UNL     1      17.423  -2.916  22.755  1.00  0.00     0.224 C 
ATOM     18  C   UNL     1      18.065  -1.582  23.186  1.00  0.00     0.208 C 
ATOM     19  O   UNL     1      18.102  -3.958  23.446  1.00  0.00    -0.337 OA
ATOM     20  C   UNL     1      19.454  -1.996  23.603  1.00  0.00     0.180 C 
ATOM     21  C   UNL     1      19.190  -3.393  24.149  1.00  0.00     0.179 C 
BRANCH  17  22
ATOM     22  C   UNL     1      15.927  -2.932  23.132  1.00  0.00     0.225 C 
BRANCH  22  23
ATOM     23  O   UNL     1      15.215  -2.039  22.320  1.00  0.00    -0.391 OA
ATOM     24  H   UNL     1      15.172  -2.458  21.421  1.00  0.00     0.210 HD
ENDBRANCH  22  23
ENDBRANCH  17  22
BRANCH  18  25
ATOM     25  O   UNL     1      18.060  -0.599  22.176  1.00  0.00    -0.385 OA
ATOM     26  H   UNL     1      17.417  -0.868  21.470  1.00  0.00     0.211 HD
ENDBRANCH  18  25
BRANCH  20  27
ATOM     27  O   UNL     1      19.964  -1.155  24.605  1.00  0.00    -0.387 OA
ATOM     28  H   UNL     1      20.941  -1.087  24.441  1.00  0.00     0.211 HD
ENDBRANCH  20  27
BRANCH  21  29
ATOM     29  C   UNL     1      20.415  -4.306  24.057  1.00  0.00     0.191 C 
BRANCH  29  30
ATOM     30  O   UNL     1      21.519  -3.708  24.677  1.00  0.00    -0.394 OA
ATOM     31  H   UNL     1      22.188  -4.431  24.804  1.00  0.00     0.210 HD
ENDBRANCH  29  30
ENDBRANCH  21  29
ENDBRANCH   1  17
TORSDOF 13
ENDMDL
