MODEL 1
REMARK VINA RESULT:    -3.335      0.000      0.000
REMARK INTER + INTRA:          -4.032
REMARK INTER:                  -3.920
REMARK INTRA:                  -0.112
REMARK UNBOUND:                -0.112
REMARK SMILES O=C([O-])CCC(=O)[O-]
REMARK SMILES IDX 4 1 2 2 1 3 3 4 5 5 6 6 7 7 8 8
REMARK H PARENT
REMARK Flexibility Score: inf
ROOT
ATOM      1  C   UNL     1      58.074  12.343  89.590  1.00  0.00     0.059 C 
ENDROOT
BRANCH   1   2
ATOM      2  C   UNL     1      56.789  12.160  88.847  1.00  0.00     0.042 C 
ATOM      3  O   UNL     1      55.752  12.773  89.213  1.00  0.00    -0.550 OA
ATOM      4  O   UNL     1      56.723  11.274  87.779  1.00  0.00    -0.550 OA
ENDBRANCH   1   2
BRANCH   1   5
ATOM      5  C   UNL     1      59.107  11.311  89.136  1.00  0.00     0.059 C 
BRANCH   5   6
ATOM      6  C   UNL     1      59.249  10.228  90.159  1.00  0.00     0.042 C 
ATOM      7  O   UNL     1      60.336  10.079  90.777  1.00  0.00    -0.550 OA
ATOM      8  O   UNL     1      58.198   9.350  90.392  1.00  0.00    -0.550 OA
ENDBRANCH   5   6
ENDBRANCH   1   5
TORSDOF 3
ENDMDL
MODEL 2
REMARK VINA RESULT:    -3.318      1.082      1.369
REMARK INTER + INTRA:          -4.011
REMARK INTER:                  -3.914
REMARK INTRA:                  -0.098
REMARK UNBOUND:                -0.112
REMARK SMILES O=C([O-])CCC(=O)[O-]
REMARK SMILES IDX 4 1 2 2 1 3 3 4 5 5 6 6 7 7 8 8
REMARK H PARENT
REMARK Flexibility Score: inf
ROOT
ATOM      1  C   UNL     1      57.534  11.454  88.667  1.00  0.00     0.059 C 
ENDROOT
BRANCH   1   2
ATOM      2  C   UNL     1      57.041  12.705  89.320  1.00  0.00     0.042 C 
ATOM      3  O   UNL     1      57.835  13.655  89.552  1.00  0.00    -0.550 OA
ATOM      4  O   UNL     1      55.714  12.807  89.719  1.00  0.00    -0.550 OA
ENDBRANCH   1   2
BRANCH   1   5
ATOM      5  C   UNL     1      59.002  11.209  89.017  1.00  0.00     0.059 C 
BRANCH   5   6
ATOM      6  C   UNL     1      59.115  10.244  90.155  1.00  0.00     0.042 C 
ATOM      7  O   UNL     1      60.195  10.141  90.794  1.00  0.00    -0.550 OA
ATOM      8  O   UNL     1      58.043   9.420  90.477  1.00  0.00    -0.550 OA
ENDBRANCH   5   6
ENDBRANCH   1   5
TORSDOF 3
ENDMDL
MODEL 3
REMARK VINA RESULT:    -3.315     11.546     12.479
REMARK INTER + INTRA:          -4.008
REMARK INTER:                  -3.881
REMARK INTRA:                  -0.127
REMARK UNBOUND:                -0.112
REMARK SMILES O=C([O-])CCC(=O)[O-]
REMARK SMILES IDX 4 1 2 2 1 3 3 4 5 5 6 6 7 7 8 8
REMARK H PARENT
REMARK Flexibility Score: inf
ROOT
ATOM      1  C   UNL     1      46.666  13.462  95.884  1.00  0.00     0.059 C 
ENDROOT
BRANCH   1   2
ATOM      2  C   UNL     1      46.518  12.561  94.700  1.00  0.00     0.042 C 
ATOM      3  O   UNL     1      46.685  11.319  94.824  1.00  0.00    -0.550 OA
ATOM      4  O   UNL     1      46.244  13.096  93.448  1.00  0.00    -0.550 OA
ENDBRANCH   1   2
BRANCH   1   5
ATOM      5  C   UNL     1      47.033  14.878  95.437  1.00  0.00     0.059 C 
BRANCH   5   6
ATOM      6  C   UNL     1      48.519  15.030  95.343  1.00  0.00     0.042 C 
ATOM      7  O   UNL     1      49.232  14.931  96.376  1.00  0.00    -0.550 OA
ATOM      8  O   UNL     1      49.111  15.331  94.123  1.00  0.00    -0.550 OA
ENDBRANCH   5   6
ENDBRANCH   1   5
TORSDOF 3
ENDMDL
MODEL 4
REMARK VINA RESULT:    -3.311      1.086      3.791
REMARK INTER + INTRA:          -4.003
REMARK INTER:                  -3.898
REMARK INTRA:                  -0.105
REMARK UNBOUND:                -0.112
REMARK SMILES O=C([O-])CCC(=O)[O-]
REMARK SMILES IDX 4 1 2 2 1 3 3 4 5 5 6 6 7 7 8 8
REMARK H PARENT
REMARK Flexibility Score: inf
ROOT
ATOM      1  C   UNL     1      58.811  11.371  89.153  1.00  0.00     0.059 C 
ENDROOT
BRANCH   1   2
ATOM      2  C   UNL     1      59.048  10.232  90.092  1.00  0.00     0.042 C 
ATOM      3  O   UNL     1      58.129   9.404  90.330  1.00  0.00    -0.550 OA
ATOM      4  O   UNL     1      60.269  10.110  90.744  1.00  0.00    -0.550 OA
ENDBRANCH   1   2
BRANCH   1   5
ATOM      5  C   UNL     1      57.353  11.388  88.689  1.00  0.00     0.059 C 
BRANCH   5   6
ATOM      6  C   UNL     1      56.596  12.479  89.379  1.00  0.00     0.042 C 
ATOM      7  O   UNL     1      56.421  12.438  90.625  1.00  0.00    -0.550 OA
ATOM      8  O   UNL     1      56.041  13.514  88.638  1.00  0.00    -0.550 OA
ENDBRANCH   5   6
ENDBRANCH   1   5
TORSDOF 3
ENDMDL
MODEL 5
REMARK VINA RESULT:    -3.287      1.049      1.677
REMARK INTER + INTRA:          -3.975
REMARK INTER:                  -3.887
REMARK INTRA:                  -0.089
REMARK UNBOUND:                -0.112
REMARK SMILES O=C([O-])CCC(=O)[O-]
REMARK SMILES IDX 4 1 2 2 1 3 3 4 5 5 6 6 7 7 8 8
REMARK H PARENT
REMARK Flexibility Score: inf
ROOT
ATOM      1  C   UNL     1      57.490  11.422  88.749  1.00  0.00     0.059 C 
ENDROOT
BRANCH   1   2
ATOM      2  C   UNL     1      56.871  12.633  89.369  1.00  0.00     0.042 C 
ATOM      3  O   UNL     1      57.104  12.918  90.574  1.00  0.00    -0.550 OA
ATOM      4  O   UNL     1      55.995  13.422  88.634  1.00  0.00    -0.550 OA
ENDBRANCH   1   2
BRANCH   1   5
ATOM      5  C   UNL     1      58.964  11.312  89.144  1.00  0.00     0.059 C 
BRANCH   5   6
ATOM      6  C   UNL     1      59.162  10.195  90.119  1.00  0.00     0.042 C 
ATOM      7  O   UNL     1      58.227   9.386  90.355  1.00  0.00    -0.550 OA
ATOM      8  O   UNL     1      60.364  10.078  90.806  1.00  0.00    -0.550 OA
ENDBRANCH   5   6
ENDBRANCH   1   5
TORSDOF 3
ENDMDL
MODEL 6
REMARK VINA RESULT:    -3.280      1.402      4.032
REMARK INTER + INTRA:          -3.967
REMARK INTER:                  -3.858
REMARK INTRA:                  -0.109
REMARK UNBOUND:                -0.112
REMARK SMILES O=C([O-])CCC(=O)[O-]
REMARK SMILES IDX 4 1 2 2 1 3 3 4 5 5 6 6 7 7 8 8
REMARK H PARENT
REMARK Flexibility Score: inf
ROOT
ATOM      1  C   UNL     1      58.968  10.289  90.171  1.00  0.00     0.059 C 
ENDROOT
BRANCH   1   2
ATOM      2  C   UNL     1      60.009  10.893  91.058  1.00  0.00     0.042 C 
ATOM      3  O   UNL     1      61.195  10.468  91.025  1.00  0.00    -0.550 OA
ATOM      4  O   UNL     1      59.663  11.892  91.959  1.00  0.00    -0.550 OA
ENDBRANCH   1   2
BRANCH   1   5
ATOM      5  C   UNL     1      58.756  11.154  88.928  1.00  0.00     0.059 C 
BRANCH   5   6
ATOM      6  C   UNL     1      57.341  11.638  88.862  1.00  0.00     0.042 C 
ATOM      7  O   UNL     1      56.614  11.338  87.879  1.00  0.00    -0.550 OA
ATOM      8  O   UNL     1      56.842  12.464  89.862  1.00  0.00    -0.550 OA
ENDBRANCH   5   6
ENDBRANCH   1   5
TORSDOF 3
ENDMDL
MODEL 7
REMARK VINA RESULT:    -3.264     11.634     12.636
REMARK INTER + INTRA:          -3.949
REMARK INTER:                  -3.862
REMARK INTRA:                  -0.087
REMARK UNBOUND:                -0.112
REMARK SMILES O=C([O-])CCC(=O)[O-]
REMARK SMILES IDX 4 1 2 2 1 3 3 4 5 5 6 6 7 7 8 8
REMARK H PARENT
REMARK Flexibility Score: inf
ROOT
ATOM      1  C   UNL     1      47.025  14.842  95.309  1.00  0.00     0.059 C 
ENDROOT
BRANCH   1   2
ATOM      2  C   UNL     1      48.497  15.104  95.298  1.00  0.00     0.042 C 
ATOM      3  O   UNL     1      49.190  14.873  96.324  1.00  0.00    -0.550 OA
ATOM      4  O   UNL     1      49.099  15.652  94.172  1.00  0.00    -0.550 OA
ENDBRANCH   1   2
BRANCH   1   5
ATOM      5  C   UNL     1      46.730  13.469  95.913  1.00  0.00     0.059 C 
BRANCH   5   6
ATOM      6  C   UNL     1      46.389  12.486  94.837  1.00  0.00     0.042 C 
ATOM      7  O   UNL     1      46.301  12.863  93.640  1.00  0.00    -0.550 OA
ATOM      8  O   UNL     1      46.119  11.163  95.165  1.00  0.00    -0.550 OA
ENDBRANCH   5   6
ENDBRANCH   1   5
TORSDOF 3
ENDMDL
MODEL 8
REMARK VINA RESULT:    -3.248      1.285      3.648
REMARK INTER + INTRA:          -3.929
REMARK INTER:                  -3.793
REMARK INTRA:                  -0.136
REMARK UNBOUND:                -0.112
REMARK SMILES O=C([O-])CCC(=O)[O-]
REMARK SMILES IDX 4 1 2 2 1 3 3 4 5 5 6 6 7 7 8 8
REMARK H PARENT
REMARK Flexibility Score: inf
ROOT
ATOM      1  C   UNL     1      59.271  11.232  89.119  1.00  0.00     0.059 C 
ENDROOT
BRANCH   1   2
ATOM      2  C   UNL     1      59.336  10.233  90.230  1.00  0.00     0.042 C 
ATOM      3  O   UNL     1      60.345  10.186  90.983  1.00  0.00    -0.550 OA
ATOM      4  O   UNL     1      58.305   9.318  90.406  1.00  0.00    -0.550 OA
ENDBRANCH   1   2
BRANCH   1   5
ATOM      5  C   UNL     1      57.817  11.504  88.729  1.00  0.00     0.059 C 
BRANCH   5   6
ATOM      6  C   UNL     1      57.249  12.611  89.561  1.00  0.00     0.042 C 
ATOM      7  O   UNL     1      57.631  13.797  89.382  1.00  0.00    -0.550 OA
ATOM      8  O   UNL     1      56.337  12.325  90.568  1.00  0.00    -0.550 OA
ENDBRANCH   5   6
ENDBRANCH   1   5
TORSDOF 3
ENDMDL
MODEL 9
REMARK VINA RESULT:    -3.209      7.720      8.685
REMARK INTER + INTRA:          -3.884
REMARK INTER:                  -3.799
REMARK INTRA:                  -0.085
REMARK UNBOUND:                -0.112
REMARK SMILES O=C([O-])CCC(=O)[O-]
REMARK SMILES IDX 4 1 2 2 1 3 3 4 5 5 6 6 7 7 8 8
REMARK H PARENT
REMARK Flexibility Score: inf
ROOT
ATOM      1  C   UNL     1      54.559   7.146  95.597  1.00  0.00     0.059 C 
ENDROOT
BRANCH   1   2
ATOM      2  C   UNL     1      54.773   8.425  96.342  1.00  0.00     0.042 C 
ATOM      3  O   UNL     1      53.903   8.840  97.153  1.00  0.00    -0.550 OA
ATOM      4  O   UNL     1      55.909   9.188  96.103  1.00  0.00    -0.550 OA
ENDBRANCH   1   2
BRANCH   1   5
ATOM      5  C   UNL     1      53.067   6.821  95.509  1.00  0.00     0.059 C 
BRANCH   5   6
ATOM      6  C   UNL     1      52.603   6.872  94.088  1.00  0.00     0.042 C 
ATOM      7  O   UNL     1      53.237   7.551  93.238  1.00  0.00    -0.550 OA
ATOM      8  O   UNL     1      51.440   6.210  93.712  1.00  0.00    -0.550 OA
ENDBRANCH   5   6
ENDBRANCH   1   5
TORSDOF 3
ENDMDL
