MODEL 1
REMARK VINA RESULT:    -4.193      0.000      0.000
REMARK INTER + INTRA:          -4.423
REMARK INTER:                  -5.174
REMARK INTRA:                   0.751
REMARK UNBOUND:                 0.751
REMARK SMILES CC1=CC=CC(C)(C)CC1=O
REMARK SMILES IDX 1 1 2 2 3 3 10 4 11 5 9 6 4 8 5 9 6 10 7 11 8 12
REMARK H PARENT
REMARK Flexibility Score: 80.00
ROOT
ATOM      1  C   UNL     1     -14.021  13.886   0.646  1.00  0.00     0.048 C 
ATOM      2  C   UNL     1     -14.001  12.951   1.832  1.00  0.00    -0.008 C 
ATOM      3  C   UNL     1     -13.515  11.706   1.640  1.00  0.00     0.007 C 
ENDROOT
BRANCH   2   4
ATOM      4  C   UNL     1     -14.449  13.504   3.134  1.00  0.00     0.159 C 
ATOM      5  O   UNL     1     -14.631  14.748   3.237  1.00  0.00    -0.295 OA
BRANCH   4   6
ATOM      6  C   UNL     1     -14.714  12.659   4.342  1.00  0.00     0.091 CG0
ATOM      7  G   UNL     1     -13.480  11.851   4.804  1.00  0.00     0.000 G0
ENDBRANCH   4   6
ENDBRANCH   2   4
BRANCH   3   8
ATOM      8  C   UNL     1     -13.344  10.592   2.602  1.00  0.00    -0.003 C 
ATOM      9  C   UNL     1     -13.317  10.629   3.940  1.00  0.00    -0.020 C 
BRANCH   9  10
ATOM     10  C   UNL     1     -13.485  11.854   4.808  1.00  0.00    -0.010 CG0
ATOM     11  C   UNL     1     -13.752  11.389   6.257  1.00  0.00     0.016 C 
ATOM     12  C   UNL     1     -12.181  12.685   4.806  1.00  0.00     0.016 C 
ATOM     13  G   UNL     1     -14.710  12.666   4.330  1.00  0.00     0.000 G0
ENDBRANCH   9  10
ENDBRANCH   3   8
TORSDOF 0
ENDMDL
MODEL 2
REMARK VINA RESULT:    -4.135      2.902      4.578
REMARK INTER + INTRA:          -4.351
REMARK INTER:                  -5.125
REMARK INTRA:                   0.774
REMARK UNBOUND:                 0.751
REMARK SMILES CC1=CC=CC(C)(C)CC1=O
REMARK SMILES IDX 1 1 2 2 3 3 10 4 11 5 9 6 4 8 5 9 6 10 7 11 8 12
REMARK H PARENT
REMARK Flexibility Score: 80.00
ROOT
ATOM      1  C   UNL     1     -13.570  10.946   1.486  1.00  0.00     0.048 C 
ATOM      2  C   UNL     1     -14.015  12.384   1.605  1.00  0.00    -0.008 C 
ATOM      3  C   UNL     1     -13.837  12.998   2.794  1.00  0.00     0.007 C 
ENDROOT
BRANCH   2   4
ATOM      4  C   UNL     1     -14.546  13.030   0.380  1.00  0.00     0.159 C 
ATOM      5  O   UNL     1     -14.421  12.435  -0.726  1.00  0.00    -0.295 OA
BRANCH   4   6
ATOM      6  C   UNL     1     -15.242  14.357   0.380  1.00  0.00     0.091 CG0
ATOM      7  G   UNL     1     -14.365  15.505   0.929  1.00  0.00     0.000 G0
ENDBRANCH   4   6
ENDBRANCH   2   4
BRANCH   3   8
ATOM      8  C   UNL     1     -14.143  14.389   3.203  1.00  0.00    -0.003 C 
ATOM      9  C   UNL     1     -14.363  15.465   2.437  1.00  0.00    -0.020 C 
BRANCH   9  10
ATOM     10  C   UNL     1     -14.374  15.505   0.927  1.00  0.00    -0.010 CG0
ATOM     11  C   UNL     1     -14.999  16.846   0.481  1.00  0.00     0.016 C 
ATOM     12  C   UNL     1     -12.927  15.449   0.386  1.00  0.00     0.016 C 
ATOM     13  G   UNL     1     -15.258  14.358   0.383  1.00  0.00     0.000 G0
ENDBRANCH   9  10
ENDBRANCH   3   8
TORSDOF 0
ENDMDL
MODEL 3
REMARK VINA RESULT:    -4.030      1.775      2.765
REMARK INTER + INTRA:          -4.221
REMARK INTER:                  -4.963
REMARK INTRA:                   0.742
REMARK UNBOUND:                 0.751
REMARK SMILES CC1=CC=CC(C)(C)CC1=O
REMARK SMILES IDX 1 1 2 2 3 3 10 4 11 5 9 6 4 8 5 9 6 10 7 11 8 12
REMARK H PARENT
REMARK Flexibility Score: 80.00
ROOT
ATOM      1  C   UNL     1     -14.762  12.520  -0.369  1.00  0.00     0.048 C 
ATOM      2  C   UNL     1     -14.308  13.010   0.986  1.00  0.00    -0.008 C 
ATOM      3  C   UNL     1     -14.722  14.232   1.381  1.00  0.00     0.007 C 
ENDROOT
BRANCH   2   4
ATOM      4  C   UNL     1     -13.502  12.072   1.807  1.00  0.00     0.159 C 
ATOM      5  O   UNL     1     -13.404  10.870   1.438  1.00  0.00    -0.295 OA
BRANCH   4   6
ATOM      6  C   UNL     1     -12.779  12.479   3.054  1.00  0.00     0.091 CG0
ATOM      7  G   UNL     1     -13.718  13.031   4.150  1.00  0.00     0.000 G0
ENDBRANCH   4   6
ENDBRANCH   2   4
BRANCH   3   8
ATOM      8  C   UNL     1     -14.469  14.960   2.646  1.00  0.00    -0.003 C 
ATOM      9  C   UNL     1     -14.050  14.484   3.825  1.00  0.00    -0.020 C 
BRANCH   9  10
ATOM     10  C   UNL     1     -13.702  13.048   4.140  1.00  0.00    -0.010 CG0
ATOM     11  C   UNL     1     -12.915  13.020   5.470  1.00  0.00     0.016 C 
ATOM     12  C   UNL     1     -14.995  12.222   4.334  1.00  0.00     0.016 C 
ATOM     13  G   UNL     1     -12.791  12.477   3.030  1.00  0.00     0.000 G0
ENDBRANCH   9  10
ENDBRANCH   3   8
TORSDOF 0
ENDMDL
MODEL 4
REMARK VINA RESULT:    -4.029      2.150      3.912
REMARK INTER + INTRA:          -4.220
REMARK INTER:                  -5.264
REMARK INTRA:                   1.044
REMARK UNBOUND:                 0.751
REMARK SMILES CC1=CC=CC(C)(C)CC1=O
REMARK SMILES IDX 1 1 2 2 3 3 10 4 11 5 9 6 4 8 5 9 6 10 7 11 8 12
REMARK H PARENT
REMARK Flexibility Score: 80.00
ROOT
ATOM      1  C   UNL     1     -12.738  10.320   2.261  1.00  0.00     0.048 C 
ATOM      2  C   UNL     1     -13.495  11.513   1.728  1.00  0.00    -0.008 C 
ATOM      3  C   UNL     1     -14.062  11.401   0.508  1.00  0.00     0.007 C 
ENDROOT
BRANCH   2   4
ATOM      4  C   UNL     1     -13.618  12.689   2.625  1.00  0.00     0.159 C 
ATOM      5  O   UNL     1     -12.843  12.783   3.616  1.00  0.00    -0.295 OA
BRANCH   4   6
ATOM      6  C   UNL     1     -14.610  13.791   2.411  1.00  0.00     0.091 CG0
ATOM      7  G   UNL     1     -14.433  14.516   1.058  1.00  0.00     0.000 G0
ENDBRANCH   4   6
ENDBRANCH   2   4
BRANCH   3   8
ATOM      8  C   UNL     1     -14.877  12.375  -0.255  1.00  0.00    -0.003 C 
ATOM      9  C   UNL     1     -15.058  13.683  -0.032  1.00  0.00    -0.020 C 
BRANCH   9  10
ATOM     10  C   UNL     1     -14.432  14.500   1.073  1.00  0.00    -0.010 CG0
ATOM     11  C   UNL     1     -12.918  14.625   0.787  1.00  0.00     0.016 C 
ATOM     12  C   UNL     1     -15.034  15.925   1.082  1.00  0.00     0.016 C 
ATOM     13  G   UNL     1     -14.607  13.770   2.424  1.00  0.00     0.000 G0
ENDBRANCH   9  10
ENDBRANCH   3   8
TORSDOF 0
ENDMDL
MODEL 5
REMARK VINA RESULT:    -3.930      2.911      4.520
REMARK INTER + INTRA:          -4.098
REMARK INTER:                  -4.847
REMARK INTRA:                   0.749
REMARK UNBOUND:                 0.751
REMARK SMILES CC1=CC=CC(C)(C)CC1=O
REMARK SMILES IDX 1 1 2 2 3 3 10 4 11 5 9 6 4 8 5 9 6 10 7 11 8 12
REMARK H PARENT
REMARK Flexibility Score: 80.00
ROOT
ATOM      1  C   UNL     1     -15.877  18.294   0.750  1.00  0.00     0.048 C 
ATOM      2  C   UNL     1     -15.184  16.959   0.611  1.00  0.00    -0.008 C 
ATOM      3  C   UNL     1     -13.854  16.965   0.384  1.00  0.00     0.007 C 
ENDROOT
BRANCH   2   4
ATOM      4  C   UNL     1     -16.013  15.744   0.811  1.00  0.00     0.159 C 
ATOM      5  O   UNL     1     -17.184  15.874   1.262  1.00  0.00    -0.295 OA
BRANCH   4   6
ATOM      6  C   UNL     1     -15.540  14.360   0.492  1.00  0.00     0.091 CG0
ATOM      7  G   UNL     1     -14.268  13.955   1.272  1.00  0.00     0.000 G0
ENDBRANCH   4   6
ENDBRANCH   2   4
BRANCH   3   8
ATOM      8  C   UNL     1     -12.909  15.834   0.232  1.00  0.00    -0.003 C 
ATOM      9  C   UNL     1     -13.054  14.557   0.606  1.00  0.00    -0.020 C 
BRANCH   9  10
ATOM     10  C   UNL     1     -14.267  13.948   1.270  1.00  0.00    -0.010 CG0
ATOM     11  C   UNL     1     -14.144  12.410   1.189  1.00  0.00     0.016 C 
ATOM     12  C   UNL     1     -14.307  14.345   2.764  1.00  0.00     0.016 C 
ATOM     13  G   UNL     1     -15.544  14.370   0.507  1.00  0.00     0.000 G0
ENDBRANCH   9  10
ENDBRANCH   3   8
TORSDOF 0
ENDMDL
MODEL 6
REMARK VINA RESULT:    -3.683      1.177      1.537
REMARK INTER + INTRA:          -3.793
REMARK INTER:                  -4.797
REMARK INTRA:                   1.005
REMARK UNBOUND:                 0.751
REMARK SMILES CC1=CC=CC(C)(C)CC1=O
REMARK SMILES IDX 1 1 2 2 3 3 10 4 11 5 9 6 4 8 5 9 6 10 7 11 8 12
REMARK H PARENT
REMARK Flexibility Score: 80.00
ROOT
ATOM      1  C   UNL     1     -14.113  12.689   1.186  1.00  0.00     0.048 C 
ATOM      2  C   UNL     1     -13.542  12.106   2.458  1.00  0.00    -0.008 C 
ATOM      3  C   UNL     1     -13.244  10.789   2.463  1.00  0.00     0.007 C 
ENDROOT
BRANCH   2   4
ATOM      4  C   UNL     1     -13.286  13.046   3.576  1.00  0.00     0.159 C 
ATOM      5  O   UNL     1     -13.798  14.198   3.532  1.00  0.00    -0.295 OA
BRANCH   4   6
ATOM      6  C   UNL     1     -12.458  12.698   4.775  1.00  0.00     0.091 CG0
ATOM      7  G   UNL     1     -12.981  11.461   5.539  1.00  0.00     0.000 G0
ENDBRANCH   4   6
ENDBRANCH   2   4
BRANCH   3   8
ATOM      8  C   UNL     1     -12.656   9.951   3.534  1.00  0.00    -0.003 C 
ATOM      9  C   UNL     1     -12.519  10.221   4.838  1.00  0.00    -0.020 C 
BRANCH   9  10
ATOM     10  C   UNL     1     -12.971  11.476   5.547  1.00  0.00    -0.010 CG0
ATOM     11  C   UNL     1     -14.516  11.495   5.563  1.00  0.00     0.016 C 
ATOM     12  C   UNL     1     -12.479  11.460   7.013  1.00  0.00     0.016 C 
ATOM     13  G   UNL     1     -12.483  12.719   4.768  1.00  0.00     0.000 G0
ENDBRANCH   9  10
ENDBRANCH   3   8
TORSDOF 0
ENDMDL
MODEL 7
REMARK VINA RESULT:    -3.677      1.729      3.842
REMARK INTER + INTRA:          -3.785
REMARK INTER:                  -4.552
REMARK INTRA:                   0.767
REMARK UNBOUND:                 0.751
REMARK SMILES CC1=CC=CC(C)(C)CC1=O
REMARK SMILES IDX 1 1 2 2 3 3 10 4 11 5 9 6 4 8 5 9 6 10 7 11 8 12
REMARK H PARENT
REMARK Flexibility Score: 80.00
ROOT
ATOM      1  C   UNL     1     -12.754  10.676   8.071  1.00  0.00     0.048 C 
ATOM      2  C   UNL     1     -12.673  10.965   6.590  1.00  0.00    -0.008 C 
ATOM      3  C   UNL     1     -12.575   9.911   5.752  1.00  0.00     0.007 C 
ENDROOT
BRANCH   2   4
ATOM      4  C   UNL     1     -12.784  12.384   6.172  1.00  0.00     0.159 C 
ATOM      5  O   UNL     1     -13.156  13.241   7.019  1.00  0.00    -0.295 OA
BRANCH   4   6
ATOM      6  C   UNL     1     -12.462  12.866   4.791  1.00  0.00     0.091 CG0
ATOM      7  G   UNL     1     -13.350  12.225   3.699  1.00  0.00     0.000 G0
ENDBRANCH   4   6
ENDBRANCH   2   4
BRANCH   3   8
ATOM      8  C   UNL     1     -12.507   9.875   4.272  1.00  0.00    -0.003 C 
ATOM      9  C   UNL     1     -12.836  10.826   3.389  1.00  0.00    -0.020 C 
BRANCH   9  10
ATOM     10  C   UNL     1     -13.345  12.211   3.709  1.00  0.00    -0.010 CG0
ATOM     11  C   UNL     1     -13.247  13.073   2.430  1.00  0.00     0.016 C 
ATOM     12  C   UNL     1     -14.833  12.144   4.125  1.00  0.00     0.016 C 
ATOM     13  G   UNL     1     -12.452  12.856   4.793  1.00  0.00     0.000 G0
ENDBRANCH   9  10
ENDBRANCH   3   8
TORSDOF 0
ENDMDL
MODEL 8
REMARK VINA RESULT:    -3.283      2.083      4.194
REMARK INTER + INTRA:          -3.300
REMARK INTER:                  -4.066
REMARK INTRA:                   0.766
REMARK UNBOUND:                 0.751
REMARK SMILES CC1=CC=CC(C)(C)CC1=O
REMARK SMILES IDX 1 1 2 2 3 3 10 4 11 5 9 6 4 8 5 9 6 10 7 11 8 12
REMARK H PARENT
REMARK Flexibility Score: 80.00
ROOT
ATOM      1  C   UNL     1     -12.500  11.717   4.858  1.00  0.00     0.048 C 
ATOM      2  C   UNL     1     -13.342  12.408   3.811  1.00  0.00    -0.008 C 
ATOM      3  C   UNL     1     -13.903  13.591   4.140  1.00  0.00     0.007 C 
ENDROOT
BRANCH   2   4
ATOM      4  C   UNL     1     -13.424  11.763   2.477  1.00  0.00     0.159 C 
ATOM      5  O   UNL     1     -12.682  10.772   2.234  1.00  0.00    -0.295 OA
BRANCH   4   6
ATOM      6  C   UNL     1     -14.356  12.217   1.396  1.00  0.00     0.091 CG0
ATOM      7  G   UNL     1     -14.159  13.699   1.004  1.00  0.00     0.000 G0
ENDBRANCH   4   6
ENDBRANCH   2   4
BRANCH   3   8
ATOM      8  C   UNL     1     -14.745  14.503   3.330  1.00  0.00    -0.003 C 
ATOM      9  C   UNL     1     -14.872  14.575   2.000  1.00  0.00    -0.020 C 
BRANCH   9  10
ATOM     10  C   UNL     1     -14.184  13.696   0.983  1.00  0.00    -0.010 CG0
ATOM     11  C   UNL     1     -14.876  13.901  -0.384  1.00  0.00     0.016 C 
ATOM     12  C   UNL     1     -12.703  14.118   0.836  1.00  0.00     0.016 C 
ATOM     13  G   UNL     1     -14.343  12.212   1.385  1.00  0.00     0.000 G0
ENDBRANCH   9  10
ENDBRANCH   3   8
TORSDOF 0
ENDMDL
MODEL 9
REMARK VINA RESULT:    -3.008      1.936      3.047
REMARK INTER + INTRA:          -2.960
REMARK INTER:                  -3.726
REMARK INTRA:                   0.765
REMARK UNBOUND:                 0.751
REMARK SMILES CC1=CC=CC(C)(C)CC1=O
REMARK SMILES IDX 1 1 2 2 3 3 10 4 11 5 9 6 4 8 5 9 6 10 7 11 8 12
REMARK H PARENT
REMARK Flexibility Score: 80.00
ROOT
ATOM      1  C   UNL     1     -15.683  15.632   1.029  1.00  0.00     0.048 C 
ATOM      2  C   UNL     1     -14.774  14.668   1.755  1.00  0.00    -0.008 C 
ATOM      3  C   UNL     1     -14.752  14.724   3.104  1.00  0.00     0.007 C 
ENDROOT
BRANCH   2   4
ATOM      4  C   UNL     1     -14.034  13.685   0.927  1.00  0.00     0.159 C 
ATOM      5  O   UNL     1     -14.326  13.576  -0.296  1.00  0.00    -0.295 OA
BRANCH   4   6
ATOM      6  C   UNL     1     -12.938  12.814   1.460  1.00  0.00     0.091 CG0
ATOM      7  G   UNL     1     -13.395  11.900   2.620  1.00  0.00     0.000 G0
ENDBRANCH   4   6
ENDBRANCH   2   4
BRANCH   3   8
ATOM      8  C   UNL     1     -13.995  13.903   4.078  1.00  0.00    -0.003 C 
ATOM      9  C   UNL     1     -13.418  12.708   3.906  1.00  0.00    -0.020 C 
BRANCH   9  10
ATOM     10  C   UNL     1     -13.382  11.903   2.628  1.00  0.00    -0.010 CG0
ATOM     11  C   UNL     1     -12.331  10.782   2.789  1.00  0.00     0.016 C 
ATOM     12  C   UNL     1     -14.756  11.237   2.384  1.00  0.00     0.016 C 
ATOM     13  G   UNL     1     -12.943  12.810   1.455  1.00  0.00     0.000 G0
ENDBRANCH   9  10
ENDBRANCH   3   8
TORSDOF 0
ENDMDL
