MODEL 1
REMARK VINA RESULT:    -6.064      0.000      0.000
REMARK INTER + INTRA:          -7.034
REMARK INTER:                  -7.128
REMARK INTRA:                   0.094
REMARK UNBOUND:                 0.094
REMARK SMILES O=c1c(O)c(-c2ccc(O)c(O)c2)oc2cc(O)ccc12
REMARK SMILES IDX 5 1 3 2 2 3 1 4 21 5 15 6 14 7 16 8 17 9 19 10 20 11 6 12
REMARK SMILES IDX 7 13 8 14 9 15 13 16 11 17 10 18 12 20 4 22 18 24
REMARK H PARENT 10 19 12 21 4 23 18 25
REMARK Flexibility Score: inf
ROOT
ATOM      1  C   UNL     1     -11.852 -16.144  32.447  1.00  0.00     0.180 A 
ATOM      2  C   UNL     1     -11.021 -17.280  32.367  1.00  0.00     0.208 A 
ATOM      3  C   UNL     1     -10.966 -17.994  31.160  1.00  0.00     0.235 A 
ATOM      4  O   UNL     1     -10.237 -19.020  31.067  1.00  0.00    -0.285 OA
ATOM      5  C   UNL     1     -11.719 -17.550  30.061  1.00  0.00     0.069 A 
ATOM      6  C   UNL     1     -12.507 -16.390  30.215  1.00  0.00     0.142 A 
ATOM      7  O   UNL     1     -12.539 -15.748  31.377  1.00  0.00    -0.452 OA
ATOM      8  C   UNL     1     -13.264 -15.910  29.140  1.00  0.00     0.094 A 
ATOM      9  C   UNL     1     -13.245 -16.578  27.911  1.00  0.00     0.119 A 
ATOM     10  C   UNL     1     -12.464 -17.731  27.755  1.00  0.00     0.047 A 
ATOM     11  C   UNL     1     -11.703 -18.218  28.822  1.00  0.00     0.020 A 
ENDROOT
BRANCH   1  12
ATOM     12  C   UNL     1     -11.979 -15.349  33.690  1.00  0.00     0.025 A 
ATOM     13  C   UNL     1     -13.254 -14.982  34.150  1.00  0.00     0.016 A 
ATOM     14  C   UNL     1     -13.398 -14.251  35.331  1.00  0.00     0.051 A 
ATOM     15  C   UNL     1     -12.270 -13.887  36.078  1.00  0.00     0.157 A 
ATOM     16  C   UNL     1     -10.850 -15.000  34.455  1.00  0.00     0.062 A 
ATOM     17  C   UNL     1     -10.994 -14.267  35.642  1.00  0.00     0.158 A 
BRANCH  15  18
ATOM     18  O   UNL     1     -12.410 -13.156  37.256  1.00  0.00    -0.504 OA
ATOM     19  H   UNL     1     -11.847 -13.353  38.074  1.00  0.00     0.293 HD
ENDBRANCH  15  18
BRANCH  17  20
ATOM     20  O   UNL     1      -9.875 -13.915  36.394  1.00  0.00    -0.504 OA
ATOM     21  H   UNL     1      -9.963 -13.556  37.338  1.00  0.00     0.293 HD
ENDBRANCH  17  20
ENDBRANCH   1  12
BRANCH   2  22
ATOM     22  O   UNL     1     -10.245 -17.668  33.462  1.00  0.00    -0.502 OA
ATOM     23  H   UNL     1     -10.652 -17.899  34.360  1.00  0.00     0.293 HD
ENDBRANCH   2  22
BRANCH   9  24
ATOM     24  O   UNL     1     -14.004 -16.087  26.851  1.00  0.00    -0.508 OA
ATOM     25  H   UNL     1     -13.701 -15.288  26.307  1.00  0.00     0.293 HD
ENDBRANCH   9  24
TORSDOF 5
ENDMDL
MODEL 2
REMARK VINA RESULT:    -5.820      1.784      7.141
REMARK INTER + INTRA:          -6.747
REMARK INTER:                  -6.572
REMARK INTRA:                  -0.175
REMARK UNBOUND:                 0.094
REMARK SMILES O=c1c(O)c(-c2ccc(O)c(O)c2)oc2cc(O)ccc12
REMARK SMILES IDX 5 1 3 2 2 3 1 4 21 5 15 6 14 7 16 8 17 9 19 10 20 11 6 12
REMARK SMILES IDX 7 13 8 14 9 15 13 16 11 17 10 18 12 20 4 22 18 24
REMARK H PARENT 10 19 12 21 4 23 18 25
REMARK Flexibility Score: inf
ROOT
ATOM      1  C   UNL     1     -12.772 -15.912  31.662  1.00  0.00     0.180 A 
ATOM      2  C   UNL     1     -14.071 -15.484  32.007  1.00  0.00     0.208 A 
ATOM      3  C   UNL     1     -14.286 -14.938  33.283  1.00  0.00     0.235 A 
ATOM      4  O   UNL     1     -15.442 -14.557  33.618  1.00  0.00    -0.285 OA
ATOM      5  C   UNL     1     -13.207 -14.814  34.172  1.00  0.00     0.069 A 
ATOM      6  C   UNL     1     -11.933 -15.243  33.742  1.00  0.00     0.142 A 
ATOM      7  O   UNL     1     -11.773 -15.762  32.530  1.00  0.00    -0.452 OA
ATOM      8  C   UNL     1     -10.830 -15.127  34.594  1.00  0.00     0.094 A 
ATOM      9  C   UNL     1     -10.984 -14.587  35.876  1.00  0.00     0.119 A 
ATOM     10  C   UNL     1     -12.247 -14.161  36.307  1.00  0.00     0.047 A 
ATOM     11  C   UNL     1     -13.356 -14.271  35.462  1.00  0.00     0.020 A 
ENDROOT
BRANCH   1  12
ATOM     12  C   UNL     1     -12.467 -16.514  30.344  1.00  0.00     0.025 A 
ATOM     13  C   UNL     1     -11.541 -15.886  29.495  1.00  0.00     0.016 A 
ATOM     14  C   UNL     1     -11.223 -16.448  28.256  1.00  0.00     0.051 A 
ATOM     15  C   UNL     1     -11.814 -17.653  27.855  1.00  0.00     0.157 A 
ATOM     16  C   UNL     1     -13.043 -17.735  29.946  1.00  0.00     0.062 A 
ATOM     17  C   UNL     1     -12.722 -18.299  28.703  1.00  0.00     0.158 A 
BRANCH  15  18
ATOM     18  O   UNL     1     -11.500 -18.215  26.619  1.00  0.00    -0.504 OA
ATOM     19  H   UNL     1     -10.541 -18.337  26.319  1.00  0.00     0.293 HD
ENDBRANCH  15  18
BRANCH  17  20
ATOM     20  O   UNL     1     -13.298 -19.505  28.306  1.00  0.00    -0.504 OA
ATOM     21  H   UNL     1     -12.775 -20.373  28.321  1.00  0.00     0.293 HD
ENDBRANCH  17  20
ENDBRANCH   1  12
BRANCH   2  22
ATOM     22  O   UNL     1     -15.115 -15.574  31.084  1.00  0.00    -0.502 OA
ATOM     23  H   UNL     1     -15.375 -14.801  30.483  1.00  0.00     0.293 HD
ENDBRANCH   2  22
BRANCH   9  24
ATOM     24  O   UNL     1      -9.875 -14.478  36.713  1.00  0.00    -0.508 OA
ATOM     25  H   UNL     1      -9.740 -13.672  37.311  1.00  0.00     0.293 HD
ENDBRANCH   9  24
TORSDOF 5
ENDMDL
MODEL 3
REMARK VINA RESULT:    -5.626      2.125      7.105
REMARK INTER + INTRA:          -6.519
REMARK INTER:                  -6.236
REMARK INTRA:                  -0.283
REMARK UNBOUND:                 0.094
REMARK SMILES O=c1c(O)c(-c2ccc(O)c(O)c2)oc2cc(O)ccc12
REMARK SMILES IDX 5 1 3 2 2 3 1 4 21 5 15 6 14 7 16 8 17 9 19 10 20 11 6 12
REMARK SMILES IDX 7 13 8 14 9 15 13 16 11 17 10 18 12 20 4 22 18 24
REMARK H PARENT 10 19 12 21 4 23 18 25
REMARK Flexibility Score: inf
ROOT
ATOM      1  C   UNL     1     -13.305 -16.660  32.532  1.00  0.00     0.180 A 
ATOM      2  C   UNL     1     -14.521 -15.973  32.727  1.00  0.00     0.208 A 
ATOM      3  C   UNL     1     -14.575 -14.957  33.694  1.00  0.00     0.235 A 
ATOM      4  O   UNL     1     -15.655 -14.334  33.894  1.00  0.00    -0.285 OA
ATOM      5  C   UNL     1     -13.420 -14.636  34.424  1.00  0.00     0.069 A 
ATOM      6  C   UNL     1     -12.236 -15.354  34.152  1.00  0.00     0.142 A 
ATOM      7  O   UNL     1     -12.229 -16.315  33.235  1.00  0.00    -0.452 OA
ATOM      8  C   UNL     1     -11.061 -15.058  34.851  1.00  0.00     0.094 A 
ATOM      9  C   UNL     1     -11.054 -14.052  35.823  1.00  0.00     0.119 A 
ATOM     10  C   UNL     1     -12.228 -13.338  36.097  1.00  0.00     0.047 A 
ATOM     11  C   UNL     1     -13.407 -13.625  35.402  1.00  0.00     0.020 A 
ENDROOT
BRANCH   1  12
ATOM     12  C   UNL     1     -13.172 -17.756  31.544  1.00  0.00     0.025 A 
ATOM     13  C   UNL     1     -13.257 -19.090  31.976  1.00  0.00     0.016 A 
ATOM     14  C   UNL     1     -13.156 -20.139  31.059  1.00  0.00     0.051 A 
ATOM     15  C   UNL     1     -12.981 -19.869  29.695  1.00  0.00     0.157 A 
ATOM     16  C   UNL     1     -13.018 -17.490  30.171  1.00  0.00     0.062 A 
ATOM     17  C   UNL     1     -12.917 -18.543  29.250  1.00  0.00     0.158 A 
BRANCH  15  18
ATOM     18  O   UNL     1     -12.877 -20.914  28.778  1.00  0.00    -0.504 OA
ATOM     19  H   UNL     1     -13.226 -20.825  27.831  1.00  0.00     0.293 HD
ENDBRANCH  15  18
BRANCH  17  20
ATOM     20  O   UNL     1     -12.757 -18.279  27.891  1.00  0.00    -0.504 OA
ATOM     21  H   UNL     1     -12.347 -18.961  27.264  1.00  0.00     0.293 HD
ENDBRANCH  17  20
ENDBRANCH   1  12
BRANCH   2  22
ATOM     22  O   UNL     1     -15.641 -16.280  31.950  1.00  0.00    -0.502 OA
ATOM     23  H   UNL     1     -15.650 -16.167  30.944  1.00  0.00     0.293 HD
ENDBRANCH   2  22
BRANCH   9  24
ATOM     24  O   UNL     1      -9.875 -13.769  36.510  1.00  0.00    -0.508 OA
ATOM     25  H   UNL     1      -9.719 -12.868  36.946  1.00  0.00     0.293 HD
ENDBRANCH   9  24
TORSDOF 5
ENDMDL
MODEL 4
REMARK VINA RESULT:    -5.492      2.379      3.723
REMARK INTER + INTRA:          -6.361
REMARK INTER:                  -6.757
REMARK INTRA:                   0.396
REMARK UNBOUND:                 0.094
REMARK SMILES O=c1c(O)c(-c2ccc(O)c(O)c2)oc2cc(O)ccc12
REMARK SMILES IDX 5 1 3 2 2 3 1 4 21 5 15 6 14 7 16 8 17 9 19 10 20 11 6 12
REMARK SMILES IDX 7 13 8 14 9 15 13 16 11 17 10 18 12 20 4 22 18 24
REMARK H PARENT 10 19 12 21 4 23 18 25
REMARK Flexibility Score: inf
ROOT
ATOM      1  C   UNL     1     -12.332 -15.277  34.049  1.00  0.00     0.180 A 
ATOM      2  C   UNL     1     -13.715 -15.373  33.789  1.00  0.00     0.208 A 
ATOM      3  C   UNL     1     -14.170 -16.374  32.916  1.00  0.00     0.235 A 
ATOM      4  O   UNL     1     -15.402 -16.473  32.660  1.00  0.00    -0.285 OA
ATOM      5  C   UNL     1     -13.247 -17.262  32.343  1.00  0.00     0.069 A 
ATOM      6  C   UNL     1     -11.883 -17.115  32.672  1.00  0.00     0.142 A 
ATOM      7  O   UNL     1     -11.491 -16.149  33.496  1.00  0.00    -0.452 OA
ATOM      8  C   UNL     1     -10.933 -17.987  32.130  1.00  0.00     0.094 A 
ATOM      9  C   UNL     1     -11.329 -19.006  31.257  1.00  0.00     0.119 A 
ATOM     10  C   UNL     1     -12.682 -19.154  30.925  1.00  0.00     0.047 A 
ATOM     11  C   UNL     1     -13.639 -18.289  31.464  1.00  0.00     0.020 A 
ENDROOT
BRANCH   1  12
ATOM     12  C   UNL     1     -11.771 -14.239  34.944  1.00  0.00     0.025 A 
ATOM     13  C   UNL     1     -10.420 -13.877  34.822  1.00  0.00     0.016 A 
ATOM     14  C   UNL     1      -9.875 -12.885  35.640  1.00  0.00     0.051 A 
ATOM     15  C   UNL     1     -10.677 -12.230  36.584  1.00  0.00     0.157 A 
ATOM     16  C   UNL     1     -12.578 -13.563  35.878  1.00  0.00     0.062 A 
ATOM     17  C   UNL     1     -12.032 -12.566  36.699  1.00  0.00     0.158 A 
BRANCH  15  18
ATOM     18  O   UNL     1     -10.136 -11.241  37.404  1.00  0.00    -0.504 OA
ATOM     19  H   UNL     1     -10.455 -10.281  37.359  1.00  0.00     0.293 HD
ENDBRANCH  15  18
BRANCH  17  20
ATOM     20  O   UNL     1     -12.830 -11.902  37.630  1.00  0.00    -0.504 OA
ATOM     21  H   UNL     1     -12.547 -11.808  38.598  1.00  0.00     0.293 HD
ENDBRANCH  17  20
ENDBRANCH   1  12
BRANCH   2  22
ATOM     22  O   UNL     1     -14.615 -14.507  34.414  1.00  0.00    -0.502 OA
ATOM     23  H   UNL     1     -14.827 -14.567  35.402  1.00  0.00     0.293 HD
ENDBRANCH   2  22
BRANCH   9  24
ATOM     24  O   UNL     1     -10.370 -19.865  30.725  1.00  0.00    -0.508 OA
ATOM     25  H   UNL     1     -10.486 -20.871  30.753  1.00  0.00     0.293 HD
ENDBRANCH   9  24
TORSDOF 5
ENDMDL
MODEL 5
REMARK VINA RESULT:    -5.450      0.752      1.496
REMARK INTER + INTRA:          -6.313
REMARK INTER:                  -6.382
REMARK INTRA:                   0.070
REMARK UNBOUND:                 0.094
REMARK SMILES O=c1c(O)c(-c2ccc(O)c(O)c2)oc2cc(O)ccc12
REMARK SMILES IDX 5 1 3 2 2 3 1 4 21 5 15 6 14 7 16 8 17 9 19 10 20 11 6 12
REMARK SMILES IDX 7 13 8 14 9 15 13 16 11 17 10 18 12 20 4 22 18 24
REMARK H PARENT 10 19 12 21 4 23 18 25
REMARK Flexibility Score: inf
ROOT
ATOM      1  C   UNL     1     -11.437 -16.179  32.684  1.00  0.00     0.180 A 
ATOM      2  C   UNL     1     -10.699 -17.380  32.642  1.00  0.00     0.208 A 
ATOM      3  C   UNL     1     -10.784 -18.187  31.496  1.00  0.00     0.235 A 
ATOM      4  O   UNL     1     -10.140 -19.271  31.440  1.00  0.00    -0.285 OA
ATOM      5  C   UNL     1     -11.581 -17.772  30.418  1.00  0.00     0.069 A 
ATOM      6  C   UNL     1     -12.270 -16.545  30.528  1.00  0.00     0.142 A 
ATOM      7  O   UNL     1     -12.170 -15.815  31.633  1.00  0.00    -0.452 OA
ATOM      8  C   UNL     1     -13.066 -16.092  29.471  1.00  0.00     0.094 A 
ATOM      9  C   UNL     1     -13.185 -16.852  28.302  1.00  0.00     0.119 A 
ATOM     10  C   UNL     1     -12.504 -18.071  28.190  1.00  0.00     0.047 A 
ATOM     11  C   UNL     1     -11.704 -18.532  29.240  1.00  0.00     0.020 A 
ENDROOT
BRANCH   1  12
ATOM     12  C   UNL     1     -11.415 -15.283  33.863  1.00  0.00     0.025 A 
ATOM     13  C   UNL     1     -10.184 -14.915  34.428  1.00  0.00     0.016 A 
ATOM     14  C   UNL     1     -10.139 -14.053  35.527  1.00  0.00     0.051 A 
ATOM     15  C   UNL     1     -11.323 -13.536  36.067  1.00  0.00     0.157 A 
ATOM     16  C   UNL     1     -12.601 -14.744  34.395  1.00  0.00     0.062 A 
ATOM     17  C   UNL     1     -12.556 -13.878  35.497  1.00  0.00     0.158 A 
BRANCH  15  18
ATOM     18  O   UNL     1     -11.282 -12.678  37.165  1.00  0.00    -0.504 OA
ATOM     19  H   UNL     1     -11.249 -11.673  37.052  1.00  0.00     0.293 HD
ENDBRANCH  15  18
BRANCH  17  20
ATOM     20  O   UNL     1     -13.731 -13.351  36.029  1.00  0.00    -0.504 OA
ATOM     21  H   UNL     1     -14.095 -13.663  36.922  1.00  0.00     0.293 HD
ENDBRANCH  17  20
ENDBRANCH   1  12
BRANCH   2  22
ATOM     22  O   UNL     1      -9.875 -17.742  33.711  1.00  0.00    -0.502 OA
ATOM     23  H   UNL     1      -9.535 -17.068  34.385  1.00  0.00     0.293 HD
ENDBRANCH   2  22
BRANCH   9  24
ATOM     24  O   UNL     1     -13.983 -16.386  27.259  1.00  0.00    -0.508 OA
ATOM     25  H   UNL     1     -14.893 -16.788  27.068  1.00  0.00     0.293 HD
ENDBRANCH   9  24
TORSDOF 5
ENDMDL
MODEL 6
REMARK VINA RESULT:    -5.418      1.971      2.611
REMARK INTER + INTRA:          -6.275
REMARK INTER:                  -6.110
REMARK INTRA:                  -0.165
REMARK UNBOUND:                 0.094
REMARK SMILES O=c1c(O)c(-c2ccc(O)c(O)c2)oc2cc(O)ccc12
REMARK SMILES IDX 5 1 3 2 2 3 1 4 21 5 15 6 14 7 16 8 17 9 19 10 20 11 6 12
REMARK SMILES IDX 7 13 8 14 9 15 13 16 11 17 10 18 12 20 4 22 18 24
REMARK H PARENT 10 19 12 21 4 23 18 25
REMARK Flexibility Score: inf
ROOT
ATOM      1  C   UNL     1     -11.491 -16.345  32.097  1.00  0.00     0.180 A 
ATOM      2  C   UNL     1     -10.766 -15.882  30.979  1.00  0.00     0.208 A 
ATOM      3  C   UNL     1     -10.979 -16.495  29.734  1.00  0.00     0.235 A 
ATOM      4  O   UNL     1     -10.334 -16.106  28.722  1.00  0.00    -0.285 OA
ATOM      5  C   UNL     1     -11.917 -17.534  29.628  1.00  0.00     0.069 A 
ATOM      6  C   UNL     1     -12.620 -17.922  30.788  1.00  0.00     0.142 A 
ATOM      7  O   UNL     1     -12.383 -17.322  31.949  1.00  0.00    -0.452 OA
ATOM      8  C   UNL     1     -13.571 -18.946  30.721  1.00  0.00     0.094 A 
ATOM      9  C   UNL     1     -13.828 -19.591  29.506  1.00  0.00     0.119 A 
ATOM     10  C   UNL     1     -13.131 -19.209  28.352  1.00  0.00     0.047 A 
ATOM     11  C   UNL     1     -12.180 -18.186  28.408  1.00  0.00     0.020 A 
ENDROOT
BRANCH   1  12
ATOM     12  C   UNL     1     -11.311 -15.763  33.447  1.00  0.00     0.025 A 
ATOM     13  C   UNL     1     -10.074 -15.895  34.097  1.00  0.00     0.016 A 
ATOM     14  C   UNL     1      -9.875 -15.335  35.361  1.00  0.00     0.051 A 
ATOM     15  C   UNL     1     -10.906 -14.623  35.988  1.00  0.00     0.157 A 
ATOM     16  C   UNL     1     -12.337 -15.028  34.070  1.00  0.00     0.062 A 
ATOM     17  C   UNL     1     -12.137 -14.465  35.339  1.00  0.00     0.158 A 
BRANCH  15  18
ATOM     18  O   UNL     1     -10.712 -14.065  37.250  1.00  0.00    -0.504 OA
ATOM     19  H   UNL     1     -10.966 -13.106  37.451  1.00  0.00     0.293 HD
ENDBRANCH  15  18
BRANCH  17  20
ATOM     20  O   UNL     1     -13.156 -13.744  35.959  1.00  0.00    -0.504 OA
ATOM     21  H   UNL     1     -13.051 -13.381  36.899  1.00  0.00     0.293 HD
ENDBRANCH  17  20
ENDBRANCH   1  12
BRANCH   2  22
ATOM     22  O   UNL     1      -9.875 -14.813  31.106  1.00  0.00    -0.502 OA
ATOM     23  H   UNL     1      -9.110 -14.666  30.459  1.00  0.00     0.293 HD
ENDBRANCH   2  22
BRANCH   9  24
ATOM     24  O   UNL     1     -14.778 -20.609  29.457  1.00  0.00    -0.508 OA
ATOM     25  H   UNL     1     -15.039 -21.047  28.582  1.00  0.00     0.293 HD
ENDBRANCH   9  24
TORSDOF 5
ENDMDL
MODEL 7
REMARK VINA RESULT:    -5.012      1.397      6.670
REMARK INTER + INTRA:          -5.797
REMARK INTER:                  -5.796
REMARK INTRA:                  -0.001
REMARK UNBOUND:                 0.094
REMARK SMILES O=c1c(O)c(-c2ccc(O)c(O)c2)oc2cc(O)ccc12
REMARK SMILES IDX 5 1 3 2 2 3 1 4 21 5 15 6 14 7 16 8 17 9 19 10 20 11 6 12
REMARK SMILES IDX 7 13 8 14 9 15 13 16 11 17 10 18 12 20 4 22 18 24
REMARK H PARENT 10 19 12 21 4 23 18 25
REMARK Flexibility Score: inf
ROOT
ATOM      1  C   UNL     1     -12.494 -16.123  31.738  1.00  0.00     0.180 A 
ATOM      2  C   UNL     1     -11.327 -16.712  32.268  1.00  0.00     0.208 A 
ATOM      3  C   UNL     1     -10.922 -16.360  33.565  1.00  0.00     0.235 A 
ATOM      4  O   UNL     1      -9.875 -16.866  34.057  1.00  0.00    -0.285 OA
ATOM      5  C   UNL     1     -11.693 -15.452  34.307  1.00  0.00     0.069 A 
ATOM      6  C   UNL     1     -12.860 -14.925  33.714  1.00  0.00     0.142 A 
ATOM      7  O   UNL     1     -13.205 -15.277  32.481  1.00  0.00    -0.452 OA
ATOM      8  C   UNL     1     -13.661 -14.025  34.425  1.00  0.00     0.094 A 
ATOM      9  C   UNL     1     -13.309 -13.641  35.723  1.00  0.00     0.119 A 
ATOM     10  C   UNL     1     -12.150 -14.161  36.314  1.00  0.00     0.047 A 
ATOM     11  C   UNL     1     -11.343 -15.062  35.613  1.00  0.00     0.020 A 
ENDROOT
BRANCH   1  12
ATOM     12  C   UNL     1     -12.978 -16.428  30.372  1.00  0.00     0.025 A 
ATOM     13  C   UNL     1     -13.212 -15.377  29.471  1.00  0.00     0.016 A 
ATOM     14  C   UNL     1     -13.648 -15.643  28.170  1.00  0.00     0.051 A 
ATOM     15  C   UNL     1     -13.842 -16.965  27.748  1.00  0.00     0.157 A 
ATOM     16  C   UNL     1     -13.153 -17.755  29.936  1.00  0.00     0.062 A 
ATOM     17  C   UNL     1     -13.589 -18.022  28.631  1.00  0.00     0.158 A 
BRANCH  15  18
ATOM     18  O   UNL     1     -14.279 -17.234  26.452  1.00  0.00    -0.504 OA
ATOM     19  H   UNL     1     -14.539 -18.168  26.163  1.00  0.00     0.293 HD
ENDBRANCH  15  18
BRANCH  17  20
ATOM     20  O   UNL     1     -13.771 -19.336  28.202  1.00  0.00    -0.504 OA
ATOM     21  H   UNL     1     -13.107 -20.065  28.435  1.00  0.00     0.293 HD
ENDBRANCH  17  20
ENDBRANCH   1  12
BRANCH   2  22
ATOM     22  O   UNL     1     -10.607 -17.651  31.525  1.00  0.00    -0.502 OA
ATOM     23  H   UNL     1     -10.983 -18.563  31.295  1.00  0.00     0.293 HD
ENDBRANCH   2  22
BRANCH   9  24
ATOM     24  O   UNL     1     -14.118 -12.743  36.417  1.00  0.00    -0.508 OA
ATOM     25  H   UNL     1     -14.965 -13.045  36.883  1.00  0.00     0.293 HD
ENDBRANCH   9  24
TORSDOF 5
ENDMDL
MODEL 8
REMARK VINA RESULT:    -4.605      1.906      3.249
REMARK INTER + INTRA:          -5.319
REMARK INTER:                  -5.183
REMARK INTRA:                  -0.136
REMARK UNBOUND:                 0.094
REMARK SMILES O=c1c(O)c(-c2ccc(O)c(O)c2)oc2cc(O)ccc12
REMARK SMILES IDX 5 1 3 2 2 3 1 4 21 5 15 6 14 7 16 8 17 9 19 10 20 11 6 12
REMARK SMILES IDX 7 13 8 14 9 15 13 16 11 17 10 18 12 20 4 22 18 24
REMARK H PARENT 10 19 12 21 4 23 18 25
REMARK Flexibility Score: inf
ROOT
ATOM      1  C   UNL     1     -13.022 -16.277  32.564  1.00  0.00     0.180 A 
ATOM      2  C   UNL     1     -13.458 -15.833  31.299  1.00  0.00     0.208 A 
ATOM      3  C   UNL     1     -13.610 -16.773  30.268  1.00  0.00     0.235 A 
ATOM      4  O   UNL     1     -13.989 -16.398  29.124  1.00  0.00    -0.285 OA
ATOM      5  C   UNL     1     -13.345 -18.127  30.524  1.00  0.00     0.069 A 
ATOM      6  C   UNL     1     -12.936 -18.495  31.824  1.00  0.00     0.142 A 
ATOM      7  O   UNL     1     -12.796 -17.573  32.770  1.00  0.00    -0.452 OA
ATOM      8  C   UNL     1     -12.672 -19.836  32.123  1.00  0.00     0.094 A 
ATOM      9  C   UNL     1     -12.809 -20.818  31.136  1.00  0.00     0.119 A 
ATOM     10  C   UNL     1     -13.214 -20.457  29.844  1.00  0.00     0.047 A 
ATOM     11  C   UNL     1     -13.482 -19.120  29.536  1.00  0.00     0.020 A 
ENDROOT
BRANCH   1  12
ATOM     12  C   UNL     1     -12.821 -15.345  33.698  1.00  0.00     0.025 A 
ATOM     13  C   UNL     1     -13.923 -14.660  34.233  1.00  0.00     0.016 A 
ATOM     14  C   UNL     1     -13.759 -13.793  35.317  1.00  0.00     0.051 A 
ATOM     15  C   UNL     1     -12.494 -13.609  35.889  1.00  0.00     0.157 A 
ATOM     16  C   UNL     1     -11.555 -15.174  34.290  1.00  0.00     0.062 A 
ATOM     17  C   UNL     1     -11.391 -14.305  35.378  1.00  0.00     0.158 A 
BRANCH  15  18
ATOM     18  O   UNL     1     -12.327 -12.743  36.968  1.00  0.00    -0.504 OA
ATOM     19  H   UNL     1     -13.017 -12.037  37.194  1.00  0.00     0.293 HD
ENDBRANCH  15  18
BRANCH  17  20
ATOM     20  O   UNL     1     -10.136 -14.131  35.959  1.00  0.00    -0.504 OA
ATOM     21  H   UNL     1      -9.495 -14.906  36.077  1.00  0.00     0.293 HD
ENDBRANCH  17  20
ENDBRANCH   1  12
BRANCH   2  22
ATOM     22  O   UNL     1     -13.763 -14.486  31.087  1.00  0.00    -0.502 OA
ATOM     23  H   UNL     1     -14.401 -14.182  30.362  1.00  0.00     0.293 HD
ENDBRANCH   2  22
BRANCH   9  24
ATOM     24  O   UNL     1     -12.542 -22.149  31.450  1.00  0.00    -0.508 OA
ATOM     25  H   UNL     1     -12.331 -22.437  32.398  1.00  0.00     0.293 HD
ENDBRANCH   9  24
TORSDOF 5
ENDMDL
