MODEL 1
REMARK VINA RESULT:     7.649      0.000      0.000
REMARK INTER + INTRA:          15.580
REMARK INTER:                  16.591
REMARK INTRA:                  -1.011
REMARK UNBOUND:                -1.011
REMARK SMILES CCCCCCCCCCCCCCCCCCCCCC(=O)[O-]
REMARK SMILES IDX 12 1 11 2 10 3 9 4 8 5 7 6 6 7 5 8 4 9 3 10 2 11 1 12 13 13
REMARK SMILES IDX 14 14 15 15 16 16 17 17 18 18 19 19 20 20 21 21 22 22 23 23
REMARK SMILES IDX 24 24
REMARK H PARENT
REMARK Flexibility Score: inf
ROOT
ATOM      1  C   UNL     1      13.860  16.201  -7.652  1.00  0.00     0.000 C 
ENDROOT
BRANCH   1   2
ATOM      2  C   UNL     1      15.233  15.608  -8.005  1.00  0.00     0.000 C 
BRANCH   2   3
ATOM      3  C   UNL     1      15.551  15.813  -9.495  1.00  0.00     0.000 C 
BRANCH   3   4
ATOM      4  C   UNL     1      14.552  15.099 -10.420  1.00  0.00    -0.000 C 
BRANCH   4   5
ATOM      5  C   UNL     1      15.237  14.438 -11.630  1.00  0.00    -0.000 C 
BRANCH   5   6
ATOM      6  C   UNL     1      15.878  15.464 -12.577  1.00  0.00    -0.000 C 
BRANCH   6   7
ATOM      7  C   UNL     1      17.272  15.036 -13.062  1.00  0.00    -0.000 C 
BRANCH   7   8
ATOM      8  C   UNL     1      18.276  16.201 -13.100  1.00  0.00    -0.000 C 
BRANCH   8   9
ATOM      9  C   UNL     1      17.864  17.399 -12.218  1.00  0.00    -0.000 C 
BRANCH   9  10
ATOM     10  C   UNL     1      18.986  18.445 -12.097  1.00  0.00    -0.000 C 
BRANCH  10  11
ATOM     11  C   UNL     1      18.527  19.853 -12.510  1.00  0.00    -0.003 C 
ATOM     12  C   UNL     1      19.550  20.932 -12.157  1.00  0.00     0.004 C 
ENDBRANCH  10  11
ENDBRANCH   9  10
ENDBRANCH   8   9
ENDBRANCH   7   8
ENDBRANCH   6   7
ENDBRANCH   5   6
ENDBRANCH   4   5
ENDBRANCH   3   4
ENDBRANCH   2   3
ENDBRANCH   1   2
BRANCH   1  13
ATOM     13  C   UNL     1      13.918  17.186  -6.473  1.00  0.00     0.000 C 
BRANCH  13  14
ATOM     14  C   UNL     1      12.596  17.355  -5.697  1.00  0.00     0.000 C 
BRANCH  14  15
ATOM     15  C   UNL     1      11.885  16.041  -5.330  1.00  0.00     0.000 C 
BRANCH  15  16
ATOM     16  C   UNL     1      11.859  15.778  -3.817  1.00  0.00     0.000 C 
BRANCH  16  17
ATOM     17  C   UNL     1      11.078  14.494  -3.498  1.00  0.00     0.000 C 
BRANCH  17  18
ATOM     18  C   UNL     1      11.460  13.886  -2.138  1.00  0.00     0.000 C 
BRANCH  18  19
ATOM     19  C   UNL     1      10.347  13.927  -1.075  1.00  0.00     0.000 C 
BRANCH  19  20
ATOM     20  C   UNL     1      10.862  13.773   0.372  1.00  0.00     0.006 C 
BRANCH  20  21
ATOM     21  C   UNL     1       9.966  14.492   1.390  1.00  0.00     0.053 C 
BRANCH  21  22
ATOM     22  C   UNL     1      10.238  15.963   1.377  1.00  0.00     0.041 C 
ATOM     23  O   UNL     1       9.282  16.783   1.351  1.00  0.00    -0.550 OA
ATOM     24  O   UNL     1      11.543  16.431   1.443  1.00  0.00    -0.550 OA
ENDBRANCH  21  22
ENDBRANCH  20  21
ENDBRANCH  19  20
ENDBRANCH  18  19
ENDBRANCH  17  18
ENDBRANCH  16  17
ENDBRANCH  15  16
ENDBRANCH  14  15
ENDBRANCH  13  14
ENDBRANCH   1  13
TORSDOF 20
ENDMDL
MODEL 2
REMARK VINA RESULT:     8.042      0.846      1.870
REMARK INTER + INTRA:          16.433
REMARK INTER:                  17.416
REMARK INTRA:                  -0.983
REMARK UNBOUND:                -1.011
REMARK SMILES CCCCCCCCCCCCCCCCCCCCCC(=O)[O-]
REMARK SMILES IDX 12 1 11 2 10 3 9 4 8 5 7 6 6 7 5 8 4 9 3 10 2 11 1 12 13 13
REMARK SMILES IDX 14 14 15 15 16 16 17 17 18 18 19 19 20 20 21 21 22 22 23 23
REMARK SMILES IDX 24 24
REMARK H PARENT
REMARK Flexibility Score: inf
ROOT
ATOM      1  C   UNL     1      12.616  16.940  -6.433  1.00  0.00     0.000 C 
ENDROOT
BRANCH   1   2
ATOM      2  C   UNL     1      14.103  16.979  -6.817  1.00  0.00     0.000 C 
BRANCH   2   3
ATOM      3  C   UNL     1      14.528  15.670  -7.499  1.00  0.00     0.000 C 
BRANCH   3   4
ATOM      4  C   UNL     1      15.493  15.896  -8.674  1.00  0.00    -0.000 C 
BRANCH   4   5
ATOM      5  C   UNL     1      14.962  15.312  -9.995  1.00  0.00    -0.000 C 
BRANCH   5   6
ATOM      6  C   UNL     1      15.626  15.945 -11.228  1.00  0.00    -0.000 C 
BRANCH   6   7
ATOM      7  C   UNL     1      15.996  14.908 -12.301  1.00  0.00    -0.000 C 
BRANCH   7   8
ATOM      8  C   UNL     1      17.337  15.215 -12.990  1.00  0.00    -0.000 C 
BRANCH   8   9
ATOM      9  C   UNL     1      17.666  16.722 -13.058  1.00  0.00    -0.000 C 
BRANCH   9  10
ATOM     10  C   UNL     1      18.773  17.121 -12.066  1.00  0.00    -0.000 C 
BRANCH  10  11
ATOM     11  C   UNL     1      18.477  18.452 -11.357  1.00  0.00    -0.003 C 
ATOM     12  C   UNL     1      18.928  19.665 -12.169  1.00  0.00     0.004 C 
ENDBRANCH  10  11
ENDBRANCH   9  10
ENDBRANCH   8   9
ENDBRANCH   7   8
ENDBRANCH   6   7
ENDBRANCH   5   6
ENDBRANCH   4   5
ENDBRANCH   3   4
ENDBRANCH   2   3
ENDBRANCH   1   2
BRANCH   1  13
ATOM     13  C   UNL     1      12.378  16.402  -5.012  1.00  0.00     0.000 C 
BRANCH  13  14
ATOM     14  C   UNL     1      11.141  15.494  -4.856  1.00  0.00     0.000 C 
BRANCH  14  15
ATOM     15  C   UNL     1      11.425  14.107  -4.252  1.00  0.00     0.000 C 
BRANCH  15  16
ATOM     16  C   UNL     1      10.479  13.755  -3.095  1.00  0.00     0.000 C 
BRANCH  16  17
ATOM     17  C   UNL     1      10.992  14.343  -1.771  1.00  0.00     0.000 C 
BRANCH  17  18
ATOM     18  C   UNL     1      10.564  13.516  -0.547  1.00  0.00     0.000 C 
BRANCH  18  19
ATOM     19  C   UNL     1      11.681  13.254   0.480  1.00  0.00     0.000 C 
BRANCH  19  20
ATOM     20  C   UNL     1      11.511  14.039   1.799  1.00  0.00     0.006 C 
BRANCH  20  21
ATOM     21  C   UNL     1      10.102  14.626   1.950  1.00  0.00     0.053 C 
BRANCH  21  22
ATOM     22  C   UNL     1      10.141  16.117   1.826  1.00  0.00     0.041 C 
ATOM     23  O   UNL     1      11.217  16.699   1.530  1.00  0.00    -0.550 OA
ATOM     24  O   UNL     1       8.979  16.859   1.991  1.00  0.00    -0.550 OA
ENDBRANCH  21  22
ENDBRANCH  20  21
ENDBRANCH  19  20
ENDBRANCH  18  19
ENDBRANCH  17  18
ENDBRANCH  16  17
ENDBRANCH  15  16
ENDBRANCH  14  15
ENDBRANCH  13  14
ENDBRANCH   1  13
TORSDOF 20
ENDMDL
MODEL 3
REMARK VINA RESULT:     8.295      4.909     12.245
REMARK INTER + INTRA:          16.983
REMARK INTER:                  17.914
REMARK INTRA:                  -0.931
REMARK UNBOUND:                -1.011
REMARK SMILES CCCCCCCCCCCCCCCCCCCCCC(=O)[O-]
REMARK SMILES IDX 12 1 11 2 10 3 9 4 8 5 7 6 6 7 5 8 4 9 3 10 2 11 1 12 13 13
REMARK SMILES IDX 14 14 15 15 16 16 17 17 18 18 19 19 20 20 21 21 22 22 23 23
REMARK SMILES IDX 24 24
REMARK H PARENT
REMARK Flexibility Score: inf
ROOT
ATOM      1  C   UNL     1      14.214  15.906  -7.156  1.00  0.00     0.000 C 
ENDROOT
BRANCH   1   2
ATOM      2  C   UNL     1      13.830  17.303  -6.644  1.00  0.00     0.000 C 
BRANCH   2   3
ATOM      3  C   UNL     1      12.906  17.203  -5.421  1.00  0.00     0.000 C 
BRANCH   3   4
ATOM      4  C   UNL     1      11.662  16.339  -5.684  1.00  0.00    -0.000 C 
BRANCH   4   5
ATOM      5  C   UNL     1      11.728  14.977  -4.970  1.00  0.00    -0.000 C 
BRANCH   5   6
ATOM      6  C   UNL     1      10.683  14.847  -3.851  1.00  0.00    -0.000 C 
BRANCH   6   7
ATOM      7  C   UNL     1      11.038  13.753  -2.831  1.00  0.00    -0.000 C 
BRANCH   7   8
ATOM      8  C   UNL     1      10.528  14.070  -1.414  1.00  0.00    -0.000 C 
BRANCH   8   9
ATOM      9  C   UNL     1      11.594  13.872  -0.315  1.00  0.00    -0.000 C 
BRANCH   9  10
ATOM     10  C   UNL     1      10.985  13.898   1.097  1.00  0.00    -0.000 C 
BRANCH  10  11
ATOM     11  C   UNL     1      10.167  15.172   1.364  1.00  0.00    -0.003 C 
ATOM     12  C   UNL     1      11.046  16.411   1.535  1.00  0.00     0.004 C 
ENDBRANCH  10  11
ENDBRANCH   9  10
ENDBRANCH   8   9
ENDBRANCH   7   8
ENDBRANCH   6   7
ENDBRANCH   5   6
ENDBRANCH   4   5
ENDBRANCH   3   4
ENDBRANCH   2   3
ENDBRANCH   1   2
BRANCH   1  13
ATOM     13  C   UNL     1      15.206  15.951  -8.331  1.00  0.00     0.000 C 
BRANCH  13  14
ATOM     14  C   UNL     1      14.776  15.153  -9.579  1.00  0.00     0.000 C 
BRANCH  14  15
ATOM     15  C   UNL     1      15.228  15.753 -10.922  1.00  0.00     0.000 C 
BRANCH  15  16
ATOM     16  C   UNL     1      15.552  14.683 -11.975  1.00  0.00     0.000 C 
BRANCH  16  17
ATOM     17  C   UNL     1      16.270  15.303 -13.183  1.00  0.00     0.000 C 
BRANCH  17  18
ATOM     18  C   UNL     1      17.776  14.989 -13.207  1.00  0.00     0.000 C 
BRANCH  18  19
ATOM     19  C   UNL     1      18.680  16.108 -12.657  1.00  0.00     0.000 C 
BRANCH  19  20
ATOM     20  C   UNL     1      18.119  17.529 -12.882  1.00  0.00     0.006 C 
BRANCH  20  21
ATOM     21  C   UNL     1      18.640  18.532 -11.845  1.00  0.00     0.053 C 
BRANCH  21  22
ATOM     22  C   UNL     1      18.679  19.911 -12.426  1.00  0.00     0.041 C 
ATOM     23  O   UNL     1      19.632  20.686 -12.151  1.00  0.00    -0.550 OA
ATOM     24  O   UNL     1      17.688  20.323 -13.307  1.00  0.00    -0.550 OA
ENDBRANCH  21  22
ENDBRANCH  20  21
ENDBRANCH  19  20
ENDBRANCH  18  19
ENDBRANCH  17  18
ENDBRANCH  16  17
ENDBRANCH  15  16
ENDBRANCH  14  15
ENDBRANCH  13  14
ENDBRANCH   1  13
TORSDOF 20
ENDMDL
MODEL 4
REMARK VINA RESULT:     9.130      1.743      3.085
REMARK INTER + INTRA:          18.794
REMARK INTER:                  19.895
REMARK INTRA:                  -1.101
REMARK UNBOUND:                -1.011
REMARK SMILES CCCCCCCCCCCCCCCCCCCCCC(=O)[O-]
REMARK SMILES IDX 12 1 11 2 10 3 9 4 8 5 7 6 6 7 5 8 4 9 3 10 2 11 1 12 13 13
REMARK SMILES IDX 14 14 15 15 16 16 17 17 18 18 19 19 20 20 21 21 22 22 23 23
REMARK SMILES IDX 24 24
REMARK H PARENT
REMARK Flexibility Score: inf
ROOT
ATOM      1  C   UNL     1      11.956  17.250  -5.757  1.00  0.00     0.000 C 
ENDROOT
BRANCH   1   2
ATOM      2  C   UNL     1      13.445  17.101  -5.409  1.00  0.00     0.000 C 
BRANCH   2   3
ATOM      3  C   UNL     1      14.320  17.275  -6.660  1.00  0.00     0.000 C 
BRANCH   3   4
ATOM      4  C   UNL     1      14.004  16.244  -7.756  1.00  0.00    -0.000 C 
BRANCH   4   5
ATOM      5  C   UNL     1      15.256  15.487  -8.233  1.00  0.00    -0.000 C 
BRANCH   5   6
ATOM      6  C   UNL     1      15.672  15.877  -9.660  1.00  0.00    -0.000 C 
BRANCH   6   7
ATOM      7  C   UNL     1      14.933  15.066 -10.737  1.00  0.00    -0.000 C 
BRANCH   7   8
ATOM      8  C   UNL     1      15.647  15.095 -12.100  1.00  0.00    -0.000 C 
BRANCH   8   9
ATOM      9  C   UNL     1      16.982  15.870 -12.082  1.00  0.00    -0.000 C 
BRANCH   9  10
ATOM     10  C   UNL     1      17.729  15.772 -13.423  1.00  0.00    -0.000 C 
BRANCH  10  11
ATOM     11  C   UNL     1      18.150  14.333 -13.760  1.00  0.00    -0.003 C 
ATOM     12  C   UNL     1      19.258  13.815 -12.845  1.00  0.00     0.004 C 
ENDBRANCH  10  11
ENDBRANCH   9  10
ENDBRANCH   8   9
ENDBRANCH   7   8
ENDBRANCH   6   7
ENDBRANCH   5   6
ENDBRANCH   4   5
ENDBRANCH   3   4
ENDBRANCH   2   3
ENDBRANCH   1   2
BRANCH   1  13
ATOM     13  C   UNL     1      11.182  15.924  -5.658  1.00  0.00     0.000 C 
BRANCH  13  14
ATOM     14  C   UNL     1      11.307  15.193  -4.306  1.00  0.00     0.000 C 
BRANCH  14  15
ATOM     15  C   UNL     1      11.193  13.661  -4.382  1.00  0.00     0.000 C 
BRANCH  15  16
ATOM     16  C   UNL     1      10.760  13.028  -3.051  1.00  0.00     0.000 C 
BRANCH  16  17
ATOM     17  C   UNL     1      10.892  14.035  -1.898  1.00  0.00     0.000 C 
BRANCH  17  18
ATOM     18  C   UNL     1      10.579  13.413  -0.526  1.00  0.00     0.000 C 
BRANCH  18  19
ATOM     19  C   UNL     1      11.746  13.443   0.479  1.00  0.00     0.000 C 
BRANCH  19  20
ATOM     20  C   UNL     1      11.403  14.148   1.809  1.00  0.00     0.006 C 
BRANCH  20  21
ATOM     21  C   UNL     1       9.984  14.731   1.811  1.00  0.00     0.053 C 
BRANCH  21  22
ATOM     22  C   UNL     1      10.032  16.226   1.754  1.00  0.00     0.041 C 
ATOM     23  O   UNL     1       8.995  16.901   1.987  1.00  0.00    -0.550 OA
ATOM     24  O   UNL     1      11.231  16.874   1.491  1.00  0.00    -0.550 OA
ENDBRANCH  21  22
ENDBRANCH  20  21
ENDBRANCH  19  20
ENDBRANCH  18  19
ENDBRANCH  17  18
ENDBRANCH  16  17
ENDBRANCH  15  16
ENDBRANCH  14  15
ENDBRANCH  13  14
ENDBRANCH   1  13
TORSDOF 20
ENDMDL
MODEL 5
REMARK VINA RESULT:     9.761      7.096     12.642
REMARK INTER + INTRA:          20.162
REMARK INTER:                  21.325
REMARK INTRA:                  -1.163
REMARK UNBOUND:                -1.011
REMARK SMILES CCCCCCCCCCCCCCCCCCCCCC(=O)[O-]
REMARK SMILES IDX 12 1 11 2 10 3 9 4 8 5 7 6 6 7 5 8 4 9 3 10 2 11 1 12 13 13
REMARK SMILES IDX 14 14 15 15 16 16 17 17 18 18 19 19 20 20 21 21 22 22 23 23
REMARK SMILES IDX 24 24
REMARK H PARENT
REMARK Flexibility Score: inf
ROOT
ATOM      1  C   UNL     1      18.256  16.524 -12.953  1.00  0.00     0.000 C 
ENDROOT
BRANCH   1   2
ATOM      2  C   UNL     1      18.714  15.062 -13.067  1.00  0.00     0.000 C 
BRANCH   2   3
ATOM      3  C   UNL     1      17.513  14.125 -13.267  1.00  0.00     0.000 C 
BRANCH   3   4
ATOM      4  C   UNL     1      16.167  14.865 -13.219  1.00  0.00    -0.000 C 
BRANCH   4   5
ATOM      5  C   UNL     1      15.325  14.479 -11.989  1.00  0.00    -0.000 C 
BRANCH   5   6
ATOM      6  C   UNL     1      15.289  15.589 -10.928  1.00  0.00    -0.000 C 
BRANCH   6   7
ATOM      7  C   UNL     1      14.741  15.102  -9.576  1.00  0.00    -0.000 C 
BRANCH   7   8
ATOM      8  C   UNL     1      15.293  15.903  -8.385  1.00  0.00    -0.000 C 
BRANCH   8   9
ATOM      9  C   UNL     1      14.298  16.030  -7.211  1.00  0.00    -0.000 C 
BRANCH   9  10
ATOM     10  C   UNL     1      14.427  17.378  -6.483  1.00  0.00    -0.000 C 
BRANCH  10  11
ATOM     11  C   UNL     1      13.115  17.814  -5.811  1.00  0.00    -0.003 C 
ATOM     12  C   UNL     1      12.095  16.680  -5.721  1.00  0.00     0.004 C 
ENDBRANCH  10  11
ENDBRANCH   9  10
ENDBRANCH   8   9
ENDBRANCH   7   8
ENDBRANCH   6   7
ENDBRANCH   5   6
ENDBRANCH   4   5
ENDBRANCH   3   4
ENDBRANCH   2   3
ENDBRANCH   1   2
BRANCH   1  13
ATOM     13  C   UNL     1      18.304  17.055 -11.510  1.00  0.00     0.000 C 
BRANCH  13  14
ATOM     14  C   UNL     1      18.031  18.566 -11.361  1.00  0.00     0.000 C 
BRANCH  14  15
ATOM     15  C   UNL     1      18.530  19.435 -12.529  1.00  0.00     0.000 C 
BRANCH  15  16
ATOM     16  C   UNL     1      19.952  19.971 -12.310  1.00  0.00     0.000 C 
BRANCH  16  17
ATOM     17  C   UNL     1      20.008  21.488 -12.549  1.00  0.00     0.000 C 
BRANCH  17  18
ATOM     18  C   UNL     1      18.615  22.115 -12.727  1.00  0.00     0.000 C 
BRANCH  18  19
ATOM     19  C   UNL     1      18.612  23.645 -12.906  1.00  0.00     0.000 C 
BRANCH  19  20
ATOM     20  C   UNL     1      18.062  24.110 -14.271  1.00  0.00     0.006 C 
BRANCH  20  21
ATOM     21  C   UNL     1      18.444  25.562 -14.590  1.00  0.00     0.053 C 
BRANCH  21  22
ATOM     22  C   UNL     1      19.036  25.657 -15.961  1.00  0.00     0.041 C 
ATOM     23  O   UNL     1      18.320  26.008 -16.935  1.00  0.00    -0.550 OA
ATOM     24  O   UNL     1      20.387  25.406 -16.155  1.00  0.00    -0.550 OA
ENDBRANCH  21  22
ENDBRANCH  20  21
ENDBRANCH  19  20
ENDBRANCH  18  19
ENDBRANCH  17  18
ENDBRANCH  16  17
ENDBRANCH  15  16
ENDBRANCH  14  15
ENDBRANCH  13  14
ENDBRANCH   1  13
TORSDOF 20
ENDMDL
MODEL 6
REMARK VINA RESULT:    10.508      4.174      7.749
REMARK INTER + INTRA:          21.782
REMARK INTER:                  22.952
REMARK INTRA:                  -1.170
REMARK UNBOUND:                -1.011
REMARK SMILES CCCCCCCCCCCCCCCCCCCCCC(=O)[O-]
REMARK SMILES IDX 12 1 11 2 10 3 9 4 8 5 7 6 6 7 5 8 4 9 3 10 2 11 1 12 13 13
REMARK SMILES IDX 14 14 15 15 16 16 17 17 18 18 19 19 20 20 21 21 22 22 23 23
REMARK SMILES IDX 24 24
REMARK H PARENT
REMARK Flexibility Score: inf
ROOT
ATOM      1  C   UNL     1      18.065  16.679 -13.032  1.00  0.00     0.000 C 
ENDROOT
BRANCH   1   2
ATOM      2  C   UNL     1      18.768  17.100 -11.733  1.00  0.00     0.000 C 
BRANCH   2   3
ATOM      3  C   UNL     1      18.482  18.574 -11.407  1.00  0.00     0.000 C 
BRANCH   3   4
ATOM      4  C   UNL     1      18.631  19.494 -12.630  1.00  0.00    -0.000 C 
BRANCH   4   5
ATOM      5  C   UNL     1      19.890  20.377 -12.554  1.00  0.00    -0.000 C 
BRANCH   5   6
ATOM      6  C   UNL     1      19.559  21.850 -12.271  1.00  0.00    -0.000 C 
BRANCH   6   7
ATOM      7  C   UNL     1      18.366  22.360 -13.095  1.00  0.00    -0.000 C 
BRANCH   7   8
ATOM      8  C   UNL     1      18.414  23.878 -13.339  1.00  0.00    -0.000 C 
BRANCH   8   9
ATOM      9  C   UNL     1      17.937  24.293 -14.748  1.00  0.00    -0.000 C 
BRANCH   9  10
ATOM     10  C   UNL     1      18.369  25.725 -15.109  1.00  0.00    -0.000 C 
BRANCH  10  11
ATOM     11  C   UNL     1      19.375  25.763 -16.270  1.00  0.00    -0.003 C 
ATOM     12  C   UNL     1      20.806  25.469 -15.819  1.00  0.00     0.004 C 
ENDBRANCH  10  11
ENDBRANCH   9  10
ENDBRANCH   8   9
ENDBRANCH   7   8
ENDBRANCH   6   7
ENDBRANCH   5   6
ENDBRANCH   4   5
ENDBRANCH   3   4
ENDBRANCH   2   3
ENDBRANCH   1   2
BRANCH   1  13
ATOM     13  C   UNL     1      18.262  15.191 -13.365  1.00  0.00     0.000 C 
BRANCH  13  14
ATOM     14  C   UNL     1      16.972  14.347 -13.375  1.00  0.00     0.000 C 
BRANCH  14  15
ATOM     15  C   UNL     1      15.774  14.981 -12.647  1.00  0.00     0.000 C 
BRANCH  15  16
ATOM     16  C   UNL     1      14.948  13.958 -11.853  1.00  0.00     0.000 C 
BRANCH  16  17
ATOM     17  C   UNL     1      14.236  14.631 -10.669  1.00  0.00     0.000 C 
BRANCH  17  18
ATOM     18  C   UNL     1      15.193  15.452  -9.787  1.00  0.00     0.000 C 
BRANCH  18  19
ATOM     19  C   UNL     1      15.282  14.988  -8.321  1.00  0.00     0.000 C 
BRANCH  19  20
ATOM     20  C   UNL     1      14.984  16.104  -7.296  1.00  0.00     0.006 C 
BRANCH  20  21
ATOM     21  C   UNL     1      13.493  16.465  -7.246  1.00  0.00     0.053 C 
BRANCH  21  22
ATOM     22  C   UNL     1      13.220  17.398  -6.108  1.00  0.00     0.041 C 
ATOM     23  O   UNL     1      12.463  17.043  -5.167  1.00  0.00    -0.550 OA
ATOM     24  O   UNL     1      13.838  18.641  -6.064  1.00  0.00    -0.550 OA
ENDBRANCH  21  22
ENDBRANCH  20  21
ENDBRANCH  19  20
ENDBRANCH  18  19
ENDBRANCH  17  18
ENDBRANCH  16  17
ENDBRANCH  15  16
ENDBRANCH  14  15
ENDBRANCH  13  14
ENDBRANCH   1  13
TORSDOF 20
ENDMDL
