MODEL 1
REMARK VINA RESULT:    -8.969      0.000      0.000
REMARK INTER + INTRA:          -9.454
REMARK INTER:                  -9.755
REMARK INTRA:                   0.301
REMARK UNBOUND:                 0.301
REMARK SMILES CC1(C)CC[C@@]2(C(=O)[O-])CC[C@]3(C)C(=CC[C@H]4[C@@]5(C)CC[C@@H](O)C(C)(C)[C@@H]5CC[C@]43C)[C@@H]2C1
REMARK SMILES IDX 6 1 5 2 10 3 32 4 4 5 11 6 14 7 33 8 2 9 12 10 15 11 1 12
REMARK SMILES IDX 3 13 13 14 30 15 16 16 17 17 29 18 31 19 18 20 28 21 27 22
REMARK SMILES IDX 20 23 19 24 24 25 21 26 22 27 25 28 26 29 7 30 8 31 9 32
REMARK SMILES IDX 23 33
REMARK H PARENT 23 34
REMARK Flexibility Score: inf
ROOT
ATOM      1  C   UNL     1      14.178  43.791  31.244  1.00  0.00     0.017 C 
ATOM      2  C   UNL     1      14.242  42.298  30.821  1.00  0.00     0.014 C 
ATOM      3  C   UNL     1      15.355  44.095  32.183  1.00  0.00     0.014 C 
ATOM      4  C   UNL     1      14.357  44.660  29.966  1.00  0.00     0.028 C 
ATOM      5  C   UNL     1      13.129  41.940  29.823  1.00  0.00     0.007 C 
ATOM      6  C   UNL     1      15.282  45.532  32.711  1.00  0.00     0.013 C 
ATOM      7  C   UNL     1      14.616  46.154  30.260  1.00  0.00    -0.064 C 
ATOM      8  C   UNL     1      13.216  44.352  28.944  1.00  0.00     0.015 C 
ATOM      9  C   UNL     1      13.126  42.843  28.560  1.00  0.00    -0.035 C 
ATOM     10  C   UNL     1      15.172  46.674  31.618  1.00  0.00    -0.006 C 
ATOM     11  C   UNL     1      14.632  47.019  29.222  1.00  0.00    -0.027 C 
ATOM     12  C   UNL     1      11.807  42.610  27.793  1.00  0.00     0.011 C 
ATOM     13  C   UNL     1      14.292  42.448  27.620  1.00  0.00     0.011 C 
ATOM     14  C   UNL     1      14.122  47.705  32.178  1.00  0.00     0.017 C 
ATOM     15  C   UNL     1      16.605  47.393  31.360  1.00  0.00    -0.020 C 
ATOM     16  C   UNL     1      15.179  48.404  29.361  1.00  0.00     0.032 C 
ATOM     17  C   UNL     1      16.571  48.361  30.050  1.00  0.00     0.006 C 
ATOM     18  C   UNL     1      17.069  48.106  32.692  1.00  0.00     0.008 C 
ATOM     19  C   UNL     1      17.673  46.293  31.063  1.00  0.00     0.012 C 
ATOM     20  C   UNL     1      17.350  49.770  30.110  1.00  0.00    -0.025 C 
ATOM     21  C   UNL     1      17.976  49.311  32.527  1.00  0.00     0.005 C 
ATOM     22  C   UNL     1      17.328  50.330  31.573  1.00  0.00     0.003 C 
ATOM     23  C   UNL     1      16.698  50.841  29.172  1.00  0.00     0.010 C 
ATOM     24  C   UNL     1      18.797  49.523  29.570  1.00  0.00     0.012 C 
ATOM     25  C   UNL     1      17.808  51.828  31.804  1.00  0.00    -0.006 C 
ATOM     26  C   UNL     1      17.305  52.241  29.312  1.00  0.00     0.033 C 
ATOM     27  C   UNL     1      17.153  52.774  30.742  1.00  0.00     0.120 C 
ATOM     28  C   UNL     1      19.354  52.009  31.779  1.00  0.00     0.014 C 
ATOM     29  C   UNL     1      17.339  52.308  33.211  1.00  0.00     0.014 C 
ENDROOT
BRANCH   1  30
ATOM     30  C   UNL     1      12.862  44.041  31.984  1.00  0.00     0.048 C 
ATOM     31  O   UNL     1      12.719  43.637  33.170  1.00  0.00    -0.550 OA
ATOM     32  O   UNL     1      11.836  44.780  31.408  1.00  0.00    -0.550 OA
ENDBRANCH   1  30
BRANCH  27  33
ATOM     33  O   UNL     1      15.779  52.946  31.003  1.00  0.00    -0.393 OA
ATOM     34  H   UNL     1      15.367  53.346  30.194  1.00  0.00     0.210 HD
ENDBRANCH  27  33
TORSDOF 2
ENDMDL
MODEL 2
REMARK VINA RESULT:    -8.651      1.698      2.595
REMARK INTER + INTRA:          -9.108
REMARK INTER:                  -9.280
REMARK INTRA:                   0.172
REMARK UNBOUND:                 0.301
REMARK SMILES CC1(C)CC[C@@]2(C(=O)[O-])CC[C@]3(C)C(=CC[C@H]4[C@@]5(C)CC[C@@H](O)C(C)(C)[C@@H]5CC[C@]43C)[C@@H]2C1
REMARK SMILES IDX 6 1 5 2 10 3 32 4 4 5 11 6 14 7 33 8 2 9 12 10 15 11 1 12
REMARK SMILES IDX 3 13 13 14 30 15 16 16 17 17 29 18 31 19 18 20 28 21 27 22
REMARK SMILES IDX 20 23 19 24 24 25 21 26 22 27 25 28 26 29 7 30 8 31 9 32
REMARK SMILES IDX 23 33
REMARK H PARENT 23 34
REMARK Flexibility Score: inf
ROOT
ATOM      1  C   UNL     1      12.184  43.477  29.825  1.00  0.00     0.017 C 
ATOM      2  C   UNL     1      11.960  41.960  30.069  1.00  0.00     0.014 C 
ATOM      3  C   UNL     1      12.050  44.223  31.161  1.00  0.00     0.014 C 
ATOM      4  C   UNL     1      13.643  43.671  29.322  1.00  0.00     0.028 C 
ATOM      5  C   UNL     1      12.149  41.141  28.781  1.00  0.00     0.007 C 
ATOM      6  C   UNL     1      12.163  45.738  30.960  1.00  0.00     0.013 C 
ATOM      7  C   UNL     1      14.112  45.143  29.322  1.00  0.00    -0.064 C 
ATOM      8  C   UNL     1      13.860  42.885  27.989  1.00  0.00     0.015 C 
ATOM      9  C   UNL     1      13.531  41.365  28.112  1.00  0.00    -0.035 C 
ATOM     10  C   UNL     1      13.457  46.249  30.201  1.00  0.00    -0.006 C 
ATOM     11  C   UNL     1      15.305  45.437  28.759  1.00  0.00    -0.027 C 
ATOM     12  C   UNL     1      13.495  40.755  26.694  1.00  0.00     0.011 C 
ATOM     13  C   UNL     1      14.637  40.630  28.911  1.00  0.00     0.011 C 
ATOM     14  C   UNL     1      12.964  47.379  29.222  1.00  0.00     0.017 C 
ATOM     15  C   UNL     1      14.568  46.826  31.236  1.00  0.00    -0.020 C 
ATOM     16  C   UNL     1      15.980  46.753  28.988  1.00  0.00     0.032 C 
ATOM     17  C   UNL     1      16.000  47.084  30.506  1.00  0.00     0.006 C 
ATOM     18  C   UNL     1      13.971  48.087  31.978  1.00  0.00     0.008 C 
ATOM     19  C   UNL     1      14.828  45.754  32.342  1.00  0.00     0.012 C 
ATOM     20  C   UNL     1      16.848  48.395  30.909  1.00  0.00    -0.025 C 
ATOM     21  C   UNL     1      14.973  49.117  32.462  1.00  0.00     0.005 C 
ATOM     22  C   UNL     1      15.875  49.560  31.296  1.00  0.00     0.003 C 
ATOM     23  C   UNL     1      17.755  48.891  29.734  1.00  0.00     0.010 C 
ATOM     24  C   UNL     1      17.808  47.985  32.074  1.00  0.00     0.012 C 
ATOM     25  C   UNL     1      16.491  51.016  31.471  1.00  0.00    -0.006 C 
ATOM     26  C   UNL     1      18.460  50.223  30.013  1.00  0.00     0.033 C 
ATOM     27  C   UNL     1      17.448  51.344  30.277  1.00  0.00     0.120 C 
ATOM     28  C   UNL     1      17.246  51.225  32.816  1.00  0.00     0.014 C 
ATOM     29  C   UNL     1      15.341  52.067  31.453  1.00  0.00     0.014 C 
ENDROOT
BRANCH   1  30
ATOM     30  C   UNL     1      11.120  43.986  28.851  1.00  0.00     0.048 C 
ATOM     31  O   UNL     1       9.905  43.980  29.186  1.00  0.00    -0.550 OA
ATOM     32  O   UNL     1      11.466  44.535  27.622  1.00  0.00    -0.550 OA
ENDBRANCH   1  30
BRANCH  27  33
ATOM     33  O   UNL     1      16.715  51.562  29.093  1.00  0.00    -0.393 OA
ATOM     34  H   UNL     1      15.987  52.203  29.303  1.00  0.00     0.210 HD
ENDBRANCH  27  33
TORSDOF 2
ENDMDL
MODEL 3
REMARK VINA RESULT:    -8.318      1.612      8.014
REMARK INTER + INTRA:          -8.746
REMARK INTER:                  -8.885
REMARK INTRA:                   0.139
REMARK UNBOUND:                 0.301
REMARK SMILES CC1(C)CC[C@@]2(C(=O)[O-])CC[C@]3(C)C(=CC[C@H]4[C@@]5(C)CC[C@@H](O)C(C)(C)[C@@H]5CC[C@]43C)[C@@H]2C1
REMARK SMILES IDX 6 1 5 2 10 3 32 4 4 5 11 6 14 7 33 8 2 9 12 10 15 11 1 12
REMARK SMILES IDX 3 13 13 14 30 15 16 16 17 17 29 18 31 19 18 20 28 21 27 22
REMARK SMILES IDX 20 23 19 24 24 25 21 26 22 27 25 28 26 29 7 30 8 31 9 32
REMARK SMILES IDX 23 33
REMARK H PARENT 23 34
REMARK Flexibility Score: inf
ROOT
ATOM      1  C   UNL     1      17.200  50.060  31.140  1.00  0.00     0.017 C 
ATOM      2  C   UNL     1      18.566  50.767  30.925  1.00  0.00     0.014 C 
ATOM      3  C   UNL     1      16.400  50.112  29.830  1.00  0.00     0.014 C 
ATOM      4  C   UNL     1      17.479  48.565  31.463  1.00  0.00     0.028 C 
ATOM      5  C   UNL     1      19.451  50.691  32.181  1.00  0.00     0.007 C 
ATOM      6  C   UNL     1      15.000  49.517  30.015  1.00  0.00     0.013 C 
ATOM      7  C   UNL     1      16.221  47.669  31.406  1.00  0.00    -0.064 C 
ATOM      8  C   UNL     1      18.342  48.448  32.760  1.00  0.00     0.015 C 
ATOM      9  C   UNL     1      19.683  49.240  32.679  1.00  0.00    -0.035 C 
ATOM     10  C   UNL     1      14.937  48.050  30.612  1.00  0.00    -0.006 C 
ATOM     11  C   UNL     1      16.326  46.387  31.820  1.00  0.00    -0.027 C 
ATOM     12  C   UNL     1      20.305  49.298  34.091  1.00  0.00     0.011 C 
ATOM     13  C   UNL     1      20.691  48.513  31.753  1.00  0.00     0.011 C 
ATOM     14  C   UNL     1      13.746  48.056  31.643  1.00  0.00     0.017 C 
ATOM     15  C   UNL     1      14.688  46.943  29.450  1.00  0.00    -0.020 C 
ATOM     16  C   UNL     1      15.271  45.372  31.511  1.00  0.00     0.032 C 
ATOM     17  C   UNL     1      14.906  45.426  30.001  1.00  0.00     0.006 C 
ATOM     18  C   UNL     1      13.279  47.204  28.785  1.00  0.00     0.008 C 
ATOM     19  C   UNL     1      15.747  47.154  28.321  1.00  0.00     0.012 C 
ATOM     20  C   UNL     1      13.903  44.269  29.498  1.00  0.00    -0.025 C 
ATOM     21  C   UNL     1      12.587  45.997  28.183  1.00  0.00     0.005 C 
ATOM     22  C   UNL     1      12.483  44.875  29.231  1.00  0.00     0.003 C 
ATOM     23  C   UNL     1      13.750  43.124  30.555  1.00  0.00     0.010 C 
ATOM     24  C   UNL     1      14.543  43.622  28.225  1.00  0.00     0.012 C 
ATOM     25  C   UNL     1      11.279  43.866  28.982  1.00  0.00    -0.006 C 
ATOM     26  C   UNL     1      12.688  42.081  30.192  1.00  0.00     0.033 C 
ATOM     27  C   UNL     1      11.302  42.724  30.051  1.00  0.00     0.120 C 
ATOM     28  C   UNL     1      11.260  43.243  27.555  1.00  0.00     0.014 C 
ATOM     29  C   UNL     1       9.928  44.627  29.139  1.00  0.00     0.014 C 
ENDROOT
BRANCH   1  30
ATOM     30  C   UNL     1      16.427  50.797  32.236  1.00  0.00     0.048 C 
ATOM     31  O   UNL     1      16.126  52.012  32.086  1.00  0.00    -0.550 OA
ATOM     32  O   UNL     1      15.971  50.137  33.370  1.00  0.00    -0.550 OA
ENDBRANCH   1  30
BRANCH  27  33
ATOM     33  O   UNL     1      10.915  43.212  31.316  1.00  0.00    -0.393 OA
ATOM     34  H   UNL     1       9.980  43.537  31.239  1.00  0.00     0.210 HD
ENDBRANCH  27  33
TORSDOF 2
ENDMDL
MODEL 4
REMARK VINA RESULT:    -8.263      2.074      3.445
REMARK INTER + INTRA:          -8.686
REMARK INTER:                  -8.833
REMARK INTRA:                   0.147
REMARK UNBOUND:                 0.301
REMARK SMILES CC1(C)CC[C@@]2(C(=O)[O-])CC[C@]3(C)C(=CC[C@H]4[C@@]5(C)CC[C@@H](O)C(C)(C)[C@@H]5CC[C@]43C)[C@@H]2C1
REMARK SMILES IDX 6 1 5 2 10 3 32 4 4 5 11 6 14 7 33 8 2 9 12 10 15 11 1 12
REMARK SMILES IDX 3 13 13 14 30 15 16 16 17 17 29 18 31 19 18 20 28 21 27 22
REMARK SMILES IDX 20 23 19 24 24 25 21 26 22 27 25 28 26 29 7 30 8 31 9 32
REMARK SMILES IDX 23 33
REMARK H PARENT 23 34
REMARK Flexibility Score: inf
ROOT
ATOM      1  C   UNL     1      13.382  45.539  29.057  1.00  0.00     0.017 C 
ATOM      2  C   UNL     1      12.249  45.178  28.058  1.00  0.00     0.014 C 
ATOM      3  C   UNL     1      14.560  46.143  28.278  1.00  0.00     0.014 C 
ATOM      4  C   UNL     1      12.842  46.634  30.020  1.00  0.00     0.028 C 
ATOM      5  C   UNL     1      11.006  44.630  28.779  1.00  0.00     0.007 C 
ATOM      6  C   UNL     1      15.747  46.425  29.206  1.00  0.00     0.013 C 
ATOM      7  C   UNL     1      13.938  47.310  30.874  1.00  0.00    -0.064 C 
ATOM      8  C   UNL     1      11.601  46.097  30.802  1.00  0.00     0.015 C 
ATOM      9  C   UNL     1      10.458  45.591  29.869  1.00  0.00    -0.035 C 
ATOM     10  C   UNL     1      15.444  47.319  30.479  1.00  0.00    -0.006 C 
ATOM     11  C   UNL     1      13.557  48.163  31.850  1.00  0.00    -0.027 C 
ATOM     12  C   UNL     1       9.428  44.824  30.726  1.00  0.00     0.011 C 
ATOM     13  C   UNL     1       9.724  46.784  29.208  1.00  0.00     0.011 C 
ATOM     14  C   UNL     1      16.234  46.655  31.669  1.00  0.00     0.017 C 
ATOM     15  C   UNL     1      15.921  48.856  30.256  1.00  0.00    -0.020 C 
ATOM     16  C   UNL     1      14.530  49.092  32.506  1.00  0.00     0.032 C 
ATOM     17  C   UNL     1      15.363  49.839  31.427  1.00  0.00     0.006 C 
ATOM     18  C   UNL     1      17.490  48.883  30.067  1.00  0.00     0.008 C 
ATOM     19  C   UNL     1      15.313  49.381  28.917  1.00  0.00     0.012 C 
ATOM     20  C   UNL     1      16.332  50.996  31.992  1.00  0.00    -0.025 C 
ATOM     21  C   UNL     1      18.193  50.162  30.479  1.00  0.00     0.005 C 
ATOM     22  C   UNL     1      17.824  50.520  31.930  1.00  0.00     0.003 C 
ATOM     23  C   UNL     1      16.003  51.364  33.478  1.00  0.00     0.010 C 
ATOM     24  C   UNL     1      16.064  52.282  31.142  1.00  0.00     0.012 C 
ATOM     25  C   UNL     1      18.918  51.399  32.678  1.00  0.00    -0.006 C 
ATOM     26  C   UNL     1      16.997  52.345  34.110  1.00  0.00     0.033 C 
ATOM     27  C   UNL     1      18.419  51.772  34.114  1.00  0.00     0.120 C 
ATOM     28  C   UNL     1      19.319  52.694  31.914  1.00  0.00     0.014 C 
ATOM     29  C   UNL     1      20.226  50.566  32.838  1.00  0.00     0.014 C 
ENDROOT
BRANCH   1  30
ATOM     30  C   UNL     1      13.843  44.264  29.766  1.00  0.00     0.048 C 
ATOM     31  O   UNL     1      14.260  43.284  29.091  1.00  0.00    -0.550 OA
ATOM     32  O   UNL     1      13.892  44.182  31.152  1.00  0.00    -0.550 OA
ENDBRANCH   1  30
BRANCH  27  33
ATOM     33  O   UNL     1      18.435  50.644  34.960  1.00  0.00    -0.393 OA
ATOM     34  H   UNL     1      17.668  50.067  34.705  1.00  0.00     0.210 HD
ENDBRANCH  27  33
TORSDOF 2
ENDMDL
MODEL 5
REMARK VINA RESULT:    -8.237      1.687      8.149
REMARK INTER + INTRA:          -8.657
REMARK INTER:                  -8.805
REMARK INTRA:                   0.148
REMARK UNBOUND:                 0.301
REMARK SMILES CC1(C)CC[C@@]2(C(=O)[O-])CC[C@]3(C)C(=CC[C@H]4[C@@]5(C)CC[C@@H](O)C(C)(C)[C@@H]5CC[C@]43C)[C@@H]2C1
REMARK SMILES IDX 6 1 5 2 10 3 32 4 4 5 11 6 14 7 33 8 2 9 12 10 15 11 1 12
REMARK SMILES IDX 3 13 13 14 30 15 16 16 17 17 29 18 31 19 18 20 28 21 27 22
REMARK SMILES IDX 20 23 19 24 24 25 21 26 22 27 25 28 26 29 7 30 8 31 9 32
REMARK SMILES IDX 23 33
REMARK H PARENT 23 34
REMARK Flexibility Score: inf
ROOT
ATOM      1  C   UNL     1      17.802  49.879  31.056  1.00  0.00     0.017 C 
ATOM      2  C   UNL     1      18.983  50.437  31.895  1.00  0.00     0.014 C 
ATOM      3  C   UNL     1      18.218  48.533  30.443  1.00  0.00     0.014 C 
ATOM      4  C   UNL     1      16.612  49.610  32.021  1.00  0.00     0.028 C 
ATOM      5  C   UNL     1      18.611  51.755  32.597  1.00  0.00     0.007 C 
ATOM      6  C   UNL     1      17.123  47.985  29.521  1.00  0.00     0.013 C 
ATOM      7  C   UNL     1      15.474  48.776  31.391  1.00  0.00    -0.064 C 
ATOM      8  C   UNL     1      16.179  50.938  32.721  1.00  0.00     0.015 C 
ATOM      9  C   UNL     1      17.345  51.637  33.487  1.00  0.00    -0.035 C 
ATOM     10  C   UNL     1      15.676  47.850  30.156  1.00  0.00    -0.006 C 
ATOM     11  C   UNL     1      14.330  48.619  32.092  1.00  0.00    -0.027 C 
ATOM     12  C   UNL     1      16.889  53.058  33.882  1.00  0.00     0.011 C 
ATOM     13  C   UNL     1      17.679  50.871  34.791  1.00  0.00     0.011 C 
ATOM     14  C   UNL     1      14.672  48.341  29.046  1.00  0.00     0.017 C 
ATOM     15  C   UNL     1      15.355  46.318  30.588  1.00  0.00    -0.020 C 
ATOM     16  C   UNL     1      13.314  47.587  31.717  1.00  0.00     0.032 C 
ATOM     17  C   UNL     1      14.006  46.213  31.493  1.00  0.00     0.006 C 
ATOM     18  C   UNL     1      15.351  45.410  29.295  1.00  0.00     0.008 C 
ATOM     19  C   UNL     1      16.524  45.793  31.483  1.00  0.00     0.012 C 
ATOM     20  C   UNL     1      13.005  44.974  31.249  1.00  0.00    -0.025 C 
ATOM     21  C   UNL     1      14.486  44.166  29.351  1.00  0.00     0.005 C 
ATOM     22  C   UNL     1      13.046  44.545  29.743  1.00  0.00     0.003 C 
ATOM     23  C   UNL     1      11.525  45.335  31.609  1.00  0.00     0.010 C 
ATOM     24  C   UNL     1      13.437  43.830  32.224  1.00  0.00     0.012 C 
ATOM     25  C   UNL     1      11.945  43.519  29.231  1.00  0.00    -0.006 C 
ATOM     26  C   UNL     1      10.513  44.243  31.245  1.00  0.00     0.033 C 
ATOM     27  C   UNL     1      10.529  43.949  29.740  1.00  0.00     0.120 C 
ATOM     28  C   UNL     1      12.218  42.042  29.639  1.00  0.00     0.014 C 
ATOM     29  C   UNL     1      11.908  43.537  27.673  1.00  0.00     0.014 C 
ENDROOT
BRANCH   1  30
ATOM     30  C   UNL     1      17.479  50.868  29.934  1.00  0.00     0.048 C 
ATOM     31  O   UNL     1      18.370  51.193  29.104  1.00  0.00    -0.550 OA
ATOM     32  O   UNL     1      16.193  51.364  29.754  1.00  0.00    -0.550 OA
ENDBRANCH   1  30
BRANCH  27  33
ATOM     33  O   UNL     1      10.080  45.100  29.062  1.00  0.00    -0.393 OA
ATOM     34  H   UNL     1       9.332  44.828  28.470  1.00  0.00     0.210 HD
ENDBRANCH  27  33
TORSDOF 2
ENDMDL
MODEL 6
REMARK VINA RESULT:    -8.194      1.279      8.238
REMARK INTER + INTRA:          -8.611
REMARK INTER:                  -8.755
REMARK INTRA:                   0.144
REMARK UNBOUND:                 0.301
REMARK SMILES CC1(C)CC[C@@]2(C(=O)[O-])CC[C@]3(C)C(=CC[C@H]4[C@@]5(C)CC[C@@H](O)C(C)(C)[C@@H]5CC[C@]43C)[C@@H]2C1
REMARK SMILES IDX 6 1 5 2 10 3 32 4 4 5 11 6 14 7 33 8 2 9 12 10 15 11 1 12
REMARK SMILES IDX 3 13 13 14 30 15 16 16 17 17 29 18 31 19 18 20 28 21 27 22
REMARK SMILES IDX 20 23 19 24 24 25 21 26 22 27 25 28 26 29 7 30 8 31 9 32
REMARK SMILES IDX 23 33
REMARK H PARENT 23 34
REMARK Flexibility Score: inf
ROOT
ATOM      1  C   UNL     1      18.021  51.067  31.186  1.00  0.00     0.017 C 
ATOM      2  C   UNL     1      19.331  51.678  31.753  1.00  0.00     0.014 C 
ATOM      3  C   UNL     1      18.377  50.056  30.085  1.00  0.00     0.014 C 
ATOM      4  C   UNL     1      17.319  50.286  32.334  1.00  0.00     0.028 C 
ATOM      5  C   UNL     1      19.051  52.651  32.911  1.00  0.00     0.007 C 
ATOM      6  C   UNL     1      17.114  49.496  29.421  1.00  0.00     0.013 C 
ATOM      7  C   UNL     1      16.166  49.376  31.855  1.00  0.00    -0.064 C 
ATOM      8  C   UNL     1      16.982  51.254  33.513  1.00  0.00     0.015 C 
ATOM      9  C   UNL     1      18.230  52.012  34.062  1.00  0.00    -0.035 C 
ATOM     10  C   UNL     1      16.037  48.858  30.393  1.00  0.00    -0.006 C 
ATOM     11  C   UNL     1      15.394  48.775  32.787  1.00  0.00    -0.027 C 
ATOM     12  C   UNL     1      17.746  53.136  35.003  1.00  0.00     0.011 C 
ATOM     13  C   UNL     1      19.126  51.059  34.891  1.00  0.00     0.011 C 
ATOM     14  C   UNL     1      14.636  49.339  29.858  1.00  0.00     0.017 C 
ATOM     15  C   UNL     1      16.126  47.236  30.399  1.00  0.00    -0.020 C 
ATOM     16  C   UNL     1      14.475  47.647  32.438  1.00  0.00     0.032 C 
ATOM     17  C   UNL     1      15.232  46.584  31.594  1.00  0.00     0.006 C 
ATOM     18  C   UNL     1      15.783  46.698  28.953  1.00  0.00     0.008 C 
ATOM     19  C   UNL     1      17.603  46.815  30.680  1.00  0.00     0.012 C 
ATOM     20  C   UNL     1      14.405  45.234  31.292  1.00  0.00    -0.025 C 
ATOM     21  C   UNL     1      15.191  45.304  28.879  1.00  0.00     0.005 C 
ATOM     22  C   UNL     1      13.956  45.208  29.791  1.00  0.00     0.003 C 
ATOM     23  C   UNL     1      13.123  45.120  32.184  1.00  0.00     0.010 C 
ATOM     24  C   UNL     1      15.327  44.031  31.677  1.00  0.00     0.012 C 
ATOM     25  C   UNL     1      12.907  44.098  29.348  1.00  0.00    -0.006 C 
ATOM     26  C   UNL     1      12.221  43.934  31.825  1.00  0.00     0.033 C 
ATOM     27  C   UNL     1      11.729  44.027  30.375  1.00  0.00     0.120 C 
ATOM     28  C   UNL     1      13.525  42.681  29.167  1.00  0.00     0.014 C 
ATOM     29  C   UNL     1      12.301  44.485  27.965  1.00  0.00     0.014 C 
ENDROOT
BRANCH   1  30
ATOM     30  C   UNL     1      17.168  52.188  30.588  1.00  0.00     0.048 C 
ATOM     31  O   UNL     1      17.617  52.881  29.636  1.00  0.00    -0.550 OA
ATOM     32  O   UNL     1      15.865  52.414  31.016  1.00  0.00    -0.550 OA
ENDBRANCH   1  30
BRANCH  27  33
ATOM     33  O   UNL     1      10.899  45.162  30.265  1.00  0.00    -0.393 OA
ATOM     34  H   UNL     1      10.508  45.336  31.161  1.00  0.00     0.210 HD
ENDBRANCH  27  33
TORSDOF 2
ENDMDL
MODEL 7
REMARK VINA RESULT:    -8.153      2.031      7.961
REMARK INTER + INTRA:          -8.567
REMARK INTER:                  -8.710
REMARK INTRA:                   0.143
REMARK UNBOUND:                 0.301
REMARK SMILES CC1(C)CC[C@@]2(C(=O)[O-])CC[C@]3(C)C(=CC[C@H]4[C@@]5(C)CC[C@@H](O)C(C)(C)[C@@H]5CC[C@]43C)[C@@H]2C1
REMARK SMILES IDX 6 1 5 2 10 3 32 4 4 5 11 6 14 7 33 8 2 9 12 10 15 11 1 12
REMARK SMILES IDX 3 13 13 14 30 15 16 16 17 17 29 18 31 19 18 20 28 21 27 22
REMARK SMILES IDX 20 23 19 24 24 25 21 26 22 27 25 28 26 29 7 30 8 31 9 32
REMARK SMILES IDX 23 33
REMARK H PARENT 23 34
REMARK Flexibility Score: inf
ROOT
ATOM      1  C   UNL     1      18.011  49.409  32.097  1.00  0.00     0.017 C 
ATOM      2  C   UNL     1      18.243  50.785  32.778  1.00  0.00     0.014 C 
ATOM      3  C   UNL     1      17.394  48.443  33.119  1.00  0.00     0.014 C 
ATOM      4  C   UNL     1      16.978  49.609  30.952  1.00  0.00     0.028 C 
ATOM      5  C   UNL     1      18.797  51.825  31.790  1.00  0.00     0.007 C 
ATOM      6  C   UNL     1      17.238  47.039  32.526  1.00  0.00     0.013 C 
ATOM      7  C   UNL     1      16.419  48.287  30.378  1.00  0.00    -0.064 C 
ATOM      8  C   UNL     1      17.527  50.630  29.905  1.00  0.00     0.015 C 
ATOM      9  C   UNL     1      17.908  52.007  30.531  1.00  0.00    -0.035 C 
ATOM     10  C   UNL     1      16.439  46.941  31.160  1.00  0.00    -0.006 C 
ATOM     11  C   UNL     1      15.634  48.344  29.280  1.00  0.00    -0.027 C 
ATOM     12  C   UNL     1      18.700  52.819  29.484  1.00  0.00     0.011 C 
ATOM     13  C   UNL     1      16.636  52.815  30.888  1.00  0.00     0.011 C 
ATOM     14  C   UNL     1      17.230  45.908  30.273  1.00  0.00     0.017 C 
ATOM     15  C   UNL     1      14.910  46.447  31.397  1.00  0.00    -0.020 C 
ATOM     16  C   UNL     1      14.802  47.179  28.846  1.00  0.00     0.032 C 
ATOM     17  C   UNL     1      14.004  46.615  30.055  1.00  0.00     0.006 C 
ATOM     18  C   UNL     1      14.931  44.985  31.996  1.00  0.00     0.008 C 
ATOM     19  C   UNL     1      14.253  47.353  32.485  1.00  0.00     0.012 C 
ATOM     20  C   UNL     1      12.937  45.463  29.692  1.00  0.00    -0.025 C 
ATOM     21  C   UNL     1      13.719  44.121  31.701  1.00  0.00     0.005 C 
ATOM     22  C   UNL     1      13.467  44.073  30.183  1.00  0.00     0.003 C 
ATOM     23  C   UNL     1      12.679  45.366  28.151  1.00  0.00     0.010 C 
ATOM     24  C   UNL     1      11.577  45.868  30.350  1.00  0.00     0.012 C 
ATOM     25  C   UNL     1      12.698  42.769  29.697  1.00  0.00    -0.006 C 
ATOM     26  C   UNL     1      11.794  44.183  27.743  1.00  0.00     0.033 C 
ATOM     27  C   UNL     1      12.423  42.847  28.158  1.00  0.00     0.120 C 
ATOM     28  C   UNL     1      11.362  42.504  30.450  1.00  0.00     0.014 C 
ATOM     29  C   UNL     1      13.592  41.518  29.950  1.00  0.00     0.014 C 
ENDROOT
BRANCH   1  30
ATOM     30  C   UNL     1      19.358  48.856  31.626  1.00  0.00     0.048 C 
ATOM     31  O   UNL     1      20.286  48.664  32.457  1.00  0.00    -0.550 OA
ATOM     32  O   UNL     1      19.565  48.478  30.304  1.00  0.00    -0.550 OA
ENDBRANCH   1  30
BRANCH  27  33
ATOM     33  O   UNL     1      13.617  42.678  27.426  1.00  0.00    -0.393 OA
ATOM     34  H   UNL     1      13.535  43.208  26.591  1.00  0.00     0.210 HD
ENDBRANCH  27  33
TORSDOF 2
ENDMDL
MODEL 8
REMARK VINA RESULT:    -7.922      1.577      1.903
REMARK INTER + INTRA:          -8.316
REMARK INTER:                  -8.533
REMARK INTRA:                   0.217
REMARK UNBOUND:                 0.301
REMARK SMILES CC1(C)CC[C@@]2(C(=O)[O-])CC[C@]3(C)C(=CC[C@H]4[C@@]5(C)CC[C@@H](O)C(C)(C)[C@@H]5CC[C@]43C)[C@@H]2C1
REMARK SMILES IDX 6 1 5 2 10 3 32 4 4 5 11 6 14 7 33 8 2 9 12 10 15 11 1 12
REMARK SMILES IDX 3 13 13 14 30 15 16 16 17 17 29 18 31 19 18 20 28 21 27 22
REMARK SMILES IDX 20 23 19 24 24 25 21 26 22 27 25 28 26 29 7 30 8 31 9 32
REMARK SMILES IDX 23 33
REMARK H PARENT 23 34
REMARK Flexibility Score: inf
ROOT
ATOM      1  C   UNL     1      12.334  45.508  31.774  1.00  0.00     0.017 C 
ATOM      2  C   UNL     1      11.988  43.995  31.723  1.00  0.00     0.014 C 
ATOM      3  C   UNL     1      13.204  45.781  33.010  1.00  0.00     0.014 C 
ATOM      4  C   UNL     1      13.182  45.850  30.515  1.00  0.00     0.028 C 
ATOM      5  C   UNL     1      11.173  43.638  30.468  1.00  0.00     0.007 C 
ATOM      6  C   UNL     1      13.490  47.278  33.163  1.00  0.00     0.013 C 
ATOM      7  C   UNL     1      13.853  47.240  30.574  1.00  0.00    -0.064 C 
ATOM      8  C   UNL     1      12.368  45.538  29.219  1.00  0.00     0.015 C 
ATOM      9  C   UNL     1      11.869  44.062  29.147  1.00  0.00    -0.035 C 
ATOM     10  C   UNL     1      14.124  48.003  31.904  1.00  0.00    -0.006 C 
ATOM     11  C   UNL     1      14.484  47.696  29.469  1.00  0.00    -0.027 C 
ATOM     12  C   UNL     1      10.847  43.946  27.996  1.00  0.00     0.011 C 
ATOM     13  C   UNL     1      13.043  43.103  28.830  1.00  0.00     0.011 C 
ATOM     14  C   UNL     1      13.391  49.392  31.793  1.00  0.00     0.017 C 
ATOM     15  C   UNL     1      15.726  48.208  32.077  1.00  0.00    -0.020 C 
ATOM     16  C   UNL     1      15.418  48.863  29.522  1.00  0.00     0.032 C 
ATOM     17  C   UNL     1      16.430  48.684  30.688  1.00  0.00     0.006 C 
ATOM     18  C   UNL     1      15.991  49.162  33.309  1.00  0.00     0.008 C 
ATOM     19  C   UNL     1      16.371  46.834  32.446  1.00  0.00     0.012 C 
ATOM     20  C   UNL     1      17.601  49.789  30.754  1.00  0.00    -0.025 C 
ATOM     21  C   UNL     1      17.270  49.975  33.264  1.00  0.00     0.005 C 
ATOM     22  C   UNL     1      17.342  50.769  31.948  1.00  0.00     0.003 C 
ATOM     23  C   UNL     1      17.683  50.636  29.440  1.00  0.00     0.010 C 
ATOM     24  C   UNL     1      18.957  49.019  30.876  1.00  0.00     0.012 C 
ATOM     25  C   UNL     1      18.229  52.087  32.035  1.00  0.00    -0.006 C 
ATOM     26  C   UNL     1      18.675  51.802  29.514  1.00  0.00     0.033 C 
ATOM     27  C   UNL     1      18.301  52.781  30.634  1.00  0.00     0.120 C 
ATOM     28  C   UNL     1      19.670  51.845  32.570  1.00  0.00     0.014 C 
ATOM     29  C   UNL     1      17.562  53.092  33.022  1.00  0.00     0.014 C 
ENDROOT
BRANCH   1  30
ATOM     30  C   UNL     1      11.035  46.310  31.881  1.00  0.00     0.048 C 
ATOM     31  O   UNL     1      10.742  47.157  30.994  1.00  0.00    -0.550 OA
ATOM     32  O   UNL     1      10.119  46.074  32.899  1.00  0.00    -0.550 OA
ENDBRANCH   1  30
BRANCH  27  33
ATOM     33  O   UNL     1      17.066  53.375  30.304  1.00  0.00    -0.393 OA
ATOM     34  H   UNL     1      17.021  54.251  30.767  1.00  0.00     0.210 HD
ENDBRANCH  27  33
TORSDOF 2
ENDMDL
MODEL 9
REMARK VINA RESULT:    -7.350      4.489      8.807
REMARK INTER + INTRA:          -7.693
REMARK INTER:                  -7.850
REMARK INTRA:                   0.157
REMARK UNBOUND:                 0.301
REMARK SMILES CC1(C)CC[C@@]2(C(=O)[O-])CC[C@]3(C)C(=CC[C@H]4[C@@]5(C)CC[C@@H](O)C(C)(C)[C@@H]5CC[C@]43C)[C@@H]2C1
REMARK SMILES IDX 6 1 5 2 10 3 32 4 4 5 11 6 14 7 33 8 2 9 12 10 15 11 1 12
REMARK SMILES IDX 3 13 13 14 30 15 16 16 17 17 29 18 31 19 18 20 28 21 27 22
REMARK SMILES IDX 20 23 19 24 24 25 21 26 22 27 25 28 26 29 7 30 8 31 9 32
REMARK SMILES IDX 23 33
REMARK H PARENT 23 34
REMARK Flexibility Score: inf
ROOT
ATOM      1  C   UNL     1      10.162  51.357  33.783  1.00  0.00     0.017 C 
ATOM      2  C   UNL     1      10.525  52.690  34.492  1.00  0.00     0.014 C 
ATOM      3  C   UNL     1      10.621  51.429  32.319  1.00  0.00     0.014 C 
ATOM      4  C   UNL     1      10.959  50.213  34.472  1.00  0.00     0.028 C 
ATOM      5  C   UNL     1      10.155  52.661  35.985  1.00  0.00     0.007 C 
ATOM      6  C   UNL     1      10.195  50.176  31.546  1.00  0.00     0.013 C 
ATOM      7  C   UNL     1      10.937  48.880  33.692  1.00  0.00    -0.064 C 
ATOM      8  C   UNL     1      10.576  50.127  35.984  1.00  0.00     0.015 C 
ATOM      9  C   UNL     1      10.791  51.470  36.749  1.00  0.00    -0.035 C 
ATOM     10  C   UNL     1      10.636  48.786  32.168  1.00  0.00    -0.006 C 
ATOM     11  C   UNL     1      11.468  47.784  34.278  1.00  0.00    -0.027 C 
ATOM     12  C   UNL     1      10.116  51.358  38.133  1.00  0.00     0.011 C 
ATOM     13  C   UNL     1      12.300  51.730  36.983  1.00  0.00     0.011 C 
ATOM     14  C   UNL     1       9.396  47.829  32.004  1.00  0.00     0.017 C 
ATOM     15  C   UNL     1      11.938  48.179  31.410  1.00  0.00    -0.020 C 
ATOM     16  C   UNL     1      11.776  46.546  33.498  1.00  0.00     0.032 C 
ATOM     17  C   UNL     1      12.569  46.911  32.212  1.00  0.00     0.006 C 
ATOM     18  C   UNL     1      11.563  47.884  29.903  1.00  0.00     0.008 C 
ATOM     19  C   UNL     1      13.053  49.273  31.374  1.00  0.00     0.012 C 
ATOM     20  C   UNL     1      13.113  45.653  31.363  1.00  0.00    -0.025 C 
ATOM     21  C   UNL     1      12.347  46.780  29.221  1.00  0.00     0.005 C 
ATOM     22  C   UNL     1      12.269  45.488  30.054  1.00  0.00     0.003 C 
ATOM     23  C   UNL     1      13.020  44.315  32.171  1.00  0.00     0.010 C 
ATOM     24  C   UNL     1      14.632  45.904  31.086  1.00  0.00     0.012 C 
ATOM     25  C   UNL     1      12.465  44.158  29.205  1.00  0.00    -0.006 C 
ATOM     26  C   UNL     1      13.377  43.069  31.353  1.00  0.00     0.033 C 
ATOM     27  C   UNL     1      12.443  42.909  30.147  1.00  0.00     0.120 C 
ATOM     28  C   UNL     1      13.763  44.140  28.347  1.00  0.00     0.014 C 
ATOM     29  C   UNL     1      11.281  44.008  28.202  1.00  0.00     0.014 C 
ENDROOT
BRANCH   1  30
ATOM     30  C   UNL     1       8.644  51.168  33.830  1.00  0.00     0.048 C 
ATOM     31  O   UNL     1       7.888  51.990  33.243  1.00  0.00    -0.550 OA
ATOM     32  O   UNL     1       8.069  50.060  34.440  1.00  0.00    -0.550 OA
ENDBRANCH   1  30
BRANCH  27  33
ATOM     33  O   UNL     1      11.141  42.666  30.630  1.00  0.00    -0.393 OA
ATOM     34  H   UNL     1      11.214  42.445  31.594  1.00  0.00     0.210 HD
ENDBRANCH  27  33
TORSDOF 2
ENDMDL
