MODEL 1
REMARK VINA RESULT:    -2.547      0.000      0.000
REMARK INTER + INTRA:          -5.520
REMARK INTER:                  -4.036
REMARK INTRA:                  -1.484
REMARK UNBOUND:                -1.484
REMARK SMILES CCCCCCCCCCCC=O
REMARK SMILES IDX 7 1 6 2 5 3 4 4 3 5 2 6 1 7 8 8 9 9 10 10 11 11 12 12 13 13
REMARK H PARENT
REMARK Flexibility Score: inf
ROOT
ATOM      1  C   UNL     1     146.592 141.673 139.010  1.00  0.00     0.000 C 
ENDROOT
BRANCH   1   2
ATOM      2  C   UNL     1     146.038 141.795 137.584  1.00  0.00     0.000 C 
BRANCH   2   3
ATOM      3  C   UNL     1     144.610 142.360 137.548  1.00  0.00    -0.000 C 
BRANCH   3   4
ATOM      4  C   UNL     1     144.091 142.756 138.942  1.00  0.00    -0.000 C 
BRANCH   4   5
ATOM      5  C   UNL     1     143.814 144.269 139.053  1.00  0.00    -0.000 C 
BRANCH   5   6
ATOM      6  C   UNL     1     145.089 145.120 139.182  1.00  0.00    -0.003 C 
ATOM      7  C   UNL     1     145.705 145.067 140.578  1.00  0.00     0.004 C 
ENDBRANCH   5   6
ENDBRANCH   4   5
ENDBRANCH   3   4
ENDBRANCH   2   3
ENDBRANCH   1   2
BRANCH   1   8
ATOM      8  C   UNL     1     147.955 142.364 139.131  1.00  0.00     0.000 C 
BRANCH   8   9
ATOM      9  C   UNL     1     148.130 143.431 138.040  1.00  0.00     0.000 C 
BRANCH   9  10
ATOM     10  C   UNL     1     148.929 144.651 138.526  1.00  0.00     0.008 C 
BRANCH  10  11
ATOM     11  C   UNL     1     148.476 145.958 137.859  1.00  0.00     0.072 C 
BRANCH  11  12
ATOM     12  C   UNL     1     148.407 147.078 138.855  1.00  0.00     0.224 C 
ATOM     13  O   UNL     1     148.822 146.911 139.990  1.00  0.00    -0.303 OA
ENDBRANCH  11  12
ENDBRANCH  10  11
ENDBRANCH   9  10
ENDBRANCH   8   9
ENDBRANCH   1   8
TORSDOF 10
ENDMDL
MODEL 2
REMARK VINA RESULT:    -2.536      8.287     10.374
REMARK INTER + INTRA:          -5.502
REMARK INTER:                  -4.205
REMARK INTRA:                  -1.297
REMARK UNBOUND:                -1.484
REMARK SMILES CCCCCCCCCCCC=O
REMARK SMILES IDX 7 1 6 2 5 3 4 4 3 5 2 6 1 7 8 8 9 9 10 10 11 11 12 12 13 13
REMARK H PARENT
REMARK Flexibility Score: inf
ROOT
ATOM      1  C   UNL     1     145.121 136.171 139.176  1.00  0.00     0.000 C 
ENDROOT
BRANCH   1   2
ATOM      2  C   UNL     1     144.266 137.445 139.113  1.00  0.00     0.000 C 
BRANCH   2   3
ATOM      3  C   UNL     1     142.781 137.151 138.854  1.00  0.00    -0.000 C 
BRANCH   3   4
ATOM      4  C   UNL     1     142.443 137.075 137.354  1.00  0.00    -0.000 C 
BRANCH   4   5
ATOM      5  C   UNL     1     142.044 135.649 136.919  1.00  0.00    -0.000 C 
BRANCH   5   6
ATOM      6  C   UNL     1     141.486 134.790 138.066  1.00  0.00    -0.003 C 
ATOM      7  C   UNL     1     141.747 133.298 137.877  1.00  0.00     0.004 C 
ENDBRANCH   5   6
ENDBRANCH   4   5
ENDBRANCH   3   4
ENDBRANCH   2   3
ENDBRANCH   1   2
BRANCH   1   8
ATOM      8  C   UNL     1     144.488 135.130 140.107  1.00  0.00     0.000 C 
BRANCH   8   9
ATOM      9  C   UNL     1     145.091 133.737 139.866  1.00  0.00     0.000 C 
BRANCH   9  10
ATOM     10  C   UNL     1     145.355 133.455 138.379  1.00  0.00     0.008 C 
BRANCH  10  11
ATOM     11  C   UNL     1     146.735 132.830 138.132  1.00  0.00     0.072 C 
BRANCH  11  12
ATOM     12  C   UNL     1     147.613 132.960 139.342  1.00  0.00     0.224 C 
ATOM     13  O   UNL     1     148.272 132.007 139.721  1.00  0.00    -0.303 OA
ENDBRANCH  11  12
ENDBRANCH  10  11
ENDBRANCH   9  10
ENDBRANCH   8   9
ENDBRANCH   1   8
TORSDOF 10
ENDMDL
MODEL 3
REMARK VINA RESULT:    -2.535     11.855     14.648
REMARK INTER + INTRA:          -5.502
REMARK INTER:                  -4.330
REMARK INTRA:                  -1.172
REMARK UNBOUND:                -1.484
REMARK SMILES CCCCCCCCCCCC=O
REMARK SMILES IDX 7 1 6 2 5 3 4 4 3 5 2 6 1 7 8 8 9 9 10 10 11 11 12 12 13 13
REMARK H PARENT
REMARK Flexibility Score: inf
ROOT
ATOM      1  C   UNL     1     135.036 140.023 138.542  1.00  0.00     0.000 C 
ENDROOT
BRANCH   1   2
ATOM      2  C   UNL     1     135.550 139.475 137.203  1.00  0.00     0.000 C 
BRANCH   2   3
ATOM      3  C   UNL     1     137.068 139.238 137.203  1.00  0.00    -0.000 C 
BRANCH   3   4
ATOM      4  C   UNL     1     137.623 138.937 138.607  1.00  0.00    -0.000 C 
BRANCH   4   5
ATOM      5  C   UNL     1     137.774 137.423 138.861  1.00  0.00    -0.000 C 
BRANCH   5   6
ATOM      6  C   UNL     1     136.746 136.862 139.858  1.00  0.00    -0.003 C 
ATOM      7  C   UNL     1     135.687 135.984 139.196  1.00  0.00     0.004 C 
ENDBRANCH   5   6
ENDBRANCH   4   5
ENDBRANCH   3   4
ENDBRANCH   2   3
ENDBRANCH   1   2
BRANCH   1   8
ATOM      8  C   UNL     1     133.593 139.572 138.802  1.00  0.00     0.000 C 
BRANCH   8   9
ATOM      9  C   UNL     1     133.199 138.419 137.866  1.00  0.00     0.000 C 
BRANCH   9  10
ATOM     10  C   UNL     1     132.355 137.345 138.570  1.00  0.00     0.008 C 
BRANCH  10  11
ATOM     11  C   UNL     1     131.290 136.733 137.650  1.00  0.00     0.072 C 
BRANCH  11  12
ATOM     12  C   UNL     1     131.568 135.281 137.391  1.00  0.00     0.224 C 
ATOM     13  O   UNL     1     132.689 134.835 137.567  1.00  0.00    -0.303 OA
ENDBRANCH  11  12
ENDBRANCH  10  11
ENDBRANCH   9  10
ENDBRANCH   8   9
ENDBRANCH   1   8
TORSDOF 10
ENDMDL
MODEL 4
REMARK VINA RESULT:    -2.525      8.052     10.013
REMARK INTER + INTRA:          -5.485
REMARK INTER:                  -4.099
REMARK INTRA:                  -1.386
REMARK UNBOUND:                -1.484
REMARK SMILES CCCCCCCCCCCC=O
REMARK SMILES IDX 7 1 6 2 5 3 4 4 3 5 2 6 1 7 8 8 9 9 10 10 11 11 12 12 13 13
REMARK H PARENT
REMARK Flexibility Score: inf
ROOT
ATOM      1  C   UNL     1     139.838 147.373 137.088  1.00  0.00     0.000 C 
ENDROOT
BRANCH   1   2
ATOM      2  C   UNL     1     139.901 146.154 138.019  1.00  0.00     0.000 C 
BRANCH   2   3
ATOM      3  C   UNL     1     139.531 144.844 137.308  1.00  0.00    -0.000 C 
BRANCH   3   4
ATOM      4  C   UNL     1     138.397 144.082 138.016  1.00  0.00    -0.000 C 
BRANCH   4   5
ATOM      5  C   UNL     1     138.275 144.470 139.505  1.00  0.00    -0.000 C 
BRANCH   5   6
ATOM      6  C   UNL     1     136.864 144.262 140.081  1.00  0.00    -0.003 C 
ATOM      7  C   UNL     1     136.519 145.249 141.192  1.00  0.00     0.004 C 
ENDBRANCH   5   6
ENDBRANCH   4   5
ENDBRANCH   3   4
ENDBRANCH   2   3
ENDBRANCH   1   2
BRANCH   1   8
ATOM      8  C   UNL     1     139.062 148.523 137.740  1.00  0.00     0.000 C 
BRANCH   8   9
ATOM      9  C   UNL     1     138.573 148.132 139.143  1.00  0.00     0.000 C 
BRANCH   9  10
ATOM     10  C   UNL     1     137.090 148.466 139.369  1.00  0.00     0.008 C 
BRANCH  10  11
ATOM     11  C   UNL     1     136.162 147.731 138.391  1.00  0.00     0.072 C 
BRANCH  11  12
ATOM     12  C   UNL     1     135.217 148.683 137.720  1.00  0.00     0.224 C 
ATOM     13  O   UNL     1     135.544 149.845 137.547  1.00  0.00    -0.303 OA
ENDBRANCH  11  12
ENDBRANCH  10  11
ENDBRANCH   9  10
ENDBRANCH   8   9
ENDBRANCH   1   8
TORSDOF 10
ENDMDL
MODEL 5
REMARK VINA RESULT:    -2.507      8.771     10.776
REMARK INTER + INTRA:          -5.457
REMARK INTER:                  -4.044
REMARK INTRA:                  -1.413
REMARK UNBOUND:                -1.484
REMARK SMILES CCCCCCCCCCCC=O
REMARK SMILES IDX 7 1 6 2 5 3 4 4 3 5 2 6 1 7 8 8 9 9 10 10 11 11 12 12 13 13
REMARK H PARENT
REMARK Flexibility Score: inf
ROOT
ATOM      1  C   UNL     1     141.746 133.338 137.803  1.00  0.00     0.000 C 
ENDROOT
BRANCH   1   2
ATOM      2  C   UNL     1     142.075 134.590 136.977  1.00  0.00     0.000 C 
BRANCH   2   3
ATOM      3  C   UNL     1     141.855 135.893 137.762  1.00  0.00    -0.000 C 
BRANCH   3   4
ATOM      4  C   UNL     1     141.711 135.658 139.276  1.00  0.00    -0.000 C 
BRANCH   4   5
ATOM      5  C   UNL     1     142.946 136.146 140.062  1.00  0.00    -0.000 C 
BRANCH   5   6
ATOM      6  C   UNL     1     144.016 136.807 139.176  1.00  0.00    -0.003 C 
ATOM      7  C   UNL     1     145.384 136.139 139.291  1.00  0.00     0.004 C 
ENDBRANCH   5   6
ENDBRANCH   4   5
ENDBRANCH   3   4
ENDBRANCH   2   3
ENDBRANCH   1   2
BRANCH   1   8
ATOM      8  C   UNL     1     142.818 132.258 137.613  1.00  0.00     0.000 C 
BRANCH   8   9
ATOM      9  C   UNL     1     144.190 132.752 138.098  1.00  0.00     0.000 C 
BRANCH   9  10
ATOM     10  C   UNL     1     144.354 132.644 139.622  1.00  0.00     0.008 C 
BRANCH  10  11
ATOM     11  C   UNL     1     145.789 132.288 140.038  1.00  0.00     0.072 C 
BRANCH  11  12
ATOM     12  C   UNL     1     146.767 132.622 138.950  1.00  0.00     0.224 C 
ATOM     13  O   UNL     1     147.690 133.387 139.175  1.00  0.00    -0.303 OA
ENDBRANCH  11  12
ENDBRANCH  10  11
ENDBRANCH   9  10
ENDBRANCH   8   9
ENDBRANCH   1   8
TORSDOF 10
ENDMDL
MODEL 6
REMARK VINA RESULT:    -2.507      7.526     10.041
REMARK INTER + INTRA:          -5.456
REMARK INTER:                  -4.118
REMARK INTRA:                  -1.339
REMARK UNBOUND:                -1.484
REMARK SMILES CCCCCCCCCCCC=O
REMARK SMILES IDX 7 1 6 2 5 3 4 4 3 5 2 6 1 7 8 8 9 9 10 10 11 11 12 12 13 13
REMARK H PARENT
REMARK Flexibility Score: inf
ROOT
ATOM      1  C   UNL     1     136.606 144.692 139.090  1.00  0.00     0.000 C 
ENDROOT
BRANCH   1   2
ATOM      2  C   UNL     1     137.819 143.776 138.873  1.00  0.00     0.000 C 
BRANCH   2   3
ATOM      3  C   UNL     1     138.801 144.330 137.829  1.00  0.00    -0.000 C 
BRANCH   3   4
ATOM      4  C   UNL     1     140.126 144.805 138.453  1.00  0.00    -0.000 C 
BRANCH   4   5
ATOM      5  C   UNL     1     140.242 146.344 138.472  1.00  0.00    -0.000 C 
BRANCH   5   6
ATOM      6  C   UNL     1     139.448 147.034 137.350  1.00  0.00    -0.003 C 
ATOM      7  C   UNL     1     139.583 148.554 137.368  1.00  0.00     0.004 C 
ENDBRANCH   5   6
ENDBRANCH   4   5
ENDBRANCH   3   4
ENDBRANCH   2   3
ENDBRANCH   1   2
BRANCH   1   8
ATOM      8  C   UNL     1     136.762 145.515 140.374  1.00  0.00     0.000 C 
BRANCH   8   9
ATOM      9  C   UNL     1     136.891 147.013 140.055  1.00  0.00     0.000 C 
BRANCH   9  10
ATOM     10  C   UNL     1     135.634 147.586 139.383  1.00  0.00     0.008 C 
BRANCH  10  11
ATOM     11  C   UNL     1     135.922 148.176 137.995  1.00  0.00     0.072 C 
BRANCH  11  12
ATOM     12  C   UNL     1     135.873 149.676 138.023  1.00  0.00     0.224 C 
ATOM     13  O   UNL     1     136.641 150.297 138.739  1.00  0.00    -0.303 OA
ENDBRANCH  11  12
ENDBRANCH  10  11
ENDBRANCH   9  10
ENDBRANCH   8   9
ENDBRANCH   1   8
TORSDOF 10
ENDMDL
MODEL 7
REMARK VINA RESULT:    -2.493      2.993      4.920
REMARK INTER + INTRA:          -5.434
REMARK INTER:                  -3.916
REMARK INTRA:                  -1.518
REMARK UNBOUND:                -1.484
REMARK SMILES CCCCCCCCCCCC=O
REMARK SMILES IDX 7 1 6 2 5 3 4 4 3 5 2 6 1 7 8 8 9 9 10 10 11 11 12 12 13 13
REMARK H PARENT
REMARK Flexibility Score: inf
ROOT
ATOM      1  C   UNL     1     148.362 142.030 137.846  1.00  0.00     0.000 C 
ENDROOT
BRANCH   1   2
ATOM      2  C   UNL     1     149.163 143.337 137.935  1.00  0.00     0.000 C 
BRANCH   2   3
ATOM      3  C   UNL     1     148.337 144.501 138.502  1.00  0.00    -0.000 C 
BRANCH   3   4
ATOM      4  C   UNL     1     148.053 144.351 140.008  1.00  0.00    -0.000 C 
BRANCH   4   5
ATOM      5  C   UNL     1     146.602 144.733 140.368  1.00  0.00    -0.000 C 
BRANCH   5   6
ATOM      6  C   UNL     1     145.781 145.232 139.166  1.00  0.00    -0.003 C 
ATOM      7  C   UNL     1     144.350 144.703 139.157  1.00  0.00     0.004 C 
ENDBRANCH   5   6
ENDBRANCH   4   5
ENDBRANCH   3   4
ENDBRANCH   2   3
ENDBRANCH   1   2
BRANCH   1   8
ATOM      8  C   UNL     1     147.129 142.201 136.950  1.00  0.00     0.000 C 
BRANCH   8   9
ATOM      9  C   UNL     1     145.859 141.711 137.662  1.00  0.00     0.000 C 
BRANCH   9  10
ATOM     10  C   UNL     1     146.122 141.278 139.113  1.00  0.00     0.008 C 
BRANCH  10  11
ATOM     11  C   UNL     1     144.874 140.697 139.793  1.00  0.00     0.072 C 
BRANCH  11  12
ATOM     12  C   UNL     1     144.709 139.242 139.469  1.00  0.00     0.224 C 
ATOM     13  O   UNL     1     143.757 138.870 138.802  1.00  0.00    -0.303 OA
ENDBRANCH  11  12
ENDBRANCH  10  11
ENDBRANCH   9  10
ENDBRANCH   8   9
ENDBRANCH   1   8
TORSDOF 10
ENDMDL
MODEL 8
REMARK VINA RESULT:    -2.456     12.238     15.047
REMARK INTER + INTRA:          -5.375
REMARK INTER:                  -4.146
REMARK INTRA:                  -1.230
REMARK UNBOUND:                -1.484
REMARK SMILES CCCCCCCCCCCC=O
REMARK SMILES IDX 7 1 6 2 5 3 4 4 3 5 2 6 1 7 8 8 9 9 10 10 11 11 12 12 13 13
REMARK H PARENT
REMARK Flexibility Score: inf
ROOT
ATOM      1  C   UNL     1     133.376 139.607 137.917  1.00  0.00     0.000 C 
ENDROOT
BRANCH   1   2
ATOM      2  C   UNL     1     134.254 139.500 139.173  1.00  0.00     0.000 C 
BRANCH   2   3
ATOM      3  C   UNL     1     135.722 139.863 138.903  1.00  0.00    -0.000 C 
BRANCH   3   4
ATOM      4  C   UNL     1     136.428 138.845 137.989  1.00  0.00    -0.000 C 
BRANCH   4   5
ATOM      5  C   UNL     1     137.293 137.847 138.788  1.00  0.00    -0.000 C 
BRANCH   5   6
ATOM      6  C   UNL     1     136.562 136.537 139.129  1.00  0.00    -0.003 C 
ATOM      7  C   UNL     1     136.040 136.499 140.563  1.00  0.00     0.004 C 
ENDBRANCH   5   6
ENDBRANCH   4   5
ENDBRANCH   3   4
ENDBRANCH   2   3
ENDBRANCH   1   2
BRANCH   1   8
ATOM      8  C   UNL     1     132.407 138.423 137.821  1.00  0.00     0.000 C 
BRANCH   8   9
ATOM      9  C   UNL     1     132.834 137.284 138.761  1.00  0.00     0.000 C 
BRANCH   9  10
ATOM     10  C   UNL     1     133.191 135.994 138.006  1.00  0.00     0.008 C 
BRANCH  10  11
ATOM     11  C   UNL     1     132.267 134.823 138.367  1.00  0.00     0.072 C 
BRANCH  11  12
ATOM     12  C   UNL     1     132.788 134.068 139.555  1.00  0.00     0.224 C 
ATOM     13  O   UNL     1     133.877 133.521 139.499  1.00  0.00    -0.303 OA
ENDBRANCH  11  12
ENDBRANCH  10  11
ENDBRANCH   9  10
ENDBRANCH   8   9
ENDBRANCH   1   8
TORSDOF 10
ENDMDL
MODEL 9
REMARK VINA RESULT:    -2.455      8.132     10.614
REMARK INTER + INTRA:          -5.374
REMARK INTER:                  -4.189
REMARK INTRA:                  -1.186
REMARK UNBOUND:                -1.484
REMARK SMILES CCCCCCCCCCCC=O
REMARK SMILES IDX 7 1 6 2 5 3 4 4 3 5 2 6 1 7 8 8 9 9 10 10 11 11 12 12 13 13
REMARK H PARENT
REMARK Flexibility Score: inf
ROOT
ATOM      1  C   UNL     1     139.849 147.932 137.738  1.00  0.00     0.000 C 
ENDROOT
BRANCH   1   2
ATOM      2  C   UNL     1     139.544 146.700 136.875  1.00  0.00     0.000 C 
BRANCH   2   3
ATOM      3  C   UNL     1     139.819 145.378 137.610  1.00  0.00    -0.000 C 
BRANCH   3   4
ATOM      4  C   UNL     1     139.023 145.251 138.921  1.00  0.00    -0.000 C 
BRANCH   4   5
ATOM      5  C   UNL     1     137.744 144.405 138.746  1.00  0.00    -0.000 C 
BRANCH   5   6
ATOM      6  C   UNL     1     136.454 145.157 139.116  1.00  0.00    -0.003 C 
ATOM      7  C   UNL     1     136.446 145.660 140.557  1.00  0.00     0.004 C 
ENDBRANCH   5   6
ENDBRANCH   4   5
ENDBRANCH   3   4
ENDBRANCH   2   3
ENDBRANCH   1   2
BRANCH   1   8
ATOM      8  C   UNL     1     138.719 148.964 137.642  1.00  0.00     0.000 C 
BRANCH   8   9
ATOM      9  C   UNL     1     137.628 148.684 138.688  1.00  0.00     0.000 C 
BRANCH   9  10
ATOM     10  C   UNL     1     136.321 149.437 138.397  1.00  0.00     0.008 C 
BRANCH  10  11
ATOM     11  C   UNL     1     135.156 148.493 138.065  1.00  0.00     0.072 C 
BRANCH  11  12
ATOM     12  C   UNL     1     134.130 148.493 139.160  1.00  0.00     0.224 C 
ATOM     13  O   UNL     1     134.478 148.637 140.321  1.00  0.00    -0.303 OA
ENDBRANCH  11  12
ENDBRANCH  10  11
ENDBRANCH   9  10
ENDBRANCH   8   9
ENDBRANCH   1   8
TORSDOF 10
ENDMDL
