MODEL 1
REMARK VINA RESULT:    -3.199      0.000      0.000
REMARK INTER + INTRA:          -7.869
REMARK INTER:                  -5.817
REMARK INTRA:                  -2.051
REMARK UNBOUND:                -2.051
REMARK SMILES CCCCCCCCCCCCCC[C@@H](C)C(=O)[O-]
REMARK SMILES IDX 9 1 10 2 11 3 12 4 13 5 14 6 15 7 16 8 17 9 18 10 19 11 8 12
REMARK SMILES IDX 7 13 6 14 5 15 4 16 3 17 2 18 1 19
REMARK H PARENT
REMARK Flexibility Score: inf
ROOT
ATOM      1  C   UNL     1      23.715  27.794  48.236  1.00  0.00     0.000 C 
ENDROOT
BRANCH   1   2
ATOM      2  C   UNL     1      23.169  26.551  48.957  1.00  0.00     0.000 C 
BRANCH   2   3
ATOM      3  C   UNL     1      22.201  26.904  50.097  1.00  0.00     0.000 C 
BRANCH   3   4
ATOM      4  C   UNL     1      22.586  28.240  50.750  1.00  0.00     0.000 C 
BRANCH   4   5
ATOM      5  C   UNL     1      21.445  29.270  50.715  1.00  0.00     0.001 C 
BRANCH   5   6
ATOM      6  C   UNL     1      21.954  30.712  50.539  1.00  0.00     0.009 C 
BRANCH   6   7
ATOM      7  C   UNL     1      21.334  31.416  49.311  1.00  0.00     0.032 C 
ATOM      8  C   UNL     1      20.565  30.445  48.405  1.00  0.00     0.014 C 
BRANCH   7   9
ATOM      9  C   UNL     1      20.419  32.521  49.763  1.00  0.00     0.044 C 
ATOM     10  O   UNL     1      20.693  33.724  49.509  1.00  0.00    -0.550 OA
ATOM     11  O   UNL     1      19.259  32.217  50.466  1.00  0.00    -0.550 OA
ENDBRANCH   7   9
ENDBRANCH   6   7
ENDBRANCH   5   6
ENDBRANCH   4   5
ENDBRANCH   3   4
ENDBRANCH   2   3
ENDBRANCH   1   2
BRANCH   1  12
ATOM     12  C   UNL     1      23.036  28.032  46.875  1.00  0.00     0.000 C 
BRANCH  12  13
ATOM     13  C   UNL     1      23.577  29.278  46.155  1.00  0.00    -0.000 C 
BRANCH  13  14
ATOM     14  C   UNL     1      24.056  30.370  47.130  1.00  0.00    -0.000 C 
BRANCH  14  15
ATOM     15  C   UNL     1      24.408  31.684  46.401  1.00  0.00    -0.000 C 
BRANCH  15  16
ATOM     16  C   UNL     1      23.566  31.932  45.138  1.00  0.00    -0.000 C 
BRANCH  16  17
ATOM     17  C   UNL     1      24.418  32.117  43.876  1.00  0.00    -0.000 C 
BRANCH  17  18
ATOM     18  C   UNL     1      25.896  31.833  44.164  1.00  0.00    -0.003 C 
ATOM     19  C   UNL     1      26.414  30.680  43.309  1.00  0.00     0.004 C 
ENDBRANCH  17  18
ENDBRANCH  16  17
ENDBRANCH  15  16
ENDBRANCH  14  15
ENDBRANCH  13  14
ENDBRANCH  12  13
ENDBRANCH   1  12
TORSDOF 14
ENDMDL
MODEL 2
REMARK VINA RESULT:    -3.041      3.467      6.660
REMARK INTER + INTRA:          -7.581
REMARK INTER:                  -5.176
REMARK INTRA:                  -2.405
REMARK UNBOUND:                -2.051
REMARK SMILES CCCCCCCCCCCCCC[C@@H](C)C(=O)[O-]
REMARK SMILES IDX 9 1 10 2 11 3 12 4 13 5 14 6 15 7 16 8 17 9 18 10 19 11 8 12
REMARK SMILES IDX 7 13 6 14 5 15 4 16 3 17 2 18 1 19
REMARK H PARENT
REMARK Flexibility Score: inf
ROOT
ATOM      1  C   UNL     1      21.664  28.774  46.606  1.00  0.00     0.000 C 
ENDROOT
BRANCH   1   2
ATOM      2  C   UNL     1      21.718  30.304  46.732  1.00  0.00     0.000 C 
BRANCH   2   3
ATOM      3  C   UNL     1      22.950  30.794  47.508  1.00  0.00     0.000 C 
BRANCH   3   4
ATOM      4  C   UNL     1      23.600  31.995  46.802  1.00  0.00     0.000 C 
BRANCH   4   5
ATOM      5  C   UNL     1      24.814  31.595  45.947  1.00  0.00     0.001 C 
BRANCH   5   6
ATOM      6  C   UNL     1      24.505  31.614  44.438  1.00  0.00     0.009 C 
BRANCH   6   7
ATOM      7  C   UNL     1      24.475  30.198  43.819  1.00  0.00     0.032 C 
ATOM      8  C   UNL     1      23.095  29.837  43.251  1.00  0.00     0.014 C 
BRANCH   7   9
ATOM      9  C   UNL     1      25.513  30.091  42.736  1.00  0.00     0.044 C 
ATOM     10  O   UNL     1      25.170  29.951  41.532  1.00  0.00    -0.550 OA
ATOM     11  O   UNL     1      26.863  30.148  43.061  1.00  0.00    -0.550 OA
ENDBRANCH   7   9
ENDBRANCH   6   7
ENDBRANCH   5   6
ENDBRANCH   4   5
ENDBRANCH   3   4
ENDBRANCH   2   3
ENDBRANCH   1   2
BRANCH   1  12
ATOM     12  C   UNL     1      23.064  28.134  46.587  1.00  0.00     0.000 C 
BRANCH  12  13
ATOM     13  C   UNL     1      23.183  26.947  47.556  1.00  0.00    -0.000 C 
BRANCH  13  14
ATOM     14  C   UNL     1      23.723  27.357  48.938  1.00  0.00    -0.000 C 
BRANCH  14  15
ATOM     15  C   UNL     1      22.591  27.539  49.972  1.00  0.00    -0.000 C 
BRANCH  15  16
ATOM     16  C   UNL     1      22.651  28.883  50.719  1.00  0.00    -0.000 C 
BRANCH  16  17
ATOM     17  C   UNL     1      21.329  29.659  50.663  1.00  0.00    -0.000 C 
BRANCH  17  18
ATOM     18  C   UNL     1      21.535  31.126  51.056  1.00  0.00    -0.003 C 
ATOM     19  C   UNL     1      20.674  32.052  50.202  1.00  0.00     0.004 C 
ENDBRANCH  17  18
ENDBRANCH  16  17
ENDBRANCH  15  16
ENDBRANCH  14  15
ENDBRANCH  13  14
ENDBRANCH  12  13
ENDBRANCH   1  12
TORSDOF 14
ENDMDL
MODEL 3
REMARK VINA RESULT:    -3.040      3.118      6.556
REMARK INTER + INTRA:          -7.579
REMARK INTER:                  -5.492
REMARK INTRA:                  -2.087
REMARK UNBOUND:                -2.051
REMARK SMILES CCCCCCCCCCCCCC[C@@H](C)C(=O)[O-]
REMARK SMILES IDX 9 1 10 2 11 3 12 4 13 5 14 6 15 7 16 8 17 9 18 10 19 11 8 12
REMARK SMILES IDX 7 13 6 14 5 15 4 16 3 17 2 18 1 19
REMARK H PARENT
REMARK Flexibility Score: inf
ROOT
ATOM      1  C   UNL     1      20.077  30.791  47.722  1.00  0.00     0.000 C 
ENDROOT
BRANCH   1   2
ATOM      2  C   UNL     1      21.190  30.539  46.692  1.00  0.00     0.000 C 
BRANCH   2   3
ATOM      3  C   UNL     1      22.146  29.413  47.115  1.00  0.00     0.000 C 
BRANCH   3   4
ATOM      4  C   UNL     1      23.564  29.958  47.352  1.00  0.00     0.000 C 
BRANCH   4   5
ATOM      5  C   UNL     1      23.696  31.446  46.987  1.00  0.00     0.001 C 
BRANCH   5   6
ATOM      6  C   UNL     1      24.923  31.730  46.102  1.00  0.00     0.009 C 
BRANCH   6   7
ATOM      7  C   UNL     1      24.785  31.134  44.683  1.00  0.00     0.032 C 
ATOM      8  C   UNL     1      23.536  31.648  43.951  1.00  0.00     0.014 C 
BRANCH   7   9
ATOM      9  C   UNL     1      26.013  31.448  43.873  1.00  0.00     0.044 C 
ATOM     10  O   UNL     1      26.728  30.521  43.408  1.00  0.00    -0.550 OA
ATOM     11  O   UNL     1      26.365  32.771  43.632  1.00  0.00    -0.550 OA
ENDBRANCH   7   9
ENDBRANCH   6   7
ENDBRANCH   5   6
ENDBRANCH   4   5
ENDBRANCH   3   4
ENDBRANCH   2   3
ENDBRANCH   1   2
BRANCH   1  12
ATOM     12  C   UNL     1      20.328  32.055  48.564  1.00  0.00     0.000 C 
BRANCH  12  13
ATOM     13  C   UNL     1      20.357  31.763  50.072  1.00  0.00    -0.000 C 
BRANCH  13  14
ATOM     14  C   UNL     1      21.659  31.072  50.521  1.00  0.00    -0.000 C 
BRANCH  14  15
ATOM     15  C   UNL     1      21.397  29.676  51.125  1.00  0.00    -0.000 C 
BRANCH  15  16
ATOM     16  C   UNL     1      22.456  28.629  50.736  1.00  0.00    -0.000 C 
BRANCH  16  17
ATOM     17  C   UNL     1      21.849  27.369  50.107  1.00  0.00    -0.000 C 
BRANCH  17  18
ATOM     18  C   UNL     1      22.931  26.321  49.821  1.00  0.00    -0.003 C 
ATOM     19  C   UNL     1      24.099  26.456  50.793  1.00  0.00     0.004 C 
ENDBRANCH  17  18
ENDBRANCH  16  17
ENDBRANCH  15  16
ENDBRANCH  14  15
ENDBRANCH  13  14
ENDBRANCH  12  13
ENDBRANCH   1  12
TORSDOF 14
ENDMDL
MODEL 4
REMARK VINA RESULT:    -3.027      2.445      3.956
REMARK INTER + INTRA:          -7.555
REMARK INTER:                  -5.358
REMARK INTRA:                  -2.197
REMARK UNBOUND:                -2.051
REMARK SMILES CCCCCCCCCCCCCC[C@@H](C)C(=O)[O-]
REMARK SMILES IDX 9 1 10 2 11 3 12 4 13 5 14 6 15 7 16 8 17 9 18 10 19 11 8 12
REMARK SMILES IDX 7 13 6 14 5 15 4 16 3 17 2 18 1 19
REMARK H PARENT
REMARK Flexibility Score: inf
ROOT
ATOM      1  C   UNL     1      22.438  31.875  46.637  1.00  0.00     0.000 C 
ENDROOT
BRANCH   1   2
ATOM      2  C   UNL     1      21.815  32.557  47.865  1.00  0.00     0.000 C 
BRANCH   2   3
ATOM      3  C   UNL     1      20.967  31.596  48.712  1.00  0.00     0.000 C 
BRANCH   3   4
ATOM      4  C   UNL     1      20.995  32.001  50.195  1.00  0.00     0.000 C 
BRANCH   4   5
ATOM      5  C   UNL     1      21.627  30.925  51.093  1.00  0.00     0.001 C 
BRANCH   5   6
ATOM      6  C   UNL     1      22.345  29.828  50.286  1.00  0.00     0.009 C 
BRANCH   6   7
ATOM      7  C   UNL     1      21.789  28.416  50.574  1.00  0.00     0.032 C 
ATOM      8  C   UNL     1      20.258  28.355  50.465  1.00  0.00     0.014 C 
BRANCH   7   9
ATOM      9  C   UNL     1      22.405  27.420  49.630  1.00  0.00     0.044 C 
ATOM     10  O   UNL     1      21.684  26.767  48.829  1.00  0.00    -0.550 OA
ATOM     11  O   UNL     1      23.779  27.216  49.636  1.00  0.00    -0.550 OA
ENDBRANCH   7   9
ENDBRANCH   6   7
ENDBRANCH   5   6
ENDBRANCH   4   5
ENDBRANCH   3   4
ENDBRANCH   2   3
ENDBRANCH   1   2
BRANCH   1  12
ATOM     12  C   UNL     1      23.860  31.355  46.909  1.00  0.00     0.000 C 
BRANCH  12  13
ATOM     13  C   UNL     1      23.910  29.827  47.067  1.00  0.00    -0.000 C 
BRANCH  13  14
ATOM     14  C   UNL     1      22.800  29.109  46.279  1.00  0.00    -0.000 C 
BRANCH  14  15
ATOM     15  C   UNL     1      23.292  28.612  44.903  1.00  0.00    -0.000 C 
BRANCH  15  16
ATOM     16  C   UNL     1      22.790  29.465  43.725  1.00  0.00    -0.000 C 
BRANCH  16  17
ATOM     17  C   UNL     1      23.752  30.603  43.357  1.00  0.00    -0.000 C 
BRANCH  17  18
ATOM     18  C   UNL     1      25.208  30.195  43.606  1.00  0.00    -0.003 C 
ATOM     19  C   UNL     1      26.142  31.396  43.505  1.00  0.00     0.004 C 
ENDBRANCH  17  18
ENDBRANCH  16  17
ENDBRANCH  15  16
ENDBRANCH  14  15
ENDBRANCH  13  14
ENDBRANCH  12  13
ENDBRANCH   1  12
TORSDOF 14
ENDMDL
MODEL 5
REMARK VINA RESULT:    -2.962      2.716      4.108
REMARK INTER + INTRA:          -7.437
REMARK INTER:                  -5.365
REMARK INTRA:                  -2.072
REMARK UNBOUND:                -2.051
REMARK SMILES CCCCCCCCCCCCCC[C@@H](C)C(=O)[O-]
REMARK SMILES IDX 9 1 10 2 11 3 12 4 13 5 14 6 15 7 16 8 17 9 18 10 19 11 8 12
REMARK SMILES IDX 7 13 6 14 5 15 4 16 3 17 2 18 1 19
REMARK H PARENT
REMARK Flexibility Score: inf
ROOT
ATOM      1  C   UNL     1      20.801  32.097  46.968  1.00  0.00     0.000 C 
ENDROOT
BRANCH   1   2
ATOM      2  C   UNL     1      20.727  31.184  48.202  1.00  0.00     0.000 C 
BRANCH   2   3
ATOM      3  C   UNL     1      21.097  31.913  49.503  1.00  0.00     0.000 C 
BRANCH   3   4
ATOM      4  C   UNL     1      21.634  30.925  50.551  1.00  0.00     0.000 C 
BRANCH   4   5
ATOM      5  C   UNL     1      22.556  29.856  49.942  1.00  0.00     0.001 C 
BRANCH   5   6
ATOM      6  C   UNL     1      22.578  28.555  50.765  1.00  0.00     0.009 C 
BRANCH   6   7
ATOM      7  C   UNL     1      22.336  27.299  49.899  1.00  0.00     0.032 C 
ATOM      8  C   UNL     1      21.345  27.558  48.755  1.00  0.00     0.014 C 
BRANCH   7   9
ATOM      9  C   UNL     1      23.641  26.805  49.337  1.00  0.00     0.044 C 
ATOM     10  O   UNL     1      24.478  26.224  50.078  1.00  0.00    -0.550 OA
ATOM     11  O   UNL     1      23.931  26.989  47.990  1.00  0.00    -0.550 OA
ENDBRANCH   7   9
ENDBRANCH   6   7
ENDBRANCH   5   6
ENDBRANCH   4   5
ENDBRANCH   3   4
ENDBRANCH   2   3
ENDBRANCH   1   2
BRANCH   1  12
ATOM     12  C   UNL     1      21.848  31.623  45.945  1.00  0.00     0.000 C 
BRANCH  12  13
ATOM     13  C   UNL     1      22.440  30.250  46.300  1.00  0.00    -0.000 C 
BRANCH  13  14
ATOM     14  C   UNL     1      23.959  30.302  46.551  1.00  0.00    -0.000 C 
BRANCH  14  15
ATOM     15  C   UNL     1      24.515  31.738  46.449  1.00  0.00    -0.000 C 
BRANCH  15  16
ATOM     16  C   UNL     1      25.598  31.903  45.369  1.00  0.00    -0.000 C 
BRANCH  16  17
ATOM     17  C   UNL     1      25.020  32.236  43.987  1.00  0.00    -0.000 C 
BRANCH  17  18
ATOM     18  C   UNL     1      25.037  31.006  43.073  1.00  0.00    -0.003 C 
ATOM     19  C   UNL     1      26.431  30.390  43.003  1.00  0.00     0.004 C 
ENDBRANCH  17  18
ENDBRANCH  16  17
ENDBRANCH  15  16
ENDBRANCH  14  15
ENDBRANCH  13  14
ENDBRANCH  12  13
ENDBRANCH   1  12
TORSDOF 14
ENDMDL
MODEL 6
REMARK VINA RESULT:    -2.959      2.845      6.399
REMARK INTER + INTRA:          -7.433
REMARK INTER:                  -4.851
REMARK INTRA:                  -2.582
REMARK UNBOUND:                -2.051
REMARK SMILES CCCCCCCCCCCCCC[C@@H](C)C(=O)[O-]
REMARK SMILES IDX 9 1 10 2 11 3 12 4 13 5 14 6 15 7 16 8 17 9 18 10 19 11 8 12
REMARK SMILES IDX 7 13 6 14 5 15 4 16 3 17 2 18 1 19
REMARK H PARENT
REMARK Flexibility Score: inf
ROOT
ATOM      1  C   UNL     1      19.097  29.931  47.587  1.00  0.00     0.000 C 
ENDROOT
BRANCH   1   2
ATOM      2  C   UNL     1      20.584  30.242  47.355  1.00  0.00     0.000 C 
BRANCH   2   3
ATOM      3  C   UNL     1      20.834  31.712  46.985  1.00  0.00     0.000 C 
BRANCH   3   4
ATOM      4  C   UNL     1      22.268  32.132  47.346  1.00  0.00     0.000 C 
BRANCH   4   5
ATOM      5  C   UNL     1      23.291  31.007  47.117  1.00  0.00     0.001 C 
BRANCH   5   6
ATOM      6  C   UNL     1      24.502  31.470  46.286  1.00  0.00     0.009 C 
BRANCH   6   7
ATOM      7  C   UNL     1      24.667  30.667  44.976  1.00  0.00     0.032 C 
ATOM      8  C   UNL     1      23.655  29.518  44.862  1.00  0.00     0.014 C 
BRANCH   7   9
ATOM      9  C   UNL     1      24.531  31.584  43.792  1.00  0.00     0.044 C 
ATOM     10  O   UNL     1      23.705  32.535  43.811  1.00  0.00    -0.550 OA
ATOM     11  O   UNL     1      25.320  31.386  42.666  1.00  0.00    -0.550 OA
ENDBRANCH   7   9
ENDBRANCH   6   7
ENDBRANCH   5   6
ENDBRANCH   4   5
ENDBRANCH   3   4
ENDBRANCH   2   3
ENDBRANCH   1   2
BRANCH   1  12
ATOM     12  C   UNL     1      18.439  30.906  48.580  1.00  0.00     0.000 C 
BRANCH  12  13
ATOM     13  C   UNL     1      18.953  30.721  50.017  1.00  0.00    -0.000 C 
BRANCH  13  14
ATOM     14  C   UNL     1      19.762  31.930  50.522  1.00  0.00    -0.000 C 
BRANCH  14  15
ATOM     15  C   UNL     1      21.186  31.532  50.965  1.00  0.00    -0.000 C 
BRANCH  15  16
ATOM     16  C   UNL     1      21.378  30.014  51.125  1.00  0.00    -0.000 C 
BRANCH  16  17
ATOM     17  C   UNL     1      22.622  29.488  50.396  1.00  0.00    -0.000 C 
BRANCH  17  18
ATOM     18  C   UNL     1      22.414  28.045  49.925  1.00  0.00    -0.003 C 
ATOM     19  C   UNL     1      20.941  27.652  49.987  1.00  0.00     0.004 C 
ENDBRANCH  17  18
ENDBRANCH  16  17
ENDBRANCH  15  16
ENDBRANCH  14  15
ENDBRANCH  13  14
ENDBRANCH  12  13
ENDBRANCH   1  12
TORSDOF 14
ENDMDL
MODEL 7
REMARK VINA RESULT:    -2.943      3.092      6.856
REMARK INTER + INTRA:          -7.404
REMARK INTER:                  -5.840
REMARK INTRA:                  -1.564
REMARK UNBOUND:                -2.051
REMARK SMILES CCCCCCCCCCCCCC[C@@H](C)C(=O)[O-]
REMARK SMILES IDX 9 1 10 2 11 3 12 4 13 5 14 6 15 7 16 8 17 9 18 10 19 11 8 12
REMARK SMILES IDX 7 13 6 14 5 15 4 16 3 17 2 18 1 19
REMARK H PARENT
REMARK Flexibility Score: inf
ROOT
ATOM      1  C   UNL     1      21.419  31.958  47.681  1.00  0.00     0.000 C 
ENDROOT
BRANCH   1   2
ATOM      2  C   UNL     1      22.864  32.138  47.189  1.00  0.00     0.000 C 
BRANCH   2   3
ATOM      3  C   UNL     1      23.549  30.802  46.860  1.00  0.00     0.000 C 
BRANCH   3   4
ATOM      4  C   UNL     1      23.086  30.270  45.495  1.00  0.00     0.000 C 
BRANCH   4   5
ATOM      5  C   UNL     1      24.234  30.174  44.475  1.00  0.00     0.001 C 
BRANCH   5   6
ATOM      6  C   UNL     1      25.336  31.219  44.726  1.00  0.00     0.009 C 
BRANCH   6   7
ATOM      7  C   UNL     1      26.245  31.432  43.494  1.00  0.00     0.032 C 
ATOM      8  C   UNL     1      26.634  30.110  42.817  1.00  0.00     0.014 C 
BRANCH   7   9
ATOM      9  C   UNL     1      25.558  32.328  42.500  1.00  0.00     0.044 C 
ATOM     10  O   UNL     1      25.462  31.988  41.291  1.00  0.00    -0.550 OA
ATOM     11  O   UNL     1      25.022  33.541  42.914  1.00  0.00    -0.550 OA
ENDBRANCH   7   9
ENDBRANCH   6   7
ENDBRANCH   5   6
ENDBRANCH   4   5
ENDBRANCH   3   4
ENDBRANCH   2   3
ENDBRANCH   1   2
BRANCH   1  12
ATOM     12  C   UNL     1      21.089  32.859  48.884  1.00  0.00     0.000 C 
BRANCH  12  13
ATOM     13  C   UNL     1      20.375  32.099  50.013  1.00  0.00    -0.000 C 
BRANCH  13  14
ATOM     14  C   UNL     1      21.343  31.592  51.097  1.00  0.00    -0.000 C 
BRANCH  14  15
ATOM     15  C   UNL     1      21.459  30.052  51.098  1.00  0.00    -0.000 C 
BRANCH  15  16
ATOM     16  C   UNL     1      22.657  29.526  50.289  1.00  0.00    -0.000 C 
BRANCH  16  17
ATOM     17  C   UNL     1      22.379  28.173  49.619  1.00  0.00    -0.000 C 
BRANCH  17  18
ATOM     18  C   UNL     1      23.589  27.704  48.804  1.00  0.00    -0.003 C 
ATOM     19  C   UNL     1      23.156  27.105  47.469  1.00  0.00     0.004 C 
ENDBRANCH  17  18
ENDBRANCH  16  17
ENDBRANCH  15  16
ENDBRANCH  14  15
ENDBRANCH  13  14
ENDBRANCH  12  13
ENDBRANCH   1  12
TORSDOF 14
ENDMDL
MODEL 8
REMARK VINA RESULT:    -2.924      2.547      6.118
REMARK INTER + INTRA:          -7.368
REMARK INTER:                  -5.365
REMARK INTRA:                  -2.003
REMARK UNBOUND:                -2.051
REMARK SMILES CCCCCCCCCCCCCC[C@@H](C)C(=O)[O-]
REMARK SMILES IDX 9 1 10 2 11 3 12 4 13 5 14 6 15 7 16 8 17 9 18 10 19 11 8 12
REMARK SMILES IDX 7 13 6 14 5 15 4 16 3 17 2 18 1 19
REMARK H PARENT
REMARK Flexibility Score: inf
ROOT
ATOM      1  C   UNL     1      20.009  31.749  48.985  1.00  0.00     0.000 C 
ENDROOT
BRANCH   1   2
ATOM      2  C   UNL     1      20.559  32.050  47.581  1.00  0.00     0.000 C 
BRANCH   2   3
ATOM      3  C   UNL     1      21.527  30.967  47.078  1.00  0.00     0.000 C 
BRANCH   3   4
ATOM      4  C   UNL     1      22.987  31.407  47.266  1.00  0.00     0.000 C 
BRANCH   4   5
ATOM      5  C   UNL     1      23.992  30.301  46.906  1.00  0.00     0.001 C 
BRANCH   5   6
ATOM      6  C   UNL     1      24.450  30.374  45.437  1.00  0.00     0.009 C 
BRANCH   6   7
ATOM      7  C   UNL     1      24.645  31.827  44.947  1.00  0.00     0.032 C 
ATOM      8  C   UNL     1      26.083  32.100  44.483  1.00  0.00     0.014 C 
BRANCH   7   9
ATOM      9  C   UNL     1      23.686  32.121  43.826  1.00  0.00     0.044 C 
ATOM     10  O   UNL     1      23.898  33.081  43.038  1.00  0.00    -0.550 OA
ATOM     11  O   UNL     1      22.557  31.331  43.653  1.00  0.00    -0.550 OA
ENDBRANCH   7   9
ENDBRANCH   6   7
ENDBRANCH   5   6
ENDBRANCH   4   5
ENDBRANCH   3   4
ENDBRANCH   2   3
ENDBRANCH   1   2
BRANCH   1  12
ATOM     12  C   UNL     1      20.775  32.495  50.091  1.00  0.00     0.000 C 
BRANCH  12  13
ATOM     13  C   UNL     1      21.397  31.543  51.125  1.00  0.00    -0.000 C 
BRANCH  13  14
ATOM     14  C   UNL     1      21.251  30.060  50.734  1.00  0.00    -0.000 C 
BRANCH  14  15
ATOM     15  C   UNL     1      22.605  29.426  50.348  1.00  0.00    -0.000 C 
BRANCH  15  16
ATOM     16  C   UNL     1      22.528  27.908  50.112  1.00  0.00    -0.000 C 
BRANCH  16  17
ATOM     17  C   UNL     1      22.172  27.543  48.665  1.00  0.00    -0.000 C 
BRANCH  17  18
ATOM     18  C   UNL     1      23.399  27.017  47.913  1.00  0.00    -0.003 C 
ATOM     19  C   UNL     1      24.313  26.220  48.839  1.00  0.00     0.004 C 
ENDBRANCH  17  18
ENDBRANCH  16  17
ENDBRANCH  15  16
ENDBRANCH  14  15
ENDBRANCH  13  14
ENDBRANCH  12  13
ENDBRANCH   1  12
TORSDOF 14
ENDMDL
MODEL 9
REMARK VINA RESULT:    -2.868      1.858      2.832
REMARK INTER + INTRA:          -7.267
REMARK INTER:                  -4.763
REMARK INTRA:                  -2.504
REMARK UNBOUND:                -2.051
REMARK SMILES CCCCCCCCCCCCCC[C@@H](C)C(=O)[O-]
REMARK SMILES IDX 9 1 10 2 11 3 12 4 13 5 14 6 15 7 16 8 17 9 18 10 19 11 8 12
REMARK SMILES IDX 7 13 6 14 5 15 4 16 3 17 2 18 1 19
REMARK H PARENT
REMARK Flexibility Score: inf
ROOT
ATOM      1  C   UNL     1      21.709  29.047  44.876  1.00  0.00     0.000 C 
ENDROOT
BRANCH   1   2
ATOM      2  C   UNL     1      21.984  28.457  46.268  1.00  0.00     0.000 C 
BRANCH   2   3
ATOM      3  C   UNL     1      23.465  28.547  46.669  1.00  0.00     0.000 C 
BRANCH   3   4
ATOM      4  C   UNL     1      23.648  29.471  47.884  1.00  0.00     0.000 C 
BRANCH   4   5
ATOM      5  C   UNL     1      22.366  30.241  48.243  1.00  0.00     0.001 C 
BRANCH   5   6
ATOM      6  C   UNL     1      22.412  31.711  47.788  1.00  0.00     0.009 C 
BRANCH   6   7
ATOM      7  C   UNL     1      21.016  32.374  47.774  1.00  0.00     0.032 C 
ATOM      8  C   UNL     1      19.885  31.352  47.593  1.00  0.00     0.014 C 
BRANCH   7   9
ATOM      9  C   UNL     1      20.804  33.147  49.046  1.00  0.00     0.044 C 
ATOM     10  O   UNL     1      20.443  32.559  50.100  1.00  0.00    -0.550 OA
ATOM     11  O   UNL     1      21.006  34.521  49.065  1.00  0.00    -0.550 OA
ENDBRANCH   7   9
ENDBRANCH   6   7
ENDBRANCH   5   6
ENDBRANCH   4   5
ENDBRANCH   3   4
ENDBRANCH   2   3
ENDBRANCH   1   2
BRANCH   1  12
ATOM     12  C   UNL     1      22.979  29.603  44.209  1.00  0.00     0.000 C 
BRANCH  12  13
ATOM     13  C   UNL     1      22.797  31.042  43.700  1.00  0.00    -0.000 C 
BRANCH  13  14
ATOM     14  C   UNL     1      23.661  32.061  44.466  1.00  0.00    -0.000 C 
BRANCH  14  15
ATOM     15  C   UNL     1      24.984  31.441  44.964  1.00  0.00    -0.000 C 
BRANCH  15  16
ATOM     16  C   UNL     1      26.171  31.680  44.014  1.00  0.00    -0.000 C 
BRANCH  16  17
ATOM     17  C   UNL     1      26.552  30.432  43.206  1.00  0.00    -0.000 C 
BRANCH  17  18
ATOM     18  C   UNL     1      26.053  30.539  41.761  1.00  0.00    -0.003 C 
ATOM     19  C   UNL     1      25.776  31.990  41.379  1.00  0.00     0.004 C 
ENDBRANCH  17  18
ENDBRANCH  16  17
ENDBRANCH  15  16
ENDBRANCH  14  15
ENDBRANCH  13  14
ENDBRANCH  12  13
ENDBRANCH   1  12
TORSDOF 14
ENDMDL
