MODEL 1
REMARK VINA RESULT:    -6.754      0.000      0.000
REMARK INTER + INTRA:         -16.010
REMARK INTER:                 -12.874
REMARK INTRA:                  -3.136
REMARK UNBOUND:                -3.136
REMARK SMILES C[C@@H]1O[C@H](O[C@@H]2[C@H](O)[C@H](OCCc3ccc(O)c(O)c3)O[C@H](CO)[C@H]2OC(=O)C=Cc2ccc(O)c(O)c2)[C@@H](O)[C@@H](O)[C@H]1O
REMARK SMILES IDX 6 1 7 2 9 3 21 4 22 5 25 6 5 7 4 8 1 9 2 10 43 11 3 12 41 13
REMARK SMILES IDX 39 14 44 15 42 17 40 19 8 21 26 23 27 24 28 25 29 26 30 27
REMARK SMILES IDX 31 28 38 29 32 30 36 31 33 32 34 33 37 34 35 36 10 38 11 39
REMARK SMILES IDX 12 40 13 41 20 42 14 43 18 44 15 45 16 46 19 47 17 49 23 51
REMARK SMILES IDX 24 52
REMARK H PARENT 44 16 42 18 40 20 8 22 37 35 35 37 19 48 17 50 24 53
REMARK Flexibility Score: inf
ROOT
ATOM      1  C   UNL     1      71.862  42.644   6.484  1.00  0.00     0.199 C 
ATOM      2  C   UNL     1      71.313  43.857   5.674  1.00  0.00     0.203 C 
ATOM      3  C   UNL     1      72.410  44.938   5.461  1.00  0.00     0.282 C 
ATOM      4  O   UNL     1      73.679  44.434   5.827  1.00  0.00    -0.340 OA
ATOM      5  C   UNL     1      73.743  44.201   7.229  1.00  0.00     0.190 C 
ATOM      6  C   UNL     1      72.589  43.227   7.722  1.00  0.00     0.240 C 
ENDROOT
BRANCH   1   7
ATOM      7  O   UNL     1      72.798  41.853   5.763  1.00  0.00    -0.340 OA
BRANCH   7   8
ATOM      8  C   UNL     1      72.536  40.461   5.804  1.00  0.00     0.282 C 
ATOM      9  C   UNL     1      70.518  38.832   8.419  1.00  0.00     0.041 C 
ATOM     10  C   UNL     1      70.992  39.101   6.986  1.00  0.00     0.150 C 
ATOM     11  C   UNL     1      69.787  39.382   6.064  1.00  0.00     0.174 C 
ATOM     12  O   UNL     1      71.825  40.244   7.020  1.00  0.00    -0.344 OA
ATOM     13  C   UNL     1      70.210  40.109   4.756  1.00  0.00     0.179 C 
ATOM     14  C   UNL     1      71.728  40.078   4.512  1.00  0.00     0.202 C 
BRANCH  11  15
ATOM     15  O   UNL     1      69.122  38.158   5.789  1.00  0.00    -0.388 OA
ATOM     16  H   UNL     1      68.843  38.170   4.841  1.00  0.00     0.211 HD
ENDBRANCH  11  15
BRANCH  13  17
ATOM     17  O   UNL     1      69.536  39.544   3.641  1.00  0.00    -0.387 OA
ATOM     18  H   UNL     1      68.736  40.097   3.472  1.00  0.00     0.211 HD
ENDBRANCH  13  17
BRANCH  14  19
ATOM     19  O   UNL     1      72.107  38.838   3.957  1.00  0.00    -0.385 OA
ATOM     20  H   UNL     1      73.069  38.820   3.777  1.00  0.00     0.211 HD
ENDBRANCH  14  19
ENDBRANCH   7   8
ENDBRANCH   1   7
BRANCH   2  21
ATOM     21  O   UNL     1      70.717  43.471   4.454  1.00  0.00    -0.385 OA
ATOM     22  H   UNL     1      70.058  44.173   4.214  1.00  0.00     0.211 HD
ENDBRANCH   2  21
BRANCH   6  23
ATOM     23  O   UNL     1      71.587  43.851   8.558  1.00  0.00    -0.453 OA
BRANCH  23  24
ATOM     24  C   UNL     1      71.708  45.090   9.193  1.00  0.00     0.331 C 
ATOM     25  O   UNL     1      72.836  45.419   9.666  1.00  0.00    -0.247 OA
BRANCH  24  26
ATOM     26  C   UNL     1      70.562  46.004   9.292  1.00  0.00     0.094 C 
ATOM     27  C   UNL     1      69.577  45.968   8.385  1.00  0.00     0.016 C 
BRANCH  27  28
ATOM     28  C   UNL     1      68.341  46.779   8.498  1.00  0.00    -0.021 A 
ATOM     29  C   UNL     1      67.352  46.782   7.500  1.00  0.00     0.058 A 
ATOM     30  C   UNL     1      68.166  47.574   9.644  1.00  0.00     0.012 A 
ATOM     31  C   UNL     1      66.213  47.593   7.630  1.00  0.00     0.157 A 
ATOM     32  C   UNL     1      67.033  48.383   9.783  1.00  0.00     0.051 A 
ATOM     33  C   UNL     1      66.058  48.408   8.772  1.00  0.00     0.157 A 
BRANCH  31  34
ATOM     34  O   UNL     1      65.242  47.565   6.631  1.00  0.00    -0.504 OA
ATOM     35  H   UNL     1      64.262  47.441   6.855  1.00  0.00     0.293 HD
ENDBRANCH  31  34
BRANCH  33  36
ATOM     36  O   UNL     1      64.936  49.237   8.887  1.00  0.00    -0.504 OA
ATOM     37  H   UNL     1      64.781  49.800   9.716  1.00  0.00     0.293 HD
ENDBRANCH  33  36
ENDBRANCH  27  28
ENDBRANCH  24  26
ENDBRANCH  23  24
ENDBRANCH   6  23
BRANCH   3  38
ATOM     38  O   UNL     1      72.469  45.332   4.098  1.00  0.00    -0.350 OA
BRANCH  38  39
ATOM     39  C   UNL     1      72.065  46.681   3.938  1.00  0.00     0.168 C 
BRANCH  39  40
ATOM     40  C   UNL     1      73.008  47.593   4.725  1.00  0.00     0.064 C 
BRANCH  40  41
ATOM     41  C   UNL     1      72.344  48.168   5.948  1.00  0.00    -0.042 A 
ATOM     42  C   UNL     1      73.064  48.300   7.148  1.00  0.00     0.054 A 
ATOM     43  C   UNL     1      71.030  48.659   5.873  1.00  0.00     0.008 A 
ATOM     44  C   UNL     1      72.494  48.966   8.241  1.00  0.00     0.157 A 
ATOM     45  C   UNL     1      70.451  49.306   6.966  1.00  0.00     0.050 A 
ATOM     46  C   UNL     1      71.188  49.473   8.151  1.00  0.00     0.157 A 
BRANCH  44  47
ATOM     47  O   UNL     1      73.271  49.164   9.392  1.00  0.00    -0.504 OA
ATOM     48  H   UNL     1      73.010  49.825  10.112  1.00  0.00     0.293 HD
ENDBRANCH  44  47
BRANCH  46  49
ATOM     49  O   UNL     1      70.638  50.170   9.226  1.00  0.00    -0.504 OA
ATOM     50  H   UNL     1      70.725  49.835  10.179  1.00  0.00     0.293 HD
ENDBRANCH  46  49
ENDBRANCH  40  41
ENDBRANCH  39  40
ENDBRANCH  38  39
ENDBRANCH   3  38
BRANCH   5  51
ATOM     51  C   UNL     1      75.125  43.612   7.543  1.00  0.00     0.192 C 
BRANCH  51  52
ATOM     52  O   UNL     1      74.989  42.239   7.823  1.00  0.00    -0.394 OA
ATOM     53  H   UNL     1      74.833  42.173   8.802  1.00  0.00     0.210 HD
ENDBRANCH  51  52
ENDBRANCH   5  51
TORSDOF 20
ENDMDL
MODEL 2
REMARK VINA RESULT:    -6.670      1.848      2.700
REMARK INTER + INTRA:         -15.849
REMARK INTER:                 -13.328
REMARK INTRA:                  -2.521
REMARK UNBOUND:                -3.136
REMARK SMILES C[C@@H]1O[C@H](O[C@@H]2[C@H](O)[C@H](OCCc3ccc(O)c(O)c3)O[C@H](CO)[C@H]2OC(=O)C=Cc2ccc(O)c(O)c2)[C@@H](O)[C@@H](O)[C@H]1O
REMARK SMILES IDX 6 1 7 2 9 3 21 4 22 5 25 6 5 7 4 8 1 9 2 10 43 11 3 12 41 13
REMARK SMILES IDX 39 14 44 15 42 17 40 19 8 21 26 23 27 24 28 25 29 26 30 27
REMARK SMILES IDX 31 28 38 29 32 30 36 31 33 32 34 33 37 34 35 36 10 38 11 39
REMARK SMILES IDX 12 40 13 41 20 42 14 43 18 44 15 45 16 46 19 47 17 49 23 51
REMARK SMILES IDX 24 52
REMARK H PARENT 44 16 42 18 40 20 8 22 37 35 35 37 19 48 17 50 24 53
REMARK Flexibility Score: inf
ROOT
ATOM      1  C   UNL     1      71.670  42.020   6.030  1.00  0.00     0.199 C 
ATOM      2  C   UNL     1      72.291  43.346   5.495  1.00  0.00     0.203 C 
ATOM      3  C   UNL     1      72.858  44.213   6.655  1.00  0.00     0.282 C 
ATOM      4  O   UNL     1      72.897  43.467   7.856  1.00  0.00    -0.340 OA
ATOM      5  C   UNL     1      71.583  43.170   8.308  1.00  0.00     0.190 C 
ATOM      6  C   UNL     1      70.733  42.407   7.202  1.00  0.00     0.240 C 
ENDROOT
BRANCH   1   7
ATOM      7  O   UNL     1      72.632  41.099   6.528  1.00  0.00    -0.340 OA
BRANCH   7   8
ATOM      8  C   UNL     1      72.457  39.770   6.069  1.00  0.00     0.282 C 
ATOM      9  C   UNL     1      70.438  37.243   7.831  1.00  0.00     0.041 C 
ATOM     10  C   UNL     1      70.953  38.016   6.611  1.00  0.00     0.150 C 
ATOM     11  C   UNL     1      69.773  38.546   5.771  1.00  0.00     0.174 C 
ATOM     12  O   UNL     1      71.710  39.112   7.089  1.00  0.00    -0.344 OA
ATOM     13  C   UNL     1      70.203  39.703   4.823  1.00  0.00     0.179 C 
ATOM     14  C   UNL     1      71.729  39.826   4.677  1.00  0.00     0.202 C 
BRANCH  11  15
ATOM     15  O   UNL     1      69.199  37.467   5.050  1.00  0.00    -0.388 OA
ATOM     16  H   UNL     1      69.100  37.749   4.107  1.00  0.00     0.211 HD
ENDBRANCH  11  15
BRANCH  13  17
ATOM     17  O   UNL     1      69.613  39.532   3.543  1.00  0.00    -0.387 OA
ATOM     18  H   UNL     1      68.675  39.266   3.687  1.00  0.00     0.211 HD
ENDBRANCH  13  17
BRANCH  14  19
ATOM     19  O   UNL     1      72.209  38.876   3.752  1.00  0.00    -0.385 OA
ATOM     20  H   UNL     1      71.493  38.591   3.147  1.00  0.00     0.211 HD
ENDBRANCH  14  19
ENDBRANCH   7   8
ENDBRANCH   1   7
BRANCH   2  21
ATOM     21  O   UNL     1      73.255  43.128   4.488  1.00  0.00    -0.385 OA
ATOM     22  H   UNL     1      72.791  42.698   3.724  1.00  0.00     0.211 HD
ENDBRANCH   2  21
BRANCH   6  23
ATOM     23  O   UNL     1      69.638  43.171   6.647  1.00  0.00    -0.453 OA
BRANCH  23  24
ATOM     24  C   UNL     1      68.365  43.301   7.208  1.00  0.00     0.331 C 
ATOM     25  O   UNL     1      67.588  42.301   7.182  1.00  0.00    -0.247 OA
BRANCH  24  26
ATOM     26  C   UNL     1      67.940  44.561   7.834  1.00  0.00     0.094 C 
ATOM     27  C   UNL     1      68.840  45.485   8.192  1.00  0.00     0.016 C 
BRANCH  27  28
ATOM     28  C   UNL     1      68.466  46.821   8.716  1.00  0.00    -0.021 A 
ATOM     29  C   UNL     1      67.153  47.316   8.641  1.00  0.00     0.058 A 
ATOM     30  C   UNL     1      69.470  47.615   9.298  1.00  0.00     0.012 A 
ATOM     31  C   UNL     1      66.850  48.601   9.117  1.00  0.00     0.157 A 
ATOM     32  C   UNL     1      69.176  48.896   9.777  1.00  0.00     0.051 A 
ATOM     33  C   UNL     1      67.870  49.402   9.677  1.00  0.00     0.157 A 
BRANCH  31  34
ATOM     34  O   UNL     1      65.537  49.061   9.044  1.00  0.00    -0.504 OA
ATOM     35  H   UNL     1      65.270  49.788   8.391  1.00  0.00     0.293 HD
ENDBRANCH  31  34
BRANCH  33  36
ATOM     36  O   UNL     1      67.572  50.695  10.125  1.00  0.00    -0.504 OA
ATOM     37  H   UNL     1      68.270  51.429  10.111  1.00  0.00     0.293 HD
ENDBRANCH  33  36
ENDBRANCH  27  28
ENDBRANCH  24  26
ENDBRANCH  23  24
ENDBRANCH   6  23
BRANCH   3  38
ATOM     38  O   UNL     1      74.178  44.645   6.360  1.00  0.00    -0.350 OA
BRANCH  38  39
ATOM     39  C   UNL     1      74.167  45.787   5.523  1.00  0.00     0.168 C 
BRANCH  39  40
ATOM     40  C   UNL     1      73.603  46.981   6.296  1.00  0.00     0.064 C 
BRANCH  40  41
ATOM     41  C   UNL     1      72.527  47.696   5.522  1.00  0.00    -0.042 A 
ATOM     42  C   UNL     1      71.422  48.249   6.192  1.00  0.00     0.054 A 
ATOM     43  C   UNL     1      72.664  47.892   4.137  1.00  0.00     0.008 A 
ATOM     44  C   UNL     1      70.497  49.036   5.494  1.00  0.00     0.157 A 
ATOM     45  C   UNL     1      71.734  48.659   3.434  1.00  0.00     0.050 A 
ATOM     46  C   UNL     1      70.654  49.245   4.114  1.00  0.00     0.157 A 
BRANCH  44  47
ATOM     47  O   UNL     1      69.458  49.651   6.208  1.00  0.00    -0.504 OA
ATOM     48  H   UNL     1      68.922  49.158   6.910  1.00  0.00     0.293 HD
ENDBRANCH  44  47
BRANCH  46  49
ATOM     49  O   UNL     1      69.754  50.061   3.429  1.00  0.00    -0.504 OA
ATOM     50  H   UNL     1      68.809  50.211   3.764  1.00  0.00     0.293 HD
ENDBRANCH  46  49
ENDBRANCH  40  41
ENDBRANCH  39  40
ENDBRANCH  38  39
ENDBRANCH   3  38
BRANCH   5  51
ATOM     51  C   UNL     1      71.705  42.322   9.581  1.00  0.00     0.192 C 
BRANCH  51  52
ATOM     52  O   UNL     1      71.326  40.997   9.292  1.00  0.00    -0.394 OA
ATOM     53  H   UNL     1      70.444  40.863   9.728  1.00  0.00     0.210 HD
ENDBRANCH  51  52
ENDBRANCH   5  51
TORSDOF 20
ENDMDL
MODEL 3
REMARK VINA RESULT:    -6.514      1.557      2.105
REMARK INTER + INTRA:         -15.553
REMARK INTER:                 -13.001
REMARK INTRA:                  -2.552
REMARK UNBOUND:                -3.136
REMARK SMILES C[C@@H]1O[C@H](O[C@@H]2[C@H](O)[C@H](OCCc3ccc(O)c(O)c3)O[C@H](CO)[C@H]2OC(=O)C=Cc2ccc(O)c(O)c2)[C@@H](O)[C@@H](O)[C@H]1O
REMARK SMILES IDX 6 1 7 2 9 3 21 4 22 5 25 6 5 7 4 8 1 9 2 10 43 11 3 12 41 13
REMARK SMILES IDX 39 14 44 15 42 17 40 19 8 21 26 23 27 24 28 25 29 26 30 27
REMARK SMILES IDX 31 28 38 29 32 30 36 31 33 32 34 33 37 34 35 36 10 38 11 39
REMARK SMILES IDX 12 40 13 41 20 42 14 43 18 44 15 45 16 46 19 47 17 49 23 51
REMARK SMILES IDX 24 52
REMARK H PARENT 44 16 42 18 40 20 8 22 37 35 35 37 19 48 17 50 24 53
REMARK Flexibility Score: inf
ROOT
ATOM      1  C   UNL     1      71.545  42.172   6.692  1.00  0.00     0.199 C 
ATOM      2  C   UNL     1      71.170  43.474   5.922  1.00  0.00     0.203 C 
ATOM      3  C   UNL     1      72.261  44.568   6.098  1.00  0.00     0.282 C 
ATOM      4  O   UNL     1      73.421  44.020   6.691  1.00  0.00    -0.340 OA
ATOM      5  C   UNL     1      73.163  43.624   8.031  1.00  0.00     0.190 C 
ATOM      6  C   UNL     1      71.949  42.602   8.125  1.00  0.00     0.240 C 
ENDROOT
BRANCH   1   7
ATOM      7  O   UNL     1      72.641  41.468   6.125  1.00  0.00    -0.340 OA
BRANCH   7   8
ATOM      8  C   UNL     1      72.395  40.090   5.902  1.00  0.00     0.282 C 
ATOM      9  C   UNL     1      70.275  38.010   8.079  1.00  0.00     0.041 C 
ATOM     10  C   UNL     1      70.813  38.534   6.743  1.00  0.00     0.150 C 
ATOM     11  C   UNL     1      69.650  38.971   5.828  1.00  0.00     0.174 C 
ATOM     12  O   UNL     1      71.629  39.655   7.023  1.00  0.00    -0.344 OA
ATOM     13  C   UNL     1      70.126  39.925   4.694  1.00  0.00     0.179 C 
ATOM     14  C   UNL     1      71.654  39.943   4.524  1.00  0.00     0.202 C 
BRANCH  11  15
ATOM     15  O   UNL     1      69.015  37.815   5.305  1.00  0.00    -0.388 OA
ATOM     16  H   UNL     1      68.494  37.398   6.035  1.00  0.00     0.211 HD
ENDBRANCH  11  15
BRANCH  13  17
ATOM     17  O   UNL     1      69.513  39.567   3.464  1.00  0.00    -0.387 OA
ATOM     18  H   UNL     1      68.853  40.268   3.251  1.00  0.00     0.211 HD
ENDBRANCH  13  17
BRANCH  14  19
ATOM     19  O   UNL     1      72.075  38.825   3.774  1.00  0.00    -0.385 OA
ATOM     20  H   UNL     1      72.325  39.093   2.866  1.00  0.00     0.211 HD
ENDBRANCH  14  19
ENDBRANCH   7   8
ENDBRANCH   1   7
BRANCH   2  21
ATOM     21  O   UNL     1      70.884  43.237   4.560  1.00  0.00    -0.385 OA
ATOM     22  H   UNL     1      71.117  44.064   4.063  1.00  0.00     0.211 HD
ENDBRANCH   2  21
BRANCH   6  23
ATOM     23  O   UNL     1      70.765  43.127   8.770  1.00  0.00    -0.453 OA
BRANCH  23  24
ATOM     24  C   UNL     1      69.615  42.398   9.086  1.00  0.00     0.331 C 
ATOM     25  O   UNL     1      69.750  41.214   9.516  1.00  0.00    -0.247 OA
BRANCH  24  26
ATOM     26  C   UNL     1      68.280  42.994   8.947  1.00  0.00     0.094 C 
ATOM     27  C   UNL     1      68.137  44.286   8.623  1.00  0.00     0.016 C 
BRANCH  27  28
ATOM     28  C   UNL     1      66.821  44.913   8.351  1.00  0.00    -0.021 A 
ATOM     29  C   UNL     1      66.699  46.246   7.926  1.00  0.00     0.058 A 
ATOM     30  C   UNL     1      65.662  44.140   8.536  1.00  0.00     0.012 A 
ATOM     31  C   UNL     1      65.432  46.813   7.714  1.00  0.00     0.157 A 
ATOM     32  C   UNL     1      64.395  44.695   8.326  1.00  0.00     0.051 A 
ATOM     33  C   UNL     1      64.272  46.036   7.928  1.00  0.00     0.157 A 
BRANCH  31  34
ATOM     34  O   UNL     1      65.341  48.133   7.279  1.00  0.00    -0.504 OA
ATOM     35  H   UNL     1      65.845  48.876   7.746  1.00  0.00     0.293 HD
ENDBRANCH  31  34
BRANCH  33  36
ATOM     36  O   UNL     1      63.008  46.610   7.744  1.00  0.00    -0.504 OA
ATOM     37  H   UNL     1      62.318  46.611   8.487  1.00  0.00     0.293 HD
ENDBRANCH  33  36
ENDBRANCH  27  28
ENDBRANCH  24  26
ENDBRANCH  23  24
ENDBRANCH   6  23
BRANCH   3  38
ATOM     38  O   UNL     1      72.626  45.120   4.841  1.00  0.00    -0.350 OA
BRANCH  38  39
ATOM     39  C   UNL     1      73.675  46.062   4.982  1.00  0.00     0.168 C 
BRANCH  39  40
ATOM     40  C   UNL     1      73.186  47.441   4.534  1.00  0.00     0.064 C 
BRANCH  40  41
ATOM     41  C   UNL     1      72.521  48.195   5.655  1.00  0.00    -0.042 A 
ATOM     42  C   UNL     1      71.155  48.518   5.579  1.00  0.00     0.054 A 
ATOM     43  C   UNL     1      73.239  48.502   6.824  1.00  0.00     0.008 A 
ATOM     44  C   UNL     1      70.504  49.089   6.680  1.00  0.00     0.157 A 
ATOM     45  C   UNL     1      72.599  49.089   7.916  1.00  0.00     0.050 A 
ATOM     46  C   UNL     1      71.225  49.372   7.852  1.00  0.00     0.157 A 
BRANCH  44  47
ATOM     47  O   UNL     1      69.122  49.314   6.606  1.00  0.00    -0.504 OA
ATOM     48  H   UNL     1      68.451  48.688   7.032  1.00  0.00     0.293 HD
ENDBRANCH  44  47
BRANCH  46  49
ATOM     49  O   UNL     1      70.566  49.904   8.960  1.00  0.00    -0.504 OA
ATOM     50  H   UNL     1      69.885  49.367   9.483  1.00  0.00     0.293 HD
ENDBRANCH  46  49
ENDBRANCH  40  41
ENDBRANCH  39  40
ENDBRANCH  38  39
ENDBRANCH   3  38
BRANCH   5  51
ATOM     51  C   UNL     1      74.447  42.996   8.590  1.00  0.00     0.192 C 
BRANCH  51  52
ATOM     52  O   UNL     1      75.080  42.257   7.573  1.00  0.00    -0.394 OA
ATOM     53  H   UNL     1      76.050  42.457   7.653  1.00  0.00     0.210 HD
ENDBRANCH  51  52
ENDBRANCH   5  51
TORSDOF 20
ENDMDL
MODEL 4
REMARK VINA RESULT:    -6.509      1.696      2.466
REMARK INTER + INTRA:         -15.543
REMARK INTER:                 -13.079
REMARK INTRA:                  -2.463
REMARK UNBOUND:                -3.136
REMARK SMILES C[C@@H]1O[C@H](O[C@@H]2[C@H](O)[C@H](OCCc3ccc(O)c(O)c3)O[C@H](CO)[C@H]2OC(=O)C=Cc2ccc(O)c(O)c2)[C@@H](O)[C@@H](O)[C@H]1O
REMARK SMILES IDX 6 1 7 2 9 3 21 4 22 5 25 6 5 7 4 8 1 9 2 10 43 11 3 12 41 13
REMARK SMILES IDX 39 14 44 15 42 17 40 19 8 21 26 23 27 24 28 25 29 26 30 27
REMARK SMILES IDX 31 28 38 29 32 30 36 31 33 32 34 33 37 34 35 36 10 38 11 39
REMARK SMILES IDX 12 40 13 41 20 42 14 43 18 44 15 45 16 46 19 47 17 49 23 51
REMARK SMILES IDX 24 52
REMARK H PARENT 44 16 42 18 40 20 8 22 37 35 35 37 19 48 17 50 24 53
REMARK Flexibility Score: inf
ROOT
ATOM      1  C   UNL     1      71.416  42.265   5.973  1.00  0.00     0.199 C 
ATOM      2  C   UNL     1      71.298  43.741   5.488  1.00  0.00     0.203 C 
ATOM      3  C   UNL     1      72.559  44.566   5.874  1.00  0.00     0.282 C 
ATOM      4  O   UNL     1      73.588  43.711   6.331  1.00  0.00    -0.340 OA
ATOM      5  C   UNL     1      73.228  43.104   7.565  1.00  0.00     0.190 C 
ATOM      6  C   UNL     1      71.850  42.318   7.460  1.00  0.00     0.240 C 
ENDROOT
BRANCH   1   7
ATOM      7  O   UNL     1      72.387  41.507   5.264  1.00  0.00    -0.340 OA
BRANCH   7   8
ATOM      8  C   UNL     1      71.850  40.424   4.523  1.00  0.00     0.282 C 
ATOM      9  C   UNL     1      72.993  36.940   4.868  1.00  0.00     0.041 C 
ATOM     10  C   UNL     1      71.958  38.063   4.729  1.00  0.00     0.150 C 
ATOM     11  C   UNL     1      70.884  37.945   5.830  1.00  0.00     0.174 C 
ATOM     12  O   UNL     1      72.641  39.293   4.878  1.00  0.00    -0.344 OA
ATOM     13  C   UNL     1      70.107  39.278   6.034  1.00  0.00     0.179 C 
ATOM     14  C   UNL     1      70.329  40.285   4.893  1.00  0.00     0.202 C 
BRANCH  11  15
ATOM     15  O   UNL     1      70.008  36.875   5.508  1.00  0.00    -0.388 OA
ATOM     16  H   UNL     1      70.207  36.124   6.119  1.00  0.00     0.211 HD
ENDBRANCH  11  15
BRANCH  13  17
ATOM     17  O   UNL     1      68.719  39.019   6.178  1.00  0.00    -0.387 OA
ATOM     18  H   UNL     1      68.583  38.649   7.082  1.00  0.00     0.211 HD
ENDBRANCH  13  17
BRANCH  14  19
ATOM     19  O   UNL     1      69.509  39.964   3.792  1.00  0.00    -0.385 OA
ATOM     20  H   UNL     1      68.563  40.061   4.026  1.00  0.00     0.211 HD
ENDBRANCH  14  19
ENDBRANCH   7   8
ENDBRANCH   1   7
BRANCH   2  21
ATOM     21  O   UNL     1      71.012  43.840   4.110  1.00  0.00    -0.385 OA
ATOM     22  H   UNL     1      70.204  43.291   3.937  1.00  0.00     0.211 HD
ENDBRANCH   2  21
BRANCH   6  23
ATOM     23  O   UNL     1      70.761  42.904   8.209  1.00  0.00    -0.453 OA
BRANCH  23  24
ATOM     24  C   UNL     1      69.578  42.255   8.573  1.00  0.00     0.331 C 
ATOM     25  O   UNL     1      69.628  41.022   8.857  1.00  0.00    -0.247 OA
BRANCH  24  26
ATOM     26  C   UNL     1      68.306  42.988   8.649  1.00  0.00     0.094 C 
ATOM     27  C   UNL     1      68.092  44.067   7.886  1.00  0.00     0.016 C 
BRANCH  27  28
ATOM     28  C   UNL     1      66.790  44.775   7.830  1.00  0.00    -0.021 A 
ATOM     29  C   UNL     1      66.698  46.161   7.622  1.00  0.00     0.058 A 
ATOM     30  C   UNL     1      65.614  44.024   7.999  1.00  0.00     0.012 A 
ATOM     31  C   UNL     1      65.447  46.798   7.611  1.00  0.00     0.157 A 
ATOM     32  C   UNL     1      64.362  44.650   7.987  1.00  0.00     0.051 A 
ATOM     33  C   UNL     1      64.272  46.039   7.808  1.00  0.00     0.157 A 
BRANCH  31  34
ATOM     34  O   UNL     1      65.384  48.172   7.389  1.00  0.00    -0.504 OA
ATOM     35  H   UNL     1      64.887  48.785   8.024  1.00  0.00     0.293 HD
ENDBRANCH  31  34
BRANCH  33  36
ATOM     36  O   UNL     1      63.027  46.679   7.826  1.00  0.00    -0.504 OA
ATOM     37  H   UNL     1      62.166  46.156   7.710  1.00  0.00     0.293 HD
ENDBRANCH  33  36
ENDBRANCH  27  28
ENDBRANCH  24  26
ENDBRANCH  23  24
ENDBRANCH   6  23
BRANCH   3  38
ATOM     38  O   UNL     1      73.050  45.286   4.752  1.00  0.00    -0.350 OA
BRANCH  38  39
ATOM     39  C   UNL     1      72.569  46.619   4.750  1.00  0.00     0.168 C 
BRANCH  39  40
ATOM     40  C   UNL     1      73.468  47.488   5.633  1.00  0.00     0.064 C 
BRANCH  40  41
ATOM     41  C   UNL     1      72.675  48.274   6.643  1.00  0.00    -0.042 A 
ATOM     42  C   UNL     1      71.312  48.540   6.422  1.00  0.00     0.054 A 
ATOM     43  C   UNL     1      73.268  48.671   7.853  1.00  0.00     0.008 A 
ATOM     44  C   UNL     1      70.541  49.143   7.423  1.00  0.00     0.157 A 
ATOM     45  C   UNL     1      72.508  49.290   8.846  1.00  0.00     0.050 A 
ATOM     46  C   UNL     1      71.138  49.517   8.638  1.00  0.00     0.157 A 
BRANCH  44  47
ATOM     47  O   UNL     1      69.165  49.310   7.208  1.00  0.00    -0.504 OA
ATOM     48  H   UNL     1      68.799  50.029   6.598  1.00  0.00     0.293 HD
ENDBRANCH  44  47
BRANCH  46  49
ATOM     49  O   UNL     1      70.359  50.082   9.649  1.00  0.00    -0.504 OA
ATOM     50  H   UNL     1      69.980  49.523  10.404  1.00  0.00     0.293 HD
ENDBRANCH  46  49
ENDBRANCH  40  41
ENDBRANCH  39  40
ENDBRANCH  38  39
ENDBRANCH   3  38
BRANCH   5  51
ATOM     51  C   UNL     1      74.365  42.158   7.972  1.00  0.00     0.192 C 
BRANCH  51  52
ATOM     52  O   UNL     1      74.217  40.936   7.289  1.00  0.00    -0.394 OA
ATOM     53  H   UNL     1      73.289  40.931   6.935  1.00  0.00     0.210 HD
ENDBRANCH  51  52
ENDBRANCH   5  51
TORSDOF 20
ENDMDL
MODEL 5
REMARK VINA RESULT:    -6.374      1.812      2.466
REMARK INTER + INTRA:         -15.285
REMARK INTER:                 -12.634
REMARK INTRA:                  -2.652
REMARK UNBOUND:                -3.136
REMARK SMILES C[C@@H]1O[C@H](O[C@@H]2[C@H](O)[C@H](OCCc3ccc(O)c(O)c3)O[C@H](CO)[C@H]2OC(=O)C=Cc2ccc(O)c(O)c2)[C@@H](O)[C@@H](O)[C@H]1O
REMARK SMILES IDX 6 1 7 2 9 3 21 4 22 5 25 6 5 7 4 8 1 9 2 10 43 11 3 12 41 13
REMARK SMILES IDX 39 14 44 15 42 17 40 19 8 21 26 23 27 24 28 25 29 26 30 27
REMARK SMILES IDX 31 28 38 29 32 30 36 31 33 32 34 33 37 34 35 36 10 38 11 39
REMARK SMILES IDX 12 40 13 41 20 42 14 43 18 44 15 45 16 46 19 47 17 49 23 51
REMARK SMILES IDX 24 52
REMARK H PARENT 44 16 42 18 40 20 8 22 37 35 35 37 19 48 17 50 24 53
REMARK Flexibility Score: inf
ROOT
ATOM      1  C   UNL     1      72.161  41.531   6.790  1.00  0.00     0.199 C 
ATOM      2  C   UNL     1      71.995  42.941   6.147  1.00  0.00     0.203 C 
ATOM      3  C   UNL     1      73.233  43.840   6.427  1.00  0.00     0.282 C 
ATOM      4  O   UNL     1      74.291  43.071   6.965  1.00  0.00    -0.340 OA
ATOM      5  C   UNL     1      73.957  42.594   8.262  1.00  0.00     0.190 C 
ATOM      6  C   UNL     1      72.603  41.760   8.258  1.00  0.00     0.240 C 
ENDROOT
BRANCH   1   7
ATOM      7  O   UNL     1      73.149  40.729   6.159  1.00  0.00    -0.340 OA
BRANCH   7   8
ATOM      8  C   UNL     1      72.709  39.426   5.817  1.00  0.00     0.282 C 
ATOM      9  C   UNL     1      70.443  37.414   7.911  1.00  0.00     0.041 C 
ATOM     10  C   UNL     1      70.977  38.005   6.601  1.00  0.00     0.150 C 
ATOM     11  C   UNL     1      69.838  38.684   5.812  1.00  0.00     0.174 C 
ATOM     12  O   UNL     1      71.950  38.976   6.937  1.00  0.00    -0.344 OA
ATOM     13  C   UNL     1      70.379  39.684   4.749  1.00  0.00     0.179 C 
ATOM     14  C   UNL     1      71.884  39.524   4.482  1.00  0.00     0.202 C 
BRANCH  11  15
ATOM     15  O   UNL     1      69.026  37.682   5.220  1.00  0.00    -0.388 OA
ATOM     16  H   UNL     1      69.549  37.255   4.497  1.00  0.00     0.211 HD
ENDBRANCH  11  15
BRANCH  13  17
ATOM     17  O   UNL     1      69.660  39.542   3.533  1.00  0.00    -0.387 OA
ATOM     18  H   UNL     1      69.951  38.695   3.119  1.00  0.00     0.211 HD
ENDBRANCH  13  17
BRANCH  14  19
ATOM     19  O   UNL     1      72.112  38.448   3.599  1.00  0.00    -0.385 OA
ATOM     20  H   UNL     1      72.887  37.923   3.886  1.00  0.00     0.211 HD
ENDBRANCH  14  19
ENDBRANCH   7   8
ENDBRANCH   1   7
BRANCH   2  21
ATOM     21  O   UNL     1      71.697  42.879   4.769  1.00  0.00    -0.385 OA
ATOM     22  H   UNL     1      70.738  42.639   4.686  1.00  0.00     0.211 HD
ENDBRANCH   2  21
BRANCH   6  23
ATOM     23  O   UNL     1      71.501  42.393   8.949  1.00  0.00    -0.453 OA
BRANCH  23  24
ATOM     24  C   UNL     1      70.181  41.936   8.972  1.00  0.00     0.331 C 
ATOM     25  O   UNL     1      69.958  40.751   9.360  1.00  0.00    -0.247 OA
BRANCH  24  26
ATOM     26  C   UNL     1      69.070  42.813   8.576  1.00  0.00     0.094 C 
ATOM     27  C   UNL     1      69.156  44.140   8.732  1.00  0.00     0.016 C 
BRANCH  27  28
ATOM     28  C   UNL     1      68.123  45.083   8.244  1.00  0.00    -0.021 A 
ATOM     29  C   UNL     1      66.776  44.710   8.097  1.00  0.00     0.058 A 
ATOM     30  C   UNL     1      68.515  46.391   7.911  1.00  0.00     0.012 A 
ATOM     31  C   UNL     1      65.835  45.624   7.596  1.00  0.00     0.157 A 
ATOM     32  C   UNL     1      67.584  47.309   7.413  1.00  0.00     0.051 A 
ATOM     33  C   UNL     1      66.244  46.928   7.240  1.00  0.00     0.157 A 
BRANCH  31  34
ATOM     34  O   UNL     1      64.504  45.232   7.474  1.00  0.00    -0.504 OA
ATOM     35  H   UNL     1      64.151  44.414   7.955  1.00  0.00     0.293 HD
ENDBRANCH  31  34
BRANCH  33  36
ATOM     36  O   UNL     1      65.311  47.830   6.714  1.00  0.00    -0.504 OA
ATOM     37  H   UNL     1      64.776  47.607   5.882  1.00  0.00     0.293 HD
ENDBRANCH  33  36
ENDBRANCH  27  28
ENDBRANCH  24  26
ENDBRANCH  23  24
ENDBRANCH   6  23
BRANCH   3  38
ATOM     38  O   UNL     1      73.695  44.447   5.229  1.00  0.00    -0.350 OA
BRANCH  38  39
ATOM     39  C   UNL     1      74.017  45.811   5.438  1.00  0.00     0.168 C 
BRANCH  39  40
ATOM     40  C   UNL     1      72.943  46.460   6.314  1.00  0.00     0.064 C 
BRANCH  40  41
ATOM     41  C   UNL     1      72.066  47.397   5.526  1.00  0.00    -0.042 A 
ATOM     42  C   UNL     1      71.105  48.186   6.182  1.00  0.00     0.054 A 
ATOM     43  C   UNL     1      72.262  47.555   4.144  1.00  0.00     0.008 A 
ATOM     44  C   UNL     1      70.390  49.160   5.472  1.00  0.00     0.157 A 
ATOM     45  C   UNL     1      71.538  48.510   3.429  1.00  0.00     0.050 A 
ATOM     46  C   UNL     1      70.608  49.325   4.095  1.00  0.00     0.157 A 
BRANCH  44  47
ATOM     47  O   UNL     1      69.506  49.993   6.173  1.00  0.00    -0.504 OA
ATOM     48  H   UNL     1      68.862  50.614   5.700  1.00  0.00     0.293 HD
ENDBRANCH  44  47
BRANCH  46  49
ATOM     49  O   UNL     1      69.924  50.322   3.399  1.00  0.00    -0.504 OA
ATOM     50  H   UNL     1      69.177  50.102   2.751  1.00  0.00     0.293 HD
ENDBRANCH  46  49
ENDBRANCH  40  41
ENDBRANCH  39  40
ENDBRANCH  38  39
ENDBRANCH   3  38
BRANCH   5  51
ATOM     51  C   UNL     1      75.125  41.732   8.760  1.00  0.00     0.192 C 
BRANCH  51  52
ATOM     52  O   UNL     1      74.764  40.374   8.681  1.00  0.00    -0.394 OA
ATOM     53  H   UNL     1      73.896  40.293   9.157  1.00  0.00     0.210 HD
ENDBRANCH  51  52
ENDBRANCH   5  51
TORSDOF 20
ENDMDL
MODEL 6
REMARK VINA RESULT:    -6.302      2.112      7.271
REMARK INTER + INTRA:         -15.148
REMARK INTER:                 -12.786
REMARK INTRA:                  -2.362
REMARK UNBOUND:                -3.136
REMARK SMILES C[C@@H]1O[C@H](O[C@@H]2[C@H](O)[C@H](OCCc3ccc(O)c(O)c3)O[C@H](CO)[C@H]2OC(=O)C=Cc2ccc(O)c(O)c2)[C@@H](O)[C@@H](O)[C@H]1O
REMARK SMILES IDX 6 1 7 2 9 3 21 4 22 5 25 6 5 7 4 8 1 9 2 10 43 11 3 12 41 13
REMARK SMILES IDX 39 14 44 15 42 17 40 19 8 21 26 23 27 24 28 25 29 26 30 27
REMARK SMILES IDX 31 28 38 29 32 30 36 31 33 32 34 33 37 34 35 36 10 38 11 39
REMARK SMILES IDX 12 40 13 41 20 42 14 43 18 44 15 45 16 46 19 47 17 49 23 51
REMARK SMILES IDX 24 52
REMARK H PARENT 44 16 42 18 40 20 8 22 37 35 35 37 19 48 17 50 24 53
REMARK Flexibility Score: inf
ROOT
ATOM      1  C   UNL     1      72.407  45.263   7.282  1.00  0.00     0.199 C 
ATOM      2  C   UNL     1      73.498  44.281   7.805  1.00  0.00     0.203 C 
ATOM      3  C   UNL     1      73.333  42.867   7.180  1.00  0.00     0.282 C 
ATOM      4  O   UNL     1      72.406  42.903   6.113  1.00  0.00    -0.340 OA
ATOM      5  C   UNL     1      71.097  43.182   6.593  1.00  0.00     0.190 C 
ATOM      6  C   UNL     1      71.046  44.534   7.427  1.00  0.00     0.240 C 
ENDROOT
BRANCH   1   7
ATOM      7  O   UNL     1      72.566  45.619   5.916  1.00  0.00    -0.340 OA
BRANCH   7   8
ATOM      8  C   UNL     1      72.713  47.010   5.691  1.00  0.00     0.282 C 
ATOM      9  C   UNL     1      70.994  48.842   2.998  1.00  0.00     0.041 C 
ATOM     10  C   UNL     1      71.513  48.617   4.422  1.00  0.00     0.150 C 
ATOM     11  C   UNL     1      70.378  48.822   5.448  1.00  0.00     0.174 C 
ATOM     12  O   UNL     1      71.974  47.282   4.502  1.00  0.00    -0.344 OA
ATOM     13  C   UNL     1      70.705  48.163   6.819  1.00  0.00     0.179 C 
ATOM     14  C   UNL     1      72.184  47.769   6.961  1.00  0.00     0.202 C 
BRANCH  11  15
ATOM     15  O   UNL     1      70.125  50.212   5.584  1.00  0.00    -0.388 OA
ATOM     16  H   UNL     1      69.601  50.346   6.412  1.00  0.00     0.211 HD
ENDBRANCH  11  15
BRANCH  13  17
ATOM     17  O   UNL     1      70.339  49.033   7.880  1.00  0.00    -0.387 OA
ATOM     18  H   UNL     1      70.714  49.921   7.672  1.00  0.00     0.211 HD
ENDBRANCH  13  17
BRANCH  14  19
ATOM     19  O   UNL     1      72.959  48.895   7.308  1.00  0.00    -0.385 OA
ATOM     20  H   UNL     1      72.387  49.624   7.624  1.00  0.00     0.211 HD
ENDBRANCH  14  19
ENDBRANCH   7   8
ENDBRANCH   1   7
BRANCH   2  21
ATOM     21  O   UNL     1      74.807  44.779   7.630  1.00  0.00    -0.385 OA
ATOM     22  H   UNL     1      75.087  44.550   6.706  1.00  0.00     0.211 HD
ENDBRANCH   2  21
BRANCH   6  23
ATOM     23  O   UNL     1      70.793  44.365   8.841  1.00  0.00    -0.453 OA
BRANCH  23  24
ATOM     24  C   UNL     1      69.629  43.838   9.405  1.00  0.00     0.331 C 
ATOM     25  O   UNL     1      69.711  42.759  10.064  1.00  0.00    -0.247 OA
BRANCH  24  26
ATOM     26  C   UNL     1      68.339  44.528   9.261  1.00  0.00     0.094 C 
ATOM     27  C   UNL     1      67.515  44.234   8.247  1.00  0.00     0.016 C 
BRANCH  27  28
ATOM     28  C   UNL     1      66.155  44.806   8.115  1.00  0.00    -0.021 A 
ATOM     29  C   UNL     1      64.999  44.007   8.132  1.00  0.00     0.058 A 
ATOM     30  C   UNL     1      66.028  46.198   7.960  1.00  0.00     0.012 A 
ATOM     31  C   UNL     1      63.731  44.587   7.967  1.00  0.00     0.157 A 
ATOM     32  C   UNL     1      64.768  46.784   7.797  1.00  0.00     0.051 A 
ATOM     33  C   UNL     1      63.615  45.983   7.786  1.00  0.00     0.157 A 
BRANCH  31  34
ATOM     34  O   UNL     1      62.601  43.772   8.003  1.00  0.00    -0.504 OA
ATOM     35  H   UNL     1      62.012  43.727   8.825  1.00  0.00     0.293 HD
ENDBRANCH  31  34
BRANCH  33  36
ATOM     36  O   UNL     1      62.352  46.556   7.594  1.00  0.00    -0.504 OA
ATOM     37  H   UNL     1      61.804  46.895   8.376  1.00  0.00     0.293 HD
ENDBRANCH  33  36
ENDBRANCH  27  28
ENDBRANCH  24  26
ENDBRANCH  23  24
ENDBRANCH   6  23
BRANCH   3  38
ATOM     38  O   UNL     1      74.572  42.395   6.671  1.00  0.00    -0.350 OA
BRANCH  38  39
ATOM     39  C   UNL     1      74.654  40.983   6.752  1.00  0.00     0.168 C 
BRANCH  39  40
ATOM     40  C   UNL     1      74.388  40.376   5.373  1.00  0.00     0.064 C 
BRANCH  40  41
ATOM     41  C   UNL     1      73.131  39.546   5.357  1.00  0.00    -0.042 A 
ATOM     42  C   UNL     1      72.001  39.987   4.646  1.00  0.00     0.054 A 
ATOM     43  C   UNL     1      73.109  38.285   5.976  1.00  0.00     0.008 A 
ATOM     44  C   UNL     1      70.885  39.152   4.510  1.00  0.00     0.157 A 
ATOM     45  C   UNL     1      71.991  37.457   5.860  1.00  0.00     0.050 A 
ATOM     46  C   UNL     1      70.880  37.884   5.114  1.00  0.00     0.157 A 
BRANCH  44  47
ATOM     47  O   UNL     1      69.811  39.582   3.717  1.00  0.00    -0.504 OA
ATOM     48  H   UNL     1      69.846  40.441   3.184  1.00  0.00     0.293 HD
ENDBRANCH  44  47
BRANCH  46  49
ATOM     49  O   UNL     1      69.783  37.039   4.945  1.00  0.00    -0.504 OA
ATOM     50  H   UNL     1      69.897  36.050   4.754  1.00  0.00     0.293 HD
ENDBRANCH  46  49
ENDBRANCH  40  41
ENDBRANCH  39  40
ENDBRANCH  38  39
ENDBRANCH   3  38
BRANCH   5  51
ATOM     51  C   UNL     1      70.159  43.254   5.381  1.00  0.00     0.192 C 
BRANCH  51  52
ATOM     52  O   UNL     1      70.883  43.708   4.262  1.00  0.00    -0.394 OA
ATOM     53  H   UNL     1      71.095  44.661   4.442  1.00  0.00     0.210 HD
ENDBRANCH  51  52
ENDBRANCH   5  51
TORSDOF 20
ENDMDL
MODEL 7
REMARK VINA RESULT:    -6.080      1.464      2.209
REMARK INTER + INTRA:         -14.726
REMARK INTER:                 -12.345
REMARK INTRA:                  -2.381
REMARK UNBOUND:                -3.136
REMARK SMILES C[C@@H]1O[C@H](O[C@@H]2[C@H](O)[C@H](OCCc3ccc(O)c(O)c3)O[C@H](CO)[C@H]2OC(=O)C=Cc2ccc(O)c(O)c2)[C@@H](O)[C@@H](O)[C@H]1O
REMARK SMILES IDX 6 1 7 2 9 3 21 4 22 5 25 6 5 7 4 8 1 9 2 10 43 11 3 12 41 13
REMARK SMILES IDX 39 14 44 15 42 17 40 19 8 21 26 23 27 24 28 25 29 26 30 27
REMARK SMILES IDX 31 28 38 29 32 30 36 31 33 32 34 33 37 34 35 36 10 38 11 39
REMARK SMILES IDX 12 40 13 41 20 42 14 43 18 44 15 45 16 46 19 47 17 49 23 51
REMARK SMILES IDX 24 52
REMARK H PARENT 44 16 42 18 40 20 8 22 37 35 35 37 19 48 17 50 24 53
REMARK Flexibility Score: inf
ROOT
ATOM      1  C   UNL     1      71.929  43.074   6.313  1.00  0.00     0.199 C 
ATOM      2  C   UNL     1      71.377  44.210   5.399  1.00  0.00     0.203 C 
ATOM      3  C   UNL     1      72.377  45.399   5.310  1.00  0.00     0.282 C 
ATOM      4  O   UNL     1      73.626  45.037   5.864  1.00  0.00    -0.340 OA
ATOM      5  C   UNL     1      73.515  44.834   7.267  1.00  0.00     0.190 C 
ATOM      6  C   UNL     1      72.408  43.750   7.623  1.00  0.00     0.240 C 
ENDROOT
BRANCH   1   7
ATOM      7  O   UNL     1      73.033  42.377   5.754  1.00  0.00    -0.340 OA
BRANCH   7   8
ATOM      8  C   UNL     1      73.042  40.986   6.027  1.00  0.00     0.282 C 
ATOM      9  C   UNL     1      70.401  38.667   4.927  1.00  0.00     0.041 C 
ATOM     10  C   UNL     1      71.843  39.124   5.174  1.00  0.00     0.150 C 
ATOM     11  C   UNL     1      72.688  38.958   3.894  1.00  0.00     0.174 C 
ATOM     12  O   UNL     1      71.801  40.494   5.526  1.00  0.00    -0.344 OA
ATOM     13  C   UNL     1      73.983  39.820   3.933  1.00  0.00     0.179 C 
ATOM     14  C   UNL     1      74.306  40.360   5.336  1.00  0.00     0.202 C 
BRANCH  11  15
ATOM     15  O   UNL     1      72.983  37.582   3.711  1.00  0.00    -0.388 OA
ATOM     16  H   UNL     1      72.134  37.079   3.772  1.00  0.00     0.211 HD
ENDBRANCH  11  15
BRANCH  13  17
ATOM     17  O   UNL     1      75.086  39.071   3.444  1.00  0.00    -0.387 OA
ATOM     18  H   UNL     1      75.258  39.372   2.521  1.00  0.00     0.211 HD
ENDBRANCH  13  17
BRANCH  14  19
ATOM     19  O   UNL     1      74.935  39.363   6.109  1.00  0.00    -0.385 OA
ATOM     20  H   UNL     1      74.292  38.674   6.375  1.00  0.00     0.211 HD
ENDBRANCH  14  19
ENDBRANCH   7   8
ENDBRANCH   1   7
BRANCH   2  21
ATOM     21  O   UNL     1      71.004  43.746   4.120  1.00  0.00    -0.385 OA
ATOM     22  H   UNL     1      70.589  42.853   4.241  1.00  0.00     0.211 HD
ENDBRANCH   2  21
BRANCH   6  23
ATOM     23  O   UNL     1      71.239  44.276   8.292  1.00  0.00    -0.453 OA
BRANCH  23  24
ATOM     24  C   UNL     1      70.217  43.518   8.869  1.00  0.00     0.331 C 
ATOM     25  O   UNL     1      70.533  42.510   9.568  1.00  0.00    -0.247 OA
BRANCH  24  26
ATOM     26  C   UNL     1      68.806  43.890   8.691  1.00  0.00     0.094 C 
ATOM     27  C   UNL     1      68.439  45.176   8.639  1.00  0.00     0.016 C 
BRANCH  27  28
ATOM     28  C   UNL     1      67.054  45.613   8.342  1.00  0.00    -0.021 A 
ATOM     29  C   UNL     1      66.706  46.968   8.209  1.00  0.00     0.058 A 
ATOM     30  C   UNL     1      66.059  44.629   8.199  1.00  0.00     0.012 A 
ATOM     31  C   UNL     1      65.375  47.340   7.963  1.00  0.00     0.157 A 
ATOM     32  C   UNL     1      64.731  44.991   7.951  1.00  0.00     0.051 A 
ATOM     33  C   UNL     1      64.378  46.346   7.846  1.00  0.00     0.157 A 
BRANCH  31  34
ATOM     34  O   UNL     1      65.061  48.690   7.821  1.00  0.00    -0.504 OA
ATOM     35  H   UNL     1      65.606  49.295   7.220  1.00  0.00     0.293 HD
ENDBRANCH  31  34
BRANCH  33  36
ATOM     36  O   UNL     1      63.046  46.719   7.630  1.00  0.00    -0.504 OA
ATOM     37  H   UNL     1      62.805  47.440   6.959  1.00  0.00     0.293 HD
ENDBRANCH  33  36
ENDBRANCH  27  28
ENDBRANCH  24  26
ENDBRANCH  23  24
ENDBRANCH   6  23
BRANCH   3  38
ATOM     38  O   UNL     1      72.588  45.777   3.957  1.00  0.00    -0.350 OA
BRANCH  38  39
ATOM     39  C   UNL     1      72.112  47.089   3.713  1.00  0.00     0.168 C 
BRANCH  39  40
ATOM     40  C   UNL     1      72.951  48.092   4.509  1.00  0.00     0.064 C 
BRANCH  40  41
ATOM     41  C   UNL     1      72.290  48.472   5.807  1.00  0.00    -0.042 A 
ATOM     42  C   UNL     1      73.057  48.609   6.978  1.00  0.00     0.054 A 
ATOM     43  C   UNL     1      70.920  48.780   5.839  1.00  0.00     0.008 A 
ATOM     44  C   UNL     1      72.470  49.102   8.150  1.00  0.00     0.157 A 
ATOM     45  C   UNL     1      70.326  49.253   7.010  1.00  0.00     0.050 A 
ATOM     46  C   UNL     1      71.104  49.428   8.167  1.00  0.00     0.157 A 
BRANCH  44  47
ATOM     47  O   UNL     1      73.281  49.315   9.274  1.00  0.00    -0.504 OA
ATOM     48  H   UNL     1      73.149  50.105   9.892  1.00  0.00     0.293 HD
ENDBRANCH  44  47
BRANCH  46  49
ATOM     49  O   UNL     1      70.531  49.956   9.324  1.00  0.00    -0.504 OA
ATOM     50  H   UNL     1      71.093  50.221  10.124  1.00  0.00     0.293 HD
ENDBRANCH  46  49
ENDBRANCH  40  41
ENDBRANCH  39  40
ENDBRANCH  38  39
ENDBRANCH   3  38
BRANCH   5  51
ATOM     51  C   UNL     1      74.890  44.399   7.788  1.00  0.00     0.192 C 
BRANCH  51  52
ATOM     52  O   UNL     1      74.831  43.047   8.177  1.00  0.00    -0.394 OA
ATOM     53  H   UNL     1      74.424  42.560   7.413  1.00  0.00     0.210 HD
ENDBRANCH  51  52
ENDBRANCH   5  51
TORSDOF 20
ENDMDL
MODEL 8
REMARK VINA RESULT:    -6.072      2.343      7.057
REMARK INTER + INTRA:         -14.710
REMARK INTER:                 -11.558
REMARK INTRA:                  -3.152
REMARK UNBOUND:                -3.136
REMARK SMILES C[C@@H]1O[C@H](O[C@@H]2[C@H](O)[C@H](OCCc3ccc(O)c(O)c3)O[C@H](CO)[C@H]2OC(=O)C=Cc2ccc(O)c(O)c2)[C@@H](O)[C@@H](O)[C@H]1O
REMARK SMILES IDX 6 1 7 2 9 3 21 4 22 5 25 6 5 7 4 8 1 9 2 10 43 11 3 12 41 13
REMARK SMILES IDX 39 14 44 15 42 17 40 19 8 21 26 23 27 24 28 25 29 26 30 27
REMARK SMILES IDX 31 28 38 29 32 30 36 31 33 32 34 33 37 34 35 36 10 38 11 39
REMARK SMILES IDX 12 40 13 41 20 42 14 43 18 44 15 45 16 46 19 47 17 49 23 51
REMARK SMILES IDX 24 52
REMARK H PARENT 44 16 42 18 40 20 8 22 37 35 35 37 19 48 17 50 24 53
REMARK Flexibility Score: inf
ROOT
ATOM      1  C   UNL     1      71.174  44.162   7.621  1.00  0.00     0.199 C 
ATOM      2  C   UNL     1      71.159  43.780   6.110  1.00  0.00     0.203 C 
ATOM      3  C   UNL     1      71.720  42.347   5.884  1.00  0.00     0.282 C 
ATOM      4  O   UNL     1      71.857  41.669   7.117  1.00  0.00    -0.340 OA
ATOM      5  C   UNL     1      72.867  42.274   7.915  1.00  0.00     0.190 C 
ATOM      6  C   UNL     1      72.589  43.820   8.153  1.00  0.00     0.240 C 
ENDROOT
BRANCH   1   7
ATOM      7  O   UNL     1      70.230  43.442   8.402  1.00  0.00    -0.340 OA
BRANCH   7   8
ATOM      8  C   UNL     1      69.347  44.261   9.148  1.00  0.00     0.282 C 
ATOM      9  C   UNL     1      69.615  47.930   9.327  1.00  0.00     0.041 C 
ATOM     10  C   UNL     1      68.885  46.589   9.190  1.00  0.00     0.150 C 
ATOM     11  C   UNL     1      67.971  46.597   7.948  1.00  0.00     0.174 C 
ATOM     12  O   UNL     1      69.868  45.583   9.035  1.00  0.00    -0.344 OA
ATOM     13  C   UNL     1      67.587  45.158   7.495  1.00  0.00     0.179 C 
ATOM     14  C   UNL     1      67.902  44.090   8.555  1.00  0.00     0.202 C 
BRANCH  11  15
ATOM     15  O   UNL     1      66.820  47.380   8.227  1.00  0.00    -0.388 OA
ATOM     16  H   UNL     1      66.732  48.056   7.511  1.00  0.00     0.211 HD
ENDBRANCH  11  15
BRANCH  13  17
ATOM     17  O   UNL     1      66.209  45.103   7.156  1.00  0.00    -0.387 OA
ATOM     18  H   UNL     1      66.074  44.289   6.615  1.00  0.00     0.211 HD
ENDBRANCH  13  17
BRANCH  14  19
ATOM     19  O   UNL     1      66.889  44.061   9.536  1.00  0.00    -0.385 OA
ATOM     20  H   UNL     1      66.491  43.169   9.595  1.00  0.00     0.211 HD
ENDBRANCH  14  19
ENDBRANCH   7   8
ENDBRANCH   1   7
BRANCH   2  21
ATOM     21  O   UNL     1      69.886  43.939   5.522  1.00  0.00    -0.385 OA
ATOM     22  H   UNL     1      69.357  43.129   5.740  1.00  0.00     0.211 HD
ENDBRANCH   2  21
BRANCH   6  23
ATOM     23  O   UNL     1      73.524  44.711   7.501  1.00  0.00    -0.453 OA
BRANCH  23  24
ATOM     24  C   UNL     1      73.748  46.049   7.836  1.00  0.00     0.331 C 
ATOM     25  O   UNL     1      74.600  46.311   8.735  1.00  0.00    -0.247 OA
BRANCH  24  26
ATOM     26  C   UNL     1      73.030  47.131   7.149  1.00  0.00     0.094 C 
ATOM     27  C   UNL     1      72.571  46.964   5.902  1.00  0.00     0.016 C 
BRANCH  27  28
ATOM     28  C   UNL     1      71.738  47.972   5.203  1.00  0.00    -0.021 A 
ATOM     29  C   UNL     1      71.738  48.105   3.804  1.00  0.00     0.058 A 
ATOM     30  C   UNL     1      70.930  48.824   5.976  1.00  0.00     0.012 A 
ATOM     31  C   UNL     1      70.962  49.097   3.184  1.00  0.00     0.157 A 
ATOM     32  C   UNL     1      70.152  49.813   5.367  1.00  0.00     0.051 A 
ATOM     33  C   UNL     1      70.173  49.965   3.971  1.00  0.00     0.157 A 
BRANCH  31  34
ATOM     34  O   UNL     1      70.969  49.197   1.795  1.00  0.00    -0.504 OA
ATOM     35  H   UNL     1      71.829  49.357   1.284  1.00  0.00     0.293 HD
ENDBRANCH  31  34
BRANCH  33  36
ATOM     36  O   UNL     1      69.422  50.973   3.354  1.00  0.00    -0.504 OA
ATOM     37  H   UNL     1      69.818  51.550   2.622  1.00  0.00     0.293 HD
ENDBRANCH  33  36
ENDBRANCH  27  28
ENDBRANCH  24  26
ENDBRANCH  23  24
ENDBRANCH   6  23
BRANCH   3  38
ATOM     38  O   UNL     1      70.847  41.589   5.059  1.00  0.00    -0.350 OA
BRANCH  38  39
ATOM     39  C   UNL     1      71.142  40.206   5.138  1.00  0.00     0.168 C 
BRANCH  39  40
ATOM     40  C   UNL     1      69.845  39.401   5.028  1.00  0.00     0.064 C 
BRANCH  40  41
ATOM     41  C   UNL     1      69.443  38.798   6.349  1.00  0.00    -0.042 A 
ATOM     42  C   UNL     1      69.306  39.613   7.486  1.00  0.00     0.054 A 
ATOM     43  C   UNL     1      69.116  37.434   6.433  1.00  0.00     0.008 A 
ATOM     44  C   UNL     1      68.794  39.080   8.676  1.00  0.00     0.157 A 
ATOM     45  C   UNL     1      68.624  36.895   7.622  1.00  0.00     0.050 A 
ATOM     46  C   UNL     1      68.449  37.721   8.745  1.00  0.00     0.157 A 
BRANCH  44  47
ATOM     47  O   UNL     1      68.581  39.939   9.764  1.00  0.00    -0.504 OA
ATOM     48  H   UNL     1      68.527  39.600  10.716  1.00  0.00     0.293 HD
ENDBRANCH  44  47
BRANCH  46  49
ATOM     49  O   UNL     1      67.903  37.202   9.918  1.00  0.00    -0.504 OA
ATOM     50  H   UNL     1      67.059  36.641   9.911  1.00  0.00     0.293 HD
ENDBRANCH  46  49
ENDBRANCH  40  41
ENDBRANCH  39  40
ENDBRANCH  38  39
ENDBRANCH   3  38
BRANCH   5  51
ATOM     51  C   UNL     1      72.924  41.519   9.250  1.00  0.00     0.192 C 
BRANCH  51  52
ATOM     52  O   UNL     1      71.618  41.161   9.635  1.00  0.00    -0.394 OA
ATOM     53  H   UNL     1      71.629  40.176   9.758  1.00  0.00     0.210 HD
ENDBRANCH  51  52
ENDBRANCH   5  51
TORSDOF 20
ENDMDL
MODEL 9
REMARK VINA RESULT:    -6.030      2.270      6.242
REMARK INTER + INTRA:         -14.631
REMARK INTER:                 -10.898
REMARK INTRA:                  -3.733
REMARK UNBOUND:                -3.136
REMARK SMILES C[C@@H]1O[C@H](O[C@@H]2[C@H](O)[C@H](OCCc3ccc(O)c(O)c3)O[C@H](CO)[C@H]2OC(=O)C=Cc2ccc(O)c(O)c2)[C@@H](O)[C@@H](O)[C@H]1O
REMARK SMILES IDX 6 1 7 2 9 3 21 4 22 5 25 6 5 7 4 8 1 9 2 10 43 11 3 12 41 13
REMARK SMILES IDX 39 14 44 15 42 17 40 19 8 21 26 23 27 24 28 25 29 26 30 27
REMARK SMILES IDX 31 28 38 29 32 30 36 31 33 32 34 33 37 34 35 36 10 38 11 39
REMARK SMILES IDX 12 40 13 41 20 42 14 43 18 44 15 45 16 46 19 47 17 49 23 51
REMARK SMILES IDX 24 52
REMARK H PARENT 44 16 42 18 40 20 8 22 37 35 35 37 19 48 17 50 24 53
REMARK Flexibility Score: inf
ROOT
ATOM      1  C   UNL     1      72.801  43.535   7.128  1.00  0.00     0.199 C 
ATOM      2  C   UNL     1      73.314  43.370   5.665  1.00  0.00     0.203 C 
ATOM      3  C   UNL     1      74.375  42.237   5.564  1.00  0.00     0.282 C 
ATOM      4  O   UNL     1      74.410  41.483   6.759  1.00  0.00    -0.340 OA
ATOM      5  C   UNL     1      74.903  42.271   7.836  1.00  0.00     0.190 C 
ATOM      6  C   UNL     1      74.055  43.600   8.036  1.00  0.00     0.240 C 
ENDROOT
BRANCH   1   7
ATOM      7  O   UNL     1      71.995  42.454   7.576  1.00  0.00    -0.340 OA
BRANCH   7   8
ATOM      8  C   UNL     1      70.880  42.845   8.359  1.00  0.00     0.282 C 
ATOM      9  C   UNL     1      69.316  46.174   8.175  1.00  0.00     0.041 C 
ATOM     10  C   UNL     1      69.335  44.643   8.256  1.00  0.00     0.150 C 
ATOM     11  C   UNL     1      68.447  44.034   7.152  1.00  0.00     0.174 C 
ATOM     12  O   UNL     1      70.672  44.223   8.060  1.00  0.00    -0.344 OA
ATOM     13  C   UNL     1      68.791  42.540   6.884  1.00  0.00     0.179 C 
ATOM     14  C   UNL     1      69.669  41.917   7.981  1.00  0.00     0.202 C 
BRANCH  11  15
ATOM     15  O   UNL     1      67.084  44.199   7.513  1.00  0.00    -0.388 OA
ATOM     16  H   UNL     1      66.983  43.918   8.455  1.00  0.00     0.211 HD
ENDBRANCH  11  15
BRANCH  13  17
ATOM     17  O   UNL     1      67.599  41.781   6.739  1.00  0.00    -0.387 OA
ATOM     18  H   UNL     1      67.866  40.854   6.534  1.00  0.00     0.211 HD
ENDBRANCH  13  17
BRANCH  14  19
ATOM     19  O   UNL     1      68.878  41.546   9.088  1.00  0.00    -0.385 OA
ATOM     20  H   UNL     1      68.334  40.760   8.876  1.00  0.00     0.211 HD
ENDBRANCH  14  19
ENDBRANCH   7   8
ENDBRANCH   1   7
BRANCH   2  21
ATOM     21  O   UNL     1      72.266  43.187   4.738  1.00  0.00    -0.385 OA
ATOM     22  H   UNL     1      71.967  42.244   4.815  1.00  0.00     0.211 HD
ENDBRANCH   2  21
BRANCH   6  23
ATOM     23  O   UNL     1      74.761  44.821   7.714  1.00  0.00    -0.453 OA
BRANCH  23  24
ATOM     24  C   UNL     1      74.500  46.083   8.255  1.00  0.00     0.331 C 
ATOM     25  O   UNL     1      75.062  46.400   9.345  1.00  0.00    -0.247 OA
BRANCH  24  26
ATOM     26  C   UNL     1      73.612  47.032   7.570  1.00  0.00     0.094 C 
ATOM     27  C   UNL     1      73.381  46.926   6.255  1.00  0.00     0.016 C 
BRANCH  27  28
ATOM     28  C   UNL     1      72.406  47.776   5.532  1.00  0.00    -0.021 A 
ATOM     29  C   UNL     1      71.366  48.452   6.191  1.00  0.00     0.058 A 
ATOM     30  C   UNL     1      72.529  47.895   4.136  1.00  0.00     0.012 A 
ATOM     31  C   UNL     1      70.441  49.218   5.464  1.00  0.00     0.157 A 
ATOM     32  C   UNL     1      71.613  48.658   3.403  1.00  0.00     0.051 A 
ATOM     33  C   UNL     1      70.558  49.311   4.059  1.00  0.00     0.157 A 
BRANCH  31  34
ATOM     34  O   UNL     1      69.429  49.890   6.145  1.00  0.00    -0.504 OA
ATOM     35  H   UNL     1      69.243  50.871   5.975  1.00  0.00     0.293 HD
ENDBRANCH  31  34
BRANCH  33  36
ATOM     36  O   UNL     1      69.618  50.051   3.332  1.00  0.00    -0.504 OA
ATOM     37  H   UNL     1      69.615  51.065   3.356  1.00  0.00     0.293 HD
ENDBRANCH  33  36
ENDBRANCH  27  28
ENDBRANCH  24  26
ENDBRANCH  23  24
ENDBRANCH   6  23
BRANCH   3  38
ATOM     38  O   UNL     1      74.065  41.354   4.495  1.00  0.00    -0.350 OA
BRANCH  38  39
ATOM     39  C   UNL     1      74.090  40.004   4.924  1.00  0.00     0.168 C 
BRANCH  39  40
ATOM     40  C   UNL     1      73.014  39.211   4.179  1.00  0.00     0.064 C 
BRANCH  40  41
ATOM     41  C   UNL     1      71.790  38.987   5.028  1.00  0.00    -0.042 A 
ATOM     42  C   UNL     1      71.923  38.671   6.391  1.00  0.00     0.054 A 
ATOM     43  C   UNL     1      70.509  39.181   4.485  1.00  0.00     0.008 A 
ATOM     44  C   UNL     1      70.790  38.605   7.212  1.00  0.00     0.157 A 
ATOM     45  C   UNL     1      69.375  39.097   5.296  1.00  0.00     0.050 A 
ATOM     46  C   UNL     1      69.515  38.821   6.666  1.00  0.00     0.157 A 
BRANCH  44  47
ATOM     47  O   UNL     1      70.963  38.380   8.586  1.00  0.00    -0.504 OA
ATOM     48  H   UNL     1      70.583  37.565   9.050  1.00  0.00     0.293 HD
ENDBRANCH  44  47
BRANCH  46  49
ATOM     49  O   UNL     1      68.392  38.794   7.493  1.00  0.00    -0.504 OA
ATOM     50  H   UNL     1      67.935  39.645   7.800  1.00  0.00     0.293 HD
ENDBRANCH  46  49
ENDBRANCH  40  41
ENDBRANCH  39  40
ENDBRANCH  38  39
ENDBRANCH   3  38
BRANCH   5  51
ATOM     51  C   UNL     1      74.867  41.407   9.103  1.00  0.00     0.192 C 
BRANCH  51  52
ATOM     52  O   UNL     1      73.744  40.558   9.052  1.00  0.00    -0.394 OA
ATOM     53  H   UNL     1      73.168  40.820   9.817  1.00  0.00     0.210 HD
ENDBRANCH  51  52
ENDBRANCH   5  51
TORSDOF 20
ENDMDL
