MODEL 1
REMARK VINA RESULT:     1.366      0.000      0.000
REMARK INTER + INTRA:           1.233
REMARK INTER:                   1.646
REMARK INTRA:                  -0.413
REMARK UNBOUND:                -0.413
REMARK SMILES O=c1c(O)c(-c2ccc(O)cc2O)oc2cc(O)cc(O)c12
REMARK SMILES IDX 5 1 3 2 2 3 1 4 22 5 20 6 19 7 17 8 16 9 15 10 14 11 6 12
REMARK SMILES IDX 8 13 7 14 9 15 11 16 12 17 10 18 13 20 4 22 21 24 18 26
REMARK H PARENT 10 19 13 21 4 23 21 25 18 27
REMARK Flexibility Score: inf
ROOT
ATOM      1  C   UNL     1      73.912  40.748  21.271  1.00  0.00     0.184 A 
ATOM      2  C   UNL     1      72.778  41.496  20.913  1.00  0.00     0.208 A 
ATOM      3  C   UNL     1      71.733  40.861  20.225  1.00  0.00     0.238 A 
ATOM      4  O   UNL     1      70.745  41.549  19.856  1.00  0.00    -0.285 OA
ATOM      5  C   UNL     1      71.826  39.481  19.920  1.00  0.00     0.111 A 
ATOM      6  C   UNL     1      70.810  38.726  19.261  1.00  0.00     0.134 A 
ATOM      7  C   UNL     1      71.063  37.397  18.897  1.00  0.00     0.093 A 
ATOM      8  C   UNL     1      72.271  36.778  19.227  1.00  0.00     0.123 A 
ATOM      9  C   UNL     1      73.246  37.489  19.923  1.00  0.00     0.094 A 
ATOM     10  C   UNL     1      73.036  38.827  20.267  1.00  0.00     0.146 A 
ATOM     11  O   UNL     1      73.996  39.471  20.919  1.00  0.00    -0.451 OA
ENDROOT
BRANCH   1  12
ATOM     12  C   UNL     1      75.040  41.349  22.020  1.00  0.00     0.063 A 
ATOM     13  C   UNL     1      76.929  42.882  22.117  1.00  0.00     0.047 A 
ATOM     14  C   UNL     1      75.882  42.294  21.404  1.00  0.00     0.020 A 
ATOM     15  C   UNL     1      77.145  42.544  23.458  1.00  0.00     0.119 A 
ATOM     16  C   UNL     1      76.306  41.617  24.083  1.00  0.00     0.093 A 
ATOM     17  C   UNL     1      75.252  41.020  23.374  1.00  0.00     0.130 A 
BRANCH  15  18
ATOM     18  O   UNL     1      78.185  43.125  24.178  1.00  0.00    -0.508 OA
ATOM     19  H   UNL     1      78.073  44.016  24.646  1.00  0.00     0.293 HD
ENDBRANCH  15  18
BRANCH  17  20
ATOM     20  O   UNL     1      74.427  40.091  24.009  1.00  0.00    -0.507 OA
ATOM     21  H   UNL     1      73.903  40.329  24.843  1.00  0.00     0.293 HD
ENDBRANCH  17  20
ENDBRANCH   1  12
BRANCH   2  22
ATOM     22  O   UNL     1      72.715  42.860  21.213  1.00  0.00    -0.502 OA
ATOM     23  H   UNL     1      72.974  43.229  22.120  1.00  0.00     0.293 HD
ENDBRANCH   2  22
BRANCH   6  24
ATOM     24  O   UNL     1      69.536  39.221  18.968  1.00  0.00    -0.507 OA
ATOM     25  H   UNL     1      68.685  38.679  19.005  1.00  0.00     0.293 HD
ENDBRANCH   6  24
BRANCH   8  26
ATOM     26  O   UNL     1      72.508  35.451  18.875  1.00  0.00    -0.508 OA
ATOM     27  H   UNL     1      71.818  34.904  18.374  1.00  0.00     0.293 HD
ENDBRANCH   8  26
TORSDOF 6
ENDMDL
MODEL 2
REMARK VINA RESULT:     1.575      0.683      1.475
REMARK INTER + INTRA:           1.485
REMARK INTER:                   1.735
REMARK INTRA:                  -0.251
REMARK UNBOUND:                -0.413
REMARK SMILES O=c1c(O)c(-c2ccc(O)cc2O)oc2cc(O)cc(O)c12
REMARK SMILES IDX 5 1 3 2 2 3 1 4 22 5 20 6 19 7 17 8 16 9 15 10 14 11 6 12
REMARK SMILES IDX 8 13 7 14 9 15 11 16 12 17 10 18 13 20 4 22 21 24 18 26
REMARK H PARENT 10 19 13 21 4 23 21 25 18 27
REMARK Flexibility Score: inf
ROOT
ATOM      1  C   UNL     1      73.890  40.877  21.275  1.00  0.00     0.184 A 
ATOM      2  C   UNL     1      72.763  41.627  20.896  1.00  0.00     0.208 A 
ATOM      3  C   UNL     1      71.727  40.990  20.195  1.00  0.00     0.238 A 
ATOM      4  O   UNL     1      70.746  41.679  19.809  1.00  0.00    -0.285 OA
ATOM      5  C   UNL     1      71.820  39.609  19.899  1.00  0.00     0.111 A 
ATOM      6  C   UNL     1      70.812  38.853  19.229  1.00  0.00     0.134 A 
ATOM      7  C   UNL     1      71.067  37.522  18.875  1.00  0.00     0.093 A 
ATOM      8  C   UNL     1      72.268  36.901  19.226  1.00  0.00     0.123 A 
ATOM      9  C   UNL     1      73.234  37.613  19.933  1.00  0.00     0.094 A 
ATOM     10  C   UNL     1      73.024  38.953  20.267  1.00  0.00     0.146 A 
ATOM     11  O   UNL     1      73.976  39.598  20.930  1.00  0.00    -0.451 OA
ENDROOT
BRANCH   1  12
ATOM     12  C   UNL     1      75.008  41.479  22.037  1.00  0.00     0.063 A 
ATOM     13  C   UNL     1      76.380  41.577  24.046  1.00  0.00     0.047 A 
ATOM     14  C   UNL     1      75.308  41.030  23.337  1.00  0.00     0.020 A 
ATOM     15  C   UNL     1      77.173  42.573  23.465  1.00  0.00     0.119 A 
ATOM     16  C   UNL     1      76.892  43.016  22.170  1.00  0.00     0.093 A 
ATOM     17  C   UNL     1      75.817  42.473  21.450  1.00  0.00     0.130 A 
BRANCH  15  18
ATOM     18  O   UNL     1      78.244  43.125  24.163  1.00  0.00    -0.508 OA
ATOM     19  H   UNL     1      78.560  42.736  25.044  1.00  0.00     0.293 HD
ENDBRANCH  15  18
BRANCH  17  20
ATOM     20  O   UNL     1      75.543  42.931  20.161  1.00  0.00    -0.507 OA
ATOM     21  H   UNL     1      75.862  43.838  19.840  1.00  0.00     0.293 HD
ENDBRANCH  17  20
ENDBRANCH   1  12
BRANCH   2  22
ATOM     22  O   UNL     1      72.699  42.992  21.188  1.00  0.00    -0.502 OA
ATOM     23  H   UNL     1      72.455  43.340  22.107  1.00  0.00     0.293 HD
ENDBRANCH   2  22
BRANCH   6  24
ATOM     24  O   UNL     1      69.544  39.350  18.914  1.00  0.00    -0.507 OA
ATOM     25  H   UNL     1      69.337  40.319  18.721  1.00  0.00     0.293 HD
ENDBRANCH   6  24
BRANCH   8  26
ATOM     26  O   UNL     1      72.507  35.572  18.885  1.00  0.00    -0.508 OA
ATOM     27  H   UNL     1      72.227  35.197  17.986  1.00  0.00     0.293 HD
ENDBRANCH   8  26
TORSDOF 6
ENDMDL
MODEL 3
REMARK VINA RESULT:     2.854      3.067      4.324
REMARK INTER + INTRA:           3.025
REMARK INTER:                   3.018
REMARK INTRA:                   0.007
REMARK UNBOUND:                -0.413
REMARK SMILES O=c1c(O)c(-c2ccc(O)cc2O)oc2cc(O)cc(O)c12
REMARK SMILES IDX 5 1 3 2 2 3 1 4 22 5 20 6 19 7 17 8 16 9 15 10 14 11 6 12
REMARK SMILES IDX 8 13 7 14 9 15 11 16 12 17 10 18 13 20 4 22 21 24 18 26
REMARK H PARENT 10 19 13 21 4 23 21 25 18 27
REMARK Flexibility Score: inf
ROOT
ATOM      1  C   UNL     1      73.317  41.685  22.439  1.00  0.00     0.184 A 
ATOM      2  C   UNL     1      73.429  41.715  21.039  1.00  0.00     0.208 A 
ATOM      3  C   UNL     1      72.311  42.082  20.274  1.00  0.00     0.238 A 
ATOM      4  O   UNL     1      72.401  42.051  19.019  1.00  0.00    -0.285 OA
ATOM      5  C   UNL     1      71.100  42.433  20.919  1.00  0.00     0.111 A 
ATOM      6  C   UNL     1      69.916  42.858  20.246  1.00  0.00     0.134 A 
ATOM      7  C   UNL     1      68.739  43.057  20.978  1.00  0.00     0.093 A 
ATOM      8  C   UNL     1      68.720  42.909  22.367  1.00  0.00     0.123 A 
ATOM      9  C   UNL     1      69.886  42.552  23.040  1.00  0.00     0.094 A 
ATOM     10  C   UNL     1      71.067  42.311  22.333  1.00  0.00     0.146 A 
ATOM     11  O   UNL     1      72.152  41.961  23.012  1.00  0.00    -0.451 OA
ENDROOT
BRANCH   1  12
ATOM     12  C   UNL     1      74.464  41.330  23.307  1.00  0.00     0.063 A 
ATOM     13  C   UNL     1      75.452  39.916  25.024  1.00  0.00     0.047 A 
ATOM     14  C   UNL     1      74.363  40.268  24.225  1.00  0.00     0.020 A 
ATOM     15  C   UNL     1      76.662  40.611  24.912  1.00  0.00     0.119 A 
ATOM     16  C   UNL     1      76.778  41.658  23.994  1.00  0.00     0.093 A 
ATOM     17  C   UNL     1      75.688  42.021  23.187  1.00  0.00     0.130 A 
BRANCH  15  18
ATOM     18  O   UNL     1      77.755  40.267  25.704  1.00  0.00    -0.508 OA
ATOM     19  H   UNL     1      78.121  40.900  26.405  1.00  0.00     0.293 HD
ENDBRANCH  15  18
BRANCH  17  20
ATOM     20  O   UNL     1      75.816  43.072  22.280  1.00  0.00    -0.507 OA
ATOM     21  H   UNL     1      75.370  43.968  22.439  1.00  0.00     0.293 HD
ENDBRANCH  17  20
ENDBRANCH   1  12
BRANCH   2  22
ATOM     22  O   UNL     1      74.631  41.351  20.424  1.00  0.00    -0.502 OA
ATOM     23  H   UNL     1      75.271  42.033  20.036  1.00  0.00     0.293 HD
ENDBRANCH   2  22
BRANCH   6  24
ATOM     24  O   UNL     1      69.850  43.124  18.875  1.00  0.00    -0.507 OA
ATOM     25  H   UNL     1      69.478  42.490  18.183  1.00  0.00     0.293 HD
ENDBRANCH   6  24
BRANCH   8  26
ATOM     26  O   UNL     1      67.549  43.124  23.089  1.00  0.00    -0.508 OA
ATOM     27  H   UNL     1      67.174  44.056  23.226  1.00  0.00     0.293 HD
ENDBRANCH   8  26
TORSDOF 6
ENDMDL
