MODEL 1
REMARK VINA RESULT:    -4.050      0.000      0.000
REMARK INTER + INTRA:          -6.504
REMARK INTER:                  -5.470
REMARK INTRA:                  -1.034
REMARK UNBOUND:                -1.034
REMARK SMILES CC(=O)CCC=C(C)CCC=C(C)C
REMARK SMILES IDX 7 1 6 2 8 3 9 4 10 5 11 6 13 7 12 8 14 9 5 10 4 11 2 12 3 13
REMARK SMILES IDX 1 14
REMARK H PARENT
REMARK Flexibility Score: inf
ROOT
ATOM      1  C   UNL     1      -0.741   7.109 -10.029  1.00  0.00    -0.077 C 
ATOM      2  C   UNL     1      -0.194   7.243 -11.259  1.00  0.00    -0.028 C 
ATOM      3  C   UNL     1       0.107   7.006  -8.783  1.00  0.00     0.039 C 
ENDROOT
BRANCH   1   4
ATOM      4  C   UNL     1      -2.244   6.986  -9.896  1.00  0.00     0.034 C 
BRANCH   4   5
ATOM      5  C   UNL     1      -2.961   7.342 -11.207  1.00  0.00     0.032 C 
BRANCH   5   6
ATOM      6  C   UNL     1      -4.013   8.407 -11.006  1.00  0.00    -0.028 C 
ATOM      7  C   UNL     1      -4.952  10.675 -10.925  1.00  0.00     0.039 C 
ATOM      8  C   UNL     1      -3.786   9.735 -11.103  1.00  0.00    -0.080 C 
ATOM      9  C   UNL     1      -2.410  10.297 -11.363  1.00  0.00     0.039 C 
ENDBRANCH   5   6
ENDBRANCH   4   5
ENDBRANCH   1   4
BRANCH   2  10
ATOM     10  C   UNL     1       1.284   7.383 -11.527  1.00  0.00     0.035 C 
BRANCH  10  11
ATOM     11  C   UNL     1       1.667   8.861 -11.689  1.00  0.00     0.079 C 
BRANCH  11  12
ATOM     12  C   UNL     1       2.491   9.447 -10.560  1.00  0.00     0.130 C 
ATOM     13  O   UNL     1       3.699   9.270 -10.588  1.00  0.00    -0.300 OA
ATOM     14  C   UNL     1       1.926  10.234  -9.404  1.00  0.00     0.087 C 
ENDBRANCH  11  12
ENDBRANCH  10  11
ENDBRANCH   2  10
TORSDOF 6
ENDMDL
MODEL 2
REMARK VINA RESULT:    -4.048      2.944      5.979
REMARK INTER + INTRA:          -6.501
REMARK INTER:                  -5.788
REMARK INTRA:                  -0.713
REMARK UNBOUND:                -1.034
REMARK SMILES CC(=O)CCC=C(C)CCC=C(C)C
REMARK SMILES IDX 7 1 6 2 8 3 9 4 10 5 11 6 13 7 12 8 14 9 5 10 4 11 2 12 3 13
REMARK SMILES IDX 1 14
REMARK H PARENT
REMARK Flexibility Score: inf
ROOT
ATOM      1  C   UNL     1      -2.459   7.859 -10.193  1.00  0.00    -0.077 C 
ATOM      2  C   UNL     1      -3.176   8.990 -10.391  1.00  0.00    -0.028 C 
ATOM      3  C   UNL     1      -2.515   6.697 -11.156  1.00  0.00     0.039 C 
ENDROOT
BRANCH   1   4
ATOM      4  C   UNL     1      -1.628   7.720  -8.935  1.00  0.00     0.034 C 
BRANCH   4   5
ATOM      5  C   UNL     1      -0.440   6.768  -9.140  1.00  0.00     0.032 C 
BRANCH   5   6
ATOM      6  C   UNL     1       0.875   7.508  -9.195  1.00  0.00    -0.028 C 
ATOM      7  C   UNL     1       2.807   8.617 -10.228  1.00  0.00     0.039 C 
ATOM      8  C   UNL     1       1.526   7.830 -10.334  1.00  0.00    -0.080 C 
ATOM      9  C   UNL     1       1.020   7.411 -11.693  1.00  0.00     0.039 C 
ENDBRANCH   5   6
ENDBRANCH   4   5
ENDBRANCH   1   4
BRANCH   2  10
ATOM     10  C   UNL     1      -4.034   9.257 -11.602  1.00  0.00     0.035 C 
BRANCH  10  11
ATOM     11  C   UNL     1      -4.323  10.758 -11.739  1.00  0.00     0.079 C 
BRANCH  11  12
ATOM     12  C   UNL     1      -5.595  11.240 -11.070  1.00  0.00     0.130 C 
ATOM     13  O   UNL     1      -6.409  10.399 -10.725  1.00  0.00    -0.300 OA
ATOM     14  C   UNL     1      -5.927  12.686 -10.800  1.00  0.00     0.087 C 
ENDBRANCH  11  12
ENDBRANCH  10  11
ENDBRANCH   2  10
TORSDOF 6
ENDMDL
MODEL 3
REMARK VINA RESULT:    -4.039      1.450      1.963
REMARK INTER + INTRA:          -6.490
REMARK INTER:                  -5.336
REMARK INTRA:                  -1.153
REMARK UNBOUND:                -1.034
REMARK SMILES CC(=O)CCC=C(C)CCC=C(C)C
REMARK SMILES IDX 7 1 6 2 8 3 9 4 10 5 11 6 13 7 12 8 14 9 5 10 4 11 2 12 3 13
REMARK SMILES IDX 1 14
REMARK H PARENT
REMARK Flexibility Score: inf
ROOT
ATOM      1  C   UNL     1       0.578   7.575  -8.961  1.00  0.00    -0.077 C 
ATOM      2  C   UNL     1       1.445   7.728  -9.988  1.00  0.00    -0.028 C 
ATOM      3  C   UNL     1       0.789   8.251  -7.627  1.00  0.00     0.039 C 
ENDROOT
BRANCH   1   4
ATOM      4  C   UNL     1      -0.605   6.643  -9.124  1.00  0.00     0.034 C 
BRANCH   4   5
ATOM      5  C   UNL     1      -1.229   6.755 -10.522  1.00  0.00     0.032 C 
BRANCH   5   6
ATOM      6  C   UNL     1      -2.599   7.390 -10.481  1.00  0.00    -0.028 C 
ATOM      7  C   UNL     1      -4.276   9.172 -10.697  1.00  0.00     0.039 C 
ATOM      8  C   UNL     1      -2.846   8.696 -10.726  1.00  0.00    -0.080 C 
ATOM      9  C   UNL     1      -1.739   9.683 -11.008  1.00  0.00     0.039 C 
ENDBRANCH   5   6
ENDBRANCH   4   5
ENDBRANCH   1   4
BRANCH   2  10
ATOM     10  C   UNL     1       2.654   8.629  -9.959  1.00  0.00     0.035 C 
BRANCH  10  11
ATOM     11  C   UNL     1       2.433   9.861 -10.848  1.00  0.00     0.079 C 
BRANCH  11  12
ATOM     12  C   UNL     1       1.970  11.111 -10.126  1.00  0.00     0.130 C 
ATOM     13  O   UNL     1       1.203  11.856 -10.715  1.00  0.00    -0.300 OA
ATOM     14  C   UNL     1       2.388  11.500  -8.731  1.00  0.00     0.087 C 
ENDBRANCH  11  12
ENDBRANCH  10  11
ENDBRANCH   2  10
TORSDOF 6
ENDMDL
MODEL 4
REMARK VINA RESULT:    -4.005      2.661      5.181
REMARK INTER + INTRA:          -6.443
REMARK INTER:                  -5.434
REMARK INTRA:                  -1.010
REMARK UNBOUND:                -1.034
REMARK SMILES CC(=O)CCC=C(C)CCC=C(C)C
REMARK SMILES IDX 7 1 6 2 8 3 9 4 10 5 11 6 13 7 12 8 14 9 5 10 4 11 2 12 3 13
REMARK SMILES IDX 1 14
REMARK H PARENT
REMARK Flexibility Score: inf
ROOT
ATOM      1  C   UNL     1      -0.948   7.318  -9.258  1.00  0.00    -0.077 C 
ATOM      2  C   UNL     1      -1.508   7.025 -10.454  1.00  0.00    -0.028 C 
ATOM      3  C   UNL     1      -1.692   8.088  -8.193  1.00  0.00     0.039 C 
ENDROOT
BRANCH   1   4
ATOM      4  C   UNL     1       0.493   6.927  -8.999  1.00  0.00     0.034 C 
BRANCH   4   5
ATOM      5  C   UNL     1       1.447   7.562 -10.022  1.00  0.00     0.032 C 
BRANCH   5   6
ATOM      6  C   UNL     1       2.039   8.855  -9.515  1.00  0.00    -0.028 C 
ATOM      7  C   UNL     1       2.294  11.285  -9.265  1.00  0.00     0.039 C 
ATOM      8  C   UNL     1       1.638  10.086  -9.900  1.00  0.00    -0.080 C 
ATOM      9  C   UNL     1       0.575  10.290 -10.953  1.00  0.00     0.039 C 
ENDBRANCH   5   6
ENDBRANCH   4   5
ENDBRANCH   1   4
BRANCH   2  10
ATOM     10  C   UNL     1      -2.931   7.349 -10.835  1.00  0.00     0.035 C 
BRANCH  10  11
ATOM     11  C   UNL     1      -3.049   8.810 -11.291  1.00  0.00     0.079 C 
BRANCH  11  12
ATOM     12  C   UNL     1      -4.205   9.588 -10.692  1.00  0.00     0.130 C 
ATOM     13  O   UNL     1      -5.280   9.018 -10.591  1.00  0.00    -0.300 OA
ATOM     14  C   UNL     1      -4.122  11.015 -10.213  1.00  0.00     0.087 C 
ENDBRANCH  11  12
ENDBRANCH  10  11
ENDBRANCH   2  10
TORSDOF 6
ENDMDL
MODEL 5
REMARK VINA RESULT:    -3.997     16.015     17.427
REMARK INTER + INTRA:          -6.432
REMARK INTER:                  -5.510
REMARK INTRA:                  -0.923
REMARK UNBOUND:                -1.034
REMARK SMILES CC(=O)CCC=C(C)CCC=C(C)C
REMARK SMILES IDX 7 1 6 2 8 3 9 4 10 5 11 6 13 7 12 8 14 9 5 10 4 11 2 12 3 13
REMARK SMILES IDX 1 14
REMARK H PARENT
REMARK Flexibility Score: inf
ROOT
ATOM      1  C   UNL     1       2.728  13.382   5.305  1.00  0.00    -0.077 C 
ATOM      2  C   UNL     1       2.602  12.679   6.455  1.00  0.00    -0.028 C 
ATOM      3  C   UNL     1       4.000  14.115   4.951  1.00  0.00     0.039 C 
ENDROOT
BRANCH   1   4
ATOM      4  C   UNL     1       1.538  13.501   4.376  1.00  0.00     0.034 C 
BRANCH   4   5
ATOM      5  C   UNL     1       0.208  13.385   5.136  1.00  0.00     0.032 C 
BRANCH   5   6
ATOM      6  C   UNL     1      -0.547  12.131   4.766  1.00  0.00    -0.028 C 
ATOM      7  C   UNL     1      -1.829  10.068   5.133  1.00  0.00     0.039 C 
ATOM      8  C   UNL     1      -1.052  11.249   5.656  1.00  0.00    -0.080 C 
ATOM      9  C   UNL     1      -0.846  11.404   7.144  1.00  0.00     0.039 C 
ENDBRANCH   5   6
ENDBRANCH   4   5
ENDBRANCH   1   4
BRANCH   2  10
ATOM     10  C   UNL     1       3.709  12.478   7.459  1.00  0.00     0.035 C 
BRANCH  10  11
ATOM     11  C   UNL     1       4.200  11.023   7.438  1.00  0.00     0.079 C 
BRANCH  11  12
ATOM     12  C   UNL     1       5.314  10.726   6.454  1.00  0.00     0.130 C 
ATOM     13  O   UNL     1       5.260   9.675   5.836  1.00  0.00    -0.300 OA
ATOM     14  C   UNL     1       6.485  11.636   6.185  1.00  0.00     0.087 C 
ENDBRANCH  11  12
ENDBRANCH  10  11
ENDBRANCH   2  10
TORSDOF 6
ENDMDL
MODEL 6
REMARK VINA RESULT:    -3.969      1.405      2.696
REMARK INTER + INTRA:          -6.394
REMARK INTER:                  -5.400
REMARK INTRA:                  -0.994
REMARK UNBOUND:                -1.034
REMARK SMILES CC(=O)CCC=C(C)CCC=C(C)C
REMARK SMILES IDX 7 1 6 2 8 3 9 4 10 5 11 6 13 7 12 8 14 9 5 10 4 11 2 12 3 13
REMARK SMILES IDX 1 14
REMARK H PARENT
REMARK Flexibility Score: inf
ROOT
ATOM      1  C   UNL     1      -2.151   7.883  -9.898  1.00  0.00    -0.077 C 
ATOM      2  C   UNL     1      -1.204   7.893  -8.931  1.00  0.00    -0.028 C 
ATOM      3  C   UNL     1      -2.148   6.862 -11.011  1.00  0.00     0.039 C 
ENDROOT
BRANCH   1   4
ATOM      4  C   UNL     1      -3.207   8.968  -9.910  1.00  0.00     0.034 C 
BRANCH   4   5
ATOM      5  C   UNL     1      -3.372   9.586 -11.307  1.00  0.00     0.032 C 
BRANCH   5   6
ATOM      6  C   UNL     1      -3.064  11.064 -11.311  1.00  0.00    -0.028 C 
ATOM      7  C   UNL     1      -1.693  13.090 -11.527  1.00  0.00     0.039 C 
ATOM      8  C   UNL     1      -1.833  11.590 -11.498  1.00  0.00    -0.080 C 
ATOM      9  C   UNL     1      -0.607  10.724 -11.658  1.00  0.00     0.039 C 
ENDBRANCH   5   6
ENDBRANCH   4   5
ENDBRANCH   1   4
BRANCH   2  10
ATOM     10  C   UNL     1      -0.105   6.868  -8.801  1.00  0.00     0.035 C 
BRANCH  10  11
ATOM     11  C   UNL     1       1.250   7.554  -8.577  1.00  0.00     0.079 C 
BRANCH  11  12
ATOM     12  C   UNL     1       1.990   7.961  -9.836  1.00  0.00     0.130 C 
ATOM     13  O   UNL     1       2.992   8.646  -9.709  1.00  0.00    -0.300 OA
ATOM     14  C   UNL     1       1.576   7.580 -11.235  1.00  0.00     0.087 C 
ENDBRANCH  11  12
ENDBRANCH  10  11
ENDBRANCH   2  10
TORSDOF 6
ENDMDL
MODEL 7
REMARK VINA RESULT:    -3.962      2.446      4.930
REMARK INTER + INTRA:          -6.386
REMARK INTER:                  -5.334
REMARK INTRA:                  -1.051
REMARK UNBOUND:                -1.034
REMARK SMILES CC(=O)CCC=C(C)CCC=C(C)C
REMARK SMILES IDX 7 1 6 2 8 3 9 4 10 5 11 6 13 7 12 8 14 9 5 10 4 11 2 12 3 13
REMARK SMILES IDX 1 14
REMARK H PARENT
REMARK Flexibility Score: inf
ROOT
ATOM      1  C   UNL     1       1.162   7.819  -8.984  1.00  0.00    -0.077 C 
ATOM      2  C   UNL     1       0.311   7.116  -9.766  1.00  0.00    -0.028 C 
ATOM      3  C   UNL     1       0.772   8.299  -7.606  1.00  0.00     0.039 C 
ENDROOT
BRANCH   1   4
ATOM      4  C   UNL     1       2.524   8.200  -9.528  1.00  0.00     0.034 C 
BRANCH   4   5
ATOM      5  C   UNL     1       2.415   8.911 -10.884  1.00  0.00     0.032 C 
BRANCH   5   6
ATOM      6  C   UNL     1       2.260  10.405 -10.729  1.00  0.00    -0.028 C 
ATOM      7  C   UNL     1       1.095  12.567 -10.669  1.00  0.00     0.039 C 
ATOM      8  C   UNL     1       1.103  11.079 -10.911  1.00  0.00    -0.080 C 
ATOM      9  C   UNL     1      -0.163  10.392 -11.365  1.00  0.00     0.039 C 
ENDBRANCH   5   6
ENDBRANCH   4   5
ENDBRANCH   1   4
BRANCH   2  10
ATOM     10  C   UNL     1      -1.066   6.667  -9.343  1.00  0.00     0.035 C 
BRANCH  10  11
ATOM     11  C   UNL     1      -2.145   7.539  -9.999  1.00  0.00     0.079 C 
BRANCH  11  12
ATOM     12  C   UNL     1      -2.734   6.989 -11.283  1.00  0.00     0.130 C 
ATOM     13  O   UNL     1      -2.246   5.968 -11.740  1.00  0.00    -0.300 OA
ATOM     14  C   UNL     1      -3.881   7.614 -12.036  1.00  0.00     0.087 C 
ENDBRANCH  11  12
ENDBRANCH  10  11
ENDBRANCH   2  10
TORSDOF 6
ENDMDL
MODEL 8
REMARK VINA RESULT:    -3.860     15.805     18.077
REMARK INTER + INTRA:          -6.247
REMARK INTER:                  -5.520
REMARK INTRA:                  -0.727
REMARK UNBOUND:                -1.034
REMARK SMILES CC(=O)CCC=C(C)CCC=C(C)C
REMARK SMILES IDX 7 1 6 2 8 3 9 4 10 5 11 6 13 7 12 8 14 9 5 10 4 11 2 12 3 13
REMARK SMILES IDX 1 14
REMARK H PARENT
REMARK Flexibility Score: inf
ROOT
ATOM      1  C   UNL     1       1.879  13.118   5.411  1.00  0.00    -0.077 C 
ATOM      2  C   UNL     1       1.119  13.426   4.334  1.00  0.00    -0.028 C 
ATOM      3  C   UNL     1       1.393  12.182   6.491  1.00  0.00     0.039 C 
ENDROOT
BRANCH   1   4
ATOM      4  C   UNL     1       3.229  13.784   5.579  1.00  0.00     0.034 C 
BRANCH   4   5
ATOM      5  C   UNL     1       4.051  13.128   6.698  1.00  0.00     0.032 C 
BRANCH   5   6
ATOM      6  C   UNL     1       5.243  12.375   6.157  1.00  0.00    -0.028 C 
ATOM      7  C   UNL     1       6.728  10.456   5.781  1.00  0.00     0.039 C 
ATOM      8  C   UNL     1       5.528  11.085   6.441  1.00  0.00    -0.080 C 
ATOM      9  C   UNL     1       4.697  10.273   7.404  1.00  0.00     0.039 C 
ENDBRANCH   5   6
ENDBRANCH   4   5
ENDBRANCH   1   4
BRANCH   2  10
ATOM     10  C   UNL     1      -0.235  12.829   4.045  1.00  0.00     0.035 C 
BRANCH  10  11
ATOM     11  C   UNL     1      -1.352  13.816   4.413  1.00  0.00     0.079 C 
BRANCH  11  12
ATOM     12  C   UNL     1      -2.588  13.198   5.037  1.00  0.00     0.130 C 
ATOM     13  O   UNL     1      -3.575  13.905   5.162  1.00  0.00    -0.300 OA
ATOM     14  C   UNL     1      -2.685  11.771   5.515  1.00  0.00     0.087 C 
ENDBRANCH  11  12
ENDBRANCH  10  11
ENDBRANCH   2  10
TORSDOF 6
ENDMDL
MODEL 9
REMARK VINA RESULT:    -3.835      1.957      3.025
REMARK INTER + INTRA:          -6.214
REMARK INTER:                  -5.504
REMARK INTRA:                  -0.710
REMARK UNBOUND:                -1.034
REMARK SMILES CC(=O)CCC=C(C)CCC=C(C)C
REMARK SMILES IDX 7 1 6 2 8 3 9 4 10 5 11 6 13 7 12 8 14 9 5 10 4 11 2 12 3 13
REMARK SMILES IDX 1 14
REMARK H PARENT
REMARK Flexibility Score: inf
ROOT
ATOM      1  C   UNL     1      -2.771   8.523 -10.823  1.00  0.00    -0.077 C 
ATOM      2  C   UNL     1      -2.323   7.269 -10.579  1.00  0.00    -0.028 C 
ATOM      3  C   UNL     1      -1.827   9.685 -11.019  1.00  0.00     0.039 C 
ENDROOT
BRANCH   1   4
ATOM      4  C   UNL     1      -4.262   8.787 -10.831  1.00  0.00     0.034 C 
BRANCH   4   5
ATOM      5  C   UNL     1      -4.694   9.571 -12.079  1.00  0.00     0.032 C 
BRANCH   5   6
ATOM      6  C   UNL     1      -5.691  10.656 -11.749  1.00  0.00    -0.028 C 
ATOM      7  C   UNL     1      -6.526  12.944 -11.435  1.00  0.00     0.039 C 
ATOM      8  C   UNL     1      -5.409  11.977 -11.734  1.00  0.00    -0.080 C 
ATOM      9  C   UNL     1      -4.017  12.504 -11.990  1.00  0.00     0.039 C 
ENDBRANCH   5   6
ENDBRANCH   4   5
ENDBRANCH   1   4
BRANCH   2  10
ATOM     10  C   UNL     1      -0.868   6.871 -10.552  1.00  0.00     0.035 C 
BRANCH  10  11
ATOM     11  C   UNL     1      -0.417   6.565  -9.117  1.00  0.00     0.079 C 
BRANCH  11  12
ATOM     12  C   UNL     1       0.802   7.329  -8.640  1.00  0.00     0.130 C 
ATOM     13  O   UNL     1       1.892   6.979  -9.062  1.00  0.00    -0.300 OA
ATOM     14  C   UNL     1       0.763   8.492  -7.681  1.00  0.00     0.087 C 
ENDBRANCH  11  12
ENDBRANCH  10  11
ENDBRANCH   2  10
TORSDOF 6
ENDMDL
