MODEL 1
REMARK VINA RESULT:    -2.815      0.000      0.000
REMARK INTER + INTRA:          -6.080
REMARK INTER:                  -5.119
REMARK INTRA:                  -0.960
REMARK UNBOUND:                -0.960
REMARK SMILES CCCCCC=CCC=CCCCCCCCC(=O)[O-]
REMARK SMILES IDX 11 1 12 2 13 3 14 4 15 5 16 6 17 7 18 8 19 9 20 10 10 11
REMARK SMILES IDX 9 12 8 13 7 14 6 15 5 16 4 17 3 18 2 19 1 20
REMARK H PARENT
REMARK Flexibility Score: inf
ROOT
ATOM      1  C   UNL     1       2.892  11.645  17.974  1.00  0.00     0.027 C 
ENDROOT
BRANCH   1   2
ATOM      2  C   UNL     1       2.399  12.903  18.701  1.00  0.00     0.004 C 
BRANCH   2   3
ATOM      3  C   UNL     1       2.475  14.130  17.782  1.00  0.00     0.000 C 
BRANCH   3   4
ATOM      4  C   UNL     1       1.090  14.701  17.436  1.00  0.00     0.000 C 
BRANCH   4   5
ATOM      5  C   UNL     1       0.779  15.999  18.201  1.00  0.00     0.000 C 
BRANCH   5   6
ATOM      6  C   UNL     1      -0.648  16.022  18.780  1.00  0.00     0.006 C 
BRANCH   6   7
ATOM      7  C   UNL     1      -1.448  17.292  18.447  1.00  0.00     0.053 C 
BRANCH   7   8
ATOM      8  C   UNL     1      -0.986  18.474  19.240  1.00  0.00     0.041 C 
ATOM      9  O   UNL     1      -1.702  18.932  20.169  1.00  0.00    -0.550 OA
ATOM     10  O   UNL     1       0.218  19.093  18.931  1.00  0.00    -0.550 OA
ENDBRANCH   7   8
ENDBRANCH   6   7
ENDBRANCH   5   6
ENDBRANCH   4   5
ENDBRANCH   3   4
ENDBRANCH   2   3
ENDBRANCH   1   2
BRANCH   1  11
ATOM     11  C   UNL     1       3.349  10.588  18.948  1.00  0.00    -0.031 C 
ATOM     12  C   UNL     1       4.547  10.572  19.562  1.00  0.00    -0.027 C 
BRANCH  12  13
ATOM     13  C   UNL     1       5.608  11.632  19.405  1.00  0.00     0.054 C 
BRANCH  13  14
ATOM     14  C   UNL     1       6.650  11.200  18.408  1.00  0.00    -0.027 C 
ATOM     15  C   UNL     1       6.614  11.483  17.091  1.00  0.00    -0.031 C 
BRANCH  15  16
ATOM     16  C   UNL     1       5.502  12.233  16.396  1.00  0.00     0.027 C 
BRANCH  16  17
ATOM     17  C   UNL     1       5.792  12.452  14.901  1.00  0.00     0.004 C 
BRANCH  17  18
ATOM     18  C   UNL     1       4.543  12.696  14.035  1.00  0.00     0.000 C 
BRANCH  18  19
ATOM     19  C   UNL     1       3.316  13.108  14.860  1.00  0.00    -0.003 C 
ATOM     20  C   UNL     1       2.042  12.479  14.303  1.00  0.00     0.004 C 
ENDBRANCH  18  19
ENDBRANCH  17  18
ENDBRANCH  16  17
ENDBRANCH  15  16
ENDBRANCH  13  14
ENDBRANCH  12  13
ENDBRANCH   1  11
TORSDOF 14
ENDMDL
MODEL 2
REMARK VINA RESULT:    -2.725      1.844      3.814
REMARK INTER + INTRA:          -5.916
REMARK INTER:                  -4.729
REMARK INTRA:                  -1.188
REMARK UNBOUND:                -0.960
REMARK SMILES CCCCCC=CCC=CCCCCCCCC(=O)[O-]
REMARK SMILES IDX 11 1 12 2 13 3 14 4 15 5 16 6 17 7 18 8 19 9 20 10 10 11
REMARK SMILES IDX 9 12 8 13 7 14 6 15 5 16 4 17 3 18 2 19 1 20
REMARK H PARENT
REMARK Flexibility Score: inf
ROOT
ATOM      1  C   UNL     1       1.942  13.946  17.325  1.00  0.00     0.027 C 
ENDROOT
BRANCH   1   2
ATOM      2  C   UNL     1       2.026  15.292  18.057  1.00  0.00     0.004 C 
BRANCH   2   3
ATOM      3  C   UNL     1       0.645  15.957  18.138  1.00  0.00     0.000 C 
BRANCH   3   4
ATOM      4  C   UNL     1       0.727  17.489  18.233  1.00  0.00     0.000 C 
BRANCH   4   5
ATOM      5  C   UNL     1      -0.428  18.092  19.052  1.00  0.00     0.000 C 
BRANCH   5   6
ATOM      6  C   UNL     1      -1.721  17.261  18.959  1.00  0.00     0.006 C 
BRANCH   6   7
ATOM      7  C   UNL     1      -2.125  16.567  20.270  1.00  0.00     0.053 C 
BRANCH   7   8
ATOM      8  C   UNL     1      -2.109  15.075  20.147  1.00  0.00     0.041 C 
ATOM      9  O   UNL     1      -2.115  14.534  19.010  1.00  0.00    -0.550 OA
ATOM     10  O   UNL     1      -2.123  14.281  21.286  1.00  0.00    -0.550 OA
ENDBRANCH   7   8
ENDBRANCH   6   7
ENDBRANCH   5   6
ENDBRANCH   4   5
ENDBRANCH   3   4
ENDBRANCH   2   3
ENDBRANCH   1   2
BRANCH   1  11
ATOM     11  C   UNL     1       1.983  14.127  15.829  1.00  0.00    -0.031 C 
ATOM     12  C   UNL     1       2.821  13.480  14.997  1.00  0.00    -0.027 C 
BRANCH  12  13
ATOM     13  C   UNL     1       3.827  12.441  15.426  1.00  0.00     0.054 C 
BRANCH  13  14
ATOM     14  C   UNL     1       5.194  13.054  15.583  1.00  0.00    -0.027 C 
ATOM     15  C   UNL     1       6.207  12.497  16.275  1.00  0.00    -0.031 C 
BRANCH  15  16
ATOM     16  C   UNL     1       6.122  11.201  17.046  1.00  0.00     0.027 C 
BRANCH  16  17
ATOM     17  C   UNL     1       6.290  11.412  18.560  1.00  0.00     0.004 C 
BRANCH  17  18
ATOM     18  C   UNL     1       5.051  11.050  19.399  1.00  0.00     0.000 C 
BRANCH  18  19
ATOM     19  C   UNL     1       3.745  11.582  18.793  1.00  0.00    -0.003 C 
ATOM     20  C   UNL     1       2.748  10.452  18.555  1.00  0.00     0.004 C 
ENDBRANCH  18  19
ENDBRANCH  17  18
ENDBRANCH  16  17
ENDBRANCH  15  16
ENDBRANCH  13  14
ENDBRANCH  12  13
ENDBRANCH   1  11
TORSDOF 14
ENDMDL
MODEL 3
REMARK VINA RESULT:    -2.530      0.999      3.278
REMARK INTER + INTRA:          -5.561
REMARK INTER:                  -4.203
REMARK INTRA:                  -1.359
REMARK UNBOUND:                -0.960
REMARK SMILES CCCCCC=CCC=CCCCCCCCC(=O)[O-]
REMARK SMILES IDX 11 1 12 2 13 3 14 4 15 5 16 6 17 7 18 8 19 9 20 10 10 11
REMARK SMILES IDX 9 12 8 13 7 14 6 15 5 16 4 17 3 18 2 19 1 20
REMARK H PARENT
REMARK Flexibility Score: inf
ROOT
ATOM      1  C   UNL     1       2.554  12.812  15.289  1.00  0.00     0.027 C 
ENDROOT
BRANCH   1   2
ATOM      2  C   UNL     1       2.367  14.235  15.829  1.00  0.00     0.004 C 
BRANCH   2   3
ATOM      3  C   UNL     1       1.873  14.208  17.283  1.00  0.00     0.000 C 
BRANCH   3   4
ATOM      4  C   UNL     1       1.150  15.503  17.690  1.00  0.00     0.000 C 
BRANCH   4   5
ATOM      5  C   UNL     1      -0.013  15.247  18.664  1.00  0.00     0.000 C 
BRANCH   5   6
ATOM      6  C   UNL     1      -1.298  15.998  18.265  1.00  0.00     0.006 C 
BRANCH   6   7
ATOM      7  C   UNL     1      -1.734  17.083  19.263  1.00  0.00     0.053 C 
BRANCH   7   8
ATOM      8  C   UNL     1      -1.260  18.445  18.858  1.00  0.00     0.041 C 
ATOM      9  O   UNL     1      -1.790  19.035  17.880  1.00  0.00    -0.550 OA
ATOM     10  O   UNL     1      -0.209  19.047  19.538  1.00  0.00    -0.550 OA
ENDBRANCH   7   8
ENDBRANCH   6   7
ENDBRANCH   5   6
ENDBRANCH   4   5
ENDBRANCH   3   4
ENDBRANCH   2   3
ENDBRANCH   1   2
BRANCH   1  11
ATOM     11  C   UNL     1       3.731  12.727  14.351  1.00  0.00    -0.031 C 
ATOM     12  C   UNL     1       5.022  12.719  14.733  1.00  0.00    -0.027 C 
BRANCH  12  13
ATOM     13  C   UNL     1       5.496  12.753  16.165  1.00  0.00     0.054 C 
BRANCH  13  14
ATOM     14  C   UNL     1       6.383  11.572  16.462  1.00  0.00    -0.027 C 
ATOM     15  C   UNL     1       6.733  11.170  17.699  1.00  0.00    -0.031 C 
BRANCH  15  16
ATOM     16  C   UNL     1       6.339  11.864  18.981  1.00  0.00     0.027 C 
BRANCH  16  17
ATOM     17  C   UNL     1       5.867  10.873  20.059  1.00  0.00     0.004 C 
BRANCH  17  18
ATOM     18  C   UNL     1       4.391  10.453  19.940  1.00  0.00     0.000 C 
BRANCH  18  19
ATOM     19  C   UNL     1       3.619  11.271  18.896  1.00  0.00    -0.003 C 
ATOM     20  C   UNL     1       2.622  10.398  18.140  1.00  0.00     0.004 C 
ENDBRANCH  18  19
ENDBRANCH  17  18
ENDBRANCH  16  17
ENDBRANCH  15  16
ENDBRANCH  13  14
ENDBRANCH  12  13
ENDBRANCH   1  11
TORSDOF 14
ENDMDL
MODEL 4
REMARK VINA RESULT:    -2.423      1.098      3.424
REMARK INTER + INTRA:          -5.366
REMARK INTER:                  -4.402
REMARK INTRA:                  -0.963
REMARK UNBOUND:                -0.960
REMARK SMILES CCCCCC=CCC=CCCCCCCCC(=O)[O-]
REMARK SMILES IDX 11 1 12 2 13 3 14 4 15 5 16 6 17 7 18 8 19 9 20 10 10 11
REMARK SMILES IDX 9 12 8 13 7 14 6 15 5 16 4 17 3 18 2 19 1 20
REMARK H PARENT
REMARK Flexibility Score: inf
ROOT
ATOM      1  C   UNL     1       2.711  13.882  17.329  1.00  0.00     0.027 C 
ENDROOT
BRANCH   1   2
ATOM      2  C   UNL     1       1.853  14.385  18.496  1.00  0.00     0.004 C 
BRANCH   2   3
ATOM      3  C   UNL     1       0.753  15.333  17.998  1.00  0.00     0.000 C 
BRANCH   3   4
ATOM      4  C   UNL     1      -0.568  15.171  18.767  1.00  0.00     0.000 C 
BRANCH   4   5
ATOM      5  C   UNL     1      -1.572  16.295  18.461  1.00  0.00     0.000 C 
BRANCH   5   6
ATOM      6  C   UNL     1      -1.964  17.101  19.713  1.00  0.00     0.006 C 
BRANCH   6   7
ATOM      7  C   UNL     1      -1.521  18.572  19.687  1.00  0.00     0.053 C 
BRANCH   7   8
ATOM      8  C   UNL     1      -0.737  18.904  18.455  1.00  0.00     0.041 C 
ATOM      9  O   UNL     1      -1.332  19.125  17.367  1.00  0.00    -0.550 OA
ATOM     10  O   UNL     1       0.651  18.934  18.500  1.00  0.00    -0.550 OA
ENDBRANCH   7   8
ENDBRANCH   6   7
ENDBRANCH   5   6
ENDBRANCH   4   5
ENDBRANCH   3   4
ENDBRANCH   2   3
ENDBRANCH   1   2
BRANCH   1  11
ATOM     11  C   UNL     1       2.072  14.193  15.999  1.00  0.00    -0.031 C 
ATOM     12  C   UNL     1       2.362  13.572  14.841  1.00  0.00    -0.027 C 
BRANCH  12  13
ATOM     13  C   UNL     1       3.344  12.436  14.696  1.00  0.00     0.054 C 
BRANCH  13  14
ATOM     14  C   UNL     1       4.759  12.951  14.692  1.00  0.00    -0.027 C 
ATOM     15  C   UNL     1       5.761  12.443  15.436  1.00  0.00    -0.031 C 
BRANCH  15  16
ATOM     16  C   UNL     1       5.616  11.314  16.429  1.00  0.00     0.027 C 
BRANCH  16  17
ATOM     17  C   UNL     1       6.305  11.626  17.770  1.00  0.00     0.004 C 
BRANCH  17  18
ATOM     18  C   UNL     1       5.536  11.141  19.012  1.00  0.00     0.000 C 
BRANCH  18  19
ATOM     19  C   UNL     1       4.064  11.576  19.010  1.00  0.00    -0.003 C 
ATOM     20  C   UNL     1       3.143  10.398  18.703  1.00  0.00     0.004 C 
ENDBRANCH  18  19
ENDBRANCH  17  18
ENDBRANCH  16  17
ENDBRANCH  15  16
ENDBRANCH  13  14
ENDBRANCH  12  13
ENDBRANCH   1  11
TORSDOF 14
ENDMDL
MODEL 5
REMARK VINA RESULT:    -2.395      2.792      7.393
REMARK INTER + INTRA:          -5.316
REMARK INTER:                  -4.720
REMARK INTRA:                  -0.595
REMARK UNBOUND:                -0.960
REMARK SMILES CCCCCC=CCC=CCCCCCCCC(=O)[O-]
REMARK SMILES IDX 11 1 12 2 13 3 14 4 15 5 16 6 17 7 18 8 19 9 20 10 10 11
REMARK SMILES IDX 9 12 8 13 7 14 6 15 5 16 4 17 3 18 2 19 1 20
REMARK H PARENT
REMARK Flexibility Score: inf
ROOT
ATOM      1  C   UNL     1       3.722  12.388  15.655  1.00  0.00     0.027 C 
ENDROOT
BRANCH   1   2
ATOM      2  C   UNL     1       5.188  12.686  15.317  1.00  0.00     0.004 C 
BRANCH   2   3
ATOM      3  C   UNL     1       6.057  12.666  16.583  1.00  0.00     0.000 C 
BRANCH   3   4
ATOM      4  C   UNL     1       6.354  11.242  17.079  1.00  0.00     0.000 C 
BRANCH   4   5
ATOM      5  C   UNL     1       6.746  11.205  18.567  1.00  0.00     0.000 C 
BRANCH   5   6
ATOM      6  C   UNL     1       5.574  11.562  19.500  1.00  0.00     0.006 C 
BRANCH   6   7
ATOM      7  C   UNL     1       4.449  10.516  19.535  1.00  0.00     0.053 C 
BRANCH   7   8
ATOM      8  C   UNL     1       3.210  10.996  18.846  1.00  0.00     0.041 C 
ATOM      9  O   UNL     1       2.929  12.224  18.832  1.00  0.00    -0.550 OA
ATOM     10  O   UNL     1       2.345  10.086  18.251  1.00  0.00    -0.550 OA
ENDBRANCH   7   8
ENDBRANCH   6   7
ENDBRANCH   5   6
ENDBRANCH   4   5
ENDBRANCH   3   4
ENDBRANCH   2   3
ENDBRANCH   1   2
BRANCH   1  11
ATOM     11  C   UNL     1       2.797  13.417  15.055  1.00  0.00    -0.031 C 
ATOM     12  C   UNL     1       1.978  14.221  15.759  1.00  0.00    -0.027 C 
BRANCH  12  13
ATOM     13  C   UNL     1       1.884  14.248  17.265  1.00  0.00     0.054 C 
BRANCH  13  14
ATOM     14  C   UNL     1       1.674  15.654  17.761  1.00  0.00    -0.027 C 
ATOM     15  C   UNL     1       0.515  16.123  18.264  1.00  0.00    -0.031 C 
BRANCH  15  16
ATOM     16  C   UNL     1      -0.769  15.334  18.363  1.00  0.00     0.027 C 
BRANCH  16  17
ATOM     17  C   UNL     1      -1.987  16.235  18.630  1.00  0.00     0.004 C 
BRANCH  17  18
ATOM     18  C   UNL     1      -1.909  17.048  19.935  1.00  0.00     0.000 C 
BRANCH  18  19
ATOM     19  C   UNL     1      -1.960  18.563  19.698  1.00  0.00    -0.003 C 
ATOM     20  C   UNL     1      -0.568  19.124  19.421  1.00  0.00     0.004 C 
ENDBRANCH  18  19
ENDBRANCH  17  18
ENDBRANCH  16  17
ENDBRANCH  15  16
ENDBRANCH  13  14
ENDBRANCH  12  13
ENDBRANCH   1  11
TORSDOF 14
ENDMDL
MODEL 6
REMARK VINA RESULT:    -2.372      3.171      7.818
REMARK INTER + INTRA:          -5.274
REMARK INTER:                  -3.609
REMARK INTRA:                  -1.665
REMARK UNBOUND:                -0.960
REMARK SMILES CCCCCC=CCC=CCCCCCCCC(=O)[O-]
REMARK SMILES IDX 11 1 12 2 13 3 14 4 15 5 16 6 17 7 18 8 19 9 20 10 10 11
REMARK SMILES IDX 9 12 8 13 7 14 6 15 5 16 4 17 3 18 2 19 1 20
REMARK H PARENT
REMARK Flexibility Score: inf
ROOT
ATOM      1  C   UNL     1       2.732  13.179  18.726  1.00  0.00     0.027 C 
ENDROOT
BRANCH   1   2
ATOM      2  C   UNL     1       2.662  11.681  18.403  1.00  0.00     0.004 C 
BRANCH   2   3
ATOM      3  C   UNL     1       3.907  10.951  18.926  1.00  0.00     0.000 C 
BRANCH   3   4
ATOM      4  C   UNL     1       5.167  11.831  18.907  1.00  0.00     0.000 C 
BRANCH   4   5
ATOM      5  C   UNL     1       6.256  11.284  17.968  1.00  0.00     0.000 C 
BRANCH   5   6
ATOM      6  C   UNL     1       5.867  11.387  16.482  1.00  0.00     0.006 C 
BRANCH   6   7
ATOM      7  C   UNL     1       5.255  12.738  16.077  1.00  0.00     0.053 C 
BRANCH   7   8
ATOM      8  C   UNL     1       4.904  12.786  14.623  1.00  0.00     0.041 C 
ATOM      9  O   UNL     1       5.789  13.045  13.765  1.00  0.00    -0.550 OA
ATOM     10  O   UNL     1       3.592  12.578  14.216  1.00  0.00    -0.550 OA
ENDBRANCH   7   8
ENDBRANCH   6   7
ENDBRANCH   5   6
ENDBRANCH   4   5
ENDBRANCH   3   4
ENDBRANCH   2   3
ENDBRANCH   1   2
BRANCH   1  11
ATOM     11  C   UNL     1       2.357  14.020  17.532  1.00  0.00    -0.031 C 
ATOM     12  C   UNL     1       1.309  14.864  17.483  1.00  0.00    -0.027 C 
BRANCH  12  13
ATOM     13  C   UNL     1       0.366  15.134  18.629  1.00  0.00     0.054 C 
BRANCH  13  14
ATOM     14  C   UNL     1      -1.037  15.349  18.126  1.00  0.00    -0.027 C 
ATOM     15  C   UNL     1      -1.963  16.109  18.743  1.00  0.00    -0.031 C 
BRANCH  15  16
ATOM     16  C   UNL     1      -1.763  16.821  20.060  1.00  0.00     0.027 C 
BRANCH  16  17
ATOM     17  C   UNL     1      -2.087  18.322  19.965  1.00  0.00     0.004 C 
BRANCH  17  18
ATOM     18  C   UNL     1      -1.299  19.080  18.882  1.00  0.00     0.000 C 
BRANCH  18  19
ATOM     19  C   UNL     1       0.209  19.125  19.162  1.00  0.00    -0.003 C 
ATOM     20  C   UNL     1       1.012  18.771  17.913  1.00  0.00     0.004 C 
ENDBRANCH  18  19
ENDBRANCH  17  18
ENDBRANCH  16  17
ENDBRANCH  15  16
ENDBRANCH  13  14
ENDBRANCH  12  13
ENDBRANCH   1  11
TORSDOF 14
ENDMDL
MODEL 7
REMARK VINA RESULT:    -2.305      3.197      7.722
REMARK INTER + INTRA:          -5.151
REMARK INTER:                  -3.854
REMARK INTRA:                  -1.297
REMARK UNBOUND:                -0.960
REMARK SMILES CCCCCC=CCC=CCCCCCCCC(=O)[O-]
REMARK SMILES IDX 11 1 12 2 13 3 14 4 15 5 16 6 17 7 18 8 19 9 20 10 10 11
REMARK SMILES IDX 9 12 8 13 7 14 6 15 5 16 4 17 3 18 2 19 1 20
REMARK H PARENT
REMARK Flexibility Score: inf
ROOT
ATOM      1  C   UNL     1       2.521  13.142  18.536  1.00  0.00     0.027 C 
ENDROOT
BRANCH   1   2
ATOM      2  C   UNL     1       3.142  11.772  18.236  1.00  0.00     0.004 C 
BRANCH   2   3
ATOM      3  C   UNL     1       4.234  11.430  19.259  1.00  0.00     0.000 C 
BRANCH   3   4
ATOM      4  C   UNL     1       5.619  11.251  18.614  1.00  0.00     0.000 C 
BRANCH   4   5
ATOM      5  C   UNL     1       5.552  11.199  17.078  1.00  0.00     0.000 C 
BRANCH   5   6
ATOM      6  C   UNL     1       6.249  12.400  16.411  1.00  0.00     0.006 C 
BRANCH   6   7
ATOM      7  C   UNL     1       5.296  13.363  15.684  1.00  0.00     0.053 C 
BRANCH   7   8
ATOM      8  C   UNL     1       4.673  12.735  14.476  1.00  0.00     0.041 C 
ATOM      9  O   UNL     1       5.399  12.251  13.568  1.00  0.00    -0.550 OA
ATOM     10  O   UNL     1       3.291  12.715  14.336  1.00  0.00    -0.550 OA
ENDBRANCH   7   8
ENDBRANCH   6   7
ENDBRANCH   5   6
ENDBRANCH   4   5
ENDBRANCH   3   4
ENDBRANCH   2   3
ENDBRANCH   1   2
BRANCH   1  11
ATOM     11  C   UNL     1       2.262  13.921  17.272  1.00  0.00    -0.031 C 
ATOM     12  C   UNL     1       1.461  15.000  17.181  1.00  0.00    -0.027 C 
BRANCH  12  13
ATOM     13  C   UNL     1       0.727  15.626  18.340  1.00  0.00     0.054 C 
BRANCH  13  14
ATOM     14  C   UNL     1       0.922  17.119  18.352  1.00  0.00    -0.027 C 
ATOM     15  C   UNL     1      -0.075  18.022  18.432  1.00  0.00    -0.031 C 
BRANCH  15  16
ATOM     16  C   UNL     1      -1.547  17.685  18.471  1.00  0.00     0.027 C 
BRANCH  16  17
ATOM     17  C   UNL     1      -2.117  17.728  19.900  1.00  0.00     0.004 C 
BRANCH  17  18
ATOM     18  C   UNL     1      -2.103  16.376  20.635  1.00  0.00     0.000 C 
BRANCH  18  19
ATOM     19  C   UNL     1      -2.125  15.176  19.679  1.00  0.00    -0.003 C 
ATOM     20  C   UNL     1      -2.080  13.859  20.448  1.00  0.00     0.004 C 
ENDBRANCH  18  19
ENDBRANCH  17  18
ENDBRANCH  16  17
ENDBRANCH  15  16
ENDBRANCH  13  14
ENDBRANCH  12  13
ENDBRANCH   1  11
TORSDOF 14
ENDMDL
MODEL 8
REMARK VINA RESULT:    -2.294      2.682      6.679
REMARK INTER + INTRA:          -5.132
REMARK INTER:                  -3.893
REMARK INTRA:                  -1.239
REMARK UNBOUND:                -0.960
REMARK SMILES CCCCCC=CCC=CCCCCCCCC(=O)[O-]
REMARK SMILES IDX 11 1 12 2 13 3 14 4 15 5 16 6 17 7 18 8 19 9 20 10 10 11
REMARK SMILES IDX 9 12 8 13 7 14 6 15 5 16 4 17 3 18 2 19 1 20
REMARK H PARENT
REMARK Flexibility Score: inf
ROOT
ATOM      1  C   UNL     1       4.379  10.835  19.760  1.00  0.00     0.027 C 
ENDROOT
BRANCH   1   2
ATOM      2  C   UNL     1       5.730  11.531  19.548  1.00  0.00     0.004 C 
BRANCH   2   3
ATOM      3  C   UNL     1       6.455  10.956  18.323  1.00  0.00     0.000 C 
BRANCH   3   4
ATOM      4  C   UNL     1       6.820  12.033  17.288  1.00  0.00     0.000 C 
BRANCH   4   5
ATOM      5  C   UNL     1       6.137  11.801  15.929  1.00  0.00     0.000 C 
BRANCH   5   6
ATOM      6  C   UNL     1       5.100  12.888  15.591  1.00  0.00     0.006 C 
BRANCH   6   7
ATOM      7  C   UNL     1       4.422  12.714  14.222  1.00  0.00     0.053 C 
BRANCH   7   8
ATOM      8  C   UNL     1       2.929  12.769  14.322  1.00  0.00     0.041 C 
ATOM      9  O   UNL     1       2.368  13.735  14.904  1.00  0.00    -0.550 OA
ATOM     10  O   UNL     1       2.157  11.737  13.803  1.00  0.00    -0.550 OA
ENDBRANCH   7   8
ENDBRANCH   6   7
ENDBRANCH   5   6
ENDBRANCH   4   5
ENDBRANCH   3   4
ENDBRANCH   2   3
ENDBRANCH   1   2
BRANCH   1  11
ATOM     11  C   UNL     1       3.583  10.777  18.481  1.00  0.00    -0.031 C 
ATOM     12  C   UNL     1       2.770  11.753  18.034  1.00  0.00    -0.027 C 
BRANCH  12  13
ATOM     13  C   UNL     1       2.558  13.078  18.722  1.00  0.00     0.054 C 
BRANCH  13  14
ATOM     14  C   UNL     1       2.356  14.177  17.713  1.00  0.00    -0.027 C 
ATOM     15  C   UNL     1       1.298  15.012  17.691  1.00  0.00    -0.031 C 
BRANCH  15  16
ATOM     16  C   UNL     1       0.124  14.949  18.638  1.00  0.00     0.027 C 
BRANCH  16  17
ATOM     17  C   UNL     1      -0.940  16.013  18.319  1.00  0.00     0.004 C 
BRANCH  17  18
ATOM     18  C   UNL     1      -1.105  17.097  19.400  1.00  0.00     0.000 C 
BRANCH  18  19
ATOM     19  C   UNL     1      -0.917  18.518  18.853  1.00  0.00    -0.003 C 
ATOM     20  C   UNL     1       0.530  18.759  18.433  1.00  0.00     0.004 C 
ENDBRANCH  18  19
ENDBRANCH  17  18
ENDBRANCH  16  17
ENDBRANCH  15  16
ENDBRANCH  13  14
ENDBRANCH  12  13
ENDBRANCH   1  11
TORSDOF 14
ENDMDL
