MODEL 1
REMARK VINA RESULT:    -7.432      0.000      0.000
REMARK INTER + INTRA:          -9.144
REMARK INTER:                  -8.953
REMARK INTRA:                  -0.191
REMARK UNBOUND:                -0.191
REMARK SMILES O=c1c(O)c(-c2ccc(O)c(O)c2)oc2cc(O)cc(O)c12
REMARK SMILES IDX 5 1 3 2 2 3 1 4 22 5 20 6 19 7 17 8 16 9 15 10 14 11 6 12
REMARK SMILES IDX 7 13 8 14 9 15 13 16 11 17 10 18 12 20 4 22 21 24 18 26
REMARK H PARENT 10 19 12 21 4 23 21 25 18 27
REMARK Flexibility Score: inf
ROOT
ATOM      1  C   UNL     1       2.450 -33.376 -22.280  1.00  0.00     0.180 A 
ATOM      2  C   UNL     1       1.512 -33.212 -23.312  1.00  0.00     0.208 A 
ATOM      3  C   UNL     1       1.951 -33.248 -24.645  1.00  0.00     0.238 A 
ATOM      4  O   UNL     1       1.097 -33.156 -25.565  1.00  0.00    -0.285 OA
ATOM      5  C   UNL     1       3.326 -33.430 -24.928  1.00  0.00     0.111 A 
ATOM      6  C   UNL     1       3.888 -33.443 -26.240  1.00  0.00     0.134 A 
ATOM      7  C   UNL     1       5.241 -33.762 -26.408  1.00  0.00     0.093 A 
ATOM      8  C   UNL     1       6.066 -34.004 -25.308  1.00  0.00     0.123 A 
ATOM      9  C   UNL     1       5.540 -33.936 -24.020  1.00  0.00     0.094 A 
ATOM     10  C   UNL     1       4.186 -33.656 -23.822  1.00  0.00     0.146 A 
ATOM     11  O   UNL     1       3.722 -33.611 -22.579  1.00  0.00    -0.452 OA
ENDROOT
BRANCH   1  12
ATOM     12  C   UNL     1       2.067 -33.325 -20.850  1.00  0.00     0.025 A 
ATOM     13  C   UNL     1       2.264 -34.456 -20.041  1.00  0.00     0.016 A 
ATOM     14  C   UNL     1       1.929 -34.423 -18.685  1.00  0.00     0.051 A 
ATOM     15  C   UNL     1       1.407 -33.258 -18.113  1.00  0.00     0.157 A 
ATOM     16  C   UNL     1       1.562 -32.149 -20.269  1.00  0.00     0.062 A 
ATOM     17  C   UNL     1       1.226 -32.113 -18.907  1.00  0.00     0.158 A 
BRANCH  15  18
ATOM     18  O   UNL     1       1.080 -33.257 -16.759  1.00  0.00    -0.504 OA
ATOM     19  H   UNL     1       0.131 -33.115 -16.435  1.00  0.00     0.293 HD
ENDBRANCH  15  18
BRANCH  17  20
ATOM     20  O   UNL     1       0.720 -30.945 -18.341  1.00  0.00    -0.504 OA
ATOM     21  H   UNL     1      -0.131 -30.514 -18.683  1.00  0.00     0.293 HD
ENDBRANCH  17  20
ENDBRANCH   1  12
BRANCH   2  22
ATOM     22  O   UNL     1       0.156 -33.055 -23.010  1.00  0.00    -0.502 OA
ATOM     23  H   UNL     1      -0.424 -33.824 -22.693  1.00  0.00     0.293 HD
ENDBRANCH   2  22
BRANCH   6  24
ATOM     24  O   UNL     1       3.173 -33.125 -27.398  1.00  0.00    -0.507 OA
ATOM     25  H   UNL     1       3.196 -33.659 -28.254  1.00  0.00     0.293 HD
ENDBRANCH   6  24
BRANCH   8  26
ATOM     26  O   UNL     1       7.415 -34.305 -25.483  1.00  0.00    -0.508 OA
ATOM     27  H   UNL     1       7.725 -34.951 -26.200  1.00  0.00     0.293 HD
ENDBRANCH   8  26
TORSDOF 6
ENDMDL
MODEL 2
REMARK VINA RESULT:    -7.254      9.304     10.135
REMARK INTER + INTRA:          -8.930
REMARK INTER:                  -8.936
REMARK INTRA:                   0.006
REMARK UNBOUND:                -0.191
REMARK SMILES O=c1c(O)c(-c2ccc(O)c(O)c2)oc2cc(O)cc(O)c12
REMARK SMILES IDX 5 1 3 2 2 3 1 4 22 5 20 6 19 7 17 8 16 9 15 10 14 11 6 12
REMARK SMILES IDX 7 13 8 14 9 15 13 16 11 17 10 18 12 20 4 22 21 24 18 26
REMARK H PARENT 10 19 12 21 4 23 21 25 18 27
REMARK Flexibility Score: inf
ROOT
ATOM      1  C   UNL     1       5.130 -24.095 -23.548  1.00  0.00     0.180 A 
ATOM      2  C   UNL     1       6.321 -24.811 -23.753  1.00  0.00     0.208 A 
ATOM      3  C   UNL     1       6.837 -24.919 -25.054  1.00  0.00     0.238 A 
ATOM      4  O   UNL     1       7.933 -25.515 -25.222  1.00  0.00    -0.285 OA
ATOM      5  C   UNL     1       6.146 -24.324 -26.136  1.00  0.00     0.111 A 
ATOM      6  C   UNL     1       6.556 -24.404 -27.501  1.00  0.00     0.134 A 
ATOM      7  C   UNL     1       5.868 -23.667 -28.473  1.00  0.00     0.093 A 
ATOM      8  C   UNL     1       4.747 -22.905 -28.140  1.00  0.00     0.123 A 
ATOM      9  C   UNL     1       4.303 -22.868 -26.819  1.00  0.00     0.094 A 
ATOM     10  C   UNL     1       4.990 -23.563 -25.821  1.00  0.00     0.146 A 
ATOM     11  O   UNL     1       4.541 -23.492 -24.575  1.00  0.00    -0.452 OA
ENDROOT
BRANCH   1  12
ATOM     12  C   UNL     1       4.511 -23.959 -22.210  1.00  0.00     0.025 A 
ATOM     13  C   UNL     1       5.278 -23.467 -21.141  1.00  0.00     0.016 A 
ATOM     14  C   UNL     1       4.709 -23.311 -19.875  1.00  0.00     0.051 A 
ATOM     15  C   UNL     1       3.364 -23.629 -19.659  1.00  0.00     0.157 A 
ATOM     16  C   UNL     1       3.154 -24.258 -21.996  1.00  0.00     0.062 A 
ATOM     17  C   UNL     1       2.580 -24.100 -20.726  1.00  0.00     0.158 A 
BRANCH  15  18
ATOM     18  O   UNL     1       2.825 -23.465 -18.384  1.00  0.00    -0.504 OA
ATOM     19  H   UNL     1       3.380 -23.589 -17.546  1.00  0.00     0.293 HD
ENDBRANCH  15  18
BRANCH  17  20
ATOM     20  O   UNL     1       1.236 -24.405 -20.522  1.00  0.00    -0.504 OA
ATOM     21  H   UNL     1       0.496 -23.848 -20.935  1.00  0.00     0.293 HD
ENDBRANCH  17  20
ENDBRANCH   1  12
BRANCH   2  22
ATOM     22  O   UNL     1       6.998 -25.373 -22.666  1.00  0.00    -0.502 OA
ATOM     23  H   UNL     1       7.679 -26.115 -22.774  1.00  0.00     0.293 HD
ENDBRANCH   2  22
BRANCH   6  24
ATOM     24  O   UNL     1       7.606 -25.208 -27.955  1.00  0.00    -0.507 OA
ATOM     25  H   UNL     1       7.586 -26.216 -27.986  1.00  0.00     0.293 HD
ENDBRANCH   6  24
BRANCH   8  26
ATOM     26  O   UNL     1       4.058 -22.188 -29.115  1.00  0.00    -0.508 OA
ATOM     27  H   UNL     1       3.429 -21.431 -28.872  1.00  0.00     0.293 HD
ENDBRANCH   8  26
TORSDOF 6
ENDMDL
MODEL 3
REMARK VINA RESULT:    -7.111      8.997     11.529
REMARK INTER + INTRA:          -8.757
REMARK INTER:                  -8.454
REMARK INTRA:                  -0.303
REMARK UNBOUND:                -0.191
REMARK SMILES O=c1c(O)c(-c2ccc(O)c(O)c2)oc2cc(O)cc(O)c12
REMARK SMILES IDX 5 1 3 2 2 3 1 4 22 5 20 6 19 7 17 8 16 9 15 10 14 11 6 12
REMARK SMILES IDX 7 13 8 14 9 15 13 16 11 17 10 18 12 20 4 22 21 24 18 26
REMARK H PARENT 10 19 12 21 4 23 21 25 18 27
REMARK Flexibility Score: inf
ROOT
ATOM      1  C   UNL     1       4.612 -24.341 -25.541  1.00  0.00     0.180 A 
ATOM      2  C   UNL     1       3.285 -24.122 -25.134  1.00  0.00     0.208 A 
ATOM      3  C   UNL     1       2.982 -24.133 -23.763  1.00  0.00     0.238 A 
ATOM      4  O   UNL     1       1.803 -23.882 -23.403  1.00  0.00    -0.285 OA
ATOM      5  C   UNL     1       4.007 -24.381 -22.819  1.00  0.00     0.111 A 
ATOM      6  C   UNL     1       3.806 -24.455 -21.407  1.00  0.00     0.134 A 
ATOM      7  C   UNL     1       4.913 -24.575 -20.558  1.00  0.00     0.093 A 
ATOM      8  C   UNL     1       6.207 -24.689 -21.072  1.00  0.00     0.123 A 
ATOM      9  C   UNL     1       6.406 -24.677 -22.450  1.00  0.00     0.094 A 
ATOM     10  C   UNL     1       5.326 -24.522 -23.322  1.00  0.00     0.146 A 
ATOM     11  O   UNL     1       5.561 -24.505 -24.628  1.00  0.00    -0.452 OA
ENDROOT
BRANCH   1  12
ATOM     12  C   UNL     1       5.004 -24.368 -26.969  1.00  0.00     0.025 A 
ATOM     13  C   UNL     1       5.675 -23.267 -27.523  1.00  0.00     0.016 A 
ATOM     14  C   UNL     1       6.072 -23.279 -28.862  1.00  0.00     0.051 A 
ATOM     15  C   UNL     1       5.819 -24.397 -29.664  1.00  0.00     0.157 A 
ATOM     16  C   UNL     1       4.769 -25.499 -27.772  1.00  0.00     0.062 A 
ATOM     17  C   UNL     1       5.169 -25.515 -29.116  1.00  0.00     0.158 A 
BRANCH  15  18
ATOM     18  O   UNL     1       6.226 -24.380 -30.998  1.00  0.00    -0.504 OA
ATOM     19  H   UNL     1       6.069 -23.579 -31.597  1.00  0.00     0.293 HD
ENDBRANCH  15  18
BRANCH  17  20
ATOM     20  O   UNL     1       4.927 -26.637 -29.906  1.00  0.00    -0.504 OA
ATOM     21  H   UNL     1       4.283 -26.608 -30.689  1.00  0.00     0.293 HD
ENDBRANCH  17  20
ENDBRANCH   1  12
BRANCH   2  22
ATOM     22  O   UNL     1       2.293 -23.858 -26.083  1.00  0.00    -0.502 OA
ATOM     23  H   UNL     1       1.520 -23.229 -25.902  1.00  0.00     0.293 HD
ENDBRANCH   2  22
BRANCH   6  24
ATOM     24  O   UNL     1       2.549 -24.444 -20.796  1.00  0.00    -0.507 OA
ATOM     25  H   UNL     1       2.362 -24.086 -19.871  1.00  0.00     0.293 HD
ENDBRANCH   6  24
BRANCH   8  26
ATOM     26  O   UNL     1       7.301 -24.823 -20.221  1.00  0.00    -0.508 OA
ATOM     27  H   UNL     1       8.178 -25.218 -20.543  1.00  0.00     0.293 HD
ENDBRANCH   8  26
TORSDOF 6
ENDMDL
MODEL 4
REMARK VINA RESULT:    -7.058      8.504      9.274
REMARK INTER + INTRA:          -8.693
REMARK INTER:                  -8.458
REMARK INTRA:                  -0.234
REMARK UNBOUND:                -0.191
REMARK SMILES O=c1c(O)c(-c2ccc(O)c(O)c2)oc2cc(O)cc(O)c12
REMARK SMILES IDX 5 1 3 2 2 3 1 4 22 5 20 6 19 7 17 8 16 9 15 10 14 11 6 12
REMARK SMILES IDX 7 13 8 14 9 15 13 16 11 17 10 18 12 20 4 22 21 24 18 26
REMARK H PARENT 10 19 12 21 4 23 21 25 18 27
REMARK Flexibility Score: inf
ROOT
ATOM      1  C   UNL     1       4.988 -24.920 -23.805  1.00  0.00     0.180 A 
ATOM      2  C   UNL     1       5.220 -26.303 -23.893  1.00  0.00     0.208 A 
ATOM      3  C   UNL     1       5.573 -26.859 -25.133  1.00  0.00     0.238 A 
ATOM      4  O   UNL     1       5.832 -28.088 -25.193  1.00  0.00    -0.285 OA
ATOM      5  C   UNL     1       5.673 -26.026 -26.273  1.00  0.00     0.111 A 
ATOM      6  C   UNL     1       5.985 -26.487 -27.588  1.00  0.00     0.134 A 
ATOM      7  C   UNL     1       6.187 -25.557 -28.616  1.00  0.00     0.093 A 
ATOM      8  C   UNL     1       6.024 -24.189 -28.392  1.00  0.00     0.123 A 
ATOM      9  C   UNL     1       5.662 -23.733 -27.126  1.00  0.00     0.094 A 
ATOM     10  C   UNL     1       5.489 -24.633 -26.071  1.00  0.00     0.146 A 
ATOM     11  O   UNL     1       5.155 -24.157 -24.879  1.00  0.00    -0.452 OA
ENDROOT
BRANCH   1  12
ATOM     12  C   UNL     1       4.588 -24.267 -22.538  1.00  0.00     0.025 A 
ATOM     13  C   UNL     1       5.465 -23.361 -21.920  1.00  0.00     0.016 A 
ATOM     14  C   UNL     1       5.100 -22.717 -20.736  1.00  0.00     0.051 A 
ATOM     15  C   UNL     1       3.848 -22.956 -20.158  1.00  0.00     0.157 A 
ATOM     16  C   UNL     1       3.322 -24.489 -21.967  1.00  0.00     0.062 A 
ATOM     17  C   UNL     1       2.952 -23.843 -20.778  1.00  0.00     0.158 A 
BRANCH  15  18
ATOM     18  O   UNL     1       3.513 -22.301 -18.975  1.00  0.00    -0.504 OA
ATOM     19  H   UNL     1       3.697 -21.315 -18.835  1.00  0.00     0.293 HD
ENDBRANCH  15  18
BRANCH  17  20
ATOM     20  O   UNL     1       1.698 -24.074 -20.216  1.00  0.00    -0.504 OA
ATOM     21  H   UNL     1       1.578 -24.690 -19.420  1.00  0.00     0.293 HD
ENDBRANCH  17  20
ENDBRANCH   1  12
BRANCH   2  22
ATOM     22  O   UNL     1       5.136 -27.103 -22.749  1.00  0.00    -0.502 OA
ATOM     23  H   UNL     1       4.961 -26.719 -21.828  1.00  0.00     0.293 HD
ENDBRANCH   2  22
BRANCH   6  24
ATOM     24  O   UNL     1       6.079 -27.836 -27.940  1.00  0.00    -0.507 OA
ATOM     25  H   UNL     1       6.216 -28.178 -28.880  1.00  0.00     0.293 HD
ENDBRANCH   6  24
BRANCH   8  26
ATOM     26  O   UNL     1       6.211 -23.272 -29.423  1.00  0.00    -0.508 OA
ATOM     27  H   UNL     1       6.676 -23.531 -30.286  1.00  0.00     0.293 HD
ENDBRANCH   8  26
TORSDOF 6
ENDMDL
MODEL 5
REMARK VINA RESULT:    -6.968      8.540      9.278
REMARK INTER + INTRA:          -8.585
REMARK INTER:                  -8.263
REMARK INTRA:                  -0.322
REMARK UNBOUND:                -0.191
REMARK SMILES O=c1c(O)c(-c2ccc(O)c(O)c2)oc2cc(O)cc(O)c12
REMARK SMILES IDX 5 1 3 2 2 3 1 4 22 5 20 6 19 7 17 8 16 9 15 10 14 11 6 12
REMARK SMILES IDX 7 13 8 14 9 15 13 16 11 17 10 18 12 20 4 22 21 24 18 26
REMARK H PARENT 10 19 12 21 4 23 21 25 18 27
REMARK Flexibility Score: inf
ROOT
ATOM      1  C   UNL     1       5.075 -25.132 -24.506  1.00  0.00     0.180 A 
ATOM      2  C   UNL     1       4.346 -26.292 -24.816  1.00  0.00     0.208 A 
ATOM      3  C   UNL     1       4.220 -26.680 -26.160  1.00  0.00     0.238 A 
ATOM      4  O   UNL     1       3.612 -27.749 -26.425  1.00  0.00    -0.285 OA
ATOM      5  C   UNL     1       4.810 -25.893 -27.177  1.00  0.00     0.111 A 
ATOM      6  C   UNL     1       4.712 -26.170 -28.574  1.00  0.00     0.134 A 
ATOM      7  C   UNL     1       5.446 -25.398 -29.484  1.00  0.00     0.093 A 
ATOM      8  C   UNL     1       6.221 -24.319 -29.052  1.00  0.00     0.123 A 
ATOM      9  C   UNL     1       6.276 -24.006 -27.696  1.00  0.00     0.094 A 
ATOM     10  C   UNL     1       5.585 -24.779 -26.761  1.00  0.00     0.146 A 
ATOM     11  O   UNL     1       5.673 -24.453 -25.478  1.00  0.00    -0.452 OA
ENDROOT
BRANCH   1  12
ATOM     12  C   UNL     1       5.231 -24.647 -23.116  1.00  0.00     0.025 A 
ATOM     13  C   UNL     1       4.276 -23.769 -22.579  1.00  0.00     0.016 A 
ATOM     14  C   UNL     1       4.392 -23.314 -21.263  1.00  0.00     0.051 A 
ATOM     15  C   UNL     1       5.454 -23.741 -20.459  1.00  0.00     0.157 A 
ATOM     16  C   UNL     1       6.286 -25.091 -22.299  1.00  0.00     0.062 A 
ATOM     17  C   UNL     1       6.404 -24.637 -20.977  1.00  0.00     0.158 A 
BRANCH  15  18
ATOM     18  O   UNL     1       5.544 -23.268 -19.151  1.00  0.00    -0.504 OA
ATOM     19  H   UNL     1       5.154 -22.376 -18.873  1.00  0.00     0.293 HD
ENDBRANCH  15  18
BRANCH  17  20
ATOM     20  O   UNL     1       7.456 -25.077 -20.176  1.00  0.00    -0.504 OA
ATOM     21  H   UNL     1       7.301 -25.416 -19.233  1.00  0.00     0.293 HD
ENDBRANCH  17  20
ENDBRANCH   1  12
BRANCH   2  22
ATOM     22  O   UNL     1       3.789 -27.066 -23.793  1.00  0.00    -0.502 OA
ATOM     23  H   UNL     1       4.293 -27.824 -23.349  1.00  0.00     0.293 HD
ENDBRANCH   2  22
BRANCH   6  24
ATOM     24  O   UNL     1       3.893 -27.164 -29.117  1.00  0.00    -0.507 OA
ATOM     25  H   UNL     1       3.588 -27.196 -30.079  1.00  0.00     0.293 HD
ENDBRANCH   6  24
BRANCH   8  26
ATOM     26  O   UNL     1       6.935 -23.547 -29.965  1.00  0.00    -0.508 OA
ATOM     27  H   UNL     1       7.918 -23.716 -30.149  1.00  0.00     0.293 HD
ENDBRANCH   8  26
TORSDOF 6
ENDMDL
MODEL 6
REMARK VINA RESULT:    -6.825      7.347      9.524
REMARK INTER + INTRA:          -8.412
REMARK INTER:                  -8.106
REMARK INTRA:                  -0.307
REMARK UNBOUND:                -0.191
REMARK SMILES O=c1c(O)c(-c2ccc(O)c(O)c2)oc2cc(O)cc(O)c12
REMARK SMILES IDX 5 1 3 2 2 3 1 4 22 5 20 6 19 7 17 8 16 9 15 10 14 11 6 12
REMARK SMILES IDX 7 13 8 14 9 15 13 16 11 17 10 18 12 20 4 22 21 24 18 26
REMARK H PARENT 10 19 12 21 4 23 21 25 18 27
REMARK Flexibility Score: inf
ROOT
ATOM      1  C   UNL     1       2.636 -27.505 -27.801  1.00  0.00     0.180 A 
ATOM      2  C   UNL     1       1.876 -26.579 -27.067  1.00  0.00     0.208 A 
ATOM      3  C   UNL     1       2.312 -25.246 -26.992  1.00  0.00     0.238 A 
ATOM      4  O   UNL     1       1.598 -24.411 -26.379  1.00  0.00    -0.285 OA
ATOM      5  C   UNL     1       3.511 -24.861 -27.638  1.00  0.00     0.111 A 
ATOM      6  C   UNL     1       4.067 -23.547 -27.595  1.00  0.00     0.134 A 
ATOM      7  C   UNL     1       5.188 -23.246 -28.379  1.00  0.00     0.093 A 
ATOM      8  C   UNL     1       5.811 -24.228 -29.152  1.00  0.00     0.123 A 
ATOM      9  C   UNL     1       5.310 -25.528 -29.154  1.00  0.00     0.094 A 
ATOM     10  C   UNL     1       4.172 -25.850 -28.411  1.00  0.00     0.146 A 
ATOM     11  O   UNL     1       3.721 -27.098 -28.450  1.00  0.00    -0.452 OA
ENDROOT
BRANCH   1  12
ATOM     12  C   UNL     1       2.255 -28.932 -27.905  1.00  0.00     0.025 A 
ATOM     13  C   UNL     1       2.578 -29.812 -26.860  1.00  0.00     0.016 A 
ATOM     14  C   UNL     1       2.210 -31.158 -26.928  1.00  0.00     0.051 A 
ATOM     15  C   UNL     1       1.500 -31.642 -28.031  1.00  0.00     0.157 A 
ATOM     16  C   UNL     1       1.523 -29.416 -29.004  1.00  0.00     0.062 A 
ATOM     17  C   UNL     1       1.150 -30.767 -29.074  1.00  0.00     0.158 A 
BRANCH  15  18
ATOM     18  O   UNL     1       1.149 -32.990 -28.072  1.00  0.00    -0.504 OA
ATOM     19  H   UNL     1       1.522 -33.622 -28.769  1.00  0.00     0.293 HD
ENDBRANCH  15  18
BRANCH  17  20
ATOM     20  O   UNL     1       0.431 -31.240 -30.169  1.00  0.00    -0.504 OA
ATOM     21  H   UNL     1       0.867 -31.810 -30.885  1.00  0.00     0.293 HD
ENDBRANCH  17  20
ENDBRANCH   1  12
BRANCH   2  22
ATOM     22  O   UNL     1       0.684 -26.977 -26.455  1.00  0.00    -0.502 OA
ATOM     23  H   UNL     1       0.175 -27.805 -26.742  1.00  0.00     0.293 HD
ENDBRANCH   2  22
BRANCH   6  24
ATOM     24  O   UNL     1       3.578 -22.518 -26.785  1.00  0.00    -0.507 OA
ATOM     25  H   UNL     1       3.790 -21.539 -26.907  1.00  0.00     0.293 HD
ENDBRANCH   6  24
BRANCH   8  26
ATOM     26  O   UNL     1       6.935 -23.924 -29.917  1.00  0.00    -0.508 OA
ATOM     27  H   UNL     1       7.086 -22.995 -30.292  1.00  0.00     0.293 HD
ENDBRANCH   8  26
TORSDOF 6
ENDMDL
MODEL 7
REMARK VINA RESULT:    -6.810      1.688      6.881
REMARK INTER + INTRA:          -8.394
REMARK INTER:                  -8.273
REMARK INTRA:                  -0.121
REMARK UNBOUND:                -0.191
REMARK SMILES O=c1c(O)c(-c2ccc(O)c(O)c2)oc2cc(O)cc(O)c12
REMARK SMILES IDX 5 1 3 2 2 3 1 4 22 5 20 6 19 7 17 8 16 9 15 10 14 11 6 12
REMARK SMILES IDX 7 13 8 14 9 15 13 16 11 17 10 18 12 20 4 22 21 24 18 26
REMARK H PARENT 10 19 12 21 4 23 21 25 18 27
REMARK Flexibility Score: inf
ROOT
ATOM      1  C   UNL     1       3.624 -32.672 -23.294  1.00  0.00     0.180 A 
ATOM      2  C   UNL     1       3.021 -31.406 -23.365  1.00  0.00     0.208 A 
ATOM      3  C   UNL     1       2.286 -30.938 -22.263  1.00  0.00     0.238 A 
ATOM      4  O   UNL     1       1.794 -29.781 -22.313  1.00  0.00    -0.285 OA
ATOM      5  C   UNL     1       2.150 -31.751 -21.112  1.00  0.00     0.111 A 
ATOM      6  C   UNL     1       1.395 -31.395 -19.954  1.00  0.00     0.134 A 
ATOM      7  C   UNL     1       1.438 -32.218 -18.822  1.00  0.00     0.093 A 
ATOM      8  C   UNL     1       2.155 -33.416 -18.830  1.00  0.00     0.123 A 
ATOM      9  C   UNL     1       2.847 -33.801 -19.976  1.00  0.00     0.094 A 
ATOM     10  C   UNL     1       2.853 -32.984 -21.108  1.00  0.00     0.146 A 
ATOM     11  O   UNL     1       3.534 -33.382 -22.176  1.00  0.00    -0.452 OA
ENDROOT
BRANCH   1  12
ATOM     12  C   UNL     1       4.394 -33.243 -24.424  1.00  0.00     0.025 A 
ATOM     13  C   UNL     1       3.757 -33.452 -25.657  1.00  0.00     0.016 A 
ATOM     14  C   UNL     1       4.469 -33.970 -26.742  1.00  0.00     0.051 A 
ATOM     15  C   UNL     1       5.828 -34.273 -26.617  1.00  0.00     0.157 A 
ATOM     16  C   UNL     1       5.765 -33.529 -24.305  1.00  0.00     0.062 A 
ATOM     17  C   UNL     1       6.483 -34.048 -25.394  1.00  0.00     0.158 A 
BRANCH  15  18
ATOM     18  O   UNL     1       6.511 -34.791 -27.716  1.00  0.00    -0.504 OA
ATOM     19  H   UNL     1       6.028 -35.112 -28.546  1.00  0.00     0.293 HD
ENDBRANCH  15  18
BRANCH  17  20
ATOM     20  O   UNL     1       7.840 -34.334 -25.266  1.00  0.00    -0.504 OA
ATOM     21  H   UNL     1       8.457 -33.749 -24.713  1.00  0.00     0.293 HD
ENDBRANCH  17  20
ENDBRANCH   1  12
BRANCH   2  22
ATOM     22  O   UNL     1       3.186 -30.611 -24.503  1.00  0.00    -0.502 OA
ATOM     23  H   UNL     1       3.947 -29.949 -24.599  1.00  0.00     0.293 HD
ENDBRANCH   2  22
BRANCH   6  24
ATOM     24  O   UNL     1       0.572 -30.267 -19.875  1.00  0.00    -0.507 OA
ATOM     25  H   UNL     1       0.901 -29.323 -19.740  1.00  0.00     0.293 HD
ENDBRANCH   6  24
BRANCH   8  26
ATOM     26  O   UNL     1       2.180 -34.237 -17.705  1.00  0.00    -0.508 OA
ATOM     27  H   UNL     1       2.679 -33.971 -16.864  1.00  0.00     0.293 HD
ENDBRANCH   8  26
TORSDOF 6
ENDMDL
MODEL 8
REMARK VINA RESULT:    -6.797      8.410      9.197
REMARK INTER + INTRA:          -8.379
REMARK INTER:                  -8.289
REMARK INTRA:                  -0.090
REMARK UNBOUND:                -0.191
REMARK SMILES O=c1c(O)c(-c2ccc(O)c(O)c2)oc2cc(O)cc(O)c12
REMARK SMILES IDX 5 1 3 2 2 3 1 4 22 5 20 6 19 7 17 8 16 9 15 10 14 11 6 12
REMARK SMILES IDX 7 13 8 14 9 15 13 16 11 17 10 18 12 20 4 22 21 24 18 26
REMARK H PARENT 10 19 12 21 4 23 21 25 18 27
REMARK Flexibility Score: inf
ROOT
ATOM      1  C   UNL     1       5.299 -24.719 -23.215  1.00  0.00     0.180 A 
ATOM      2  C   UNL     1       6.461 -24.136 -23.748  1.00  0.00     0.208 A 
ATOM      3  C   UNL     1       6.924 -24.563 -25.003  1.00  0.00     0.238 A 
ATOM      4  O   UNL     1       7.933 -23.998 -25.498  1.00  0.00    -0.285 OA
ATOM      5  C   UNL     1       6.228 -25.580 -25.700  1.00  0.00     0.111 A 
ATOM      6  C   UNL     1       6.630 -26.117 -26.960  1.00  0.00     0.134 A 
ATOM      7  C   UNL     1       5.795 -27.027 -27.621  1.00  0.00     0.093 A 
ATOM      8  C   UNL     1       4.606 -27.467 -27.037  1.00  0.00     0.123 A 
ATOM      9  C   UNL     1       4.234 -26.993 -25.781  1.00  0.00     0.094 A 
ATOM     10  C   UNL     1       5.028 -26.058 -25.113  1.00  0.00     0.146 A 
ATOM     11  O   UNL     1       4.632 -25.623 -23.924  1.00  0.00    -0.452 OA
ENDROOT
BRANCH   1  12
ATOM     12  C   UNL     1       4.764 -24.339 -21.887  1.00  0.00     0.025 A 
ATOM     13  C   UNL     1       3.420 -23.950 -21.769  1.00  0.00     0.016 A 
ATOM     14  C   UNL     1       2.889 -23.608 -20.523  1.00  0.00     0.051 A 
ATOM     15  C   UNL     1       3.686 -23.663 -19.375  1.00  0.00     0.157 A 
ATOM     16  C   UNL     1       5.558 -24.414 -20.729  1.00  0.00     0.062 A 
ATOM     17  C   UNL     1       5.026 -24.072 -19.476  1.00  0.00     0.158 A 
BRANCH  15  18
ATOM     18  O   UNL     1       3.128 -23.313 -18.147  1.00  0.00    -0.504 OA
ATOM     19  H   UNL     1       2.592 -22.463 -18.022  1.00  0.00     0.293 HD
ENDBRANCH  15  18
BRANCH  17  20
ATOM     20  O   UNL     1       5.821 -24.143 -18.335  1.00  0.00    -0.504 OA
ATOM     21  H   UNL     1       5.475 -24.541 -17.469  1.00  0.00     0.293 HD
ENDBRANCH  17  20
ENDBRANCH   1  12
BRANCH   2  22
ATOM     22  O   UNL     1       7.119 -23.119 -23.050  1.00  0.00    -0.502 OA
ATOM     23  H   UNL     1       7.057 -22.145 -23.322  1.00  0.00     0.293 HD
ENDBRANCH   2  22
BRANCH   6  24
ATOM     24  O   UNL     1       7.843 -25.814 -27.587  1.00  0.00    -0.507 OA
ATOM     25  H   UNL     1       8.292 -26.393 -28.281  1.00  0.00     0.293 HD
ENDBRANCH   6  24
BRANCH   8  26
ATOM     26  O   UNL     1       3.788 -28.384 -27.694  1.00  0.00    -0.508 OA
ATOM     27  H   UNL     1       2.813 -28.184 -27.884  1.00  0.00     0.293 HD
ENDBRANCH   8  26
TORSDOF 6
ENDMDL
MODEL 9
REMARK VINA RESULT:    -6.769      9.021     11.876
REMARK INTER + INTRA:          -8.345
REMARK INTER:                  -8.029
REMARK INTRA:                  -0.316
REMARK UNBOUND:                -0.191
REMARK SMILES O=c1c(O)c(-c2ccc(O)c(O)c2)oc2cc(O)cc(O)c12
REMARK SMILES IDX 5 1 3 2 2 3 1 4 22 5 20 6 19 7 17 8 16 9 15 10 14 11 6 12
REMARK SMILES IDX 7 13 8 14 9 15 13 16 11 17 10 18 12 20 4 22 21 24 18 26
REMARK H PARENT 10 19 12 21 4 23 21 25 18 27
REMARK Flexibility Score: inf
ROOT
ATOM      1  C   UNL     1       5.085 -24.233 -24.685  1.00  0.00     0.180 A 
ATOM      2  C   UNL     1       6.198 -23.810 -23.939  1.00  0.00     0.208 A 
ATOM      3  C   UNL     1       6.032 -23.513 -22.576  1.00  0.00     0.238 A 
ATOM      4  O   UNL     1       7.044 -23.187 -21.902  1.00  0.00    -0.285 OA
ATOM      5  C   UNL     1       4.753 -23.626 -21.982  1.00  0.00     0.111 A 
ATOM      6  C   UNL     1       4.462 -23.313 -20.620  1.00  0.00     0.134 A 
ATOM      7  C   UNL     1       3.188 -23.588 -20.106  1.00  0.00     0.093 A 
ATOM      8  C   UNL     1       2.178 -24.103 -20.920  1.00  0.00     0.123 A 
ATOM      9  C   UNL     1       2.436 -24.356 -22.266  1.00  0.00     0.094 A 
ATOM     10  C   UNL     1       3.706 -24.127 -22.799  1.00  0.00     0.146 A 
ATOM     11  O   UNL     1       3.912 -24.393 -24.083  1.00  0.00    -0.452 OA
ENDROOT
BRANCH   1  12
ATOM     12  C   UNL     1       5.176 -24.540 -26.131  1.00  0.00     0.025 A 
ATOM     13  C   UNL     1       5.084 -23.496 -27.066  1.00  0.00     0.016 A 
ATOM     14  C   UNL     1       5.188 -23.760 -28.434  1.00  0.00     0.051 A 
ATOM     15  C   UNL     1       5.400 -25.066 -28.888  1.00  0.00     0.157 A 
ATOM     16  C   UNL     1       5.410 -25.849 -26.588  1.00  0.00     0.062 A 
ATOM     17  C   UNL     1       5.516 -26.116 -27.961  1.00  0.00     0.158 A 
BRANCH  15  18
ATOM     18  O   UNL     1       5.497 -25.299 -30.259  1.00  0.00    -0.504 OA
ATOM     19  H   UNL     1       6.335 -25.080 -30.783  1.00  0.00     0.293 HD
ENDBRANCH  15  18
BRANCH  17  20
ATOM     20  O   UNL     1       5.742 -27.417 -28.406  1.00  0.00    -0.504 OA
ATOM     21  H   UNL     1       6.614 -27.683 -28.851  1.00  0.00     0.293 HD
ENDBRANCH  17  20
ENDBRANCH   1  12
BRANCH   2  22
ATOM     22  O   UNL     1       7.457 -23.725 -24.541  1.00  0.00    -0.502 OA
ATOM     23  H   UNL     1       8.318 -23.838 -24.020  1.00  0.00     0.293 HD
ENDBRANCH   2  22
BRANCH   6  24
ATOM     24  O   UNL     1       5.371 -22.710 -19.747  1.00  0.00    -0.507 OA
ATOM     25  H   UNL     1       5.536 -21.717 -19.684  1.00  0.00     0.293 HD
ENDBRANCH   6  24
BRANCH   8  26
ATOM     26  O   UNL     1       0.910 -24.358 -20.404  1.00  0.00    -0.508 OA
ATOM     27  H   UNL     1       0.131 -24.600 -21.007  1.00  0.00     0.293 HD
ENDBRANCH   8  26
TORSDOF 6
ENDMDL
