MODEL 1
REMARK VINA RESULT:    -5.336      0.000      0.000
REMARK INTER + INTRA:          -5.784
REMARK INTER:                  -5.648
REMARK INTRA:                  -0.136
REMARK UNBOUND:                -0.136
REMARK SMILES CC1=CCC(C(C)C)=CC1
REMARK SMILES IDX 1 1 2 2 3 3 4 4 5 5 9 6 10 7 6 8 7 9 8 10
REMARK H PARENT
REMARK Flexibility Score: inf
ROOT
ATOM      1  C   UNL     1       7.717   5.098  12.377  1.00  0.00     0.039 C 
ATOM      2  C   UNL     1       6.745   6.238  12.504  1.00  0.00    -0.073 C 
ATOM      3  C   UNL     1       5.443   5.986  12.735  1.00  0.00    -0.023 C 
ATOM      4  C   UNL     1       4.456   7.113  12.915  1.00  0.00     0.058 C 
ATOM      5  C   UNL     1       4.850   8.334  12.106  1.00  0.00    -0.068 C 
ATOM      6  C   UNL     1       6.159   8.582  11.878  1.00  0.00    -0.023 C 
ATOM      7  C   UNL     1       7.231   7.668  12.418  1.00  0.00     0.057 C 
ENDROOT
BRANCH   5   8
ATOM      8  C   UNL     1       3.767   9.275  11.603  1.00  0.00     0.009 C 
ATOM      9  C   UNL     1       2.844   9.725  12.742  1.00  0.00     0.012 C 
ATOM     10  C   UNL     1       4.375  10.480  10.875  1.00  0.00     0.012 C 
ENDBRANCH   5   8
TORSDOF 1
ENDMDL
MODEL 2
REMARK VINA RESULT:    -5.203      1.071      4.260
REMARK INTER + INTRA:          -5.643
REMARK INTER:                  -5.505
REMARK INTRA:                  -0.138
REMARK UNBOUND:                -0.136
REMARK SMILES CC1=CCC(C(C)C)=CC1
REMARK SMILES IDX 1 1 2 2 3 3 4 4 5 5 9 6 10 7 6 8 7 9 8 10
REMARK H PARENT
REMARK Flexibility Score: inf
ROOT
ATOM      1  C   UNL     1       3.111  10.396  11.526  1.00  0.00     0.039 C 
ATOM      2  C   UNL     1       4.011   9.213  11.753  1.00  0.00    -0.073 C 
ATOM      3  C   UNL     1       3.713   8.318  12.713  1.00  0.00    -0.023 C 
ATOM      4  C   UNL     1       4.573   7.097  12.927  1.00  0.00     0.058 C 
ATOM      5  C   UNL     1       6.025   7.369  12.582  1.00  0.00    -0.068 C 
ATOM      6  C   UNL     1       6.317   8.268  11.616  1.00  0.00    -0.023 C 
ATOM      7  C   UNL     1       5.225   8.999  10.875  1.00  0.00     0.057 C 
ENDROOT
BRANCH   5   8
ATOM      8  C   UNL     1       7.119   6.596  13.300  1.00  0.00     0.009 C 
ATOM      9  C   UNL     1       7.775   5.565  12.374  1.00  0.00     0.012 C 
ATOM     10  C   UNL     1       8.164   7.543  13.901  1.00  0.00     0.012 C 
ENDBRANCH   5   8
TORSDOF 1
ENDMDL
MODEL 3
REMARK VINA RESULT:    -4.993      1.017      4.613
REMARK INTER + INTRA:          -5.421
REMARK INTER:                  -5.278
REMARK INTRA:                  -0.143
REMARK UNBOUND:                -0.136
REMARK SMILES CC1=CCC(C(C)C)=CC1
REMARK SMILES IDX 1 1 2 2 3 3 4 4 5 5 9 6 10 7 6 8 7 9 8 10
REMARK H PARENT
REMARK Flexibility Score: inf
ROOT
ATOM      1  C   UNL     1       3.635   9.949  10.888  1.00  0.00     0.039 C 
ATOM      2  C   UNL     1       4.478   8.949  11.629  1.00  0.00    -0.073 C 
ATOM      3  C   UNL     1       5.786   8.825  11.334  1.00  0.00    -0.023 C 
ATOM      4  C   UNL     1       6.664   7.864  12.096  1.00  0.00     0.058 C 
ATOM      5  C   UNL     1       5.886   6.652  12.570  1.00  0.00    -0.068 C 
ATOM      6  C   UNL     1       4.573   6.783  12.867  1.00  0.00    -0.023 C 
ATOM      7  C   UNL     1       3.875   8.115  12.738  1.00  0.00     0.057 C 
ENDROOT
BRANCH   5   8
ATOM      8  C   UNL     1       6.606   5.325  12.742  1.00  0.00     0.009 C 
ATOM      9  C   UNL     1       8.035   5.388  12.191  1.00  0.00     0.012 C 
ATOM     10  C   UNL     1       6.598   4.875  14.208  1.00  0.00     0.012 C 
ENDBRANCH   5   8
TORSDOF 1
ENDMDL
MODEL 4
REMARK VINA RESULT:    -4.870      0.988      1.893
REMARK INTER + INTRA:          -5.291
REMARK INTER:                  -5.123
REMARK INTRA:                  -0.168
REMARK UNBOUND:                -0.136
REMARK SMILES CC1=CCC(C(C)C)=CC1
REMARK SMILES IDX 1 1 2 2 3 3 4 4 5 5 9 6 10 7 6 8 7 9 8 10
REMARK H PARENT
REMARK Flexibility Score: inf
ROOT
ATOM      1  C   UNL     1       7.479   6.571  13.254  1.00  0.00     0.039 C 
ATOM      2  C   UNL     1       6.362   7.270  12.530  1.00  0.00    -0.073 C 
ATOM      3  C   UNL     1       6.643   8.250  11.650  1.00  0.00    -0.023 C 
ATOM      4  C   UNL     1       5.544   8.933  10.875  1.00  0.00     0.058 C 
ATOM      5  C   UNL     1       4.252   8.987  11.668  1.00  0.00    -0.068 C 
ATOM      6  C   UNL     1       3.975   7.999  12.549  1.00  0.00    -0.023 C 
ATOM      7  C   UNL     1       4.927   6.846  12.751  1.00  0.00     0.057 C 
ENDROOT
BRANCH   5   8
ATOM      8  C   UNL     1       3.277  10.128  11.426  1.00  0.00     0.009 C 
ATOM      9  C   UNL     1       2.485  10.465  12.696  1.00  0.00     0.012 C 
ATOM     10  C   UNL     1       3.995  11.365  10.877  1.00  0.00     0.012 C 
ENDBRANCH   5   8
TORSDOF 1
ENDMDL
MODEL 5
REMARK VINA RESULT:    -4.401      0.677      2.017
REMARK INTER + INTRA:          -4.795
REMARK INTER:                  -4.660
REMARK INTRA:                  -0.136
REMARK UNBOUND:                -0.136
REMARK SMILES CC1=CCC(C(C)C)=CC1
REMARK SMILES IDX 1 1 2 2 3 3 4 4 5 5 9 6 10 7 6 8 7 9 8 10
REMARK H PARENT
REMARK Flexibility Score: inf
ROOT
ATOM      1  C   UNL     1       6.869   4.888  13.346  1.00  0.00     0.039 C 
ATOM      2  C   UNL     1       6.189   6.086  12.742  1.00  0.00    -0.073 C 
ATOM      3  C   UNL     1       6.894   7.207  12.502  1.00  0.00    -0.023 C 
ATOM      4  C   UNL     1       6.248   8.404  11.851  1.00  0.00     0.058 C 
ATOM      5  C   UNL     1       4.777   8.507  12.209  1.00  0.00    -0.068 C 
ATOM      6  C   UNL     1       4.074   7.377  12.447  1.00  0.00    -0.023 C 
ATOM      7  C   UNL     1       4.727   6.020  12.359  1.00  0.00     0.057 C 
ENDROOT
BRANCH   5   8
ATOM      8  C   UNL     1       4.115   9.874  12.251  1.00  0.00     0.009 C 
ATOM      9  C   UNL     1       4.147  10.554  10.877  1.00  0.00     0.012 C 
ATOM     10  C   UNL     1       2.681   9.780  12.787  1.00  0.00     0.012 C 
ENDBRANCH   5   8
TORSDOF 1
ENDMDL
MODEL 6
REMARK VINA RESULT:    -4.363      1.736      3.198
REMARK INTER + INTRA:          -4.754
REMARK INTER:                  -4.589
REMARK INTRA:                  -0.165
REMARK UNBOUND:                -0.136
REMARK SMILES CC1=CCC(C(C)C)=CC1
REMARK SMILES IDX 1 1 2 2 3 3 4 4 5 5 9 6 10 7 6 8 7 9 8 10
REMARK H PARENT
REMARK Flexibility Score: inf
ROOT
ATOM      1  C   UNL     1       9.536   8.238  13.860  1.00  0.00     0.039 C 
ATOM      2  C   UNL     1       8.278   7.782  13.172  1.00  0.00    -0.073 C 
ATOM      3  C   UNL     1       7.328   8.679  12.850  1.00  0.00    -0.023 C 
ATOM      4  C   UNL     1       6.080   8.255  12.116  1.00  0.00     0.058 C 
ATOM      5  C   UNL     1       5.680   6.835  12.469  1.00  0.00    -0.068 C 
ATOM      6  C   UNL     1       6.639   5.939  12.791  1.00  0.00    -0.023 C 
ATOM      7  C   UNL     1       8.097   6.327  12.800  1.00  0.00     0.057 C 
ENDROOT
BRANCH   5   8
ATOM      8  C   UNL     1       4.214   6.439  12.414  1.00  0.00     0.009 C 
ATOM      9  C   UNL     1       4.042   4.917  12.497  1.00  0.00     0.012 C 
ATOM     10  C   UNL     1       3.406   7.146  13.509  1.00  0.00     0.012 C 
ENDBRANCH   5   8
TORSDOF 1
ENDMDL
MODEL 7
REMARK VINA RESULT:    -4.197      1.813      3.691
REMARK INTER + INTRA:          -4.579
REMARK INTER:                  -4.425
REMARK INTRA:                  -0.154
REMARK UNBOUND:                -0.136
REMARK SMILES CC1=CCC(C(C)C)=CC1
REMARK SMILES IDX 1 1 2 2 3 3 4 4 5 5 9 6 10 7 6 8 7 9 8 10
REMARK H PARENT
REMARK Flexibility Score: inf
ROOT
ATOM      1  C   UNL     1       3.582   4.875  12.438  1.00  0.00     0.039 C 
ATOM      2  C   UNL     1       4.818   5.730  12.388  1.00  0.00    -0.073 C 
ATOM      3  C   UNL     1       5.999   5.225  12.790  1.00  0.00    -0.023 C 
ATOM      4  C   UNL     1       7.262   6.046  12.703  1.00  0.00     0.058 C 
ATOM      5  C   UNL     1       6.980   7.525  12.884  1.00  0.00    -0.068 C 
ATOM      6  C   UNL     1       5.792   8.026  12.477  1.00  0.00    -0.023 C 
ATOM      7  C   UNL     1       4.748   7.140  11.844  1.00  0.00     0.057 C 
ENDROOT
BRANCH   5   8
ATOM      8  C   UNL     1       8.053   8.421  13.481  1.00  0.00     0.009 C 
ATOM      9  C   UNL     1       7.839   8.625  14.986  1.00  0.00     0.012 C 
ATOM     10  C   UNL     1       9.456   7.875  13.191  1.00  0.00     0.012 C 
ENDBRANCH   5   8
TORSDOF 1
ENDMDL
MODEL 8
REMARK VINA RESULT:    -3.997      3.468      6.598
REMARK INTER + INTRA:          -4.367
REMARK INTER:                  -4.216
REMARK INTRA:                  -0.151
REMARK UNBOUND:                -0.136
REMARK SMILES CC1=CCC(C(C)C)=CC1
REMARK SMILES IDX 1 1 2 2 3 3 4 4 5 5 9 6 10 7 6 8 7 9 8 10
REMARK H PARENT
REMARK Flexibility Score: inf
ROOT
ATOM      1  C   UNL     1       3.937  16.326  12.005  1.00  0.00     0.039 C 
ATOM      2  C   UNL     1       3.948  14.822  12.029  1.00  0.00    -0.073 C 
ATOM      3  C   UNL     1       4.021  14.133  10.875  1.00  0.00    -0.023 C 
ATOM      4  C   UNL     1       4.083  12.626  10.875  1.00  0.00     0.058 C 
ATOM      5  C   UNL     1       3.329  12.037  12.052  1.00  0.00    -0.068 C 
ATOM      6  C   UNL     1       3.260  12.733  13.209  1.00  0.00    -0.023 C 
ATOM      7  C   UNL     1       3.924  14.081  13.348  1.00  0.00     0.057 C 
ENDROOT
BRANCH   5   8
ATOM      8  C   UNL     1       2.702  10.659  11.921  1.00  0.00     0.009 C 
ATOM      9  C   UNL     1       1.409  10.708  11.098  1.00  0.00     0.012 C 
ATOM     10  C   UNL     1       3.695   9.651  11.329  1.00  0.00     0.012 C 
ENDBRANCH   5   8
TORSDOF 1
ENDMDL
MODEL 9
REMARK VINA RESULT:    -3.917      1.602      5.082
REMARK INTER + INTRA:          -4.283
REMARK INTER:                  -4.116
REMARK INTRA:                  -0.167
REMARK UNBOUND:                -0.136
REMARK SMILES CC1=CCC(C(C)C)=CC1
REMARK SMILES IDX 1 1 2 2 3 3 4 4 5 5 9 6 10 7 6 8 7 9 8 10
REMARK H PARENT
REMARK Flexibility Score: inf
ROOT
ATOM      1  C   UNL     1       3.066  13.617  12.616  1.00  0.00     0.039 C 
ATOM      2  C   UNL     1       3.223  12.190  12.169  1.00  0.00    -0.073 C 
ATOM      3  C   UNL     1       2.688  11.195  12.901  1.00  0.00    -0.023 C 
ATOM      4  C   UNL     1       2.789   9.760  12.449  1.00  0.00     0.058 C 
ATOM      5  C   UNL     1       4.063   9.510  11.665  1.00  0.00    -0.068 C 
ATOM      6  C   UNL     1       4.595  10.513  10.930  1.00  0.00    -0.023 C 
ATOM      7  C   UNL     1       3.939  11.871  10.875  1.00  0.00     0.057 C 
ENDROOT
BRANCH   5   8
ATOM      8  C   UNL     1       4.693   8.127  11.688  1.00  0.00     0.009 C 
ATOM      9  C   UNL     1       6.225   8.210  11.695  1.00  0.00     0.012 C 
ATOM     10  C   UNL     1       4.179   7.303  12.874  1.00  0.00     0.012 C 
ENDBRANCH   5   8
TORSDOF 1
ENDMDL
