MODEL 1
REMARK VINA RESULT:    -3.807      0.000      0.000
REMARK INTER + INTRA:          -4.788
REMARK INTER:                  -4.475
REMARK INTRA:                  -0.313
REMARK UNBOUND:                -0.313
REMARK SMILES O=c1c(O)c(-c2ccc(O)c(O)c2)oc2cc(O)ccc12
REMARK SMILES IDX 5 1 3 2 2 3 1 4 21 5 15 6 14 7 16 8 17 9 19 10 20 11 6 12
REMARK SMILES IDX 7 13 8 14 9 15 13 16 11 17 10 18 12 20 4 22 18 24
REMARK H PARENT 10 19 12 21 4 23 18 25
REMARK Flexibility Score: inf
ROOT
ATOM      1  C   UNL     1      17.972  35.092  43.870  1.00  0.00     0.180 A 
ATOM      2  C   UNL     1      16.886  34.751  44.704  1.00  0.00     0.208 A 
ATOM      3  C   UNL     1      15.598  34.700  44.150  1.00  0.00     0.235 A 
ATOM      4  O   UNL     1      14.610  34.408  44.878  1.00  0.00    -0.285 OA
ATOM      5  C   UNL     1      15.424  34.967  42.783  1.00  0.00     0.069 A 
ATOM      6  C   UNL     1      16.565  35.277  42.011  1.00  0.00     0.142 A 
ATOM      7  O   UNL     1      17.765  35.324  42.576  1.00  0.00    -0.452 OA
ATOM      8  C   UNL     1      16.433  35.540  40.642  1.00  0.00     0.094 A 
ATOM      9  C   UNL     1      15.171  35.499  40.034  1.00  0.00     0.119 A 
ATOM     10  C   UNL     1      14.039  35.194  40.798  1.00  0.00     0.047 A 
ATOM     11  C   UNL     1      14.160  34.928  42.165  1.00  0.00     0.020 A 
ENDROOT
BRANCH   1  12
ATOM     12  C   UNL     1      19.358  35.186  44.384  1.00  0.00     0.025 A 
ATOM     13  C   UNL     1      20.245  34.121  44.171  1.00  0.00     0.016 A 
ATOM     14  C   UNL     1      21.562  34.197  44.630  1.00  0.00     0.051 A 
ATOM     15  C   UNL     1      22.023  35.339  45.293  1.00  0.00     0.157 A 
ATOM     16  C   UNL     1      19.823  36.344  45.030  1.00  0.00     0.062 A 
ATOM     17  C   UNL     1      21.144  36.430  45.490  1.00  0.00     0.158 A 
BRANCH  15  18
ATOM     18  O   UNL     1      23.348  35.349  45.732  1.00  0.00    -0.504 OA
ATOM     19  H   UNL     1      24.106  35.788  45.231  1.00  0.00     0.293 HD
ENDBRANCH  15  18
BRANCH  17  20
ATOM     20  O   UNL     1      21.536  37.609  46.125  1.00  0.00    -0.504 OA
ATOM     21  H   UNL     1      21.532  38.518  45.682  1.00  0.00     0.293 HD
ENDBRANCH  17  20
ENDBRANCH   1  12
BRANCH   2  22
ATOM     22  O   UNL     1      17.097  34.442  46.050  1.00  0.00    -0.502 OA
ATOM     23  H   UNL     1      17.105  35.151  46.773  1.00  0.00     0.293 HD
ENDBRANCH   2  22
BRANCH   9  24
ATOM     24  O   UNL     1      15.031  35.760  38.673  1.00  0.00    -0.508 OA
ATOM     25  H   UNL     1      15.667  36.379  38.185  1.00  0.00     0.293 HD
ENDBRANCH   9  24
TORSDOF 5
ENDMDL
MODEL 2
REMARK VINA RESULT:    -3.514      1.549      6.806
REMARK INTER + INTRA:          -4.444
REMARK INTER:                  -4.124
REMARK INTRA:                  -0.320
REMARK UNBOUND:                -0.313
REMARK SMILES O=c1c(O)c(-c2ccc(O)c(O)c2)oc2cc(O)ccc12
REMARK SMILES IDX 5 1 3 2 2 3 1 4 21 5 15 6 14 7 16 8 17 9 19 10 20 11 6 12
REMARK SMILES IDX 7 13 8 14 9 15 13 16 11 17 10 18 12 20 4 22 18 24
REMARK H PARENT 10 19 12 21 4 23 18 25
REMARK Flexibility Score: inf
ROOT
ATOM      1  C   UNL     1      17.684  34.722  43.238  1.00  0.00     0.180 A 
ATOM      2  C   UNL     1      18.127  33.385  43.300  1.00  0.00     0.208 A 
ATOM      3  C   UNL     1      19.357  33.108  43.916  1.00  0.00     0.235 A 
ATOM      4  O   UNL     1      19.780  31.920  43.974  1.00  0.00    -0.285 OA
ATOM      5  C   UNL     1      20.103  34.159  44.472  1.00  0.00     0.069 A 
ATOM      6  C   UNL     1      19.579  35.468  44.391  1.00  0.00     0.142 A 
ATOM      7  O   UNL     1      18.415  35.688  43.790  1.00  0.00    -0.452 OA
ATOM      8  C   UNL     1      20.288  36.541  44.942  1.00  0.00     0.094 A 
ATOM      9  C   UNL     1      21.520  36.322  45.574  1.00  0.00     0.119 A 
ATOM     10  C   UNL     1      22.041  35.027  45.654  1.00  0.00     0.047 A 
ATOM     11  C   UNL     1      21.340  33.948  45.108  1.00  0.00     0.020 A 
ENDROOT
BRANCH   1  12
ATOM     12  C   UNL     1      16.408  35.099  42.587  1.00  0.00     0.025 A 
ATOM     13  C   UNL     1      15.228  35.116  43.344  1.00  0.00     0.016 A 
ATOM     14  C   UNL     1      14.017  35.486  42.755  1.00  0.00     0.051 A 
ATOM     15  C   UNL     1      13.963  35.861  41.408  1.00  0.00     0.157 A 
ATOM     16  C   UNL     1      16.362  35.496  41.240  1.00  0.00     0.062 A 
ATOM     17  C   UNL     1      15.151  35.872  40.642  1.00  0.00     0.158 A 
BRANCH  15  18
ATOM     18  O   UNL     1      12.720  36.213  40.879  1.00  0.00    -0.504 OA
ATOM     19  H   UNL     1      12.542  36.342  39.893  1.00  0.00     0.293 HD
ENDBRANCH  15  18
BRANCH  17  20
ATOM     20  O   UNL     1      15.180  36.253  39.299  1.00  0.00    -0.504 OA
ATOM     21  H   UNL     1      16.008  36.581  38.823  1.00  0.00     0.293 HD
ENDBRANCH  17  20
ENDBRANCH   1  12
BRANCH   2  22
ATOM     22  O   UNL     1      17.340  32.354  42.781  1.00  0.00    -0.502 OA
ATOM     23  H   UNL     1      17.717  31.642  42.167  1.00  0.00     0.293 HD
ENDBRANCH   2  22
BRANCH   9  24
ATOM     24  O   UNL     1      22.232  37.385  46.125  1.00  0.00    -0.508 OA
ATOM     25  H   UNL     1      22.944  37.876  45.596  1.00  0.00     0.293 HD
ENDBRANCH   9  24
TORSDOF 5
ENDMDL
MODEL 3
REMARK VINA RESULT:    -3.433      2.690      4.227
REMARK INTER + INTRA:          -4.348
REMARK INTER:                  -4.032
REMARK INTRA:                  -0.317
REMARK UNBOUND:                -0.313
REMARK SMILES O=c1c(O)c(-c2ccc(O)c(O)c2)oc2cc(O)ccc12
REMARK SMILES IDX 5 1 3 2 2 3 1 4 21 5 15 6 14 7 16 8 17 9 19 10 20 11 6 12
REMARK SMILES IDX 7 13 8 14 9 15 13 16 11 17 10 18 12 20 4 22 18 24
REMARK H PARENT 10 19 12 21 4 23 18 25
REMARK Flexibility Score: inf
ROOT
ATOM      1  C   UNL     1      20.002  34.075  41.355  1.00  0.00     0.180 A 
ATOM      2  C   UNL     1      20.005  34.428  39.989  1.00  0.00     0.208 A 
ATOM      3  C   UNL     1      18.826  34.931  39.418  1.00  0.00     0.235 A 
ATOM      4  O   UNL     1      18.801  35.243  38.196  1.00  0.00    -0.285 OA
ATOM      5  C   UNL     1      17.684  35.090  40.219  1.00  0.00     0.069 A 
ATOM      6  C   UNL     1      17.770  34.736  41.584  1.00  0.00     0.142 A 
ATOM      7  O   UNL     1      18.903  34.255  42.083  1.00  0.00    -0.452 OA
ATOM      8  C   UNL     1      16.656  34.890  42.417  1.00  0.00     0.094 A 
ATOM      9  C   UNL     1      15.453  35.392  41.902  1.00  0.00     0.119 A 
ATOM     10  C   UNL     1      15.366  35.741  40.550  1.00  0.00     0.047 A 
ATOM     11  C   UNL     1      16.473  35.593  39.710  1.00  0.00     0.020 A 
ENDROOT
BRANCH   1  12
ATOM     12  C   UNL     1      21.200  33.520  42.026  1.00  0.00     0.025 A 
ATOM     13  C   UNL     1      21.423  32.136  42.003  1.00  0.00     0.016 A 
ATOM     14  C   UNL     1      22.556  31.593  42.614  1.00  0.00     0.051 A 
ATOM     15  C   UNL     1      23.493  32.419  43.243  1.00  0.00     0.157 A 
ATOM     16  C   UNL     1      22.151  34.355  42.638  1.00  0.00     0.062 A 
ATOM     17  C   UNL     1      23.292  33.819  43.249  1.00  0.00     0.158 A 
BRANCH  15  18
ATOM     18  O   UNL     1      24.600  31.813  43.840  1.00  0.00    -0.504 OA
ATOM     19  H   UNL     1      24.671  31.613  44.827  1.00  0.00     0.293 HD
ENDBRANCH  15  18
BRANCH  17  20
ATOM     20  O   UNL     1      24.192  34.708  43.839  1.00  0.00    -0.504 OA
ATOM     21  H   UNL     1      24.682  35.433  43.335  1.00  0.00     0.293 HD
ENDBRANCH  17  20
ENDBRANCH   1  12
BRANCH   2  22
ATOM     22  O   UNL     1      21.171  34.304  39.229  1.00  0.00    -0.502 OA
ATOM     23  H   UNL     1      22.094  34.392  39.635  1.00  0.00     0.293 HD
ENDBRANCH   2  22
BRANCH   9  24
ATOM     24  O   UNL     1      14.340  35.548  42.724  1.00  0.00    -0.508 OA
ATOM     25  H   UNL     1      13.965  34.774  43.260  1.00  0.00     0.293 HD
ENDBRANCH   9  24
TORSDOF 5
ENDMDL
MODEL 4
REMARK VINA RESULT:    -3.428      4.150      7.867
REMARK INTER + INTRA:          -4.343
REMARK INTER:                  -4.036
REMARK INTRA:                  -0.307
REMARK UNBOUND:                -0.313
REMARK SMILES O=c1c(O)c(-c2ccc(O)c(O)c2)oc2cc(O)ccc12
REMARK SMILES IDX 5 1 3 2 2 3 1 4 21 5 15 6 14 7 16 8 17 9 19 10 20 11 6 12
REMARK SMILES IDX 7 13 8 14 9 15 13 16 11 17 10 18 12 20 4 22 18 24
REMARK H PARENT 10 19 12 21 4 23 18 25
REMARK Flexibility Score: inf
ROOT
ATOM      1  C   UNL     1      21.633  33.883  42.267  1.00  0.00     0.180 A 
ATOM      2  C   UNL     1      20.832  34.473  43.267  1.00  0.00     0.208 A 
ATOM      3  C   UNL     1      21.407  34.751  44.516  1.00  0.00     0.235 A 
ATOM      4  O   UNL     1      20.708  35.268  45.431  1.00  0.00    -0.285 OA
ATOM      5  C   UNL     1      22.762  34.457  44.733  1.00  0.00     0.069 A 
ATOM      6  C   UNL     1      23.503  33.890  43.673  1.00  0.00     0.142 A 
ATOM      7  O   UNL     1      22.918  33.634  42.508  1.00  0.00    -0.452 OA
ATOM      8  C   UNL     1      24.859  33.592  43.848  1.00  0.00     0.094 A 
ATOM      9  C   UNL     1      25.487  33.853  45.073  1.00  0.00     0.119 A 
ATOM     10  C   UNL     1      24.755  34.413  46.125  1.00  0.00     0.047 A 
ATOM     11  C   UNL     1      23.400  34.716  45.961  1.00  0.00     0.020 A 
ENDROOT
BRANCH   1  12
ATOM     12  C   UNL     1      21.096  33.541  40.929  1.00  0.00     0.025 A 
ATOM     13  C   UNL     1      20.407  32.333  40.751  1.00  0.00     0.016 A 
ATOM     14  C   UNL     1      19.877  32.000  39.503  1.00  0.00     0.051 A 
ATOM     15  C   UNL     1      20.007  32.871  38.416  1.00  0.00     0.157 A 
ATOM     16  C   UNL     1      21.210  34.429  39.845  1.00  0.00     0.062 A 
ATOM     17  C   UNL     1      20.677  34.104  38.591  1.00  0.00     0.158 A 
BRANCH  15  18
ATOM     18  O   UNL     1      19.460  32.475  37.194  1.00  0.00    -0.504 OA
ATOM     19  H   UNL     1      19.042  31.571  37.029  1.00  0.00     0.293 HD
ENDBRANCH  15  18
BRANCH  17  20
ATOM     20  O   UNL     1      20.830  35.032  37.559  1.00  0.00    -0.504 OA
ATOM     21  H   UNL     1      20.558  36.002  37.627  1.00  0.00     0.293 HD
ENDBRANCH  17  20
ENDBRANCH   1  12
BRANCH   2  22
ATOM     22  O   UNL     1      19.499  34.799  43.005  1.00  0.00    -0.502 OA
ATOM     23  H   UNL     1      19.060  34.608  42.113  1.00  0.00     0.293 HD
ENDBRANCH   2  22
BRANCH   9  24
ATOM     24  O   UNL     1      26.836  33.559  45.255  1.00  0.00    -0.508 OA
ATOM     25  H   UNL     1      27.297  33.717  46.143  1.00  0.00     0.293 HD
ENDBRANCH   9  24
TORSDOF 5
ENDMDL
MODEL 5
REMARK VINA RESULT:    -3.327      1.841      7.086
REMARK INTER + INTRA:          -4.224
REMARK INTER:                  -3.909
REMARK INTRA:                  -0.315
REMARK UNBOUND:                -0.313
REMARK SMILES O=c1c(O)c(-c2ccc(O)c(O)c2)oc2cc(O)ccc12
REMARK SMILES IDX 5 1 3 2 2 3 1 4 21 5 15 6 14 7 16 8 17 9 19 10 20 11 6 12
REMARK SMILES IDX 7 13 8 14 9 15 13 16 11 17 10 18 12 20 4 22 18 24
REMARK H PARENT 10 19 12 21 4 23 18 25
REMARK Flexibility Score: inf
ROOT
ATOM      1  C   UNL     1      19.500  34.844  44.551  1.00  0.00     0.180 A 
ATOM      2  C   UNL     1      20.043  36.002  45.147  1.00  0.00     0.208 A 
ATOM      3  C   UNL     1      21.378  35.977  45.579  1.00  0.00     0.235 A 
ATOM      4  O   UNL     1      21.883  36.996  46.125  1.00  0.00    -0.285 OA
ATOM      5  C   UNL     1      22.143  34.815  45.391  1.00  0.00     0.069 A 
ATOM      6  C   UNL     1      21.533  33.706  44.764  1.00  0.00     0.142 A 
ATOM      7  O   UNL     1      20.263  33.768  44.378  1.00  0.00    -0.452 OA
ATOM      8  C   UNL     1      22.266  32.534  44.549  1.00  0.00     0.094 A 
ATOM      9  C   UNL     1      23.605  32.453  44.956  1.00  0.00     0.119 A 
ATOM     10  C   UNL     1      24.210  33.550  45.578  1.00  0.00     0.047 A 
ATOM     11  C   UNL     1      23.487  34.727  45.796  1.00  0.00     0.020 A 
ENDROOT
BRANCH   1  12
ATOM     12  C   UNL     1      18.094  34.785  44.087  1.00  0.00     0.025 A 
ATOM     13  C   UNL     1      17.084  34.431  44.992  1.00  0.00     0.016 A 
ATOM     14  C   UNL     1      15.751  34.387  44.580  1.00  0.00     0.051 A 
ATOM     15  C   UNL     1      15.398  34.710  43.265  1.00  0.00     0.157 A 
ATOM     16  C   UNL     1      17.742  35.131  42.771  1.00  0.00     0.062 A 
ATOM     17  C   UNL     1      16.406  35.093  42.351  1.00  0.00     0.158 A 
BRANCH  15  18
ATOM     18  O   UNL     1      14.048  34.639  42.916  1.00  0.00    -0.504 OA
ATOM     19  H   UNL     1      13.672  33.985  42.245  1.00  0.00     0.293 HD
ENDBRANCH  15  18
BRANCH  17  20
ATOM     20  O   UNL     1      16.130  35.448  41.029  1.00  0.00    -0.504 OA
ATOM     21  H   UNL     1      16.838  35.603  40.325  1.00  0.00     0.293 HD
ENDBRANCH  17  20
ENDBRANCH   1  12
BRANCH   2  22
ATOM     22  O   UNL     1      19.271  37.159  45.277  1.00  0.00    -0.502 OA
ATOM     23  H   UNL     1      18.786  37.392  46.135  1.00  0.00     0.293 HD
ENDBRANCH   2  22
BRANCH   9  24
ATOM     24  O   UNL     1      24.341  31.290  44.746  1.00  0.00    -0.508 OA
ATOM     25  H   UNL     1      24.348  30.823  43.847  1.00  0.00     0.293 HD
ENDBRANCH   9  24
TORSDOF 5
ENDMDL
MODEL 6
REMARK VINA RESULT:    -3.293      4.013      7.325
REMARK INTER + INTRA:          -4.184
REMARK INTER:                  -3.877
REMARK INTRA:                  -0.307
REMARK UNBOUND:                -0.313
REMARK SMILES O=c1c(O)c(-c2ccc(O)c(O)c2)oc2cc(O)ccc12
REMARK SMILES IDX 5 1 3 2 2 3 1 4 21 5 15 6 14 7 16 8 17 9 19 10 20 11 6 12
REMARK SMILES IDX 7 13 8 14 9 15 13 16 11 17 10 18 12 20 4 22 18 24
REMARK H PARENT 10 19 12 21 4 23 18 25
REMARK Flexibility Score: inf
ROOT
ATOM      1  C   UNL     1      21.827  33.808  42.510  1.00  0.00     0.180 A 
ATOM      2  C   UNL     1      21.885  34.102  41.132  1.00  0.00     0.208 A 
ATOM      3  C   UNL     1      22.718  33.328  40.310  1.00  0.00     0.235 A 
ATOM      4  O   UNL     1      22.795  33.579  39.075  1.00  0.00    -0.285 OA
ATOM      5  C   UNL     1      23.455  32.273  40.871  1.00  0.00     0.069 A 
ATOM      6  C   UNL     1      23.323  32.028  42.255  1.00  0.00     0.142 A 
ATOM      7  O   UNL     1      22.530  32.790  43.000  1.00  0.00    -0.452 OA
ATOM      8  C   UNL     1      24.033  30.978  42.850  1.00  0.00     0.094 A 
ATOM      9  C   UNL     1      24.877  30.169  42.077  1.00  0.00     0.119 A 
ATOM     10  C   UNL     1      25.009  30.412  40.706  1.00  0.00     0.047 A 
ATOM     11  C   UNL     1      24.304  31.457  40.101  1.00  0.00     0.020 A 
ENDROOT
BRANCH   1  12
ATOM     12  C   UNL     1      20.987  34.591  43.446  1.00  0.00     0.025 A 
ATOM     13  C   UNL     1      19.637  34.250  43.609  1.00  0.00     0.016 A 
ATOM     14  C   UNL     1      18.832  34.963  44.501  1.00  0.00     0.051 A 
ATOM     15  C   UNL     1      19.361  36.014  45.257  1.00  0.00     0.157 A 
ATOM     16  C   UNL     1      21.528  35.632  44.220  1.00  0.00     0.062 A 
ATOM     17  C   UNL     1      20.728  36.349  45.120  1.00  0.00     0.158 A 
BRANCH  15  18
ATOM     18  O   UNL     1      18.502  36.690  46.125  1.00  0.00    -0.504 OA
ATOM     19  H   UNL     1      18.393  36.463  47.103  1.00  0.00     0.293 HD
ENDBRANCH  15  18
BRANCH  17  20
ATOM     20  O   UNL     1      21.331  37.372  45.854  1.00  0.00    -0.504 OA
ATOM     21  H   UNL     1      22.269  37.323  46.226  1.00  0.00     0.293 HD
ENDBRANCH  17  20
ENDBRANCH   1  12
BRANCH   2  22
ATOM     22  O   UNL     1      21.104  35.128  40.593  1.00  0.00    -0.502 OA
ATOM     23  H   UNL     1      20.183  34.960  40.206  1.00  0.00     0.293 HD
ENDBRANCH   2  22
BRANCH   9  24
ATOM     24  O   UNL     1      25.587  29.123  42.661  1.00  0.00    -0.508 OA
ATOM     25  H   UNL     1      26.582  29.192  42.836  1.00  0.00     0.293 HD
ENDBRANCH   9  24
TORSDOF 5
ENDMDL
MODEL 7
REMARK VINA RESULT:    -3.279      2.291      4.042
REMARK INTER + INTRA:          -4.167
REMARK INTER:                  -3.850
REMARK INTRA:                  -0.316
REMARK UNBOUND:                -0.313
REMARK SMILES O=c1c(O)c(-c2ccc(O)c(O)c2)oc2cc(O)ccc12
REMARK SMILES IDX 5 1 3 2 2 3 1 4 21 5 15 6 14 7 16 8 17 9 19 10 20 11 6 12
REMARK SMILES IDX 7 13 8 14 9 15 13 16 11 17 10 18 12 20 4 22 18 24
REMARK H PARENT 10 19 12 21 4 23 18 25
REMARK Flexibility Score: inf
ROOT
ATOM      1  C   UNL     1      16.706  35.250  41.568  1.00  0.00     0.180 A 
ATOM      2  C   UNL     1      17.316  35.543  40.330  1.00  0.00     0.208 A 
ATOM      3  C   UNL     1      16.575  36.233  39.358  1.00  0.00     0.235 A 
ATOM      4  O   UNL     1      17.095  36.497  38.239  1.00  0.00    -0.285 OA
ATOM      5  C   UNL     1      15.259  36.630  39.646  1.00  0.00     0.069 A 
ATOM      6  C   UNL     1      14.729  36.319  40.917  1.00  0.00     0.142 A 
ATOM      7  O   UNL     1      15.461  35.657  41.806  1.00  0.00    -0.452 OA
ATOM      8  C   UNL     1      13.425  36.707  41.245  1.00  0.00     0.094 A 
ATOM      9  C   UNL     1      12.641  37.402  40.315  1.00  0.00     0.119 A 
ATOM     10  C   UNL     1      13.163  37.709  39.055  1.00  0.00     0.047 A 
ATOM     11  C   UNL     1      14.465  37.328  38.717  1.00  0.00     0.020 A 
ENDROOT
BRANCH   1  12
ATOM     12  C   UNL     1      17.414  34.509  42.638  1.00  0.00     0.025 A 
ATOM     13  C   UNL     1      17.380  33.107  42.644  1.00  0.00     0.016 A 
ATOM     14  C   UNL     1      18.056  32.389  43.632  1.00  0.00     0.051 A 
ATOM     15  C   UNL     1      18.791  33.052  44.620  1.00  0.00     0.157 A 
ATOM     16  C   UNL     1      18.170  35.178  43.615  1.00  0.00     0.062 A 
ATOM     17  C   UNL     1      18.854  34.465  44.608  1.00  0.00     0.158 A 
BRANCH  15  18
ATOM     18  O   UNL     1      19.439  32.276  45.583  1.00  0.00    -0.504 OA
ATOM     19  H   UNL     1      19.005  31.958  46.438  1.00  0.00     0.293 HD
ENDBRANCH  15  18
BRANCH  17  20
ATOM     20  O   UNL     1      19.583  35.196  45.549  1.00  0.00    -0.504 OA
ATOM     21  H   UNL     1      19.761  34.883  46.492  1.00  0.00     0.293 HD
ENDBRANCH  17  20
ENDBRANCH   1  12
BRANCH   2  22
ATOM     22  O   UNL     1      18.643  35.178  40.091  1.00  0.00    -0.502 OA
ATOM     23  H   UNL     1      19.310  35.043  40.840  1.00  0.00     0.293 HD
ENDBRANCH   2  22
BRANCH   9  24
ATOM     24  O   UNL     1      11.342  37.791  40.633  1.00  0.00    -0.508 OA
ATOM     25  H   UNL     1      11.159  38.524  41.309  1.00  0.00     0.293 HD
ENDBRANCH   9  24
TORSDOF 5
ENDMDL
MODEL 8
REMARK VINA RESULT:    -3.267      4.324      5.830
REMARK INTER + INTRA:          -4.154
REMARK INTER:                  -3.842
REMARK INTRA:                  -0.312
REMARK UNBOUND:                -0.313
REMARK SMILES O=c1c(O)c(-c2ccc(O)c(O)c2)oc2cc(O)ccc12
REMARK SMILES IDX 5 1 3 2 2 3 1 4 21 5 15 6 14 7 16 8 17 9 19 10 20 11 6 12
REMARK SMILES IDX 7 13 8 14 9 15 13 16 11 17 10 18 12 20 4 22 18 24
REMARK H PARENT 10 19 12 21 4 23 18 25
REMARK Flexibility Score: inf
ROOT
ATOM      1  C   UNL     1      16.766  35.442  39.373  1.00  0.00     0.180 A 
ATOM      2  C   UNL     1      16.391  36.410  38.418  1.00  0.00     0.208 A 
ATOM      3  C   UNL     1      15.283  37.228  38.684  1.00  0.00     0.235 A 
ATOM      4  O   UNL     1      14.921  38.094  37.840  1.00  0.00    -0.285 OA
ATOM      5  C   UNL     1      14.589  37.078  39.895  1.00  0.00     0.069 A 
ATOM      6  C   UNL     1      15.042  36.102  40.810  1.00  0.00     0.142 A 
ATOM      7  O   UNL     1      16.091  35.342  40.515  1.00  0.00    -0.452 OA
ATOM      8  C   UNL     1      14.384  35.931  42.033  1.00  0.00     0.094 A 
ATOM      9  C   UNL     1      13.273  36.723  42.354  1.00  0.00     0.119 A 
ATOM     10  C   UNL     1      12.822  37.689  41.449  1.00  0.00     0.047 A 
ATOM     11  C   UNL     1      13.473  37.870  40.225  1.00  0.00     0.020 A 
ENDROOT
BRANCH   1  12
ATOM     12  C   UNL     1      17.912  34.528  39.158  1.00  0.00     0.025 A 
ATOM     13  C   UNL     1      17.694  33.278  38.561  1.00  0.00     0.016 A 
ATOM     14  C   UNL     1      18.763  32.409  38.332  1.00  0.00     0.051 A 
ATOM     15  C   UNL     1      20.068  32.775  38.678  1.00  0.00     0.157 A 
ATOM     16  C   UNL     1      19.224  34.909  39.486  1.00  0.00     0.062 A 
ATOM     17  C   UNL     1      20.303  34.044  39.256  1.00  0.00     0.158 A 
BRANCH  15  18
ATOM     18  O   UNL     1      21.091  31.858  38.429  1.00  0.00    -0.504 OA
ATOM     19  H   UNL     1      21.043  31.136  37.725  1.00  0.00     0.293 HD
ENDBRANCH  15  18
BRANCH  17  20
ATOM     20  O   UNL     1      21.579  34.487  39.609  1.00  0.00    -0.504 OA
ATOM     21  H   UNL     1      22.433  34.019  39.343  1.00  0.00     0.293 HD
ENDBRANCH  17  20
ENDBRANCH   1  12
BRANCH   2  22
ATOM     22  O   UNL     1      17.130  36.568  37.243  1.00  0.00    -0.502 OA
ATOM     23  H   UNL     1      17.815  37.305  37.129  1.00  0.00     0.293 HD
ENDBRANCH   2  22
BRANCH   9  24
ATOM     24  O   UNL     1      12.612  36.557  43.568  1.00  0.00    -0.508 OA
ATOM     25  H   UNL     1      12.074  37.309  43.985  1.00  0.00     0.293 HD
ENDBRANCH   9  24
TORSDOF 5
ENDMDL
MODEL 9
REMARK VINA RESULT:    -3.253      3.757      5.262
REMARK INTER + INTRA:          -4.137
REMARK INTER:                  -3.846
REMARK INTRA:                  -0.291
REMARK UNBOUND:                -0.313
REMARK SMILES O=c1c(O)c(-c2ccc(O)c(O)c2)oc2cc(O)ccc12
REMARK SMILES IDX 5 1 3 2 2 3 1 4 21 5 15 6 14 7 16 8 17 9 19 10 20 11 6 12
REMARK SMILES IDX 7 13 8 14 9 15 13 16 11 17 10 18 12 20 4 22 18 24
REMARK H PARENT 10 19 12 21 4 23 18 25
REMARK Flexibility Score: inf
ROOT
ATOM      1  C   UNL     1      21.108  33.948  40.756  1.00  0.00     0.180 A 
ATOM      2  C   UNL     1      22.013  33.796  39.685  1.00  0.00     0.208 A 
ATOM      3  C   UNL     1      21.571  34.073  38.383  1.00  0.00     0.235 A 
ATOM      4  O   UNL     1      22.359  33.934  37.407  1.00  0.00    -0.285 OA
ATOM      5  C   UNL     1      20.253  34.510  38.179  1.00  0.00     0.069 A 
ATOM      6  C   UNL     1      19.416  34.660  39.307  1.00  0.00     0.142 A 
ATOM      7  O   UNL     1      19.871  34.379  40.522  1.00  0.00    -0.452 OA
ATOM      8  C   UNL     1      18.098  35.104  39.146  1.00  0.00     0.094 A 
ATOM      9  C   UNL     1      17.604  35.399  37.868  1.00  0.00     0.119 A 
ATOM     10  C   UNL     1      18.431  35.249  36.750  1.00  0.00     0.047 A 
ATOM     11  C   UNL     1      19.749  34.808  36.899  1.00  0.00     0.020 A 
ENDROOT
BRANCH   1  12
ATOM     12  C   UNL     1      21.492  33.658  42.158  1.00  0.00     0.025 A 
ATOM     13  C   UNL     1      21.516  32.329  42.605  1.00  0.00     0.016 A 
ATOM     14  C   UNL     1      21.893  32.033  43.916  1.00  0.00     0.051 A 
ATOM     15  C   UNL     1      22.269  33.050  44.799  1.00  0.00     0.157 A 
ATOM     16  C   UNL     1      21.891  34.681  43.035  1.00  0.00     0.062 A 
ATOM     17  C   UNL     1      22.274  34.392  44.351  1.00  0.00     0.158 A 
BRANCH  15  18
ATOM     18  O   UNL     1      22.629  32.687  46.098  1.00  0.00    -0.504 OA
ATOM     19  H   UNL     1      22.959  33.338  46.796  1.00  0.00     0.293 HD
ENDBRANCH  15  18
BRANCH  17  20
ATOM     20  O   UNL     1      22.655  35.458  45.167  1.00  0.00    -0.504 OA
ATOM     21  H   UNL     1      23.615  35.726  45.336  1.00  0.00     0.293 HD
ENDBRANCH  17  20
ENDBRANCH   1  12
BRANCH   2  22
ATOM     22  O   UNL     1      23.333  33.406  39.924  1.00  0.00    -0.502 OA
ATOM     23  H   UNL     1      24.125  33.932  39.574  1.00  0.00     0.293 HD
ENDBRANCH   2  22
BRANCH   9  24
ATOM     24  O   UNL     1      16.294  35.841  37.699  1.00  0.00    -0.508 OA
ATOM     25  H   UNL     1      15.699  35.466  36.969  1.00  0.00     0.293 HD
ENDBRANCH   9  24
TORSDOF 5
ENDMDL
