MODEL 1
REMARK VINA RESULT:    -6.800      0.000      0.000
REMARK INTER + INTRA:          -7.396
REMARK INTER:                  -7.396
REMARK INTRA:                   0.000
REMARK UNBOUND:                 0.000
REMARK SMILES Cc1cc(O)c2c(c1)C(=O)c1cc(O)cc(O)c1C2=O
REMARK SMILES IDX 1 1 2 2 8 3 7 4 6 5 4 6 3 7 19 8 20 9 18 10 11 11 9 12 10 13
REMARK SMILES IDX 12 14 13 15 15 16 16 17 5 18 17 20 14 22
REMARK H PARENT 5 19 17 21 14 23
REMARK Flexibility Score: inf
ROOT
ATOM      1  C   UNL     1      11.714 -57.526  18.123  1.00  0.00     0.044 C 
ATOM      2  C   UNL     1      13.053 -56.875  18.309  1.00  0.00    -0.047 A 
ATOM      3  C   UNL     1      13.443 -56.415  19.572  1.00  0.00     0.016 A 
ATOM      4  C   UNL     1      14.682 -55.779  19.750  1.00  0.00     0.038 A 
ATOM      5  C   UNL     1      15.546 -55.599  18.647  1.00  0.00     0.076 A 
ATOM      6  C   UNL     1      15.109 -55.991  17.356  1.00  0.00     0.127 A 
ATOM      7  C   UNL     1      13.880 -56.640  17.205  1.00  0.00     0.050 A 
ATOM      8  C   UNL     1      16.907 -55.058  18.901  1.00  0.00     0.201 C 
ATOM      9  O   UNL     1      17.864 -55.393  18.152  1.00  0.00    -0.288 OA
ATOM     10  C   UNL     1      17.173 -54.280  20.138  1.00  0.00     0.076 A 
ATOM     11  C   UNL     1      16.305 -54.460  21.239  1.00  0.00     0.041 A 
ATOM     12  C   UNL     1      15.085 -55.289  21.090  1.00  0.00     0.194 C 
ATOM     13  O   UNL     1      14.376 -55.555  22.099  1.00  0.00    -0.289 OA
ATOM     14  C   UNL     1      16.601 -53.849  22.469  1.00  0.00     0.059 A 
ATOM     15  C   UNL     1      17.739 -53.051  22.608  1.00  0.00     0.120 A 
ATOM     16  C   UNL     1      18.576 -52.839  21.514  1.00  0.00     0.093 A 
ATOM     17  C   UNL     1      18.294 -53.419  20.274  1.00  0.00     0.131 A 
ENDROOT
BRANCH   6  18
ATOM     18  O   UNL     1      15.842 -55.723  16.197  1.00  0.00    -0.507 OA
ATOM     19  H   UNL     1      15.931 -56.375  15.428  1.00  0.00     0.293 HD
ENDBRANCH   6  18
BRANCH  17  20
ATOM     20  O   UNL     1      19.125 -53.086  19.202  1.00  0.00    -0.507 OA
ATOM     21  H   UNL     1      19.906 -52.448  19.277  1.00  0.00     0.293 HD
ENDBRANCH  17  20
BRANCH  15  22
ATOM     22  O   UNL     1      18.043 -52.453  23.831  1.00  0.00    -0.508 OA
ATOM     23  H   UNL     1      17.910 -52.943  24.708  1.00  0.00     0.293 HD
ENDBRANCH  15  22
TORSDOF 3
ENDMDL
MODEL 2
REMARK VINA RESULT:    -6.724      2.326      4.093
REMARK INTER + INTRA:          -7.314
REMARK INTER:                  -7.314
REMARK INTRA:                   0.000
REMARK UNBOUND:                 0.000
REMARK SMILES Cc1cc(O)c2c(c1)C(=O)c1cc(O)cc(O)c1C2=O
REMARK SMILES IDX 1 1 2 2 8 3 7 4 6 5 4 6 3 7 19 8 20 9 18 10 11 11 9 12 10 13
REMARK SMILES IDX 12 14 13 15 15 16 16 17 5 18 17 20 14 22
REMARK H PARENT 5 19 17 21 14 23
REMARK Flexibility Score: inf
ROOT
ATOM      1  C   UNL     1      13.479 -56.797  14.273  1.00  0.00     0.044 C 
ATOM      2  C   UNL     1      13.252 -56.272  15.660  1.00  0.00    -0.047 A 
ATOM      3  C   UNL     1      14.307 -56.231  16.578  1.00  0.00     0.016 A 
ATOM      4  C   UNL     1      14.098 -55.767  17.888  1.00  0.00     0.038 A 
ATOM      5  C   UNL     1      12.812 -55.338  18.285  1.00  0.00     0.076 A 
ATOM      6  C   UNL     1      11.730 -55.461  17.376  1.00  0.00     0.127 A 
ATOM      7  C   UNL     1      11.966 -55.906  16.072  1.00  0.00     0.050 A 
ATOM      8  C   UNL     1      12.662 -54.716  19.627  1.00  0.00     0.201 C 
ATOM      9  O   UNL     1      11.774 -53.842  19.817  1.00  0.00    -0.288 OA
ATOM     10  C   UNL     1      13.671 -54.987  20.683  1.00  0.00     0.076 A 
ATOM     11  C   UNL     1      14.957 -55.419  20.282  1.00  0.00     0.041 A 
ATOM     12  C   UNL     1      15.218 -55.734  18.857  1.00  0.00     0.194 C 
ATOM     13  O   UNL     1      16.392 -55.998  18.475  1.00  0.00    -0.289 OA
ATOM     14  C   UNL     1      15.978 -55.553  21.237  1.00  0.00     0.059 A 
ATOM     15  C   UNL     1      15.730 -55.277  22.584  1.00  0.00     0.120 A 
ATOM     16  C   UNL     1      14.453 -54.888  22.989  1.00  0.00     0.093 A 
ATOM     17  C   UNL     1      13.414 -54.767  22.061  1.00  0.00     0.131 A 
ENDROOT
BRANCH   6  18
ATOM     18  O   UNL     1      10.407 -55.189  17.735  1.00  0.00    -0.507 OA
ATOM     19  H   UNL     1       9.711 -54.848  17.086  1.00  0.00     0.293 HD
ENDBRANCH   6  18
BRANCH  17  20
ATOM     20  O   UNL     1      12.143 -54.464  22.553  1.00  0.00    -0.507 OA
ATOM     21  H   UNL     1      11.333 -55.051  22.408  1.00  0.00     0.293 HD
ENDBRANCH  17  20
BRANCH  15  22
ATOM     22  O   UNL     1      16.744 -55.396  23.533  1.00  0.00    -0.508 OA
ATOM     23  H   UNL     1      16.928 -54.662  24.207  1.00  0.00     0.293 HD
ENDBRANCH  15  22
TORSDOF 3
ENDMDL
MODEL 3
REMARK VINA RESULT:    -6.599     11.649     14.150
REMARK INTER + INTRA:          -7.177
REMARK INTER:                  -7.177
REMARK INTRA:                   0.000
REMARK UNBOUND:                 0.000
REMARK SMILES Cc1cc(O)c2c(c1)C(=O)c1cc(O)cc(O)c1C2=O
REMARK SMILES IDX 1 1 2 2 8 3 7 4 6 5 4 6 3 7 19 8 20 9 18 10 11 11 9 12 10 13
REMARK SMILES IDX 12 14 13 15 15 16 16 17 5 18 17 20 14 22
REMARK H PARENT 5 19 17 21 14 23
REMARK Flexibility Score: inf
ROOT
ATOM      1  C   UNL     1      18.291 -45.321  33.125  1.00  0.00     0.044 C 
ATOM      2  C   UNL     1      17.613 -46.498  32.488  1.00  0.00    -0.047 A 
ATOM      3  C   UNL     1      16.221 -46.516  32.345  1.00  0.00     0.016 A 
ATOM      4  C   UNL     1      15.575 -47.626  31.776  1.00  0.00     0.038 A 
ATOM      5  C   UNL     1      16.333 -48.737  31.343  1.00  0.00     0.076 A 
ATOM      6  C   UNL     1      17.734 -48.747  31.568  1.00  0.00     0.127 A 
ATOM      7  C   UNL     1      18.358 -47.623  32.118  1.00  0.00     0.050 A 
ATOM      8  C   UNL     1      15.633 -49.825  30.613  1.00  0.00     0.201 C 
ATOM      9  O   UNL     1      16.252 -50.498  29.746  1.00  0.00    -0.288 OA
ATOM     10  C   UNL     1      14.165 -49.993  30.769  1.00  0.00     0.076 A 
ATOM     11  C   UNL     1      13.409 -48.880  31.205  1.00  0.00     0.041 A 
ATOM     12  C   UNL     1      14.100 -47.641  31.634  1.00  0.00     0.194 C 
ATOM     13  O   UNL     1      13.429 -46.606  31.903  1.00  0.00    -0.289 OA
ATOM     14  C   UNL     1      12.006 -48.957  31.233  1.00  0.00     0.059 A 
ATOM     15  C   UNL     1      11.352 -50.130  30.849  1.00  0.00     0.120 A 
ATOM     16  C   UNL     1      12.096 -51.242  30.456  1.00  0.00     0.093 A 
ATOM     17  C   UNL     1      13.493 -51.199  30.438  1.00  0.00     0.131 A 
ENDROOT
BRANCH   6  18
ATOM     18  O   UNL     1      18.534 -49.860  31.297  1.00  0.00    -0.507 OA
ATOM     19  H   UNL     1      18.165 -50.761  31.025  1.00  0.00     0.293 HD
ENDBRANCH   6  18
BRANCH  17  20
ATOM     20  O   UNL     1      14.171 -52.378  30.123  1.00  0.00    -0.507 OA
ATOM     21  H   UNL     1      14.686 -52.925  30.800  1.00  0.00     0.293 HD
ENDBRANCH  17  20
BRANCH  15  22
ATOM     22  O   UNL     1       9.961 -50.206  30.863  1.00  0.00    -0.508 OA
ATOM     23  H   UNL     1       9.479 -51.096  30.907  1.00  0.00     0.293 HD
ENDBRANCH  15  22
TORSDOF 3
ENDMDL
MODEL 4
REMARK VINA RESULT:    -6.458      1.523      6.342
REMARK INTER + INTRA:          -7.024
REMARK INTER:                  -7.024
REMARK INTRA:                   0.000
REMARK UNBOUND:                 0.000
REMARK SMILES Cc1cc(O)c2c(c1)C(=O)c1cc(O)cc(O)c1C2=O
REMARK SMILES IDX 1 1 2 2 8 3 7 4 6 5 4 6 3 7 19 8 20 9 18 10 11 11 9 12 10 13
REMARK SMILES IDX 12 14 13 15 15 16 16 17 5 18 17 20 14 22
REMARK H PARENT 5 19 17 21 14 23
REMARK Flexibility Score: inf
ROOT
ATOM      1  C   UNL     1      18.975 -52.701  22.221  1.00  0.00     0.044 C 
ATOM      2  C   UNL     1      17.683 -53.344  21.809  1.00  0.00    -0.047 A 
ATOM      3  C   UNL     1      17.586 -54.002  20.579  1.00  0.00     0.016 A 
ATOM      4  C   UNL     1      16.372 -54.583  20.172  1.00  0.00     0.038 A 
ATOM      5  C   UNL     1      15.238 -54.502  21.011  1.00  0.00     0.076 A 
ATOM      6  C   UNL     1      15.321 -53.760  22.217  1.00  0.00     0.127 A 
ATOM      7  C   UNL     1      16.544 -53.208  22.611  1.00  0.00     0.050 A 
ATOM      8  C   UNL     1      14.017 -55.253  20.617  1.00  0.00     0.201 C 
ATOM      9  O   UNL     1      13.238 -55.692  21.504  1.00  0.00    -0.288 OA
ATOM     10  C   UNL     1      13.818 -55.644  19.198  1.00  0.00     0.076 A 
ATOM     11  C   UNL     1      14.955 -55.721  18.360  1.00  0.00     0.041 A 
ATOM     12  C   UNL     1      16.275 -55.273  18.865  1.00  0.00     0.194 C 
ATOM     13  O   UNL     1      17.311 -55.457  18.168  1.00  0.00    -0.289 OA
ATOM     14  C   UNL     1      14.827 -56.219  17.053  1.00  0.00     0.059 A 
ATOM     15  C   UNL     1      13.581 -56.624  16.567  1.00  0.00     0.120 A 
ATOM     16  C   UNL     1      12.451 -56.512  17.376  1.00  0.00     0.093 A 
ATOM     17  C   UNL     1      12.548 -56.001  18.674  1.00  0.00     0.131 A 
ENDROOT
BRANCH   6  18
ATOM     18  O   UNL     1      14.213 -53.516  23.032  1.00  0.00    -0.507 OA
ATOM     19  H   UNL     1      13.707 -54.242  23.520  1.00  0.00     0.293 HD
ENDBRANCH   6  18
BRANCH  17  20
ATOM     20  O   UNL     1      11.361 -55.832  19.390  1.00  0.00    -0.507 OA
ATOM     21  H   UNL     1      10.612 -56.511  19.399  1.00  0.00     0.293 HD
ENDBRANCH  17  20
BRANCH  15  22
ATOM     22  O   UNL     1      13.452 -57.130  15.275  1.00  0.00    -0.508 OA
ATOM     23  H   UNL     1      13.871 -58.014  15.008  1.00  0.00     0.293 HD
ENDBRANCH  15  22
TORSDOF 3
ENDMDL
MODEL 5
REMARK VINA RESULT:    -6.255      1.809      2.533
REMARK INTER + INTRA:          -6.803
REMARK INTER:                  -6.803
REMARK INTRA:                   0.000
REMARK UNBOUND:                 0.000
REMARK SMILES Cc1cc(O)c2c(c1)C(=O)c1cc(O)cc(O)c1C2=O
REMARK SMILES IDX 1 1 2 2 8 3 7 4 6 5 4 6 3 7 19 8 20 9 18 10 11 11 9 12 10 13
REMARK SMILES IDX 12 14 13 15 15 16 16 17 5 18 17 20 14 22
REMARK H PARENT 5 19 17 21 14 23
REMARK Flexibility Score: inf
ROOT
ATOM      1  C   UNL     1       8.992 -56.209  16.977  1.00  0.00     0.044 C 
ATOM      2  C   UNL     1      10.448 -55.977  17.253  1.00  0.00    -0.047 A 
ATOM      3  C   UNL     1      10.890 -55.760  18.563  1.00  0.00     0.016 A 
ATOM      4  C   UNL     1      12.248 -55.514  18.828  1.00  0.00     0.038 A 
ATOM      5  C   UNL     1      13.179 -55.484  17.766  1.00  0.00     0.076 A 
ATOM      6  C   UNL     1      12.711 -55.620  16.433  1.00  0.00     0.127 A 
ATOM      7  C   UNL     1      11.359 -55.884  16.195  1.00  0.00     0.050 A 
ATOM      8  C   UNL     1      14.622 -55.370  18.099  1.00  0.00     0.201 C 
ATOM      9  O   UNL     1      15.483 -55.889  17.340  1.00  0.00    -0.288 OA
ATOM     10  C   UNL     1      15.035 -54.811  19.412  1.00  0.00     0.076 A 
ATOM     11  C   UNL     1      14.100 -54.841  20.473  1.00  0.00     0.041 A 
ATOM     12  C   UNL     1      12.707 -55.279  20.218  1.00  0.00     0.194 C 
ATOM     13  O   UNL     1      11.906 -55.426  21.181  1.00  0.00    -0.289 OA
ATOM     14  C   UNL     1      14.495 -54.450  21.764  1.00  0.00     0.059 A 
ATOM     15  C   UNL     1      15.802 -54.017  22.004  1.00  0.00     0.120 A 
ATOM     16  C   UNL     1      16.715 -53.949  20.953  1.00  0.00     0.093 A 
ATOM     17  C   UNL     1      16.342 -54.313  19.656  1.00  0.00     0.131 A 
ENDROOT
BRANCH   6  18
ATOM     18  O   UNL     1      13.543 -55.464  15.322  1.00  0.00    -0.507 OA
ATOM     19  H   UNL     1      14.153 -56.192  14.974  1.00  0.00     0.293 HD
ENDBRANCH   6  18
BRANCH  17  20
ATOM     20  O   UNL     1      17.281 -54.131  18.639  1.00  0.00    -0.507 OA
ATOM     21  H   UNL     1      18.135 -53.602  18.755  1.00  0.00     0.293 HD
ENDBRANCH  17  20
BRANCH  15  22
ATOM     22  O   UNL     1      16.201 -53.641  23.285  1.00  0.00    -0.508 OA
ATOM     23  H   UNL     1      16.924 -52.945  23.432  1.00  0.00     0.293 HD
ENDBRANCH  15  22
TORSDOF 3
ENDMDL
MODEL 6
REMARK VINA RESULT:    -6.216      2.024      2.827
REMARK INTER + INTRA:          -6.761
REMARK INTER:                  -6.761
REMARK INTRA:                   0.000
REMARK UNBOUND:                 0.000
REMARK SMILES Cc1cc(O)c2c(c1)C(=O)c1cc(O)cc(O)c1C2=O
REMARK SMILES IDX 1 1 2 2 8 3 7 4 6 5 4 6 3 7 19 8 20 9 18 10 11 11 9 12 10 13
REMARK SMILES IDX 12 14 13 15 15 16 16 17 5 18 17 20 14 22
REMARK H PARENT 5 19 17 21 14 23
REMARK Flexibility Score: inf
ROOT
ATOM      1  C   UNL     1      11.632 -57.474  15.059  1.00  0.00     0.044 C 
ATOM      2  C   UNL     1      12.579 -56.868  16.053  1.00  0.00    -0.047 A 
ATOM      3  C   UNL     1      12.115 -56.458  17.307  1.00  0.00     0.016 A 
ATOM      4  C   UNL     1      12.989 -55.864  18.234  1.00  0.00     0.038 A 
ATOM      5  C   UNL     1      14.348 -55.675  17.898  1.00  0.00     0.076 A 
ATOM      6  C   UNL     1      14.792 -56.015  16.594  1.00  0.00     0.127 A 
ATOM      7  C   UNL     1      13.910 -56.623  15.697  1.00  0.00     0.050 A 
ATOM      8  C   UNL     1      15.271 -55.182  18.954  1.00  0.00     0.201 C 
ATOM      9  O   UNL     1      16.484 -55.521  18.934  1.00  0.00    -0.288 OA
ATOM     10  C   UNL     1      14.726 -54.450  20.126  1.00  0.00     0.076 A 
ATOM     11  C   UNL     1      13.365 -54.638  20.458  1.00  0.00     0.041 A 
ATOM     12  C   UNL     1      12.489 -55.427  19.559  1.00  0.00     0.194 C 
ATOM     13  O   UNL     1      11.309 -55.703  19.911  1.00  0.00    -0.289 OA
ATOM     14  C   UNL     1      12.848 -54.074  21.636  1.00  0.00     0.059 A 
ATOM     15  C   UNL     1      13.666 -53.313  22.476  1.00  0.00     0.120 A 
ATOM     16  C   UNL     1      14.998 -53.092  22.132  1.00  0.00     0.093 A 
ATOM     17  C   UNL     1      15.532 -53.626  20.955  1.00  0.00     0.131 A 
ENDROOT
BRANCH   6  18
ATOM     18  O   UNL     1      16.083 -55.733  16.139  1.00  0.00    -0.507 OA
ATOM     19  H   UNL     1      16.477 -54.803  16.118  1.00  0.00     0.293 HD
ENDBRANCH   6  18
BRANCH  17  20
ATOM     20  O   UNL     1      16.847 -53.285  20.631  1.00  0.00    -0.507 OA
ATOM     21  H   UNL     1      17.122 -52.371  20.296  1.00  0.00     0.293 HD
ENDBRANCH  17  20
BRANCH  15  22
ATOM     22  O   UNL     1      13.160 -52.762  23.652  1.00  0.00    -0.508 OA
ATOM     23  H   UNL     1      12.950 -53.338  24.459  1.00  0.00     0.293 HD
ENDBRANCH  15  22
TORSDOF 3
ENDMDL
MODEL 7
REMARK VINA RESULT:    -6.212      2.229      5.745
REMARK INTER + INTRA:          -6.756
REMARK INTER:                  -6.756
REMARK INTRA:                   0.000
REMARK UNBOUND:                 0.000
REMARK SMILES Cc1cc(O)c2c(c1)C(=O)c1cc(O)cc(O)c1C2=O
REMARK SMILES IDX 1 1 2 2 8 3 7 4 6 5 4 6 3 7 19 8 20 9 18 10 11 11 9 12 10 13
REMARK SMILES IDX 12 14 13 15 15 16 16 17 5 18 17 20 14 22
REMARK H PARENT 5 19 17 21 14 23
REMARK Flexibility Score: inf
ROOT
ATOM      1  C   UNL     1      18.271 -52.368  22.284  1.00  0.00     0.044 C 
ATOM      2  C   UNL     1      17.579 -53.153  21.209  1.00  0.00    -0.047 A 
ATOM      3  C   UNL     1      16.224 -52.935  20.939  1.00  0.00     0.016 A 
ATOM      4  C   UNL     1      15.561 -53.685  19.953  1.00  0.00     0.038 A 
ATOM      5  C   UNL     1      16.265 -54.671  19.227  1.00  0.00     0.076 A 
ATOM      6  C   UNL     1      17.616 -54.945  19.564  1.00  0.00     0.127 A 
ATOM      7  C   UNL     1      18.261 -54.172  20.534  1.00  0.00     0.050 A 
ATOM      8  C   UNL     1      15.572 -55.338  18.094  1.00  0.00     0.201 C 
ATOM      9  O   UNL     1      16.238 -55.749  17.107  1.00  0.00    -0.288 OA
ATOM     10  C   UNL     1      14.088 -55.351  18.041  1.00  0.00     0.076 A 
ATOM     11  C   UNL     1      13.386 -54.365  18.772  1.00  0.00     0.041 A 
ATOM     12  C   UNL     1      14.123 -53.452  19.678  1.00  0.00     0.194 C 
ATOM     13  O   UNL     1      13.521 -52.493  20.234  1.00  0.00    -0.289 OA
ATOM     14  C   UNL     1      11.991 -54.257  18.639  1.00  0.00     0.059 A 
ATOM     15  C   UNL     1      11.290 -55.129  17.802  1.00  0.00     0.120 A 
ATOM     16  C   UNL     1      11.974 -56.128  17.111  1.00  0.00     0.093 A 
ATOM     17  C   UNL     1      13.358 -56.269  17.241  1.00  0.00     0.131 A 
ENDROOT
BRANCH   6  18
ATOM     18  O   UNL     1      18.339 -55.994  18.990  1.00  0.00    -0.507 OA
ATOM     19  H   UNL     1      18.002 -56.946  18.944  1.00  0.00     0.293 HD
ENDBRANCH   6  18
BRANCH  17  20
ATOM     20  O   UNL     1      13.961 -57.348  16.591  1.00  0.00    -0.507 OA
ATOM     21  H   UNL     1      14.394 -58.122  17.077  1.00  0.00     0.293 HD
ENDBRANCH  17  20
BRANCH  15  22
ATOM     22  O   UNL     1       9.908 -55.017  17.657  1.00  0.00    -0.508 OA
ATOM     23  H   UNL     1       9.294 -54.954  18.461  1.00  0.00     0.293 HD
ENDBRANCH  15  22
TORSDOF 3
ENDMDL
