MODEL 1
REMARK VINA RESULT:    -5.459      0.000      0.000
REMARK INTER + INTRA:          -8.738
REMARK INTER:                  -6.576
REMARK INTRA:                  -2.162
REMARK UNBOUND:                -2.162
REMARK SMILES C[C@@H]1O[C@@H](O[C@@H]2CC[C@]3(C)[C@H](CC[C@]4(C)[C@@H]3C=C[C@@]35OC[C@]6(CCC(C)(C)C[C@H]63)[C@H](O)C[C@@]45C)[C@@]2(C)CO)[C@H](O)[C@H](O[C@H]2O[C@H](CO)[C@H](O)[C@@H](O)[C@@H]2O)[C@H]1O
REMARK SMILES IDX 1 1 2 2 54 3 41 4 39 5 4 6 3 7 55 8 42 10 43 11 52 12 44 13
REMARK SMILES IDX 50 14 45 15 48 16 53 17 51 19 46 21 47 22 49 24 5 26 6 27
REMARK SMILES IDX 7 28 35 29 8 30 11 31 36 32 9 33 12 34 10 35 16 36 13 37
REMARK SMILES IDX 14 38 17 39 15 40 33 41 18 42 19 43 32 44 34 45 29 46 20 47
REMARK SMILES IDX 30 48 22 49 28 50 21 51 23 52 25 53 24 54 26 55 27 56 37 57
REMARK SMILES IDX 38 58 31 60 40 62
REMARK H PARENT 55 9 53 18 51 20 47 23 49 25 38 59 31 61 40 63
REMARK Flexibility Score: inf
ROOT
ATOM      1  C   UNL     1      38.353 -36.715  10.979  1.00  0.00     0.041 C 
ATOM      2  C   UNL     1      37.567 -35.479  11.800  1.00  0.00     0.150 C 
ATOM      3  C   UNL     1      35.222 -35.377  11.782  1.00  0.00     0.175 C 
ATOM      4  C   UNL     1      34.464 -34.064  11.472  1.00  0.00     0.186 C 
ATOM      5  C   UNL     1      35.601 -35.981  12.899  1.00  0.00     0.202 C 
ATOM      6  C   UNL     1      36.406 -34.606  13.631  1.00  0.00     0.282 C 
ATOM      7  O   UNL     1      38.044 -35.525  13.230  1.00  0.00    -0.344 OA
ENDROOT
BRANCH   3   8
ATOM      8  O   UNL     1      34.487 -36.562  11.078  1.00  0.00    -0.388 OA
ATOM      9  H   UNL     1      34.327 -37.064  10.291  1.00  0.00     0.211 HD
ENDBRANCH   3   8
BRANCH   4  10
ATOM     10  O   UNL     1      33.574 -32.989   9.914  1.00  0.00    -0.341 OA
BRANCH  10  11
ATOM     11  C   UNL     1      31.963 -33.111   9.257  1.00  0.00     0.282 C 
ATOM     12  C   UNL     1      32.354 -32.444   6.995  1.00  0.00     0.202 C 
ATOM     13  O   UNL     1      31.172 -31.601   8.978  1.00  0.00    -0.341 OA
ATOM     14  C   UNL     1      33.301 -33.198   7.374  1.00  0.00     0.179 C 
ATOM     15  C   UNL     1      32.225 -30.744   8.807  1.00  0.00     0.178 C 
ATOM     16  C   UNL     1      33.404 -31.378   8.177  1.00  0.00     0.177 C 
BRANCH  12  17
ATOM     17  O   UNL     1      32.918 -31.329   5.535  1.00  0.00    -0.385 OA
ATOM     18  H   UNL     1      33.191 -30.615   4.283  1.00  0.00     0.211 HD
ENDBRANCH  12  17
BRANCH  14  19
ATOM     19  O   UNL     1      33.354 -34.567   8.163  1.00  0.00    -0.387 OA
ATOM     20  H   UNL     1      33.574 -34.916   9.192  1.00  0.00     0.211 HD
ENDBRANCH  14  19
BRANCH  15  21
ATOM     21  C   UNL     1      31.856 -29.263   8.122  1.00  0.00     0.191 C 
BRANCH  21  22
ATOM     22  O   UNL     1      32.984 -28.253   8.358  1.00  0.00    -0.394 OA
ATOM     23  H   UNL     1      32.530 -27.361   8.789  1.00  0.00     0.210 HD
ENDBRANCH  21  22
ENDBRANCH  15  21
BRANCH  16  24
ATOM     24  O   UNL     1      34.016 -30.824   7.233  1.00  0.00    -0.387 OA
ATOM     25  H   UNL     1      34.673 -30.036   7.549  1.00  0.00     0.211 HD
ENDBRANCH  16  24
ENDBRANCH  10  11
ENDBRANCH   4  10
BRANCH   6  26
ATOM     26  O   UNL     1      35.145 -32.831  13.688  1.00  0.00    -0.346 OA
BRANCH  26  27
ATOM     27  C   UNL     1      33.377 -31.520  13.613  1.00  0.00     0.130 C 
ATOM     28  C   UNL     1      32.709 -30.658  12.541  1.00  0.00     0.033 C 
ATOM     29  C   UNL     1      31.804 -29.769  15.287  1.00  0.00     0.020 C 
ATOM     30  C   UNL     1      33.186 -29.264  13.326  1.00  0.00     0.010 C 
ATOM     31  C   UNL     1      32.807 -29.727  15.947  1.00  0.00     0.006 C 
ATOM     32  C   UNL     1      31.615 -30.089  17.427  1.00  0.00     0.017 C 
ATOM     33  C   UNL     1      33.829 -29.359  15.277  1.00  0.00    -0.022 C 
ATOM     34  C   UNL     1      32.081 -31.086  15.394  1.00  0.00     0.005 C 
ATOM     35  C   UNL     1      35.026 -29.698  16.830  1.00  0.00     0.012 C 
ATOM     36  C   UNL     1      34.966 -29.880  15.112  1.00  0.00     0.024 C 
ATOM     37  C   UNL     1      33.163 -32.176  15.833  1.00  0.00     0.008 C 
ATOM     38  C   UNL     1      34.959 -31.662  15.529  1.00  0.00    -0.017 C 
ATOM     39  C   UNL     1      35.626 -28.298  14.957  1.00  0.00    -0.024 C 
ATOM     40  C   UNL     1      35.066 -32.813  17.103  1.00  0.00     0.013 C 
ATOM     41  C   UNL     1      36.615 -30.851  14.139  1.00  0.00     0.009 C 
ATOM     42  C   UNL     1      36.821 -27.909  14.747  1.00  0.00     0.005 C 
ATOM     43  C   UNL     1      37.664 -29.509  14.704  1.00  0.00     0.096 C 
ATOM     44  C   UNL     1      37.420 -31.856  13.065  1.00  0.00     0.043 C 
ATOM     45  C   UNL     1      35.905 -30.114  12.453  1.00  0.00     0.015 C 
ATOM     46  C   UNL     1      38.121 -29.887  16.168  1.00  0.00     0.037 C 
ATOM     47  O   UNL     1      39.023 -29.720  14.149  1.00  0.00    -0.369 OA
ATOM     48  C   UNL     1      38.480 -32.319  14.299  1.00  0.00     0.124 C 
ATOM     49  C   UNL     1      38.423 -31.333  15.845  1.00  0.00     0.026 C 
ATOM     50  C   UNL     1      38.993 -29.661  17.830  1.00  0.00     0.014 C 
ATOM     51  C   UNL     1      39.711 -30.509  15.241  1.00  0.00     0.171 C 
ATOM     52  C   UNL     1      37.877 -31.856  17.454  1.00  0.00     0.013 C 
ATOM     53  C   UNL     1      38.505 -30.304  19.350  1.00  0.00    -0.035 C 
ATOM     54  C   UNL     1      37.167 -31.112  18.981  1.00  0.00     0.007 C 
ATOM     55  C   UNL     1      38.626 -29.121  20.485  1.00  0.00     0.011 C 
ATOM     56  C   UNL     1      39.434 -31.440  19.926  1.00  0.00     0.011 C 
BRANCH  29  57
ATOM     57  C   UNL     1      30.498 -27.875  14.483  1.00  0.00     0.165 C 
BRANCH  57  58
ATOM     58  O   UNL     1      29.604 -28.441  13.416  1.00  0.00    -0.396 OA
ATOM     59  H   UNL     1      29.951 -28.144  12.407  1.00  0.00     0.210 HD
ENDBRANCH  57  58
ENDBRANCH  29  57
BRANCH  48  60
ATOM     60  O   UNL     1      39.785 -32.648  13.975  1.00  0.00    -0.392 OA
ATOM     61  H   UNL     1      39.998 -33.607  14.256  1.00  0.00     0.210 HD
ENDBRANCH  48  60
ENDBRANCH  26  27
ENDBRANCH   6  26
BRANCH   5  62
ATOM     62  O   UNL     1      36.523 -37.433  12.457  1.00  0.00    -0.385 OA
ATOM     63  H   UNL     1      36.655 -38.152  11.509  1.00  0.00     0.211 HD
ENDBRANCH   5  62
TORSDOF 14
ENDMDL
MODEL 2
REMARK VINA RESULT:    -5.354      0.854      1.448
REMARK INTER + INTRA:          -8.611
REMARK INTER:                  -6.380
REMARK INTRA:                  -2.231
REMARK UNBOUND:                -2.162
REMARK SMILES C[C@@H]1O[C@@H](O[C@@H]2CC[C@]3(C)[C@H](CC[C@]4(C)[C@@H]3C=C[C@@]35OC[C@]6(CCC(C)(C)C[C@H]63)[C@H](O)C[C@@]45C)[C@@]2(C)CO)[C@H](O)[C@H](O[C@H]2O[C@H](CO)[C@H](O)[C@@H](O)[C@@H]2O)[C@H]1O
REMARK SMILES IDX 1 1 2 2 54 3 41 4 39 5 4 6 3 7 55 8 42 10 43 11 52 12 44 13
REMARK SMILES IDX 50 14 45 15 48 16 53 17 51 19 46 21 47 22 49 24 5 26 6 27
REMARK SMILES IDX 7 28 35 29 8 30 11 31 36 32 9 33 12 34 10 35 16 36 13 37
REMARK SMILES IDX 14 38 17 39 15 40 33 41 18 42 19 43 32 44 34 45 29 46 20 47
REMARK SMILES IDX 30 48 22 49 28 50 21 51 23 52 25 53 24 54 26 55 27 56 37 57
REMARK SMILES IDX 38 58 31 60 40 62
REMARK H PARENT 55 9 53 18 51 20 47 23 49 25 38 59 31 61 40 63
REMARK Flexibility Score: inf
ROOT
ATOM      1  C   UNL     1      38.062 -36.564  10.888  1.00  0.00     0.041 C 
ATOM      2  C   UNL     1      37.230 -35.354  11.702  1.00  0.00     0.150 C 
ATOM      3  C   UNL     1      34.891 -35.240  11.543  1.00  0.00     0.175 C 
ATOM      4  C   UNL     1      34.158 -33.913  11.233  1.00  0.00     0.186 C 
ATOM      5  C   UNL     1      35.198 -35.886  12.659  1.00  0.00     0.202 C 
ATOM      6  C   UNL     1      35.960 -34.541  13.487  1.00  0.00     0.282 C 
ATOM      7  O   UNL     1      37.617 -35.454  13.157  1.00  0.00    -0.344 OA
ENDROOT
BRANCH   3   8
ATOM      8  O   UNL     1      34.198 -36.396  10.752  1.00  0.00    -0.388 OA
ATOM      9  H   UNL     1      33.443 -36.716  10.280  1.00  0.00     0.211 HD
ENDBRANCH   3   8
BRANCH   4  10
ATOM     10  O   UNL     1      33.369 -32.779   9.662  1.00  0.00    -0.341 OA
BRANCH  10  11
ATOM     11  C   UNL     1      33.196 -31.050   9.516  1.00  0.00     0.282 C 
ATOM     12  C   UNL     1      31.910 -30.899   7.508  1.00  0.00     0.202 C 
ATOM     13  O   UNL     1      34.168 -30.320   8.288  1.00  0.00    -0.341 OA
ATOM     14  C   UNL     1      31.468 -31.857   8.211  1.00  0.00     0.179 C 
ATOM     15  C   UNL     1      34.355 -31.352   7.408  1.00  0.00     0.178 C 
ATOM     16  C   UNL     1      33.209 -32.286   7.344  1.00  0.00     0.177 C 
BRANCH  12  17
ATOM     17  O   UNL     1      31.452 -31.151   5.658  1.00  0.00    -0.385 OA
ATOM     18  H   UNL     1      31.131 -31.586   4.294  1.00  0.00     0.211 HD
ENDBRANCH  12  17
BRANCH  14  19
ATOM     19  O   UNL     1      31.130 -32.013   9.749  1.00  0.00    -0.387 OA
ATOM     20  H   UNL     1      31.123 -31.379  10.658  1.00  0.00     0.211 HD
ENDBRANCH  14  19
BRANCH  15  21
ATOM     21  C   UNL     1      34.914 -30.925   5.891  1.00  0.00     0.191 C 
BRANCH  21  22
ATOM     22  O   UNL     1      35.511 -32.136   5.166  1.00  0.00    -0.394 OA
ATOM     23  H   UNL     1      35.913 -31.776   4.219  1.00  0.00     0.210 HD
ENDBRANCH  21  22
ENDBRANCH  15  21
BRANCH  16  24
ATOM     24  O   UNL     1      32.745 -32.675   6.246  1.00  0.00    -0.387 OA
ATOM     25  H   UNL     1      32.211 -31.914   5.710  1.00  0.00     0.211 HD
ENDBRANCH  16  24
ENDBRANCH  10  11
ENDBRANCH   4  10
BRANCH   6  26
ATOM     26  O   UNL     1      34.703 -32.763  13.530  1.00  0.00    -0.346 OA
BRANCH  26  27
ATOM     27  C   UNL     1      32.951 -31.447  13.748  1.00  0.00     0.130 C 
ATOM     28  C   UNL     1      32.179 -30.504  12.824  1.00  0.00     0.033 C 
ATOM     29  C   UNL     1      31.586 -29.828  15.712  1.00  0.00     0.020 C 
ATOM     30  C   UNL     1      32.752 -29.175  13.657  1.00  0.00     0.010 C 
ATOM     31  C   UNL     1      32.655 -29.838  16.260  1.00  0.00     0.006 C 
ATOM     32  C   UNL     1      31.627 -30.311  17.830  1.00  0.00     0.017 C 
ATOM     33  C   UNL     1      33.603 -29.422  15.514  1.00  0.00    -0.022 C 
ATOM     34  C   UNL     1      31.860 -31.150  15.687  1.00  0.00     0.005 C 
ATOM     35  C   UNL     1      34.957 -29.881  16.897  1.00  0.00     0.012 C 
ATOM     36  C   UNL     1      34.709 -29.930  15.186  1.00  0.00     0.024 C 
ATOM     37  C   UNL     1      32.972 -32.272  15.922  1.00  0.00     0.008 C 
ATOM     38  C   UNL     1      34.730 -31.739  15.463  1.00  0.00    -0.017 C 
ATOM     39  C   UNL     1      35.365 -28.342  15.082  1.00  0.00    -0.024 C 
ATOM     40  C   UNL     1      34.995 -33.008  16.924  1.00  0.00     0.013 C 
ATOM     41  C   UNL     1      36.234 -30.826  13.968  1.00  0.00     0.009 C 
ATOM     42  C   UNL     1      36.534 -27.941  14.773  1.00  0.00     0.005 C 
ATOM     43  C   UNL     1      37.350 -29.534  14.517  1.00  0.00     0.096 C 
ATOM     44  C   UNL     1      36.907 -31.747  12.739  1.00  0.00     0.043 C 
ATOM     45  C   UNL     1      35.352 -29.960  12.431  1.00  0.00     0.015 C 
ATOM     46  C   UNL     1      37.960 -30.025  15.889  1.00  0.00     0.037 C 
ATOM     47  O   UNL     1      38.639 -29.703  13.802  1.00  0.00    -0.369 OA
ATOM     48  C   UNL     1      38.090 -32.306  13.811  1.00  0.00     0.124 C 
ATOM     49  C   UNL     1      38.210 -31.441  15.426  1.00  0.00     0.026 C 
ATOM     50  C   UNL     1      39.009 -29.929  17.459  1.00  0.00     0.014 C 
ATOM     51  C   UNL     1      39.434 -30.575  14.750  1.00  0.00     0.171 C 
ATOM     52  C   UNL     1      37.836 -32.086  17.039  1.00  0.00     0.013 C 
ATOM     53  C   UNL     1      38.682 -30.686  18.969  1.00  0.00    -0.035 C 
ATOM     54  C   UNL     1      37.304 -31.461  18.687  1.00  0.00     0.007 C 
ATOM     55  C   UNL     1      38.937 -29.595  20.172  1.00  0.00     0.011 C 
ATOM     56  C   UNL     1      39.656 -31.865  19.352  1.00  0.00     0.011 C 
BRANCH  29  57
ATOM     57  C   UNL     1      30.220 -27.875  15.203  1.00  0.00     0.165 C 
BRANCH  57  58
ATOM     58  O   UNL     1      29.315 -28.312  14.086  1.00  0.00    -0.396 OA
ATOM     59  H   UNL     1      29.808 -28.189  13.102  1.00  0.00     0.210 HD
ENDBRANCH  57  58
ENDBRANCH  29  57
BRANCH  48  60
ATOM     60  O   UNL     1      39.349 -32.610  13.323  1.00  0.00    -0.392 OA
ATOM     61  H   UNL     1      40.040 -32.603  14.075  1.00  0.00     0.210 HD
ENDBRANCH  48  60
ENDBRANCH  26  27
ENDBRANCH   6  26
BRANCH   5  62
ATOM     62  O   UNL     1      36.142 -37.325  12.223  1.00  0.00    -0.385 OA
ATOM     63  H   UNL     1      35.995 -38.513  12.192  1.00  0.00     0.211 HD
ENDBRANCH   5  62
TORSDOF 14
ENDMDL
MODEL 3
REMARK VINA RESULT:    -5.031      6.089     11.315
REMARK INTER + INTRA:          -8.223
REMARK INTER:                  -5.802
REMARK INTRA:                  -2.420
REMARK UNBOUND:                -2.162
REMARK SMILES C[C@@H]1O[C@@H](O[C@@H]2CC[C@]3(C)[C@H](CC[C@]4(C)[C@@H]3C=C[C@@]35OC[C@]6(CCC(C)(C)C[C@H]63)[C@H](O)C[C@@]45C)[C@@]2(C)CO)[C@H](O)[C@H](O[C@H]2O[C@H](CO)[C@H](O)[C@@H](O)[C@@H]2O)[C@H]1O
REMARK SMILES IDX 1 1 2 2 54 3 41 4 39 5 4 6 3 7 55 8 42 10 43 11 52 12 44 13
REMARK SMILES IDX 50 14 45 15 48 16 53 17 51 19 46 21 47 22 49 24 5 26 6 27
REMARK SMILES IDX 7 28 35 29 8 30 11 31 36 32 9 33 12 34 10 35 16 36 13 37
REMARK SMILES IDX 14 38 17 39 15 40 33 41 18 42 19 43 32 44 34 45 29 46 20 47
REMARK SMILES IDX 30 48 22 49 28 50 21 51 23 52 25 53 24 54 26 55 27 56 37 57
REMARK SMILES IDX 38 58 31 60 40 62
REMARK H PARENT 55 9 53 18 51 20 47 23 49 25 38 59 31 61 40 63
REMARK Flexibility Score: inf
ROOT
ATOM      1  C   UNL     1      33.390 -36.795   3.875  1.00  0.00     0.041 C 
ATOM      2  C   UNL     1      33.807 -37.497   5.342  1.00  0.00     0.150 C 
ATOM      3  C   UNL     1      35.540 -39.077   5.425  1.00  0.00     0.175 C 
ATOM      4  C   UNL     1      35.379 -40.428   6.164  1.00  0.00     0.186 C 
ATOM      5  C   UNL     1      36.041 -37.897   5.761  1.00  0.00     0.202 C 
ATOM      6  C   UNL     1      35.140 -37.692   7.251  1.00  0.00     0.282 C 
ATOM      7  O   UNL     1      34.124 -36.372   6.296  1.00  0.00    -0.344 OA
ENDROOT
BRANCH   3   8
ATOM      8  O   UNL     1      36.313 -39.322   4.089  1.00  0.00    -0.388 OA
ATOM      9  H   UNL     1      36.300 -39.382   3.145  1.00  0.00     0.211 HD
ENDBRANCH   3   8
BRANCH   4  10
ATOM     10  O   UNL     1      34.850 -42.430   5.866  1.00  0.00    -0.341 OA
BRANCH  10  11
ATOM     11  C   UNL     1      35.660 -43.669   4.943  1.00  0.00     0.282 C 
ATOM     12  C   UNL     1      34.091 -45.461   5.133  1.00  0.00     0.202 C 
ATOM     13  O   UNL     1      36.370 -44.932   5.884  1.00  0.00    -0.341 OA
ATOM     14  C   UNL     1      33.460 -44.377   4.946  1.00  0.00     0.179 C 
ATOM     15  C   UNL     1      35.612 -44.913   7.023  1.00  0.00     0.178 C 
ATOM     16  C   UNL     1      34.205 -44.522   6.788  1.00  0.00     0.177 C 
BRANCH  12  17
ATOM     17  O   UNL     1      32.962 -46.764   5.983  1.00  0.00    -0.385 OA
ATOM     18  H   UNL     1      32.313 -47.876   6.686  1.00  0.00     0.211 HD
ENDBRANCH  12  17
BRANCH  14  19
ATOM     19  O   UNL     1      33.656 -43.159   3.956  1.00  0.00    -0.387 OA
ATOM     20  H   UNL     1      33.025 -42.507   3.320  1.00  0.00     0.211 HD
ENDBRANCH  14  19
BRANCH  15  21
ATOM     21  C   UNL     1      35.743 -46.259   8.009  1.00  0.00     0.191 C 
BRANCH  21  22
ATOM     22  O   UNL     1      35.027 -46.032   9.345  1.00  0.00    -0.394 OA
ATOM     23  H   UNL     1      34.696 -47.007   9.699  1.00  0.00     0.210 HD
ENDBRANCH  21  22
ENDBRANCH  15  21
BRANCH  16  24
ATOM     24  O   UNL     1      33.256 -45.168   7.291  1.00  0.00    -0.387 OA
ATOM     25  H   UNL     1      32.510 -45.465   6.577  1.00  0.00     0.211 HD
ENDBRANCH  16  24
ENDBRANCH  10  11
ENDBRANCH   4  10
BRANCH   6  26
ATOM     26  O   UNL     1      35.322 -39.407   8.582  1.00  0.00    -0.346 OA
BRANCH  26  27
ATOM     27  C   UNL     1      35.873 -41.385   9.379  1.00  0.00     0.130 C 
ATOM     28  C   UNL     1      35.102 -42.608   9.877  1.00  0.00     0.033 C 
ATOM     29  C   UNL     1      37.947 -42.697  10.902  1.00  0.00     0.020 C 
ATOM     30  C   UNL     1      35.588 -42.308  11.446  1.00  0.00     0.010 C 
ATOM     31  C   UNL     1      38.172 -41.584  11.292  1.00  0.00     0.006 C 
ATOM     32  C   UNL     1      40.009 -42.015  10.862  1.00  0.00     0.017 C 
ATOM     33  C   UNL     1      37.149 -41.018  11.803  1.00  0.00    -0.022 C 
ATOM     34  C   UNL     1      37.994 -42.032   9.727  1.00  0.00     0.005 C 
ATOM     35  C   UNL     1      38.142 -39.305  12.009  1.00  0.00     0.012 C 
ATOM     36  C   UNL     1      36.585 -39.915  11.568  1.00  0.00     0.024 C 
ATOM     37  C   UNL     1      38.032 -40.600   9.023  1.00  0.00     0.008 C 
ATOM     38  C   UNL     1      37.045 -39.258   9.923  1.00  0.00    -0.017 C 
ATOM     39  C   UNL     1      36.125 -39.839  13.225  1.00  0.00    -0.024 C 
ATOM     40  C   UNL     1      38.506 -38.274   9.079  1.00  0.00     0.013 C 
ATOM     41  C   UNL     1      35.098 -38.511  10.913  1.00  0.00     0.009 C 
ATOM     42  C   UNL     1      35.460 -38.963  13.867  1.00  0.00     0.005 C 
ATOM     43  C   UNL     1      35.165 -37.767  12.543  1.00  0.00     0.096 C 
ATOM     44  C   UNL     1      33.840 -37.885   9.997  1.00  0.00     0.043 C 
ATOM     45  C   UNL     1      33.781 -39.953  11.191  1.00  0.00     0.015 C 
ATOM     46  C   UNL     1      36.359 -36.732  12.512  1.00  0.00     0.037 C 
ATOM     47  O   UNL     1      34.143 -36.694  12.603  1.00  0.00    -0.369 OA
ATOM     48  C   UNL     1      34.595 -36.372  10.002  1.00  0.00     0.124 C 
ATOM     49  C   UNL     1      36.005 -36.161  11.158  1.00  0.00     0.026 C 
ATOM     50  C   UNL     1      37.553 -35.434  13.191  1.00  0.00     0.014 C 
ATOM     51  C   UNL     1      34.922 -35.466  12.183  1.00  0.00     0.171 C 
ATOM     52  C   UNL     1      37.720 -35.926  10.756  1.00  0.00     0.013 C 
ATOM     53  C   UNL     1      39.169 -35.144  12.676  1.00  0.00    -0.035 C 
ATOM     54  C   UNL     1      39.371 -36.231  11.512  1.00  0.00     0.007 C 
ATOM     55  C   UNL     1      40.123 -34.976  14.004  1.00  0.00     0.011 C 
ATOM     56  C   UNL     1      39.393 -33.786  11.908  1.00  0.00     0.011 C 
BRANCH  29  57
ATOM     57  C   UNL     1      37.624 -44.690  12.266  1.00  0.00     0.165 C 
BRANCH  57  58
ATOM     58  O   UNL     1      36.761 -45.597  11.435  1.00  0.00    -0.396 OA
ATOM     59  H   UNL     1      37.134 -45.659  10.394  1.00  0.00     0.210 HD
ENDBRANCH  57  58
ENDBRANCH  29  57
BRANCH  48  60
ATOM     60  O   UNL     1      33.812 -35.231   9.970  1.00  0.00    -0.392 OA
ATOM     61  H   UNL     1      33.138 -35.233  10.737  1.00  0.00     0.210 HD
ENDBRANCH  48  60
ENDBRANCH  26  27
ENDBRANCH   6  26
BRANCH   5  62
ATOM     62  O   UNL     1      35.793 -36.784   4.400  1.00  0.00    -0.385 OA
ATOM     63  H   UNL     1      35.112 -35.836   4.135  1.00  0.00     0.211 HD
ENDBRANCH   5  62
TORSDOF 14
ENDMDL
MODEL 4
REMARK VINA RESULT:    -5.001      1.137      2.029
REMARK INTER + INTRA:          -8.186
REMARK INTER:                  -6.206
REMARK INTRA:                  -1.980
REMARK UNBOUND:                -2.162
REMARK SMILES C[C@@H]1O[C@@H](O[C@@H]2CC[C@]3(C)[C@H](CC[C@]4(C)[C@@H]3C=C[C@@]35OC[C@]6(CCC(C)(C)C[C@H]63)[C@H](O)C[C@@]45C)[C@@]2(C)CO)[C@H](O)[C@H](O[C@H]2O[C@H](CO)[C@H](O)[C@@H](O)[C@@H]2O)[C@H]1O
REMARK SMILES IDX 1 1 2 2 54 3 41 4 39 5 4 6 3 7 55 8 42 10 43 11 52 12 44 13
REMARK SMILES IDX 50 14 45 15 48 16 53 17 51 19 46 21 47 22 49 24 5 26 6 27
REMARK SMILES IDX 7 28 35 29 8 30 11 31 36 32 9 33 12 34 10 35 16 36 13 37
REMARK SMILES IDX 14 38 17 39 15 40 33 41 18 42 19 43 32 44 34 45 29 46 20 47
REMARK SMILES IDX 30 48 22 49 28 50 21 51 23 52 25 53 24 54 26 55 27 56 37 57
REMARK SMILES IDX 38 58 31 60 40 62
REMARK H PARENT 55 9 53 18 51 20 47 23 49 25 38 59 31 61 40 63
REMARK Flexibility Score: inf
ROOT
ATOM      1  C   UNL     1      37.807 -37.175  10.715  1.00  0.00     0.041 C 
ATOM      2  C   UNL     1      37.195 -35.763  11.385  1.00  0.00     0.150 C 
ATOM      3  C   UNL     1      34.910 -35.615  11.902  1.00  0.00     0.175 C 
ATOM      4  C   UNL     1      34.055 -34.396  11.481  1.00  0.00     0.186 C 
ATOM      5  C   UNL     1      35.563 -35.946  13.007  1.00  0.00     0.202 C 
ATOM      6  C   UNL     1      36.469 -34.455  13.181  1.00  0.00     0.282 C 
ATOM      7  O   UNL     1      37.997 -35.480  12.630  1.00  0.00    -0.344 OA
ENDROOT
BRANCH   3   8
ATOM      8  O   UNL     1      34.071 -36.916  11.691  1.00  0.00    -0.388 OA
ATOM      9  H   UNL     1      33.231 -37.322  11.534  1.00  0.00     0.211 HD
ENDBRANCH   3   8
BRANCH   4  10
ATOM     10  O   UNL     1      32.785 -33.700   9.971  1.00  0.00    -0.341 OA
BRANCH  10  11
ATOM     11  C   UNL     1      33.004 -32.380   8.853  1.00  0.00     0.282 C 
ATOM     12  C   UNL     1      31.300 -32.865   7.250  1.00  0.00     0.202 C 
ATOM     13  O   UNL     1      33.755 -32.807   7.357  1.00  0.00    -0.341 OA
ATOM     14  C   UNL     1      30.845 -33.078   8.415  1.00  0.00     0.179 C 
ATOM     15  C   UNL     1      33.440 -34.134   7.238  1.00  0.00     0.178 C 
ATOM     16  C   UNL     1      32.129 -34.484   7.827  1.00  0.00     0.177 C 
BRANCH  12  17
ATOM     17  O   UNL     1      30.312 -33.871   5.944  1.00  0.00    -0.385 OA
ATOM     18  H   UNL     1      29.756 -34.791   4.945  1.00  0.00     0.211 HD
ENDBRANCH  12  17
BRANCH  14  19
ATOM     19  O   UNL     1      30.909 -32.269   9.773  1.00  0.00    -0.387 OA
ATOM     20  H   UNL     1      30.847 -32.480  10.859  1.00  0.00     0.211 HD
ENDBRANCH  14  19
BRANCH  15  21
ATOM     21  C   UNL     1      33.655 -34.802   5.720  1.00  0.00     0.191 C 
BRANCH  21  22
ATOM     22  O   UNL     1      33.609 -36.332   5.782  1.00  0.00    -0.394 OA
ATOM     23  H   UNL     1      34.629 -36.676   5.953  1.00  0.00     0.210 HD
ENDBRANCH  21  22
ENDBRANCH  15  21
BRANCH  16  24
ATOM     24  O   UNL     1      31.306 -35.198   7.208  1.00  0.00    -0.387 OA
ATOM     25  H   UNL     1      31.114 -36.143   7.681  1.00  0.00     0.211 HD
ENDBRANCH  16  24
ENDBRANCH  10  11
ENDBRANCH   4  10
BRANCH   6  26
ATOM     26  O   UNL     1      35.196 -32.689  13.117  1.00  0.00    -0.346 OA
BRANCH  26  27
ATOM     27  C   UNL     1      33.413 -31.400  13.029  1.00  0.00     0.130 C 
ATOM     28  C   UNL     1      32.823 -30.430  12.004  1.00  0.00     0.033 C 
ATOM     29  C   UNL     1      31.655 -29.874  14.738  1.00  0.00     0.020 C 
ATOM     30  C   UNL     1      33.195 -29.129  12.982  1.00  0.00     0.010 C 
ATOM     31  C   UNL     1      32.594 -29.895  15.488  1.00  0.00     0.006 C 
ATOM     32  C   UNL     1      31.282 -30.439  16.802  1.00  0.00     0.017 C 
ATOM     33  C   UNL     1      33.663 -29.439  14.961  1.00  0.00    -0.022 C 
ATOM     34  C   UNL     1      31.952 -31.191  14.721  1.00  0.00     0.005 C 
ATOM     35  C   UNL     1      34.723 -29.939  16.569  1.00  0.00     0.012 C 
ATOM     36  C   UNL     1      34.822 -29.923  14.843  1.00  0.00     0.024 C 
ATOM     37  C   UNL     1      33.015 -32.309  15.132  1.00  0.00     0.008 C 
ATOM     38  C   UNL     1      34.819 -31.741  15.053  1.00  0.00    -0.017 C 
ATOM     39  C   UNL     1      35.457 -28.326  14.929  1.00  0.00    -0.024 C 
ATOM     40  C   UNL     1      34.810 -33.064  16.491  1.00  0.00     0.013 C 
ATOM     41  C   UNL     1      36.574 -30.755  13.923  1.00  0.00     0.009 C 
ATOM     42  C   UNL     1      36.656 -27.900  14.875  1.00  0.00     0.005 C 
ATOM     43  C   UNL     1      37.536 -29.474  14.729  1.00  0.00     0.096 C 
ATOM     44  C   UNL     1      37.495 -31.620  12.820  1.00  0.00     0.043 C 
ATOM     45  C   UNL     1      36.001 -29.839  12.273  1.00  0.00     0.015 C 
ATOM     46  C   UNL     1      37.869 -30.012  16.177  1.00  0.00     0.037 C 
ATOM     47  O   UNL     1      38.944 -29.602  14.281  1.00  0.00    -0.369 OA
ATOM     48  C   UNL     1      38.450 -32.208  14.086  1.00  0.00     0.124 C 
ATOM     49  C   UNL     1      38.231 -31.406  15.722  1.00  0.00     0.026 C 
ATOM     50  C   UNL     1      38.582 -29.967  17.927  1.00  0.00     0.014 C 
ATOM     51  C   UNL     1      39.550 -30.502  15.336  1.00  0.00     0.171 C 
ATOM     52  C   UNL     1      37.555 -32.117  17.204  1.00  0.00     0.013 C 
ATOM     53  C   UNL     1      37.974 -30.786  19.313  1.00  0.00    -0.035 C 
ATOM     54  C   UNL     1      36.694 -31.563  18.734  1.00  0.00     0.007 C 
ATOM     55  C   UNL     1      37.966 -29.739  20.581  1.00  0.00     0.011 C 
ATOM     56  C   UNL     1      38.874 -31.968  19.839  1.00  0.00     0.011 C 
BRANCH  29  57
ATOM     57  C   UNL     1      30.383 -27.916  14.037  1.00  0.00     0.165 C 
BRANCH  57  58
ATOM     58  O   UNL     1      29.743 -28.312  12.736  1.00  0.00    -0.396 OA
ATOM     59  H   UNL     1      29.774 -29.410  12.595  1.00  0.00     0.210 HD
ENDBRANCH  57  58
ENDBRANCH  29  57
BRANCH  48  60
ATOM     60  O   UNL     1      39.787 -32.481  13.848  1.00  0.00    -0.392 OA
ATOM     61  H   UNL     1      40.383 -31.950  14.485  1.00  0.00     0.210 HD
ENDBRANCH  48  60
ENDBRANCH  26  27
ENDBRANCH   6  26
BRANCH   5  62
ATOM     62  O   UNL     1      36.405 -37.481  12.712  1.00  0.00    -0.385 OA
ATOM     63  H   UNL     1      37.296 -37.893  12.028  1.00  0.00     0.211 HD
ENDBRANCH   5  62
TORSDOF 14
ENDMDL
MODEL 5
REMARK VINA RESULT:    -4.807      2.345      4.458
REMARK INTER + INTRA:          -7.953
REMARK INTER:                  -5.830
REMARK INTRA:                  -2.123
REMARK UNBOUND:                -2.162
REMARK SMILES C[C@@H]1O[C@@H](O[C@@H]2CC[C@]3(C)[C@H](CC[C@]4(C)[C@@H]3C=C[C@@]35OC[C@]6(CCC(C)(C)C[C@H]63)[C@H](O)C[C@@]45C)[C@@]2(C)CO)[C@H](O)[C@H](O[C@H]2O[C@H](CO)[C@H](O)[C@@H](O)[C@@H]2O)[C@H]1O
REMARK SMILES IDX 1 1 2 2 54 3 41 4 39 5 4 6 3 7 55 8 42 10 43 11 52 12 44 13
REMARK SMILES IDX 50 14 45 15 48 16 53 17 51 19 46 21 47 22 49 24 5 26 6 27
REMARK SMILES IDX 7 28 35 29 8 30 11 31 36 32 9 33 12 34 10 35 16 36 13 37
REMARK SMILES IDX 14 38 17 39 15 40 33 41 18 42 19 43 32 44 34 45 29 46 20 47
REMARK SMILES IDX 30 48 22 49 28 50 21 51 23 52 25 53 24 54 26 55 27 56 37 57
REMARK SMILES IDX 38 58 31 60 40 62
REMARK H PARENT 55 9 53 18 51 20 47 23 49 25 38 59 31 61 40 63
REMARK Flexibility Score: inf
ROOT
ATOM      1  C   UNL     1      33.501 -37.509   7.962  1.00  0.00     0.041 C 
ATOM      2  C   UNL     1      34.225 -36.487   9.080  1.00  0.00     0.150 C 
ATOM      3  C   UNL     1      32.911 -34.956  10.280  1.00  0.00     0.175 C 
ATOM      4  C   UNL     1      33.312 -33.467  10.416  1.00  0.00     0.186 C 
ATOM      5  C   UNL     1      33.086 -36.031  11.035  1.00  0.00     0.202 C 
ATOM      6  C   UNL     1      34.818 -35.865  11.253  1.00  0.00     0.282 C 
ATOM      7  O   UNL     1      34.974 -37.359  10.056  1.00  0.00    -0.344 OA
ENDROOT
BRANCH   3   8
ATOM      8  O   UNL     1      31.368 -35.044  10.049  1.00  0.00    -0.388 OA
ATOM      9  H   UNL     1      30.636 -35.460   9.617  1.00  0.00     0.211 HD
ENDBRANCH   3   8
BRANCH   4  10
ATOM     10  O   UNL     1      33.023 -31.584   9.552  1.00  0.00    -0.341 OA
BRANCH  10  11
ATOM     11  C   UNL     1      34.186 -30.497   8.839  1.00  0.00     0.282 C 
ATOM     12  C   UNL     1      32.818 -29.371   7.236  1.00  0.00     0.202 C 
ATOM     13  O   UNL     1      34.716 -30.933   7.253  1.00  0.00    -0.341 OA
ATOM     14  C   UNL     1      32.163 -29.511   8.313  1.00  0.00     0.179 C 
ATOM     15  C   UNL     1      33.661 -31.667   6.782  1.00  0.00     0.178 C 
ATOM     16  C   UNL     1      32.351 -31.218   7.303  1.00  0.00     0.177 C 
BRANCH  12  17
ATOM     17  O   UNL     1      31.628 -29.154   5.743  1.00  0.00    -0.385 OA
ATOM     18  H   UNL     1      30.541 -28.959   4.777  1.00  0.00     0.211 HD
ENDBRANCH  12  17
BRANCH  14  19
ATOM     19  O   UNL     1      32.515 -29.289   9.839  1.00  0.00    -0.387 OA
ATOM     20  H   UNL     1      33.175 -29.743  10.605  1.00  0.00     0.211 HD
ENDBRANCH  14  19
BRANCH  15  21
ATOM     21  C   UNL     1      33.635 -31.927   5.130  1.00  0.00     0.191 C 
BRANCH  21  22
ATOM     22  O   UNL     1      33.628 -30.599   4.365  1.00  0.00    -0.394 OA
ATOM     23  H   UNL     1      34.537 -30.066   4.643  1.00  0.00     0.210 HD
ENDBRANCH  21  22
ENDBRANCH  15  21
BRANCH  16  24
ATOM     24  O   UNL     1      31.367 -31.060   6.544  1.00  0.00    -0.387 OA
ATOM     25  H   UNL     1      31.398 -31.676   5.665  1.00  0.00     0.211 HD
ENDBRANCH  16  24
ENDBRANCH  10  11
ENDBRANCH   4  10
BRANCH   6  26
ATOM     26  O   UNL     1      35.387 -33.888  11.968  1.00  0.00    -0.346 OA
BRANCH  26  27
ATOM     27  C   UNL     1      35.277 -31.777  12.584  1.00  0.00     0.130 C 
ATOM     28  C   UNL     1      35.909 -30.471  12.103  1.00  0.00     0.033 C 
ATOM     29  C   UNL     1      34.883 -30.137  14.929  1.00  0.00     0.020 C 
ATOM     30  C   UNL     1      36.846 -30.385  13.482  1.00  0.00     0.010 C 
ATOM     31  C   UNL     1      35.243 -31.125  15.509  1.00  0.00     0.006 C 
ATOM     32  C   UNL     1      33.686 -30.807  16.613  1.00  0.00     0.017 C 
ATOM     33  C   UNL     1      36.377 -31.552  15.110  1.00  0.00    -0.022 C 
ATOM     34  C   UNL     1      34.089 -31.064  14.350  1.00  0.00     0.005 C 
ATOM     35  C   UNL     1      36.229 -33.165  16.266  1.00  0.00     0.012 C 
ATOM     36  C   UNL     1      36.759 -32.680  14.693  1.00  0.00     0.024 C 
ATOM     37  C   UNL     1      33.799 -32.623  14.167  1.00  0.00     0.008 C 
ATOM     38  C   UNL     1      35.348 -33.711  14.149  1.00  0.00    -0.017 C 
ATOM     39  C   UNL     1      38.314 -32.357  15.356  1.00  0.00    -0.024 C 
ATOM     40  C   UNL     1      33.977 -34.868  14.921  1.00  0.00     0.013 C 
ATOM     41  C   UNL     1      37.457 -34.200  13.348  1.00  0.00     0.009 C 
ATOM     42  C   UNL     1      39.380 -33.054  15.361  1.00  0.00     0.005 C 
ATOM     43  C   UNL     1      38.787 -34.532  14.505  1.00  0.00     0.096 C 
ATOM     44  C   UNL     1      37.670 -35.028  11.905  1.00  0.00     0.043 C 
ATOM     45  C   UNL     1      38.226 -32.734  12.275  1.00  0.00     0.015 C 
ATOM     46  C   UNL     1      38.206 -35.544  15.571  1.00  0.00     0.037 C 
ATOM     47  O   UNL     1      39.673 -35.561  13.907  1.00  0.00    -0.369 OA
ATOM     48  C   UNL     1      37.483 -36.495  12.724  1.00  0.00     0.124 C 
ATOM     49  C   UNL     1      37.511 -36.423  14.558  1.00  0.00     0.026 C 
ATOM     50  C   UNL     1      38.213 -36.641  17.110  1.00  0.00     0.014 C 
ATOM     51  C   UNL     1      39.095 -36.852  14.443  1.00  0.00     0.171 C 
ATOM     52  C   UNL     1      36.175 -36.746  15.684  1.00  0.00     0.013 C 
ATOM     53  C   UNL     1      36.863 -37.045  18.099  1.00  0.00    -0.035 C 
ATOM     54  C   UNL     1      35.654 -36.268  17.384  1.00  0.00     0.007 C 
ATOM     55  C   UNL     1      37.301 -36.889  19.676  1.00  0.00     0.011 C 
ATOM     56  C   UNL     1      36.395 -38.547  18.011  1.00  0.00     0.011 C 
BRANCH  29  57
ATOM     57  C   UNL     1      35.746 -27.875  15.208  1.00  0.00     0.165 C 
BRANCH  57  58
ATOM     58  O   UNL     1      36.705 -27.962  16.361  1.00  0.00    -0.396 OA
ATOM     59  H   UNL     1      36.260 -27.541  17.283  1.00  0.00     0.210 HD
ENDBRANCH  57  58
ENDBRANCH  29  57
BRANCH  48  60
ATOM     60  O   UNL     1      38.162 -37.612  12.266  1.00  0.00    -0.392 OA
ATOM     61  H   UNL     1      37.885 -38.443  12.791  1.00  0.00     0.210 HD
ENDBRANCH  48  60
ENDBRANCH  26  27
ENDBRANCH   6  26
BRANCH   5  62
ATOM     62  O   UNL     1      32.419 -37.430  10.168  1.00  0.00    -0.385 OA
ATOM     63  H   UNL     1      32.774 -38.222   9.344  1.00  0.00     0.211 HD
ENDBRANCH   5  62
TORSDOF 14
ENDMDL
MODEL 6
REMARK VINA RESULT:    -4.651      1.906      2.355
REMARK INTER + INTRA:          -7.765
REMARK INTER:                  -5.214
REMARK INTRA:                  -2.550
REMARK UNBOUND:                -2.162
REMARK SMILES C[C@@H]1O[C@@H](O[C@@H]2CC[C@]3(C)[C@H](CC[C@]4(C)[C@@H]3C=C[C@@]35OC[C@]6(CCC(C)(C)C[C@H]63)[C@H](O)C[C@@]45C)[C@@]2(C)CO)[C@H](O)[C@H](O[C@H]2O[C@H](CO)[C@H](O)[C@@H](O)[C@@H]2O)[C@H]1O
REMARK SMILES IDX 1 1 2 2 54 3 41 4 39 5 4 6 3 7 55 8 42 10 43 11 52 12 44 13
REMARK SMILES IDX 50 14 45 15 48 16 53 17 51 19 46 21 47 22 49 24 5 26 6 27
REMARK SMILES IDX 7 28 35 29 8 30 11 31 36 32 9 33 12 34 10 35 16 36 13 37
REMARK SMILES IDX 14 38 17 39 15 40 33 41 18 42 19 43 32 44 34 45 29 46 20 47
REMARK SMILES IDX 30 48 22 49 28 50 21 51 23 52 25 53 24 54 26 55 27 56 37 57
REMARK SMILES IDX 38 58 31 60 40 62
REMARK H PARENT 55 9 53 18 51 20 47 23 49 25 38 59 31 61 40 63
REMARK Flexibility Score: inf
ROOT
ATOM      1  C   UNL     1      37.116 -38.130  12.159  1.00  0.00     0.041 C 
ATOM      2  C   UNL     1      36.725 -36.514  12.397  1.00  0.00     0.150 C 
ATOM      3  C   UNL     1      34.647 -35.945  13.328  1.00  0.00     0.175 C 
ATOM      4  C   UNL     1      33.743 -34.856  12.702  1.00  0.00     0.186 C 
ATOM      5  C   UNL     1      35.549 -35.949  14.300  1.00  0.00     0.202 C 
ATOM      6  C   UNL     1      36.505 -34.599  13.717  1.00  0.00     0.282 C 
ATOM      7  O   UNL     1      37.821 -35.914  13.241  1.00  0.00    -0.344 OA
ENDROOT
BRANCH   3   8
ATOM      8  O   UNL     1      33.752 -37.138  13.795  1.00  0.00    -0.388 OA
ATOM      9  H   UNL     1      33.491 -38.042  13.696  1.00  0.00     0.211 HD
ENDBRANCH   3   8
BRANCH   4  10
ATOM     10  O   UNL     1      32.151 -34.583  11.373  1.00  0.00    -0.341 OA
BRANCH  10  11
ATOM     11  C   UNL     1      30.671 -35.490  11.208  1.00  0.00     0.282 C 
ATOM     12  C   UNL     1      29.463 -34.098   9.687  1.00  0.00     0.202 C 
ATOM     13  O   UNL     1      29.308 -34.818  12.032  1.00  0.00    -0.341 OA
ATOM     14  C   UNL     1      30.676 -34.156   9.320  1.00  0.00     0.179 C 
ATOM     15  C   UNL     1      29.628 -33.488  12.093  1.00  0.00     0.178 C 
ATOM     16  C   UNL     1      30.419 -33.018  10.935  1.00  0.00     0.177 C 
BRANCH  12  17
ATOM     17  O   UNL     1      28.625 -32.511   9.000  1.00  0.00    -0.385 OA
ATOM     18  H   UNL     1      27.781 -31.381   8.594  1.00  0.00     0.211 HD
ENDBRANCH  12  17
BRANCH  14  19
ATOM     19  O   UNL     1      31.713 -35.341   9.173  1.00  0.00    -0.387 OA
ATOM     20  H   UNL     1      31.951 -36.140   8.443  1.00  0.00     0.211 HD
ENDBRANCH  14  19
BRANCH  15  21
ATOM     21  C   UNL     1      28.368 -32.453  12.468  1.00  0.00     0.191 C 
BRANCH  21  22
ATOM     22  O   UNL     1      28.882 -31.029  12.709  1.00  0.00    -0.394 OA
ATOM     23  H   UNL     1      29.946 -31.029  12.474  1.00  0.00     0.210 HD
ENDBRANCH  21  22
ENDBRANCH  15  21
BRANCH  16  24
ATOM     24  O   UNL     1      30.127 -31.957  10.334  1.00  0.00    -0.387 OA
ATOM     25  H   UNL     1      29.091 -31.886  10.064  1.00  0.00     0.211 HD
ENDBRANCH  16  24
ENDBRANCH  10  11
ENDBRANCH   4  10
BRANCH   6  26
ATOM     26  O   UNL     1      35.299 -32.831  13.313  1.00  0.00    -0.346 OA
BRANCH  26  27
ATOM     27  C   UNL     1      33.566 -31.523  12.941  1.00  0.00     0.130 C 
ATOM     28  C   UNL     1      33.080 -30.673  11.766  1.00  0.00     0.033 C 
ATOM     29  C   UNL     1      31.743 -29.760  14.322  1.00  0.00     0.020 C 
ATOM     30  C   UNL     1      33.424 -29.270  12.606  1.00  0.00     0.010 C 
ATOM     31  C   UNL     1      32.626 -29.710  15.135  1.00  0.00     0.006 C 
ATOM     32  C   UNL     1      31.210 -30.060  16.406  1.00  0.00     0.017 C 
ATOM     33  C   UNL     1      33.743 -29.347  14.636  1.00  0.00    -0.022 C 
ATOM     34  C   UNL     1      31.999 -31.076  14.485  1.00  0.00     0.005 C 
ATOM     35  C   UNL     1      34.673 -29.670  16.365  1.00  0.00     0.012 C 
ATOM     36  C   UNL     1      34.892 -29.868  14.661  1.00  0.00     0.024 C 
ATOM     37  C   UNL     1      32.996 -32.159  15.103  1.00  0.00     0.008 C 
ATOM     38  C   UNL     1      34.818 -31.645  15.088  1.00  0.00    -0.017 C 
ATOM     39  C   UNL     1      35.569 -28.286  14.601  1.00  0.00    -0.024 C 
ATOM     40  C   UNL     1      34.668 -32.782  16.670  1.00  0.00     0.013 C 
ATOM     41  C   UNL     1      36.677 -30.845  13.978  1.00  0.00     0.009 C 
ATOM     42  C   UNL     1      36.782 -27.898  14.583  1.00  0.00     0.005 C 
ATOM     43  C   UNL     1      37.620 -29.497  14.692  1.00  0.00     0.096 C 
ATOM     44  C   UNL     1      37.645 -31.859  13.057  1.00  0.00     0.043 C 
ATOM     45  C   UNL     1      36.248 -30.125  12.192  1.00  0.00     0.015 C 
ATOM     46  C   UNL     1      37.835 -29.861  16.214  1.00  0.00     0.037 C 
ATOM     47  O   UNL     1      39.051 -29.711  14.365  1.00  0.00    -0.369 OA
ATOM     48  C   UNL     1      38.491 -32.309  14.450  1.00  0.00     0.124 C 
ATOM     49  C   UNL     1      38.184 -31.308  15.958  1.00  0.00     0.026 C 
ATOM     50  C   UNL     1      38.426 -29.618  17.993  1.00  0.00     0.014 C 
ATOM     51  C   UNL     1      39.554 -30.488  15.563  1.00  0.00     0.171 C 
ATOM     52  C   UNL     1      37.385 -31.818  17.462  1.00  0.00     0.013 C 
ATOM     53  C   UNL     1      37.698 -30.248  19.420  1.00  0.00    -0.035 C 
ATOM     54  C   UNL     1      36.438 -31.061  18.847  1.00  0.00     0.007 C 
ATOM     55  C   UNL     1      37.634 -29.055  20.549  1.00  0.00     0.011 C 
ATOM     56  C   UNL     1      38.522 -31.377  20.149  1.00  0.00     0.011 C 
BRANCH  29  57
ATOM     57  C   UNL     1      30.585 -27.875  13.300  1.00  0.00     0.165 C 
BRANCH  57  58
ATOM     58  O   UNL     1      30.037 -28.408  12.006  1.00  0.00    -0.396 OA
ATOM     59  H   UNL     1      29.426 -29.316  12.175  1.00  0.00     0.210 HD
ENDBRANCH  57  58
ENDBRANCH  29  57
BRANCH  48  60
ATOM     60  O   UNL     1      39.832 -32.639  14.345  1.00  0.00    -0.392 OA
ATOM     61  H   UNL     1      40.386 -32.120  15.028  1.00  0.00     0.210 HD
ENDBRANCH  48  60
ENDBRANCH  26  27
ENDBRANCH   6  26
BRANCH   5  62
ATOM     62  O   UNL     1      36.253 -37.576  14.394  1.00  0.00    -0.385 OA
ATOM     63  H   UNL     1      36.501 -38.485  13.656  1.00  0.00     0.211 HD
ENDBRANCH   5  62
TORSDOF 14
ENDMDL
MODEL 7
REMARK VINA RESULT:    -4.635      6.554     11.778
REMARK INTER + INTRA:          -7.745
REMARK INTER:                  -5.229
REMARK INTRA:                  -2.516
REMARK UNBOUND:                -2.162
REMARK SMILES C[C@@H]1O[C@@H](O[C@@H]2CC[C@]3(C)[C@H](CC[C@]4(C)[C@@H]3C=C[C@@]35OC[C@]6(CCC(C)(C)C[C@H]63)[C@H](O)C[C@@]45C)[C@@]2(C)CO)[C@H](O)[C@H](O[C@H]2O[C@H](CO)[C@H](O)[C@@H](O)[C@@H]2O)[C@H]1O
REMARK SMILES IDX 1 1 2 2 54 3 41 4 39 5 4 6 3 7 55 8 42 10 43 11 52 12 44 13
REMARK SMILES IDX 50 14 45 15 48 16 53 17 51 19 46 21 47 22 49 24 5 26 6 27
REMARK SMILES IDX 7 28 35 29 8 30 11 31 36 32 9 33 12 34 10 35 16 36 13 37
REMARK SMILES IDX 14 38 17 39 15 40 33 41 18 42 19 43 32 44 34 45 29 46 20 47
REMARK SMILES IDX 30 48 22 49 28 50 21 51 23 52 25 53 24 54 26 55 27 56 37 57
REMARK SMILES IDX 38 58 31 60 40 62
REMARK H PARENT 55 9 53 18 51 20 47 23 49 25 38 59 31 61 40 63
REMARK Flexibility Score: inf
ROOT
ATOM      1  C   UNL     1      29.324 -31.160  10.307  1.00  0.00     0.041 C 
ATOM      2  C   UNL     1      29.959 -32.533   9.579  1.00  0.00     0.150 C 
ATOM      3  C   UNL     1      32.279 -32.889   9.590  1.00  0.00     0.175 C 
ATOM      4  C   UNL     1      33.051 -33.281   8.308  1.00  0.00     0.186 C 
ATOM      5  C   UNL     1      31.750 -33.574  10.594  1.00  0.00     0.202 C 
ATOM      6  C   UNL     1      30.823 -34.703   9.625  1.00  0.00     0.282 C 
ATOM      7  O   UNL     1      29.278 -33.722  10.207  1.00  0.00    -0.344 OA
ENDROOT
BRANCH   3   8
ATOM      8  O   UNL     1      33.130 -31.855  10.395  1.00  0.00    -0.388 OA
ATOM      9  H   UNL     1      33.434 -31.531  11.231  1.00  0.00     0.211 HD
ENDBRANCH   3   8
BRANCH   4  10
ATOM     10  O   UNL     1      34.142 -32.476   6.715  1.00  0.00    -0.341 OA
BRANCH  10  11
ATOM     11  C   UNL     1      33.897 -32.653   4.997  1.00  0.00     0.282 C 
ATOM     12  C   UNL     1      33.733 -30.363   4.333  1.00  0.00     0.202 C 
ATOM     13  O   UNL     1      32.286 -32.346   4.454  1.00  0.00    -0.341 OA
ATOM     14  C   UNL     1      34.659 -30.480   5.192  1.00  0.00     0.179 C 
ATOM     15  C   UNL     1      31.806 -31.501   5.419  1.00  0.00     0.178 C 
ATOM     16  C   UNL     1      32.843 -30.620   6.000  1.00  0.00     0.177 C 
BRANCH  12  17
ATOM     17  O   UNL     1      33.072 -28.559   4.291  1.00  0.00    -0.385 OA
ATOM     18  H   UNL     1      32.438 -27.257   4.059  1.00  0.00     0.211 HD
ENDBRANCH  12  17
BRANCH  14  19
ATOM     19  O   UNL     1      35.844 -31.509   5.383  1.00  0.00    -0.387 OA
ATOM     20  H   UNL     1      36.063 -32.567   5.135  1.00  0.00     0.211 HD
ENDBRANCH  14  19
BRANCH  15  21
ATOM     21  C   UNL     1      30.408 -30.669   5.030  1.00  0.00     0.191 C 
BRANCH  21  22
ATOM     22  O   UNL     1      30.654 -29.692   3.875  1.00  0.00    -0.394 OA
ATOM     23  H   UNL     1      30.889 -30.291   2.995  1.00  0.00     0.210 HD
ENDBRANCH  21  22
ENDBRANCH  15  21
BRANCH  16  24
ATOM     24  O   UNL     1      32.645 -29.392   6.153  1.00  0.00    -0.387 OA
ATOM     25  H   UNL     1      33.508 -28.787   5.948  1.00  0.00     0.211 HD
ENDBRANCH  16  24
ENDBRANCH  10  11
ENDBRANCH   4  10
BRANCH   6  26
ATOM     26  O   UNL     1      32.031 -35.692   8.107  1.00  0.00    -0.346 OA
BRANCH  26  27
ATOM     27  C   UNL     1      33.690 -36.749   7.118  1.00  0.00     0.130 C 
ATOM     28  C   UNL     1      34.645 -36.435   5.965  1.00  0.00     0.033 C 
ATOM     29  C   UNL     1      34.588 -39.417   6.470  1.00  0.00     0.020 C 
ATOM     30  C   UNL     1      33.901 -37.578   5.002  1.00  0.00     0.010 C 
ATOM     31  C   UNL     1      33.425 -39.689   6.596  1.00  0.00     0.006 C 
ATOM     32  C   UNL     1      34.083 -41.132   7.705  1.00  0.00     0.017 C 
ATOM     33  C   UNL     1      32.664 -38.983   5.854  1.00  0.00    -0.022 C 
ATOM     34  C   UNL     1      34.328 -38.833   7.659  1.00  0.00     0.005 C 
ATOM     35  C   UNL     1      31.039 -39.778   6.683  1.00  0.00     0.012 C 
ATOM     36  C   UNL     1      31.657 -38.268   6.109  1.00  0.00     0.024 C 
ATOM     37  C   UNL     1      33.193 -38.387   8.691  1.00  0.00     0.008 C 
ATOM     38  C   UNL     1      31.578 -37.821   7.882  1.00  0.00    -0.017 C 
ATOM     39  C   UNL     1      31.038 -38.649   4.549  1.00  0.00    -0.024 C 
ATOM     40  C   UNL     1      31.001 -38.597   9.579  1.00  0.00     0.013 C 
ATOM     41  C   UNL     1      30.439 -36.518   6.355  1.00  0.00     0.009 C 
ATOM     42  C   UNL     1      29.965 -38.287   3.966  1.00  0.00     0.005 C 
ATOM     43  C   UNL     1      29.227 -37.279   5.274  1.00  0.00     0.096 C 
ATOM     44  C   UNL     1      30.053 -34.920   6.690  1.00  0.00     0.043 C 
ATOM     45  C   UNL     1      31.635 -35.644   5.053  1.00  0.00     0.015 C 
ATOM     46  C   UNL     1      28.331 -38.204   6.190  1.00  0.00     0.037 C 
ATOM     47  O   UNL     1      28.127 -36.308   5.056  1.00  0.00    -0.369 OA
ATOM     48  C   UNL     1      28.665 -35.431   7.509  1.00  0.00     0.124 C 
ATOM     49  C   UNL     1      28.191 -37.193   7.304  1.00  0.00     0.026 C 
ATOM     50  C   UNL     1      26.963 -39.441   6.602  1.00  0.00     0.014 C 
ATOM     51  C   UNL     1      27.144 -36.666   6.150  1.00  0.00     0.171 C 
ATOM     52  C   UNL     1      28.202 -38.476   8.534  1.00  0.00     0.013 C 
ATOM     53  C   UNL     1      26.951 -40.578   7.893  1.00  0.00    -0.035 C 
ATOM     54  C   UNL     1      28.358 -40.308   8.617  1.00  0.00     0.007 C 
ATOM     55  C   UNL     1      26.436 -42.028   7.314  1.00  0.00     0.011 C 
ATOM     56  C   UNL     1      25.918 -40.273   9.044  1.00  0.00     0.011 C 
BRANCH  29  57
ATOM     57  C   UNL     1      36.029 -39.984   4.589  1.00  0.00     0.165 C 
BRANCH  57  58
ATOM     58  O   UNL     1      35.686 -41.407   4.248  1.00  0.00    -0.396 OA
ATOM     59  H   UNL     1      35.232 -41.926   5.115  1.00  0.00     0.210 HD
ENDBRANCH  57  58
ENDBRANCH  29  57
BRANCH  48  60
ATOM     60  O   UNL     1      27.544 -34.618   7.503  1.00  0.00    -0.392 OA
ATOM     61  H   UNL     1      27.576 -33.953   8.278  1.00  0.00     0.210 HD
ENDBRANCH  48  60
ENDBRANCH  26  27
ENDBRANCH   6  26
BRANCH   5  62
ATOM     62  O   UNL     1      30.929 -32.428  11.673  1.00  0.00    -0.385 OA
ATOM     63  H   UNL     1      30.905 -31.247  11.869  1.00  0.00     0.211 HD
ENDBRANCH   5  62
TORSDOF 14
ENDMDL
MODEL 8
REMARK VINA RESULT:    -4.475      7.596     11.801
REMARK INTER + INTRA:          -7.552
REMARK INTER:                  -4.971
REMARK INTRA:                  -2.582
REMARK UNBOUND:                -2.162
REMARK SMILES C[C@@H]1O[C@@H](O[C@@H]2CC[C@]3(C)[C@H](CC[C@]4(C)[C@@H]3C=C[C@@]35OC[C@]6(CCC(C)(C)C[C@H]63)[C@H](O)C[C@@]45C)[C@@]2(C)CO)[C@H](O)[C@H](O[C@H]2O[C@H](CO)[C@H](O)[C@@H](O)[C@@H]2O)[C@H]1O
REMARK SMILES IDX 1 1 2 2 54 3 41 4 39 5 4 6 3 7 55 8 42 10 43 11 52 12 44 13
REMARK SMILES IDX 50 14 45 15 48 16 53 17 51 19 46 21 47 22 49 24 5 26 6 27
REMARK SMILES IDX 7 28 35 29 8 30 11 31 36 32 9 33 12 34 10 35 16 36 13 37
REMARK SMILES IDX 14 38 17 39 15 40 33 41 18 42 19 43 32 44 34 45 29 46 20 47
REMARK SMILES IDX 30 48 22 49 28 50 21 51 23 52 25 53 24 54 26 55 27 56 37 57
REMARK SMILES IDX 38 58 31 60 40 62
REMARK H PARENT 55 9 53 18 51 20 47 23 49 25 38 59 31 61 40 63
REMARK Flexibility Score: inf
ROOT
ATOM      1  C   UNL     1      33.407 -45.803  11.333  1.00  0.00     0.041 C 
ATOM      2  C   UNL     1      33.344 -44.314  10.559  1.00  0.00     0.150 C 
ATOM      3  C   UNL     1      31.282 -43.474   9.817  1.00  0.00     0.175 C 
ATOM      4  C   UNL     1      31.098 -42.905   8.390  1.00  0.00     0.186 C 
ATOM      5  C   UNL     1      31.548 -42.935  10.999  1.00  0.00     0.202 C 
ATOM      6  C   UNL     1      32.954 -42.011  10.506  1.00  0.00     0.282 C 
ATOM      7  O   UNL     1      33.978 -43.308  11.485  1.00  0.00    -0.344 OA
ENDROOT
BRANCH   3   8
ATOM      8  O   UNL     1      30.021 -44.318  10.191  1.00  0.00    -0.388 OA
ATOM      9  H   UNL     1      29.512 -44.765  10.851  1.00  0.00     0.211 HD
ENDBRANCH   3   8
BRANCH   4  10
ATOM     10  O   UNL     1      30.499 -43.432   6.456  1.00  0.00    -0.341 OA
BRANCH  10  11
ATOM     11  C   UNL     1      31.318 -43.194   4.935  1.00  0.00     0.282 C 
ATOM     12  C   UNL     1      31.169 -45.388   4.001  1.00  0.00     0.202 C 
ATOM     13  O   UNL     1      32.906 -43.869   4.847  1.00  0.00    -0.341 OA
ATOM     14  C   UNL     1      30.067 -45.100   4.559  1.00  0.00     0.179 C 
ATOM     15  C   UNL     1      32.847 -44.881   5.766  1.00  0.00     0.178 C 
ATOM     16  C   UNL     1      31.508 -45.502   5.874  1.00  0.00     0.177 C 
BRANCH  12  17
ATOM     17  O   UNL     1      31.386 -47.294   3.875  1.00  0.00    -0.385 OA
ATOM     18  H   UNL     1      31.755 -48.713   3.920  1.00  0.00     0.211 HD
ENDBRANCH  12  17
BRANCH  14  19
ATOM     19  O   UNL     1      29.146 -43.814   4.552  1.00  0.00    -0.387 OA
ATOM     20  H   UNL     1      28.523 -43.253   3.827  1.00  0.00     0.211 HD
ENDBRANCH  14  19
BRANCH  15  21
ATOM     21  C   UNL     1      34.071 -46.018   5.680  1.00  0.00     0.191 C 
BRANCH  21  22
ATOM     22  O   UNL     1      34.110 -46.678   4.297  1.00  0.00    -0.394 OA
ATOM     23  H   UNL     1      34.421 -45.914   3.586  1.00  0.00     0.210 HD
ENDBRANCH  21  22
ENDBRANCH  15  21
BRANCH  16  24
ATOM     24  O   UNL     1      31.366 -46.748   5.886  1.00  0.00    -0.387 OA
ATOM     25  H   UNL     1      32.107 -47.260   6.471  1.00  0.00     0.211 HD
ENDBRANCH  16  24
ENDBRANCH  10  11
ENDBRANCH   4  10
BRANCH   6  26
ATOM     26  O   UNL     1      32.569 -40.762   8.764  1.00  0.00    -0.346 OA
BRANCH  26  27
ATOM     27  C   UNL     1      31.574 -39.401   7.348  1.00  0.00     0.130 C 
ATOM     28  C   UNL     1      31.015 -39.528   5.930  1.00  0.00     0.033 C 
ATOM     29  C   UNL     1      31.484 -36.614   6.594  1.00  0.00     0.020 C 
ATOM     30  C   UNL     1      32.246 -38.572   5.330  1.00  0.00     0.010 C 
ATOM     31  C   UNL     1      32.568 -36.583   7.110  1.00  0.00     0.006 C 
ATOM     32  C   UNL     1      31.874 -35.024   8.022  1.00  0.00     0.017 C 
ATOM     33  C   UNL     1      33.379 -37.438   6.619  1.00  0.00    -0.022 C 
ATOM     34  C   UNL     1      31.214 -37.225   7.768  1.00  0.00     0.005 C 
ATOM     35  C   UNL     1      34.758 -36.981   7.979  1.00  0.00     0.012 C 
ATOM     36  C   UNL     1      34.083 -38.340   7.150  1.00  0.00     0.024 C 
ATOM     37  C   UNL     1      31.830 -37.880   9.087  1.00  0.00     0.008 C 
ATOM     38  C   UNL     1      33.478 -38.773   8.822  1.00  0.00    -0.017 C 
ATOM     39  C   UNL     1      35.248 -38.111   5.903  1.00  0.00    -0.024 C 
ATOM     40  C   UNL     1      33.598 -38.110  10.655  1.00  0.00     0.013 C 
ATOM     41  C   UNL     1      34.782 -40.299   7.682  1.00  0.00     0.009 C 
ATOM     42  C   UNL     1      36.361 -38.691   5.685  1.00  0.00     0.005 C 
ATOM     43  C   UNL     1      36.409 -39.813   7.103  1.00  0.00     0.096 C 
ATOM     44  C   UNL     1      34.714 -41.937   8.033  1.00  0.00     0.043 C 
ATOM     45  C   UNL     1      33.940 -40.926   6.012  1.00  0.00     0.015 C 
ATOM     46  C   UNL     1      37.112 -39.079   8.313  1.00  0.00     0.037 C 
ATOM     47  O   UNL     1      37.305 -40.990   7.203  1.00  0.00    -0.369 OA
ATOM     48  C   UNL     1      35.822 -41.710   9.290  1.00  0.00     0.124 C 
ATOM     49  C   UNL     1      36.672 -40.084   9.352  1.00  0.00     0.026 C 
ATOM     50  C   UNL     1      38.479 -38.141   9.220  1.00  0.00     0.014 C 
ATOM     51  C   UNL     1      37.918 -40.826   8.577  1.00  0.00     0.171 C 
ATOM     52  C   UNL     1      36.504 -38.811  10.581  1.00  0.00     0.013 C 
ATOM     53  C   UNL     1      38.283 -37.015  10.507  1.00  0.00    -0.035 C 
ATOM     54  C   UNL     1      36.691 -36.984  10.713  1.00  0.00     0.007 C 
ATOM     55  C   UNL     1      39.235 -35.707  10.212  1.00  0.00     0.011 C 
ATOM     56  C   UNL     1      38.793 -37.510  11.913  1.00  0.00     0.011 C 
BRANCH  29  57
ATOM     57  C   UNL     1      30.891 -35.788   4.380  1.00  0.00     0.165 C 
BRANCH  57  58
ATOM     58  O   UNL     1      31.831 -34.643   4.125  1.00  0.00    -0.396 OA
ATOM     59  H   UNL     1      32.863 -34.898   4.435  1.00  0.00     0.210 HD
ENDBRANCH  57  58
ENDBRANCH  29  57
BRANCH  48  60
ATOM     60  O   UNL     1      36.699 -42.734   9.606  1.00  0.00    -0.392 OA
ATOM     61  H   UNL     1      37.653 -42.379   9.691  1.00  0.00     0.210 HD
ENDBRANCH  48  60
ENDBRANCH  26  27
ENDBRANCH   6  26
BRANCH   5  62
ATOM     62  O   UNL     1      31.703 -44.248  12.184  1.00  0.00    -0.385 OA
ATOM     63  H   UNL     1      32.436 -44.563  13.076  1.00  0.00     0.211 HD
ENDBRANCH   5  62
TORSDOF 14
ENDMDL
MODEL 9
REMARK VINA RESULT:    -4.384      1.725      2.332
REMARK INTER + INTRA:          -7.443
REMARK INTER:                  -5.330
REMARK INTRA:                  -2.113
REMARK UNBOUND:                -2.162
REMARK SMILES C[C@@H]1O[C@@H](O[C@@H]2CC[C@]3(C)[C@H](CC[C@]4(C)[C@@H]3C=C[C@@]35OC[C@]6(CCC(C)(C)C[C@H]63)[C@H](O)C[C@@]45C)[C@@]2(C)CO)[C@H](O)[C@H](O[C@H]2O[C@H](CO)[C@H](O)[C@@H](O)[C@@H]2O)[C@H]1O
REMARK SMILES IDX 1 1 2 2 54 3 41 4 39 5 4 6 3 7 55 8 42 10 43 11 52 12 44 13
REMARK SMILES IDX 50 14 45 15 48 16 53 17 51 19 46 21 47 22 49 24 5 26 6 27
REMARK SMILES IDX 7 28 35 29 8 30 11 31 36 32 9 33 12 34 10 35 16 36 13 37
REMARK SMILES IDX 14 38 17 39 15 40 33 41 18 42 19 43 32 44 34 45 29 46 20 47
REMARK SMILES IDX 30 48 22 49 28 50 21 51 23 52 25 53 24 54 26 55 27 56 37 57
REMARK SMILES IDX 38 58 31 60 40 62
REMARK H PARENT 55 9 53 18 51 20 47 23 49 25 38 59 31 61 40 63
REMARK Flexibility Score: inf
ROOT
ATOM      1  C   UNL     1      39.474 -37.119  11.261  1.00  0.00     0.041 C 
ATOM      2  C   UNL     1      38.575 -35.742  11.601  1.00  0.00     0.150 C 
ATOM      3  C   UNL     1      36.281 -35.934  12.060  1.00  0.00     0.175 C 
ATOM      4  C   UNL     1      35.233 -35.024  11.376  1.00  0.00     0.186 C 
ATOM      5  C   UNL     1      36.932 -35.886  13.214  1.00  0.00     0.202 C 
ATOM      6  C   UNL     1      37.531 -34.246  13.060  1.00  0.00     0.282 C 
ATOM      7  O   UNL     1      39.250 -35.048  12.757  1.00  0.00    -0.344 OA
ENDROOT
BRANCH   3   8
ATOM      8  O   UNL     1      35.714 -37.388  12.137  1.00  0.00    -0.388 OA
ATOM      9  H   UNL     1      35.655 -38.255  11.763  1.00  0.00     0.211 HD
ENDBRANCH   3   8
BRANCH   4  10
ATOM     10  O   UNL     1      33.928 -34.929   9.744  1.00  0.00    -0.341 OA
BRANCH  10  11
ATOM     11  C   UNL     1      32.256 -34.439   9.684  1.00  0.00     0.282 C 
ATOM     12  C   UNL     1      31.609 -35.325   7.561  1.00  0.00     0.202 C 
ATOM     13  O   UNL     1      31.918 -33.125   8.614  1.00  0.00    -0.341 OA
ATOM     14  C   UNL     1      32.346 -36.169   8.154  1.00  0.00     0.179 C 
ATOM     15  C   UNL     1      32.932 -33.223   7.699  1.00  0.00     0.178 C 
ATOM     16  C   UNL     1      33.375 -34.613   7.456  1.00  0.00     0.177 C 
BRANCH  12  17
ATOM     17  O   UNL     1      31.643 -35.613   5.661  1.00  0.00    -0.385 OA
ATOM     18  H   UNL     1      31.590 -35.597   4.195  1.00  0.00     0.211 HD
ENDBRANCH  12  17
BRANCH  14  19
ATOM     19  O   UNL     1      32.390 -36.726   9.634  1.00  0.00    -0.387 OA
ATOM     20  H   UNL     1      32.729 -37.641  10.158  1.00  0.00     0.211 HD
ENDBRANCH  14  19
BRANCH  15  21
ATOM     21  C   UNL     1      32.719 -32.364   6.280  1.00  0.00     0.191 C 
BRANCH  21  22
ATOM     22  O   UNL     1      33.973 -31.554   5.934  1.00  0.00    -0.394 OA
ATOM     23  H   UNL     1      33.702 -30.501   6.001  1.00  0.00     0.210 HD
ENDBRANCH  21  22
ENDBRANCH  15  21
BRANCH  16  24
ATOM     24  O   UNL     1      33.548 -35.049   6.293  1.00  0.00    -0.387 OA
ATOM     25  H   UNL     1      32.696 -34.915   5.652  1.00  0.00     0.211 HD
ENDBRANCH  16  24
ENDBRANCH  10  11
ENDBRANCH   4  10
BRANCH   6  26
ATOM     26  O   UNL     1      35.953 -32.816  12.603  1.00  0.00    -0.346 OA
BRANCH  26  27
ATOM     27  C   UNL     1      34.118 -31.923  11.776  1.00  0.00     0.130 C 
ATOM     28  C   UNL     1      33.790 -31.018  10.588  1.00  0.00     0.033 C 
ATOM     29  C   UNL     1      31.531 -30.935  12.598  1.00  0.00     0.020 C 
ATOM     30  C   UNL     1      33.440 -29.750  11.616  1.00  0.00     0.010 C 
ATOM     31  C   UNL     1      32.069 -30.820  13.666  1.00  0.00     0.006 C 
ATOM     32  C   UNL     1      30.497 -31.727  14.336  1.00  0.00     0.017 C 
ATOM     33  C   UNL     1      33.130 -30.112  13.617  1.00  0.00    -0.022 C 
ATOM     34  C   UNL     1      32.094 -32.156  12.720  1.00  0.00     0.005 C 
ATOM     35  C   UNL     1      33.537 -30.507  15.524  1.00  0.00     0.012 C 
ATOM     36  C   UNL     1      34.314 -30.335  13.989  1.00  0.00     0.024 C 
ATOM     37  C   UNL     1      33.122 -33.059  13.544  1.00  0.00     0.008 C 
ATOM     38  C   UNL     1      34.631 -32.124  14.203  1.00  0.00    -0.017 C 
ATOM     39  C   UNL     1      34.489 -28.652  14.307  1.00  0.00    -0.024 C 
ATOM     40  C   UNL     1      34.339 -33.530  15.528  1.00  0.00     0.013 C 
ATOM     41  C   UNL     1      36.425 -30.709  13.877  1.00  0.00     0.009 C 
ATOM     42  C   UNL     1      35.483 -27.984  14.743  1.00  0.00     0.005 C 
ATOM     43  C   UNL     1      36.672 -29.324  14.989  1.00  0.00     0.096 C 
ATOM     44  C   UNL     1      37.878 -31.274  13.258  1.00  0.00     0.043 C 
ATOM     45  C   UNL     1      36.375 -29.804  12.125  1.00  0.00     0.015 C 
ATOM     46  C   UNL     1      36.506 -29.895  16.454  1.00  0.00     0.037 C 
ATOM     47  O   UNL     1      38.132 -29.122  15.158  1.00  0.00    -0.369 OA
ATOM     48  C   UNL     1      38.350 -31.750  14.811  1.00  0.00     0.124 C 
ATOM     49  C   UNL     1      37.320 -31.143  16.205  1.00  0.00     0.026 C 
ATOM     50  C   UNL     1      36.427 -29.841  18.341  1.00  0.00     0.014 C 
ATOM     51  C   UNL     1      38.446 -29.957  16.380  1.00  0.00     0.171 C 
ATOM     52  C   UNL     1      36.282 -32.094  17.289  1.00  0.00     0.013 C 
ATOM     53  C   UNL     1      35.513 -30.876  19.368  1.00  0.00    -0.035 C 
ATOM     54  C   UNL     1      34.780 -31.853  18.326  1.00  0.00     0.007 C 
ATOM     55  C   UNL     1      34.764 -29.959  20.509  1.00  0.00     0.011 C 
ATOM     56  C   UNL     1      36.363 -31.884  20.232  1.00  0.00     0.011 C 
BRANCH  29  57
ATOM     57  C   UNL     1      30.248 -29.235  11.413  1.00  0.00     0.165 C 
BRANCH  57  58
ATOM     58  O   UNL     1      30.376 -27.994  12.251  1.00  0.00    -0.396 OA
ATOM     59  H   UNL     1      29.867 -28.117  13.227  1.00  0.00     0.210 HD
ENDBRANCH  57  58
ENDBRANCH  29  57
BRANCH  48  60
ATOM     60  O   UNL     1      39.693 -31.719  15.145  1.00  0.00    -0.392 OA
ATOM     61  H   UNL     1      39.956 -32.560  15.662  1.00  0.00     0.210 HD
ENDBRANCH  48  60
ENDBRANCH  26  27
ENDBRANCH   6  26
BRANCH   5  62
ATOM     62  O   UNL     1      38.061 -37.255  13.269  1.00  0.00    -0.385 OA
ATOM     63  H   UNL     1      39.238 -37.438  13.393  1.00  0.00     0.211 HD
ENDBRANCH   5  62
TORSDOF 14
ENDMDL
