MODEL 1
REMARK VINA RESULT:     7.916      0.000      0.000
REMARK INTER + INTRA:           9.392
REMARK INTER:                   9.073
REMARK INTRA:                   0.319
REMARK UNBOUND:                 0.319
REMARK SMILES C=C(C)[C@@H]1CC[C@@]2(C(=O)[O-])CC[C@@]3(C)[C@@H](CC[C@@H]4[C@]5(C)CC[C@@H](O)C(C)(C)[C@@H]5CC[C@]43C)[C@@H]12
REMARK SMILES IDX 7 1 6 2 33 3 11 4 5 5 15 6 4 7 12 8 16 9 13 10 17 11 31 12
REMARK SMILES IDX 14 13 18 14 30 15 32 16 19 17 29 18 21 19 20 20 28 21 22 22
REMARK SMILES IDX 25 23 23 24 26 25 27 26 8 27 9 28 10 29 2 30 3 31 1 32 24 33
REMARK H PARENT 24 34
REMARK Flexibility Score: inf
ROOT
ATOM      1  C   UNL     1     -21.291  11.812 -29.141  1.00  0.00     0.014 C 
ATOM      2  C   UNL     1     -22.713  12.004 -29.692  1.00  0.00     0.014 C 
ATOM      3  C   UNL     1     -20.746  13.267 -29.084  1.00  0.00     0.012 C 
ATOM      4  C   UNL     1     -20.453  10.888 -30.080  1.00  0.00     0.014 C 
ATOM      5  C   UNL     1     -22.693  13.252 -30.579  1.00  0.00     0.009 C 
ATOM      6  C   UNL     1     -19.198  13.315 -29.027  1.00  0.00     0.000 C 
ATOM      7  C   UNL     1     -21.450  14.074 -30.191  1.00  0.00     0.018 C 
ATOM      8  C   UNL     1     -18.914  11.021 -29.909  1.00  0.00     0.008 C 
ATOM      9  C   UNL     1     -18.595  14.686 -28.742  1.00  0.00     0.005 C 
ATOM     10  C   UNL     1     -18.370  12.487 -30.081  1.00  0.00    -0.024 C 
ATOM     11  C   UNL     1     -17.257  14.510 -27.996  1.00  0.00     0.005 C 
ATOM     12  C   UNL     1     -16.758  12.664 -29.783  1.00  0.00    -0.024 C 
ATOM     13  C   UNL     1     -18.663  12.888 -31.563  1.00  0.00     0.012 C 
ATOM     14  C   UNL     1     -16.507  13.152 -28.298  1.00  0.00     0.002 C 
ATOM     15  C   UNL     1     -16.022  11.314 -29.963  1.00  0.00     0.008 C 
ATOM     16  C   UNL     1     -16.102  13.697 -30.769  1.00  0.00     0.012 C 
ATOM     17  C   UNL     1     -15.010  13.081 -27.714  1.00  0.00    -0.026 C 
ATOM     18  C   UNL     1     -14.532  11.386 -29.644  1.00  0.00     0.005 C 
ATOM     19  C   UNL     1     -14.170  14.375 -28.048  1.00  0.00     0.010 C 
ATOM     20  C   UNL     1     -15.165  13.038 -26.160  1.00  0.00     0.012 C 
ATOM     21  C   UNL     1     -14.253  11.743 -28.159  1.00  0.00     0.003 C 
ATOM     22  C   UNL     1     -12.746  14.121 -28.540  1.00  0.00     0.033 C 
ATOM     23  C   UNL     1     -12.686  11.676 -27.782  1.00  0.00    -0.006 C 
ATOM     24  C   UNL     1     -12.023  13.100 -27.662  1.00  0.00     0.120 C 
ATOM     25  C   UNL     1     -12.507  10.881 -26.461  1.00  0.00     0.014 C 
ATOM     26  C   UNL     1     -11.846  10.876 -28.826  1.00  0.00     0.014 C 
ENDROOT
BRANCH   1  27
ATOM     27  C   UNL     1     -21.379  11.149 -27.773  1.00  0.00     0.048 C 
ATOM     28  O   UNL     1     -22.491  10.875 -27.244  1.00  0.00    -0.550 OA
ATOM     29  O   UNL     1     -20.212  10.876 -27.066  1.00  0.00    -0.550 OA
ENDBRANCH   1  27
BRANCH   7  30
ATOM     30  C   UNL     1     -21.806  15.499 -29.758  1.00  0.00    -0.077 C 
ATOM     31  C   UNL     1     -22.823  16.319 -30.508  1.00  0.00     0.039 C 
ATOM     32  C   UNL     1     -21.235  16.033 -28.665  1.00  0.00     0.008 C 
ENDBRANCH   7  30
BRANCH  24  33
ATOM     33  O   UNL     1     -11.980  13.548 -26.332  1.00  0.00    -0.393 OA
ATOM     34  H   UNL     1     -11.312  12.984 -25.854  1.00  0.00     0.210 HD
ENDBRANCH  24  33
TORSDOF 3
ENDMDL
MODEL 2
REMARK VINA RESULT:     9.077      9.866     12.781
REMARK INTER + INTRA:          10.723
REMARK INTER:                  11.150
REMARK INTRA:                  -0.427
REMARK UNBOUND:                 0.319
REMARK SMILES C=C(C)[C@@H]1CC[C@@]2(C(=O)[O-])CC[C@@]3(C)[C@@H](CC[C@@H]4[C@]5(C)CC[C@@H](O)C(C)(C)[C@@H]5CC[C@]43C)[C@@H]12
REMARK SMILES IDX 7 1 6 2 33 3 11 4 5 5 15 6 4 7 12 8 16 9 13 10 17 11 31 12
REMARK SMILES IDX 14 13 18 14 30 15 32 16 19 17 29 18 21 19 20 20 28 21 22 22
REMARK SMILES IDX 25 23 23 24 26 25 27 26 8 27 9 28 10 29 2 30 3 31 1 32 24 33
REMARK H PARENT 24 34
REMARK Flexibility Score: inf
ROOT
ATOM      1  C   UNL     1     -29.760  19.689 -32.657  1.00  0.00     0.014 C 
ATOM      2  C   UNL     1     -29.747  20.849 -33.665  1.00  0.00     0.014 C 
ATOM      3  C   UNL     1     -28.281  19.212 -32.664  1.00  0.00     0.012 C 
ATOM      4  C   UNL     1     -30.757  18.575 -33.107  1.00  0.00     0.014 C 
ATOM      5  C   UNL     1     -28.649  20.551 -34.688  1.00  0.00     0.009 C 
ATOM      6  C   UNL     1     -28.122  17.772 -32.114  1.00  0.00     0.000 C 
ATOM      7  C   UNL     1     -27.697  19.519 -34.056  1.00  0.00     0.018 C 
ATOM      8  C   UNL     1     -30.499  17.182 -32.467  1.00  0.00     0.008 C 
ATOM      9  C   UNL     1     -26.687  17.315 -31.876  1.00  0.00     0.005 C 
ATOM     10  C   UNL     1     -29.042  16.631 -32.690  1.00  0.00    -0.024 C 
ATOM     11  C   UNL     1     -26.660  16.299 -30.716  1.00  0.00     0.005 C 
ATOM     12  C   UNL     1     -28.716  15.212 -31.916  1.00  0.00    -0.024 C 
ATOM     13  C   UNL     1     -28.888  16.419 -34.231  1.00  0.00     0.012 C 
ATOM     14  C   UNL     1     -27.995  15.475 -30.531  1.00  0.00     0.002 C 
ATOM     15  C   UNL     1     -30.026  14.441 -31.623  1.00  0.00     0.008 C 
ATOM     16  C   UNL     1     -27.801  14.278 -32.789  1.00  0.00     0.012 C 
ATOM     17  C   UNL     1     -27.878  14.256 -29.487  1.00  0.00    -0.026 C 
ATOM     18  C   UNL     1     -29.808  13.142 -30.852  1.00  0.00     0.005 C 
ATOM     19  C   UNL     1     -26.597  13.369 -29.736  1.00  0.00     0.010 C 
ATOM     20  C   UNL     1     -27.698  14.919 -28.084  1.00  0.00     0.012 C 
ATOM     21  C   UNL     1     -29.215  13.377 -29.436  1.00  0.00     0.003 C 
ATOM     22  C   UNL     1     -26.826  11.860 -29.688  1.00  0.00     0.033 C 
ATOM     23  C   UNL     1     -29.121  12.025 -28.563  1.00  0.00    -0.006 C 
ATOM     24  C   UNL     1     -27.654  11.457 -28.468  1.00  0.00     0.120 C 
ATOM     25  C   UNL     1     -29.695  12.284 -27.144  1.00  0.00     0.014 C 
ATOM     26  C   UNL     1     -30.011  10.875 -29.131  1.00  0.00     0.014 C 
ENDROOT
BRANCH   1  27
ATOM     27  C   UNL     1     -30.214  20.218 -31.303  1.00  0.00     0.048 C 
ATOM     28  O   UNL     1     -29.755  21.293 -30.828  1.00  0.00    -0.550 OA
ATOM     29  O   UNL     1     -31.125  19.484 -30.549  1.00  0.00    -0.550 OA
ENDBRANCH   1  27
BRANCH   7  30
ATOM     30  C   UNL     1     -26.250  20.017 -34.002  1.00  0.00    -0.077 C 
ATOM     31  C   UNL     1     -25.675  20.630 -32.751  1.00  0.00     0.039 C 
ATOM     32  C   UNL     1     -25.449  19.880 -35.072  1.00  0.00     0.008 C 
ENDBRANCH   7  30
BRANCH  24  33
ATOM     33  O   UNL     1     -27.010  11.864 -27.289  1.00  0.00    -0.393 OA
ATOM     34  H   UNL     1     -27.584  11.577 -26.526  1.00  0.00     0.210 HD
ENDBRANCH  24  33
TORSDOF 3
ENDMDL
