MODEL 1
REMARK VINA RESULT:    -5.828      0.000      0.000
REMARK INTER + INTRA:          -8.841
REMARK INTER:                  -8.214
REMARK INTRA:                  -0.628
REMARK UNBOUND:                -0.628
REMARK SMILES COc1ccc(-c2cc(=O)c3c(OC)c(OC)c(OC)c(OC)c3o2)cc1OC
REMARK SMILES IDX 7 1 8 2 9 3 10 4 11 5 24 6 25 7 21 8 18 9 15 10 12 11 6 12
REMARK SMILES IDX 3 13 27 14 4 15 26 16 5 17 2 18 1 19 28 20 29 21 22 22 23 23
REMARK SMILES IDX 13 24 14 25 19 26 20 27 16 28 17 29
REMARK H PARENT
REMARK Flexibility Score: inf
ROOT
ATOM      1  C   UNL     1      46.160 -29.147 -30.555  1.00  0.00     0.138 A 
ATOM      2  C   UNL     1      46.652 -28.435 -31.654  1.00  0.00     0.100 A 
ATOM      3  C   UNL     1      48.026 -28.362 -31.858  1.00  0.00     0.197 A 
ATOM      4  O   UNL     1      48.455 -27.719 -32.854  1.00  0.00    -0.289 OA
ATOM      5  C   UNL     1      48.904 -29.003 -30.955  1.00  0.00     0.115 A 
ATOM      6  C   UNL     1      48.339 -29.683 -29.852  1.00  0.00     0.188 A 
ATOM      7  O   UNL     1      47.015 -29.719 -29.712  1.00  0.00    -0.452 OA
ATOM      8  C   UNL     1      49.173 -30.332 -28.907  1.00  0.00     0.209 A 
ATOM      9  C   UNL     1      50.581 -30.326 -29.094  1.00  0.00     0.211 A 
ATOM     10  C   UNL     1      51.136 -29.674 -30.225  1.00  0.00     0.208 A 
ATOM     11  C   UNL     1      50.304 -28.981 -31.119  1.00  0.00     0.179 A 
ENDROOT
BRANCH   1  12
ATOM     12  C   UNL     1      44.702 -29.272 -30.300  1.00  0.00     0.021 A 
ATOM     13  C   UNL     1      41.926 -29.439 -29.807  1.00  0.00     0.160 A 
ATOM     14  C   UNL     1      42.425 -28.455 -30.673  1.00  0.00     0.161 A 
ATOM     15  C   UNL     1      42.818 -30.333 -29.185  1.00  0.00     0.051 A 
ATOM     16  C   UNL     1      43.811 -28.379 -30.915  1.00  0.00     0.062 A 
ATOM     17  C   UNL     1      44.191 -30.245 -29.425  1.00  0.00     0.016 A 
BRANCH  13  18
ATOM     18  O   UNL     1      40.541 -29.495 -29.586  1.00  0.00    -0.493 OA
ATOM     19  C   UNL     1      39.868 -30.578 -28.953  1.00  0.00     0.278 C 
ENDBRANCH  13  18
BRANCH  14  20
ATOM     20  O   UNL     1      41.514 -27.572 -31.273  1.00  0.00    -0.493 OA
ATOM     21  C   UNL     1      41.275 -26.238 -30.834  1.00  0.00     0.278 C 
ENDBRANCH  14  20
ENDBRANCH   1  12
BRANCH   8  22
ATOM     22  O   UNL     1      48.651 -31.005 -27.785  1.00  0.00    -0.490 OA
ATOM     23  C   UNL     1      48.235 -32.364 -27.709  1.00  0.00     0.278 C 
ENDBRANCH   8  22
BRANCH  11  24
ATOM     24  O   UNL     1      50.870 -28.293 -32.200  1.00  0.00    -0.492 OA
ATOM     25  C   UNL     1      51.497 -27.023 -32.053  1.00  0.00     0.278 C 
ENDBRANCH  11  24
BRANCH   9  26
ATOM     26  O   UNL     1      51.469 -30.943 -28.189  1.00  0.00    -0.490 OA
ATOM     27  C   UNL     1      51.975 -32.272 -28.231  1.00  0.00     0.279 C 
ENDBRANCH   9  26
BRANCH  10  28
ATOM     28  O   UNL     1      52.512 -29.691 -30.534  1.00  0.00    -0.490 OA
ATOM     29  C   UNL     1      53.556 -28.991 -29.866  1.00  0.00     0.278 C 
ENDBRANCH  10  28
TORSDOF 7
ENDMDL
MODEL 2
REMARK VINA RESULT:    -5.754     13.979     14.859
REMARK INTER + INTRA:          -8.736
REMARK INTER:                  -8.062
REMARK INTRA:                  -0.674
REMARK UNBOUND:                -0.628
REMARK SMILES COc1ccc(-c2cc(=O)c3c(OC)c(OC)c(OC)c(OC)c3o2)cc1OC
REMARK SMILES IDX 7 1 8 2 9 3 10 4 11 5 24 6 25 7 21 8 18 9 15 10 12 11 6 12
REMARK SMILES IDX 3 13 27 14 4 15 26 16 5 17 2 18 1 19 28 20 29 21 22 22 23 23
REMARK SMILES IDX 13 24 14 25 19 26 20 27 16 28 17 29
REMARK H PARENT
REMARK Flexibility Score: inf
ROOT
ATOM      1  C   UNL     1      51.729 -40.752 -22.420  1.00  0.00     0.138 A 
ATOM      2  C   UNL     1      51.375 -41.457 -23.575  1.00  0.00     0.100 A 
ATOM      3  C   UNL     1      52.291 -41.560 -24.618  1.00  0.00     0.197 A 
ATOM      4  O   UNL     1      51.958 -42.200 -25.652  1.00  0.00    -0.289 OA
ATOM      5  C   UNL     1      53.561 -40.952 -24.499  1.00  0.00     0.115 A 
ATOM      6  C   UNL     1      53.842 -40.234 -23.313  1.00  0.00     0.188 A 
ATOM      7  O   UNL     1      52.925 -40.173 -22.350  1.00  0.00    -0.452 OA
ATOM      8  C   UNL     1      55.095 -39.592 -23.145  1.00  0.00     0.209 A 
ATOM      9  C   UNL     1      56.082 -39.705 -24.161  1.00  0.00     0.211 A 
ATOM     10  C   UNL     1      55.804 -40.461 -25.330  1.00  0.00     0.208 A 
ATOM     11  C   UNL     1      54.537 -41.038 -25.511  1.00  0.00     0.179 A 
ENDROOT
BRANCH   1  12
ATOM     12  C   UNL     1      50.798 -40.627 -21.271  1.00  0.00     0.021 A 
ATOM     13  C   UNL     1      49.078 -40.361 -19.046  1.00  0.00     0.160 A 
ATOM     14  C   UNL     1      49.917 -39.298 -19.414  1.00  0.00     0.161 A 
ATOM     15  C   UNL     1      49.106 -41.556 -19.789  1.00  0.00     0.051 A 
ATOM     16  C   UNL     1      50.771 -39.438 -20.525  1.00  0.00     0.062 A 
ATOM     17  C   UNL     1      49.961 -41.688 -20.885  1.00  0.00     0.016 A 
BRANCH  13  18
ATOM     18  O   UNL     1      48.235 -40.194 -17.936  1.00  0.00    -0.493 OA
ATOM     19  C   UNL     1      48.356 -40.916 -16.716  1.00  0.00     0.278 C 
ENDBRANCH  13  18
BRANCH  14  20
ATOM     20  O   UNL     1      49.874 -38.122 -18.650  1.00  0.00    -0.493 OA
ATOM     21  C   UNL     1      49.573 -36.831 -19.173  1.00  0.00     0.278 C 
ENDBRANCH  14  20
ENDBRANCH   1  12
BRANCH   8  22
ATOM     22  O   UNL     1      55.408 -38.852 -21.989  1.00  0.00    -0.490 OA
ATOM     23  C   UNL     1      55.108 -37.485 -21.731  1.00  0.00     0.278 C 
ENDBRANCH   8  22
BRANCH  11  24
ATOM     24  O   UNL     1      54.256 -41.732 -26.695  1.00  0.00    -0.492 OA
ATOM     25  C   UNL     1      54.791 -43.023 -26.970  1.00  0.00     0.278 C 
ENDBRANCH  11  24
BRANCH   9  26
ATOM     26  O   UNL     1      57.344 -39.086 -24.064  1.00  0.00    -0.490 OA
ATOM     27  C   UNL     1      57.701 -37.765 -24.457  1.00  0.00     0.279 C 
ENDBRANCH   9  26
BRANCH  10  28
ATOM     28  O   UNL     1      56.753 -40.695 -26.347  1.00  0.00    -0.490 OA
ATOM     29  C   UNL     1      57.041 -39.866 -27.467  1.00  0.00     0.278 C 
ENDBRANCH  10  28
TORSDOF 7
ENDMDL
MODEL 3
REMARK VINA RESULT:    -5.677     13.708     14.893
REMARK INTER + INTRA:          -8.628
REMARK INTER:                  -7.892
REMARK INTRA:                  -0.736
REMARK UNBOUND:                -0.628
REMARK SMILES COc1ccc(-c2cc(=O)c3c(OC)c(OC)c(OC)c(OC)c3o2)cc1OC
REMARK SMILES IDX 7 1 8 2 9 3 10 4 11 5 24 6 25 7 21 8 18 9 15 10 12 11 6 12
REMARK SMILES IDX 3 13 27 14 4 15 26 16 5 17 2 18 1 19 28 20 29 21 22 22 23 23
REMARK SMILES IDX 13 24 14 25 19 26 20 27 16 28 17 29
REMARK H PARENT
REMARK Flexibility Score: inf
ROOT
ATOM      1  C   UNL     1      52.930 -40.710 -23.946  1.00  0.00     0.138 A 
ATOM      2  C   UNL     1      52.306 -41.751 -24.643  1.00  0.00     0.100 A 
ATOM      3  C   UNL     1      52.888 -42.232 -25.812  1.00  0.00     0.197 A 
ATOM      4  O   UNL     1      52.315 -43.171 -26.428  1.00  0.00    -0.289 OA
ATOM      5  C   UNL     1      54.095 -41.665 -26.280  1.00  0.00     0.115 A 
ATOM      6  C   UNL     1      54.657 -40.600 -25.539  1.00  0.00     0.188 A 
ATOM      7  O   UNL     1      54.054 -40.185 -24.426  1.00  0.00    -0.452 OA
ATOM      8  C   UNL     1      55.860 -39.985 -25.969  1.00  0.00     0.209 A 
ATOM      9  C   UNL     1      56.517 -40.470 -27.132  1.00  0.00     0.211 A 
ATOM     10  C   UNL     1      55.966 -41.565 -27.846  1.00  0.00     0.208 A 
ATOM     11  C   UNL     1      54.741 -42.123 -27.445  1.00  0.00     0.179 A 
ENDROOT
BRANCH   1  12
ATOM     12  C   UNL     1      52.363 -40.171 -22.684  1.00  0.00     0.021 A 
ATOM     13  C   UNL     1      51.349 -39.139 -20.259  1.00  0.00     0.160 A 
ATOM     14  C   UNL     1      52.437 -38.513 -20.886  1.00  0.00     0.161 A 
ATOM     15  C   UNL     1      50.775 -40.284 -20.844  1.00  0.00     0.051 A 
ATOM     16  C   UNL     1      52.936 -39.033 -22.095  1.00  0.00     0.062 A 
ATOM     17  C   UNL     1      51.282 -40.796 -22.040  1.00  0.00     0.016 A 
BRANCH  13  18
ATOM     18  O   UNL     1      50.870 -38.599 -19.055  1.00  0.00    -0.493 OA
ATOM     19  C   UNL     1      49.714 -39.063 -18.366  1.00  0.00     0.278 C 
ENDBRANCH  13  18
BRANCH  14  20
ATOM     20  O   UNL     1      52.994 -37.379 -20.276  1.00  0.00    -0.493 OA
ATOM     21  C   UNL     1      52.844 -36.047 -20.759  1.00  0.00     0.278 C 
ENDBRANCH  14  20
ENDBRANCH   1  12
BRANCH   8  22
ATOM     22  O   UNL     1      56.442 -38.910 -25.271  1.00  0.00    -0.490 OA
ATOM     23  C   UNL     1      57.404 -38.980 -24.225  1.00  0.00     0.278 C 
ENDBRANCH   8  22
BRANCH  11  24
ATOM     24  O   UNL     1      54.179 -43.166 -28.193  1.00  0.00    -0.492 OA
ATOM     25  C   UNL     1      53.547 -42.950 -29.451  1.00  0.00     0.278 C 
ENDBRANCH  11  24
BRANCH   9  26
ATOM     26  O   UNL     1      57.710 -39.900 -27.621  1.00  0.00    -0.490 OA
ATOM     27  C   UNL     1      57.849 -38.832 -28.551  1.00  0.00     0.279 C 
ENDBRANCH   9  26
BRANCH  10  28
ATOM     28  O   UNL     1      56.595 -42.162 -28.958  1.00  0.00    -0.490 OA
ATOM     29  C   UNL     1      57.584 -43.185 -28.944  1.00  0.00     0.278 C 
ENDBRANCH  10  28
TORSDOF 7
ENDMDL
MODEL 4
REMARK VINA RESULT:    -5.590      0.811      1.783
REMARK INTER + INTRA:          -8.505
REMARK INTER:                  -7.821
REMARK INTRA:                  -0.684
REMARK UNBOUND:                -0.628
REMARK SMILES COc1ccc(-c2cc(=O)c3c(OC)c(OC)c(OC)c(OC)c3o2)cc1OC
REMARK SMILES IDX 7 1 8 2 9 3 10 4 11 5 24 6 25 7 21 8 18 9 15 10 12 11 6 12
REMARK SMILES IDX 3 13 27 14 4 15 26 16 5 17 2 18 1 19 28 20 29 21 22 22 23 23
REMARK SMILES IDX 13 24 14 25 19 26 20 27 16 28 17 29
REMARK H PARENT
REMARK Flexibility Score: inf
ROOT
ATOM      1  C   UNL     1      46.053 -29.055 -30.555  1.00  0.00     0.138 A 
ATOM      2  C   UNL     1      46.572 -28.366 -31.656  1.00  0.00     0.100 A 
ATOM      3  C   UNL     1      47.949 -28.332 -31.851  1.00  0.00     0.197 A 
ATOM      4  O   UNL     1      48.403 -27.709 -32.848  1.00  0.00    -0.289 OA
ATOM      5  C   UNL     1      48.803 -28.989 -30.936  1.00  0.00     0.115 A 
ATOM      6  C   UNL     1      48.211 -29.645 -29.832  1.00  0.00     0.188 A 
ATOM      7  O   UNL     1      46.886 -29.644 -29.702  1.00  0.00    -0.452 OA
ATOM      8  C   UNL     1      49.020 -30.309 -28.876  1.00  0.00     0.209 A 
ATOM      9  C   UNL     1      50.430 -30.342 -29.053  1.00  0.00     0.211 A 
ATOM     10  C   UNL     1      51.011 -29.715 -30.185  1.00  0.00     0.208 A 
ATOM     11  C   UNL     1      50.204 -29.007 -31.090  1.00  0.00     0.179 A 
ENDROOT
BRANCH   1  12
ATOM     12  C   UNL     1      44.591 -29.138 -30.310  1.00  0.00     0.021 A 
ATOM     13  C   UNL     1      41.815 -29.367 -29.840  1.00  0.00     0.160 A 
ATOM     14  C   UNL     1      42.723 -30.071 -29.034  1.00  0.00     0.161 A 
ATOM     15  C   UNL     1      42.299 -28.555 -30.882  1.00  0.00     0.051 A 
ATOM     16  C   UNL     1      44.105 -29.952 -29.275  1.00  0.00     0.062 A 
ATOM     17  C   UNL     1      43.671 -28.447 -31.118  1.00  0.00     0.016 A 
BRANCH  13  18
ATOM     18  O   UNL     1      40.443 -29.502 -29.577  1.00  0.00    -0.493 OA
ATOM     19  C   UNL     1      39.667 -28.565 -28.838  1.00  0.00     0.278 C 
ENDBRANCH  13  18
BRANCH  14  20
ATOM     20  O   UNL     1      42.212 -30.881 -28.008  1.00  0.00    -0.493 OA
ATOM     21  C   UNL     1      42.813 -31.031 -26.724  1.00  0.00     0.278 C 
ENDBRANCH  14  20
ENDBRANCH   1  12
BRANCH   8  22
ATOM     22  O   UNL     1      48.472 -30.958 -27.752  1.00  0.00    -0.490 OA
ATOM     23  C   UNL     1      48.020 -32.305 -27.669  1.00  0.00     0.278 C 
ENDBRANCH   8  22
BRANCH  11  24
ATOM     24  O   UNL     1      50.796 -28.343 -32.172  1.00  0.00    -0.492 OA
ATOM     25  C   UNL     1      51.438 -27.078 -32.035  1.00  0.00     0.278 C 
ENDBRANCH  11  24
BRANCH   9  26
ATOM     26  O   UNL     1      51.294 -30.975 -28.137  1.00  0.00    -0.490 OA
ATOM     27  C   UNL     1      51.764 -32.318 -28.165  1.00  0.00     0.279 C 
ENDBRANCH   9  26
BRANCH  10  28
ATOM     28  O   UNL     1      52.388 -29.772 -30.483  1.00  0.00    -0.490 OA
ATOM     29  C   UNL     1      53.444 -29.087 -29.820  1.00  0.00     0.278 C 
ENDBRANCH  10  28
TORSDOF 7
ENDMDL
MODEL 5
REMARK VINA RESULT:    -5.571     14.415     15.052
REMARK INTER + INTRA:          -8.478
REMARK INTER:                  -7.811
REMARK INTRA:                  -0.667
REMARK UNBOUND:                -0.628
REMARK SMILES COc1ccc(-c2cc(=O)c3c(OC)c(OC)c(OC)c(OC)c3o2)cc1OC
REMARK SMILES IDX 7 1 8 2 9 3 10 4 11 5 24 6 25 7 21 8 18 9 15 10 12 11 6 12
REMARK SMILES IDX 3 13 27 14 4 15 26 16 5 17 2 18 1 19 28 20 29 21 22 22 23 23
REMARK SMILES IDX 13 24 14 25 19 26 20 27 16 28 17 29
REMARK H PARENT
REMARK Flexibility Score: inf
ROOT
ATOM      1  C   UNL     1      52.959 -40.021 -22.508  1.00  0.00     0.138 A 
ATOM      2  C   UNL     1      54.242 -39.480 -22.378  1.00  0.00     0.100 A 
ATOM      3  C   UNL     1      55.156 -39.638 -23.416  1.00  0.00     0.197 A 
ATOM      4  O   UNL     1      56.308 -39.144 -23.286  1.00  0.00    -0.289 OA
ATOM      5  C   UNL     1      54.778 -40.340 -24.583  1.00  0.00     0.115 A 
ATOM      6  C   UNL     1      53.472 -40.881 -24.636  1.00  0.00     0.188 A 
ATOM      7  O   UNL     1      52.643 -40.695 -23.610  1.00  0.00    -0.452 OA
ATOM      8  C   UNL     1      53.043 -41.606 -25.776  1.00  0.00     0.209 A 
ATOM      9  C   UNL     1      53.922 -41.756 -26.882  1.00  0.00     0.211 A 
ATOM     10  C   UNL     1      55.216 -41.176 -26.835  1.00  0.00     0.208 A 
ATOM     11  C   UNL     1      55.650 -40.515 -25.675  1.00  0.00     0.179 A 
ENDROOT
BRANCH   1  12
ATOM     12  C   UNL     1      51.940 -39.867 -21.439  1.00  0.00     0.021 A 
ATOM     13  C   UNL     1      49.951 -39.590 -19.453  1.00  0.00     0.160 A 
ATOM     14  C   UNL     1      49.934 -40.700 -20.311  1.00  0.00     0.161 A 
ATOM     15  C   UNL     1      50.960 -38.619 -19.595  1.00  0.00     0.051 A 
ATOM     16  C   UNL     1      50.929 -40.831 -21.298  1.00  0.00     0.062 A 
ATOM     17  C   UNL     1      51.939 -38.754 -20.581  1.00  0.00     0.016 A 
BRANCH  13  18
ATOM     18  O   UNL     1      48.949 -39.485 -18.476  1.00  0.00    -0.493 OA
ATOM     19  C   UNL     1      49.194 -39.326 -17.082  1.00  0.00     0.278 C 
ENDBRANCH  13  18
BRANCH  14  20
ATOM     20  O   UNL     1      48.912 -41.648 -20.152  1.00  0.00    -0.493 OA
ATOM     21  C   UNL     1      49.125 -43.053 -20.044  1.00  0.00     0.278 C 
ENDBRANCH  14  20
ENDBRANCH   1  12
BRANCH   8  22
ATOM     22  O   UNL     1      51.758 -42.177 -25.861  1.00  0.00    -0.490 OA
ATOM     23  C   UNL     1      51.341 -43.442 -25.362  1.00  0.00     0.278 C 
ENDBRANCH   8  22
BRANCH  11  24
ATOM     24  O   UNL     1      56.951 -39.997 -25.620  1.00  0.00    -0.492 OA
ATOM     25  C   UNL     1      57.340 -38.829 -26.336  1.00  0.00     0.278 C 
ENDBRANCH  11  24
BRANCH   9  26
ATOM     26  O   UNL     1      53.565 -42.472 -28.042  1.00  0.00    -0.490 OA
ATOM     27  C   UNL     1      53.681 -43.871 -28.275  1.00  0.00     0.279 C 
ENDBRANCH   9  26
BRANCH  10  28
ATOM     28  O   UNL     1      56.119 -41.203 -27.918  1.00  0.00    -0.490 OA
ATOM     29  C   UNL     1      57.034 -42.240 -28.254  1.00  0.00     0.278 C 
ENDBRANCH  10  28
TORSDOF 7
ENDMDL
MODEL 6
REMARK VINA RESULT:    -5.545     14.224     14.719
REMARK INTER + INTRA:          -8.441
REMARK INTER:                  -7.890
REMARK INTRA:                  -0.551
REMARK UNBOUND:                -0.628
REMARK SMILES COc1ccc(-c2cc(=O)c3c(OC)c(OC)c(OC)c(OC)c3o2)cc1OC
REMARK SMILES IDX 7 1 8 2 9 3 10 4 11 5 24 6 25 7 21 8 18 9 15 10 12 11 6 12
REMARK SMILES IDX 3 13 27 14 4 15 26 16 5 17 2 18 1 19 28 20 29 21 22 22 23 23
REMARK SMILES IDX 13 24 14 25 19 26 20 27 16 28 17 29
REMARK H PARENT
REMARK Flexibility Score: inf
ROOT
ATOM      1  C   UNL     1      53.496 -40.626 -23.995  1.00  0.00     0.138 A 
ATOM      2  C   UNL     1      54.514 -39.929 -23.335  1.00  0.00     0.100 A 
ATOM      3  C   UNL     1      55.657 -39.566 -24.039  1.00  0.00     0.197 A 
ATOM      4  O   UNL     1      56.565 -38.937 -23.432  1.00  0.00    -0.289 OA
ATOM      5  C   UNL     1      55.777 -39.905 -25.406  1.00  0.00     0.115 A 
ATOM      6  C   UNL     1      54.720 -40.631 -26.003  1.00  0.00     0.188 A 
ATOM      7  O   UNL     1      53.650 -40.949 -25.276  1.00  0.00    -0.452 OA
ATOM      8  C   UNL     1      54.793 -41.010 -27.367  1.00  0.00     0.209 A 
ATOM      9  C   UNL     1      55.919 -40.623 -28.142  1.00  0.00     0.211 A 
ATOM     10  C   UNL     1      56.956 -39.861 -27.544  1.00  0.00     0.208 A 
ATOM     11  C   UNL     1      56.901 -39.548 -26.177  1.00  0.00     0.179 A 
ENDROOT
BRANCH   1  12
ATOM     12  C   UNL     1      52.247 -41.023 -23.296  1.00  0.00     0.021 A 
ATOM     13  C   UNL     1      49.908 -41.780 -21.906  1.00  0.00     0.160 A 
ATOM     14  C   UNL     1      50.748 -40.790 -21.376  1.00  0.00     0.161 A 
ATOM     15  C   UNL     1      50.244 -42.393 -23.128  1.00  0.00     0.051 A 
ATOM     16  C   UNL     1      51.912 -40.417 -22.075  1.00  0.00     0.062 A 
ATOM     17  C   UNL     1      51.404 -42.022 -23.811  1.00  0.00     0.016 A 
BRANCH  13  18
ATOM     18  O   UNL     1      48.753 -42.131 -21.190  1.00  0.00    -0.493 OA
ATOM     19  C   UNL     1      48.628 -43.296 -20.382  1.00  0.00     0.278 C 
ENDBRANCH  13  18
BRANCH  14  20
ATOM     20  O   UNL     1      50.394 -40.202 -20.152  1.00  0.00    -0.493 OA
ATOM     21  C   UNL     1      50.873 -38.940 -19.693  1.00  0.00     0.278 C 
ENDBRANCH  14  20
ENDBRANCH   1  12
BRANCH   8  22
ATOM     22  O   UNL     1      53.771 -41.749 -27.994  1.00  0.00    -0.490 OA
ATOM     23  C   UNL     1      53.629 -43.164 -28.033  1.00  0.00     0.278 C 
ENDBRANCH   8  22
BRANCH  11  24
ATOM     24  O   UNL     1      57.959 -38.844 -25.586  1.00  0.00    -0.492 OA
ATOM     25  C   UNL     1      58.102 -37.433 -25.709  1.00  0.00     0.278 C 
ENDBRANCH  11  24
BRANCH   9  26
ATOM     26  O   UNL     1      56.060 -40.974 -29.500  1.00  0.00    -0.490 OA
ATOM     27  C   UNL     1      56.712 -42.116 -30.044  1.00  0.00     0.279 C 
ENDBRANCH   9  26
BRANCH  10  28
ATOM     28  O   UNL     1      58.065 -39.364 -28.259  1.00  0.00    -0.490 OA
ATOM     29  C   UNL     1      58.079 -38.299 -29.202  1.00  0.00     0.278 C 
ENDBRANCH  10  28
TORSDOF 7
ENDMDL
MODEL 7
REMARK VINA RESULT:    -5.476     13.358     14.667
REMARK INTER + INTRA:          -8.345
REMARK INTER:                  -7.746
REMARK INTRA:                  -0.599
REMARK UNBOUND:                -0.628
REMARK SMILES COc1ccc(-c2cc(=O)c3c(OC)c(OC)c(OC)c(OC)c3o2)cc1OC
REMARK SMILES IDX 7 1 8 2 9 3 10 4 11 5 24 6 25 7 21 8 18 9 15 10 12 11 6 12
REMARK SMILES IDX 3 13 27 14 4 15 26 16 5 17 2 18 1 19 28 20 29 21 22 22 23 23
REMARK SMILES IDX 13 24 14 25 19 26 20 27 16 28 17 29
REMARK H PARENT
REMARK Flexibility Score: inf
ROOT
ATOM      1  C   UNL     1      53.022 -40.481 -23.657  1.00  0.00     0.138 A 
ATOM      2  C   UNL     1      54.420 -40.463 -23.605  1.00  0.00     0.100 A 
ATOM      3  C   UNL     1      55.148 -40.724 -24.761  1.00  0.00     0.197 A 
ATOM      4  O   UNL     1      56.408 -40.703 -24.699  1.00  0.00    -0.289 OA
ATOM      5  C   UNL     1      54.470 -41.005 -25.969  1.00  0.00     0.115 A 
ATOM      6  C   UNL     1      53.056 -41.030 -25.943  1.00  0.00     0.188 A 
ATOM      7  O   UNL     1      52.416 -40.771 -24.805  1.00  0.00    -0.452 OA
ATOM      8  C   UNL     1      52.324 -41.319 -27.122  1.00  0.00     0.209 A 
ATOM      9  C   UNL     1      53.019 -41.547 -28.341  1.00  0.00     0.211 A 
ATOM     10  C   UNL     1      54.436 -41.480 -28.364  1.00  0.00     0.208 A 
ATOM     11  C   UNL     1      55.151 -41.256 -27.176  1.00  0.00     0.179 A 
ENDROOT
BRANCH   1  12
ATOM     12  C   UNL     1      52.197 -40.193 -22.457  1.00  0.00     0.021 A 
ATOM     13  C   UNL     1      50.686 -39.628 -20.138  1.00  0.00     0.160 A 
ATOM     14  C   UNL     1      51.705 -38.752 -20.541  1.00  0.00     0.161 A 
ATOM     15  C   UNL     1      50.431 -40.789 -20.893  1.00  0.00     0.051 A 
ATOM     16  C   UNL     1      52.453 -39.040 -21.699  1.00  0.00     0.062 A 
ATOM     17  C   UNL     1      51.183 -41.069 -22.036  1.00  0.00     0.016 A 
BRANCH  13  18
ATOM     18  O   UNL     1      49.954 -39.316 -18.982  1.00  0.00    -0.493 OA
ATOM     19  C   UNL     1      48.670 -38.701 -18.982  1.00  0.00     0.278 C 
ENDBRANCH  13  18
BRANCH  14  20
ATOM     20  O   UNL     1      51.943 -37.607 -19.765  1.00  0.00    -0.493 OA
ATOM     21  C   UNL     1      53.106 -37.402 -18.967  1.00  0.00     0.278 C 
ENDBRANCH  14  20
ENDBRANCH   1  12
BRANCH   8  22
ATOM     22  O   UNL     1      50.917 -41.373 -27.136  1.00  0.00    -0.490 OA
ATOM     23  C   UNL     1      50.094 -42.509 -26.895  1.00  0.00     0.278 C 
ENDBRANCH   8  22
BRANCH  11  24
ATOM     24  O   UNL     1      56.552 -41.250 -27.203  1.00  0.00    -0.492 OA
ATOM     25  C   UNL     1      57.301 -40.193 -27.793  1.00  0.00     0.278 C 
ENDBRANCH  11  24
BRANCH   9  26
ATOM     26  O   UNL     1      52.355 -41.849 -29.546  1.00  0.00    -0.490 OA
ATOM     27  C   UNL     1      51.861 -40.939 -30.522  1.00  0.00     0.279 C 
ENDBRANCH   9  26
BRANCH  10  28
ATOM     28  O   UNL     1      55.200 -41.610 -29.542  1.00  0.00    -0.490 OA
ATOM     29  C   UNL     1      55.623 -42.815 -30.170  1.00  0.00     0.278 C 
ENDBRANCH  10  28
TORSDOF 7
ENDMDL
MODEL 8
REMARK VINA RESULT:    -5.452     13.796     14.809
REMARK INTER + INTRA:          -8.311
REMARK INTER:                  -7.667
REMARK INTRA:                  -0.644
REMARK UNBOUND:                -0.628
REMARK SMILES COc1ccc(-c2cc(=O)c3c(OC)c(OC)c(OC)c(OC)c3o2)cc1OC
REMARK SMILES IDX 7 1 8 2 9 3 10 4 11 5 24 6 25 7 21 8 18 9 15 10 12 11 6 12
REMARK SMILES IDX 3 13 27 14 4 15 26 16 5 17 2 18 1 19 28 20 29 21 22 22 23 23
REMARK SMILES IDX 13 24 14 25 19 26 20 27 16 28 17 29
REMARK H PARENT
REMARK Flexibility Score: inf
ROOT
ATOM      1  C   UNL     1      52.420 -41.957 -24.960  1.00  0.00     0.138 A 
ATOM      2  C   UNL     1      52.363 -42.771 -26.096  1.00  0.00     0.100 A 
ATOM      3  C   UNL     1      53.310 -42.605 -27.102  1.00  0.00     0.197 A 
ATOM      4  O   UNL     1      53.247 -43.346 -28.119  1.00  0.00    -0.289 OA
ATOM      5  C   UNL     1      54.314 -41.619 -26.964  1.00  0.00     0.115 A 
ATOM      6  C   UNL     1      54.297 -40.815 -25.800  1.00  0.00     0.188 A 
ATOM      7  O   UNL     1      53.364 -41.024 -24.872  1.00  0.00    -0.452 OA
ATOM      8  C   UNL     1      55.271 -39.802 -25.615  1.00  0.00     0.209 A 
ATOM      9  C   UNL     1      56.288 -39.622 -26.591  1.00  0.00     0.211 A 
ATOM     10  C   UNL     1      56.320 -40.459 -27.736  1.00  0.00     0.208 A 
ATOM     11  C   UNL     1      55.312 -41.416 -27.937  1.00  0.00     0.179 A 
ENDROOT
BRANCH   1  12
ATOM     12  C   UNL     1      51.445 -42.104 -23.850  1.00  0.00     0.021 A 
ATOM     13  C   UNL     1      49.643 -42.372 -21.692  1.00  0.00     0.160 A 
ATOM     14  C   UNL     1      50.558 -41.309 -21.712  1.00  0.00     0.161 A 
ATOM     15  C   UNL     1      49.637 -43.302 -22.749  1.00  0.00     0.051 A 
ATOM     16  C   UNL     1      51.453 -41.182 -22.792  1.00  0.00     0.062 A 
ATOM     17  C   UNL     1      50.532 -43.172 -23.812  1.00  0.00     0.016 A 
BRANCH  13  18
ATOM     18  O   UNL     1      48.761 -42.475 -20.605  1.00  0.00    -0.493 OA
ATOM     19  C   UNL     1      48.856 -43.455 -19.578  1.00  0.00     0.278 C 
ENDBRANCH  13  18
BRANCH  14  20
ATOM     20  O   UNL     1      50.548 -40.402 -20.641  1.00  0.00    -0.493 OA
ATOM     21  C   UNL     1      51.364 -39.236 -20.564  1.00  0.00     0.278 C 
ENDBRANCH  14  20
ENDBRANCH   1  12
BRANCH   8  22
ATOM     22  O   UNL     1      55.278 -38.968 -24.480  1.00  0.00    -0.490 OA
ATOM     23  C   UNL     1      55.940 -39.202 -23.242  1.00  0.00     0.278 C 
ENDBRANCH   8  22
BRANCH  11  24
ATOM     24  O   UNL     1      55.322 -42.197 -29.101  1.00  0.00    -0.492 OA
ATOM     25  C   UNL     1      54.807 -41.726 -30.342  1.00  0.00     0.278 C 
ENDBRANCH  11  24
BRANCH   9  26
ATOM     26  O   UNL     1      57.281 -38.629 -26.476  1.00  0.00    -0.490 OA
ATOM     27  C   UNL     1      57.176 -37.247 -26.802  1.00  0.00     0.279 C 
ENDBRANCH   9  26
BRANCH  10  28
ATOM     28  O   UNL     1      57.339 -40.406 -28.709  1.00  0.00    -0.490 OA
ATOM     29  C   UNL     1      57.481 -39.459 -29.761  1.00  0.00     0.278 C 
ENDBRANCH  10  28
TORSDOF 7
ENDMDL
MODEL 9
REMARK VINA RESULT:    -5.447     14.264     14.859
REMARK INTER + INTRA:          -8.303
REMARK INTER:                  -7.660
REMARK INTRA:                  -0.643
REMARK UNBOUND:                -0.628
REMARK SMILES COc1ccc(-c2cc(=O)c3c(OC)c(OC)c(OC)c(OC)c3o2)cc1OC
REMARK SMILES IDX 7 1 8 2 9 3 10 4 11 5 24 6 25 7 21 8 18 9 15 10 12 11 6 12
REMARK SMILES IDX 3 13 27 14 4 15 26 16 5 17 2 18 1 19 28 20 29 21 22 22 23 23
REMARK SMILES IDX 13 24 14 25 19 26 20 27 16 28 17 29
REMARK H PARENT
REMARK Flexibility Score: inf
ROOT
ATOM      1  C   UNL     1      52.148 -40.389 -22.386  1.00  0.00     0.138 A 
ATOM      2  C   UNL     1      51.905 -41.130 -23.547  1.00  0.00     0.100 A 
ATOM      3  C   UNL     1      52.852 -41.130 -24.567  1.00  0.00     0.197 A 
ATOM      4  O   UNL     1      52.619 -41.804 -25.606  1.00  0.00    -0.289 OA
ATOM      5  C   UNL     1      54.042 -40.382 -24.418  1.00  0.00     0.115 A 
ATOM      6  C   UNL     1      54.211 -39.637 -23.228  1.00  0.00     0.188 A 
ATOM      7  O   UNL     1      53.268 -39.679 -22.288  1.00  0.00    -0.452 OA
ATOM      8  C   UNL     1      55.379 -38.858 -23.032  1.00  0.00     0.209 A 
ATOM      9  C   UNL     1      56.397 -38.860 -24.023  1.00  0.00     0.211 A 
ATOM     10  C   UNL     1      56.236 -39.643 -25.195  1.00  0.00     0.208 A 
ATOM     11  C   UNL     1      55.046 -40.358 -25.406  1.00  0.00     0.179 A 
ENDROOT
BRANCH   1  12
ATOM     12  C   UNL     1      51.180 -40.368 -21.261  1.00  0.00     0.021 A 
ATOM     13  C   UNL     1      49.286 -40.348 -19.165  1.00  0.00     0.160 A 
ATOM     14  C   UNL     1      49.309 -41.413 -20.078  1.00  0.00     0.161 A 
ATOM     15  C   UNL     1      50.207 -39.292 -19.307  1.00  0.00     0.051 A 
ATOM     16  C   UNL     1      50.257 -41.416 -21.119  1.00  0.00     0.062 A 
ATOM     17  C   UNL     1      51.138 -39.301 -20.348  1.00  0.00     0.016 A 
BRANCH  13  18
ATOM     18  O   UNL     1      48.333 -40.371 -18.135  1.00  0.00    -0.493 OA
ATOM     19  C   UNL     1      47.183 -39.533 -18.082  1.00  0.00     0.278 C 
ENDBRANCH  13  18
BRANCH  14  20
ATOM     20  O   UNL     1      48.375 -42.447 -19.917  1.00  0.00    -0.493 OA
ATOM     21  C   UNL     1      48.682 -43.741 -19.404  1.00  0.00     0.278 C 
ENDBRANCH  14  20
ENDBRANCH   1  12
BRANCH   8  22
ATOM     22  O   UNL     1      55.578 -38.086 -21.870  1.00  0.00    -0.490 OA
ATOM     23  C   UNL     1      55.148 -36.750 -21.638  1.00  0.00     0.278 C 
ENDBRANCH   8  22
BRANCH  11  24
ATOM     24  O   UNL     1      54.875 -41.081 -26.594  1.00  0.00    -0.492 OA
ATOM     25  C   UNL     1      55.581 -42.288 -26.863  1.00  0.00     0.278 C 
ENDBRANCH  11  24
BRANCH   9  26
ATOM     26  O   UNL     1      57.579 -38.102 -23.896  1.00  0.00    -0.490 OA
ATOM     27  C   UNL     1      57.798 -36.753 -24.293  1.00  0.00     0.279 C 
ENDBRANCH   9  26
BRANCH  10  28
ATOM     28  O   UNL     1      57.230 -39.769 -26.187  1.00  0.00    -0.490 OA
ATOM     29  C   UNL     1      57.447 -38.917 -27.305  1.00  0.00     0.278 C 
ENDBRANCH  10  28
TORSDOF 7
ENDMDL
