MODEL 1
REMARK VINA RESULT:    14.897      0.000      0.000
REMARK INTER + INTRA:          22.917
REMARK INTER:                  21.864
REMARK INTRA:                   1.053
REMARK UNBOUND:                 1.053
REMARK SMILES C=C1CC=CC(C)(C)CC=C(C)CCC1
REMARK SMILES IDX 2 1 1 2 15 3 14 4 13 5 11 6 12 7 10 8 3 10 4 11 5 12 6 13
REMARK SMILES IDX 7 14 8 15 9 16
REMARK H PARENT
REMARK Flexibility Score: 60.00
ROOT
ATOM      1  C   UNL     1     145.372 147.474 164.564  1.00  0.00    -0.074 C 
ATOM      2  C   UNL     1     145.351 146.930 165.792  1.00  0.00     0.008 C 
ENDROOT
BRANCH   1   3
ATOM      3  C   UNL     1     144.980 148.928 164.366  1.00  0.00     0.031 C 
BRANCH   3   4
ATOM      4  C   UNL     1     144.362 149.181 162.975  1.00  0.00     0.009 C 
BRANCH   4   5
ATOM      5  C   UNL     1     145.369 149.775 161.965  1.00  0.00     0.030 C 
BRANCH   5   6
ATOM      6  C   UNL     1     144.977 149.458 160.531  1.00  0.00    -0.077 C 
ATOM      7  C   UNL     1     144.226 150.516 159.763  1.00  0.00     0.039 C 
ATOM      8  C   UNL     1     145.277 148.303 159.884  1.00  0.00    -0.027 CG0
ATOM      9  G   UNL     1     146.022 147.104 160.444  1.00  0.00     0.000 G0
ENDBRANCH   5   6
ENDBRANCH   4   5
ENDBRANCH   3   4
ENDBRANCH   1   3
BRANCH   1  10
ATOM     10  C   UNL     1     145.810 146.635 163.384  1.00  0.00     0.057 C 
BRANCH  10  11
ATOM     11  C   UNL     1     144.641 145.842 162.856  1.00  0.00    -0.026 C 
ATOM     12  C   UNL     1     144.414 145.481 161.576  1.00  0.00    -0.024 C 
BRANCH  12  13
ATOM     13  C   UNL     1     145.280 145.747 160.338  1.00  0.00    -0.014 C 
ATOM     14  C   UNL     1     144.422 145.701 159.054  1.00  0.00     0.016 C 
ATOM     15  C   UNL     1     146.312 144.595 160.231  1.00  0.00     0.016 C 
BRANCH  13  16
ATOM     16  C   UNL     1     146.050 147.101 160.422  1.00  0.00     0.038 CG0
ATOM     17  G   UNL     1     145.253 148.283 159.899  1.00  0.00     0.000 G0
ENDBRANCH  13  16
ENDBRANCH  12  13
ENDBRANCH  10  11
ENDBRANCH   1  10
TORSDOF 0
ENDMDL
MODEL 2
REMARK VINA RESULT:    15.371      3.185      5.630
REMARK INTER + INTRA:          23.613
REMARK INTER:                  22.694
REMARK INTRA:                   0.918
REMARK UNBOUND:                 1.053
REMARK SMILES C=C1CC=CC(C)(C)CC=C(C)CCC1
REMARK SMILES IDX 2 1 1 2 15 3 14 4 13 5 11 6 12 7 10 8 3 10 4 11 5 12 6 13
REMARK SMILES IDX 7 14 8 15 9 16
REMARK H PARENT
REMARK Flexibility Score: 60.00
ROOT
ATOM      1  C   UNL     1     145.501 142.975 164.483  1.00  0.00    -0.074 C 
ATOM      2  C   UNL     1     145.673 143.485 165.714  1.00  0.00     0.008 C 
ENDROOT
BRANCH   1   3
ATOM      3  C   UNL     1     145.750 141.499 164.225  1.00  0.00     0.031 C 
BRANCH   3   4
ATOM      4  C   UNL     1     146.395 141.250 162.846  1.00  0.00     0.009 C 
BRANCH   4   5
ATOM      5  C   UNL     1     145.373 140.825 161.768  1.00  0.00     0.030 C 
BRANCH   5   6
ATOM      6  C   UNL     1     145.820 141.240 160.377  1.00  0.00    -0.077 C 
ATOM      7  C   UNL     1     146.670 140.268 159.597  1.00  0.00     0.039 C 
ATOM      8  C   UNL     1     145.489 142.411 159.774  1.00  0.00    -0.027 CG0
ATOM      9  G   UNL     1     144.649 143.535 160.354  1.00  0.00     0.000 G0
ENDBRANCH   5   6
ENDBRANCH   4   5
ENDBRANCH   3   4
ENDBRANCH   1   3
BRANCH   1  10
ATOM     10  C   UNL     1     145.034 143.877 163.363  1.00  0.00     0.057 C 
BRANCH  10  11
ATOM     11  C   UNL     1     146.201 144.656 162.810  1.00  0.00    -0.026 C 
ATOM     12  C   UNL     1     146.364 145.089 161.543  1.00  0.00    -0.024 C 
BRANCH  12  13
ATOM     13  C   UNL     1     145.412 144.939 160.350  1.00  0.00    -0.014 C 
ATOM     14  C   UNL     1     146.171 145.142 159.019  1.00  0.00     0.016 C 
ATOM     15  C   UNL     1     144.358 146.072 160.444  1.00  0.00     0.016 C 
BRANCH  13  16
ATOM     16  C   UNL     1     144.670 143.566 160.341  1.00  0.00     0.038 CG0
ATOM     17  G   UNL     1     145.508 142.430 159.784  1.00  0.00     0.000 G0
ENDBRANCH  13  16
ENDBRANCH  12  13
ENDBRANCH  10  11
ENDBRANCH   1  10
TORSDOF 0
ENDMDL
MODEL 3
REMARK VINA RESULT:    15.505      2.540      4.277
REMARK INTER + INTRA:          23.810
REMARK INTER:                  22.641
REMARK INTRA:                   1.169
REMARK UNBOUND:                 1.053
REMARK SMILES C=C1CC=CC(C)(C)CC=C(C)CCC1
REMARK SMILES IDX 2 1 1 2 15 3 14 4 13 5 11 6 12 7 10 8 3 10 4 11 5 12 6 13
REMARK SMILES IDX 7 14 8 15 9 16
REMARK H PARENT
REMARK Flexibility Score: 60.00
ROOT
ATOM      1  C   UNL     1     145.745 142.838 165.594  1.00  0.00    -0.074 C 
ATOM      2  C   UNL     1     145.933 141.512 165.499  1.00  0.00     0.008 C 
ENDROOT
BRANCH   1   3
ATOM      3  C   UNL     1     146.239 143.595 166.815  1.00  0.00     0.031 C 
BRANCH   3   4
ATOM      4  C   UNL     1     145.688 145.035 166.870  1.00  0.00     0.009 C 
BRANCH   4   5
ATOM      5  C   UNL     1     146.493 146.025 165.999  1.00  0.00     0.030 C 
BRANCH   5   6
ATOM      6  C   UNL     1     145.581 146.890 165.146  1.00  0.00    -0.077 C 
ATOM      7  C   UNL     1     144.643 147.831 165.860  1.00  0.00     0.039 C 
ATOM      8  C   UNL     1     145.567 146.897 163.788  1.00  0.00    -0.027 CG0
ATOM      9  G   UNL     1     146.415 146.047 162.858  1.00  0.00     0.000 G0
ENDBRANCH   5   6
ENDBRANCH   4   5
ENDBRANCH   3   4
ENDBRANCH   1   3
BRANCH   1  10
ATOM     10  C   UNL     1     145.059 143.576 164.466  1.00  0.00     0.057 C 
BRANCH  10  11
ATOM     11  C   UNL     1     145.522 143.030 163.139  1.00  0.00    -0.026 C 
ATOM     12  C   UNL     1     145.763 143.729 162.010  1.00  0.00    -0.024 C 
BRANCH  12  13
ATOM     13  C   UNL     1     145.661 145.242 161.781  1.00  0.00    -0.014 C 
ATOM     14  C   UNL     1     144.182 145.689 161.742  1.00  0.00     0.016 C 
ATOM     15  C   UNL     1     146.259 145.546 160.383  1.00  0.00     0.016 C 
BRANCH  13  16
ATOM     16  C   UNL     1     146.444 146.067 162.849  1.00  0.00     0.038 CG0
ATOM     17  G   UNL     1     145.547 146.905 163.742  1.00  0.00     0.000 G0
ENDBRANCH  13  16
ENDBRANCH  12  13
ENDBRANCH  10  11
ENDBRANCH   1  10
TORSDOF 0
ENDMDL
MODEL 4
REMARK VINA RESULT:    15.668      2.413      4.688
REMARK INTER + INTRA:          24.048
REMARK INTER:                  23.291
REMARK INTRA:                   0.756
REMARK UNBOUND:                 1.053
REMARK SMILES C=C1CC=CC(C)(C)CC=C(C)CCC1
REMARK SMILES IDX 2 1 1 2 15 3 14 4 13 5 11 6 12 7 10 8 3 10 4 11 5 12 6 13
REMARK SMILES IDX 7 14 8 15 9 16
REMARK H PARENT
REMARK Flexibility Score: 60.00
ROOT
ATOM      1  C   UNL     1     145.103 147.692 165.581  1.00  0.00    -0.074 C 
ATOM      2  C   UNL     1     144.804 148.993 165.727  1.00  0.00     0.008 C 
ENDROOT
BRANCH   1   3
ATOM      3  C   UNL     1     144.613 146.676 166.598  1.00  0.00     0.031 C 
BRANCH   3   4
ATOM      4  C   UNL     1     145.396 145.348 166.519  1.00  0.00     0.009 C 
BRANCH   4   5
ATOM      5  C   UNL     1     144.588 144.207 165.863  1.00  0.00     0.030 C 
BRANCH   5   6
ATOM      6  C   UNL     1     145.425 143.433 164.859  1.00  0.00    -0.077 C 
ATOM      7  C   UNL     1     146.366 142.384 165.395  1.00  0.00     0.039 C 
ATOM      8  C   UNL     1     145.369 143.600 163.512  1.00  0.00    -0.027 CG0
ATOM      9  G   UNL     1     144.503 144.584 162.746  1.00  0.00     0.000 G0
ENDBRANCH   5   6
ENDBRANCH   4   5
ENDBRANCH   3   4
ENDBRANCH   1   3
BRANCH   1  10
ATOM     10  C   UNL     1     145.912 147.244 164.384  1.00  0.00     0.057 C 
BRANCH  10  11
ATOM     11  C   UNL     1     145.252 147.715 163.113  1.00  0.00    -0.026 C 
ATOM     12  C   UNL     1     144.991 146.981 162.011  1.00  0.00    -0.024 C 
BRANCH  12  13
ATOM     13  C   UNL     1     145.260 145.491 161.767  1.00  0.00    -0.014 C 
ATOM     14  C   UNL     1     146.774 145.190 161.854  1.00  0.00     0.016 C 
ATOM     15  C   UNL     1     144.821 145.166 160.316  1.00  0.00     0.016 C 
BRANCH  13  16
ATOM     16  C   UNL     1     144.472 144.568 162.746  1.00  0.00     0.038 CG0
ATOM     17  G   UNL     1     145.357 143.597 163.507  1.00  0.00     0.000 G0
ENDBRANCH  13  16
ENDBRANCH  12  13
ENDBRANCH  10  11
ENDBRANCH   1  10
TORSDOF 0
ENDMDL
MODEL 5
REMARK VINA RESULT:    16.557      2.779      4.970
REMARK INTER + INTRA:          25.354
REMARK INTER:                  24.030
REMARK INTRA:                   1.324
REMARK UNBOUND:                 1.053
REMARK SMILES C=C1CC=CC(C)(C)CC=C(C)CCC1
REMARK SMILES IDX 2 1 1 2 15 3 14 4 13 5 11 6 12 7 10 8 3 10 4 11 5 12 6 13
REMARK SMILES IDX 7 14 8 15 9 16
REMARK H PARENT
REMARK Flexibility Score: 60.00
ROOT
ATOM      1  C   UNL     1     145.374 146.917 165.618  1.00  0.00    -0.074 C 
ATOM      2  C   UNL     1     144.941 148.148 165.938  1.00  0.00     0.008 C 
ENDROOT
BRANCH   1   3
ATOM      3  C   UNL     1     145.180 145.763 166.586  1.00  0.00     0.031 C 
BRANCH   3   4
ATOM      4  C   UNL     1     144.769 144.461 165.866  1.00  0.00     0.009 C 
BRANCH   4   5
ATOM      5  C   UNL     1     145.888 143.396 165.858  1.00  0.00     0.030 C 
BRANCH   5   6
ATOM      6  C   UNL     1     145.768 142.467 164.662  1.00  0.00    -0.077 C 
ATOM      7  C   UNL     1     145.365 141.038 164.925  1.00  0.00     0.039 C 
ATOM      8  C   UNL     1     145.972 142.836 163.371  1.00  0.00    -0.027 CG0
ATOM      9  G   UNL     1     146.377 144.208 162.863  1.00  0.00     0.000 G0
ENDBRANCH   5   6
ENDBRANCH   4   5
ENDBRANCH   3   4
ENDBRANCH   1   3
BRANCH   1  10
ATOM     10  C   UNL     1     146.034 146.686 164.277  1.00  0.00     0.057 C 
BRANCH  10  11
ATOM     11  C   UNL     1     145.039 146.911 163.168  1.00  0.00    -0.026 C 
ATOM     12  C   UNL     1     144.835 146.133 162.085  1.00  0.00    -0.024 C 
BRANCH  12  13
ATOM     13  C   UNL     1     145.527 144.817 161.708  1.00  0.00    -0.014 C 
ATOM     14  C   UNL     1     146.394 145.000 160.442  1.00  0.00     0.016 C 
ATOM     15  C   UNL     1     144.421 143.790 161.351  1.00  0.00     0.016 C 
BRANCH  13  16
ATOM     16  C   UNL     1     146.389 144.235 162.871  1.00  0.00     0.038 CG0
ATOM     17  G   UNL     1     145.945 142.856 163.322  1.00  0.00     0.000 G0
ENDBRANCH  13  16
ENDBRANCH  12  13
ENDBRANCH  10  11
ENDBRANCH   1  10
TORSDOF 0
ENDMDL
MODEL 6
REMARK VINA RESULT:    16.855      2.457      4.507
REMARK INTER + INTRA:          25.791
REMARK INTER:                  23.917
REMARK INTRA:                   1.874
REMARK UNBOUND:                 1.053
REMARK SMILES C=C1CC=CC(C)(C)CC=C(C)CCC1
REMARK SMILES IDX 2 1 1 2 15 3 14 4 13 5 11 6 12 7 10 8 3 10 4 11 5 12 6 13
REMARK SMILES IDX 7 14 8 15 9 16
REMARK H PARENT
REMARK Flexibility Score: 60.00
ROOT
ATOM      1  C   UNL     1     144.647 148.745 165.436  1.00  0.00    -0.074 C 
ATOM      2  C   UNL     1     144.694 149.968 165.990  1.00  0.00     0.008 C 
ENDROOT
BRANCH   1   3
ATOM      3  C   UNL     1     144.571 148.593 163.926  1.00  0.00     0.031 C 
BRANCH   3   4
ATOM      4  C   UNL     1     145.512 147.488 163.404  1.00  0.00     0.009 C 
BRANCH   4   5
ATOM      5  C   UNL     1     145.000 146.820 162.108  1.00  0.00     0.030 C 
BRANCH   5   6
ATOM      6  C   UNL     1     145.421 145.362 162.026  1.00  0.00    -0.077 C 
ATOM      7  C   UNL     1     146.247 144.939 160.837  1.00  0.00     0.039 C 
ATOM      8  C   UNL     1     145.129 144.418 162.958  1.00  0.00    -0.027 CG0
ATOM      9  G   UNL     1     144.322 144.605 164.231  1.00  0.00     0.000 G0
ENDBRANCH   5   6
ENDBRANCH   4   5
ENDBRANCH   3   4
ENDBRANCH   1   3
BRANCH   1  10
ATOM     10  C   UNL     1     144.693 147.522 166.324  1.00  0.00     0.057 C 
BRANCH  10  11
ATOM     11  C   UNL     1     145.987 146.779 166.107  1.00  0.00    -0.026 C 
ATOM     12  C   UNL     1     146.134 145.471 165.808  1.00  0.00    -0.024 C 
BRANCH  12  13
ATOM     13  C   UNL     1     145.048 144.412 165.584  1.00  0.00    -0.014 C 
ATOM     14  C   UNL     1     144.049 144.397 166.763  1.00  0.00     0.016 C 
ATOM     15  C   UNL     1     145.741 143.025 165.565  1.00  0.00     0.016 C 
BRANCH  13  16
ATOM     16  C   UNL     1     144.286 144.607 164.236  1.00  0.00     0.038 CG0
ATOM     17  G   UNL     1     145.156 144.384 163.012  1.00  0.00     0.000 G0
ENDBRANCH  13  16
ENDBRANCH  12  13
ENDBRANCH  10  11
ENDBRANCH   1  10
TORSDOF 0
ENDMDL
MODEL 7
REMARK VINA RESULT:    17.747      2.869      5.299
REMARK INTER + INTRA:          27.100
REMARK INTER:                  26.412
REMARK INTRA:                   0.687
REMARK UNBOUND:                 1.053
REMARK SMILES C=C1CC=CC(C)(C)CC=C(C)CCC1
REMARK SMILES IDX 2 1 1 2 15 3 14 4 13 5 11 6 12 7 10 8 3 10 4 11 5 12 6 13
REMARK SMILES IDX 7 14 8 15 9 16
REMARK H PARENT
REMARK Flexibility Score: 60.00
ROOT
ATOM      1  C   UNL     1     145.993 142.072 165.012  1.00  0.00    -0.074 C 
ATOM      2  C   UNL     1     145.392 140.891 165.235  1.00  0.00     0.008 C 
ENDROOT
BRANCH   1   3
ATOM      3  C   UNL     1     146.548 142.400 163.637  1.00  0.00     0.031 C 
BRANCH   3   4
ATOM      4  C   UNL     1     145.472 142.984 162.698  1.00  0.00     0.009 C 
BRANCH   4   5
ATOM      5  C   UNL     1     146.017 144.089 161.766  1.00  0.00     0.030 C 
BRANCH   5   6
ATOM      6  C   UNL     1     145.309 145.414 161.995  1.00  0.00    -0.077 C 
ATOM      7  C   UNL     1     144.320 145.867 160.951  1.00  0.00     0.039 C 
ATOM      8  C   UNL     1     145.483 146.207 163.084  1.00  0.00    -0.027 CG0
ATOM      9  G   UNL     1     146.413 145.962 164.258  1.00  0.00     0.000 G0
ENDBRANCH   5   6
ENDBRANCH   4   5
ENDBRANCH   3   4
ENDBRANCH   1   3
BRANCH   1  10
ATOM     10  C   UNL     1     146.093 143.080 166.135  1.00  0.00     0.057 C 
BRANCH  10  11
ATOM     11  C   UNL     1     144.817 143.879 166.222  1.00  0.00    -0.026 C 
ATOM     12  C   UNL     1     144.673 145.207 166.035  1.00  0.00    -0.024 C 
BRANCH  12  13
ATOM     13  C   UNL     1     145.742 146.243 165.662  1.00  0.00    -0.014 C 
ATOM     14  C   UNL     1     146.837 146.311 166.750  1.00  0.00     0.016 C 
ATOM     15  C   UNL     1     145.056 147.633 165.626  1.00  0.00     0.016 C 
BRANCH  13  16
ATOM     16  C   UNL     1     146.385 145.967 164.267  1.00  0.00     0.038 CG0
ATOM     17  G   UNL     1     145.448 146.242 163.105  1.00  0.00     0.000 G0
ENDBRANCH  13  16
ENDBRANCH  12  13
ENDBRANCH  10  11
ENDBRANCH   1  10
TORSDOF 0
ENDMDL
MODEL 8
REMARK VINA RESULT:    17.885      3.474      6.612
REMARK INTER + INTRA:          27.303
REMARK INTER:                  25.205
REMARK INTRA:                   2.097
REMARK UNBOUND:                 1.053
REMARK SMILES C=C1CC=CC(C)(C)CC=C(C)CCC1
REMARK SMILES IDX 2 1 1 2 15 3 14 4 13 5 11 6 12 7 10 8 3 10 4 11 5 12 6 13
REMARK SMILES IDX 7 14 8 15 9 16
REMARK H PARENT
REMARK Flexibility Score: 60.00
ROOT
ATOM      1  C   UNL     1     145.339 145.054 161.597  1.00  0.00    -0.074 C 
ATOM      2  C   UNL     1     145.267 145.492 160.329  1.00  0.00     0.008 C 
ENDROOT
BRANCH   1   3
ATOM      3  C   UNL     1     146.132 143.801 161.929  1.00  0.00     0.031 C 
BRANCH   3   4
ATOM      4  C   UNL     1     145.362 142.858 162.877  1.00  0.00     0.009 C 
BRANCH   4   5
ATOM      5  C   UNL     1     146.290 141.929 163.691  1.00  0.00     0.030 C 
BRANCH   5   6
ATOM      6  C   UNL     1     145.954 141.961 165.172  1.00  0.00    -0.077 C 
ATOM      7  C   UNL     1     146.358 140.770 166.005  1.00  0.00     0.039 C 
ATOM      8  C   UNL     1     145.341 142.994 165.805  1.00  0.00    -0.027 CG0
ATOM      9  G   UNL     1     144.849 144.288 165.183  1.00  0.00     0.000 G0
ENDBRANCH   5   6
ENDBRANCH   4   5
ENDBRANCH   3   4
ENDBRANCH   1   3
BRANCH   1  10
ATOM     10  C   UNL     1     144.644 145.829 162.693  1.00  0.00     0.057 C 
BRANCH  10  11
ATOM     11  C   UNL     1     145.649 146.657 163.453  1.00  0.00    -0.026 C 
ATOM     12  C   UNL     1     145.956 146.563 164.764  1.00  0.00    -0.024 C 
BRANCH  12  13
ATOM     13  C   UNL     1     145.400 145.590 165.811  1.00  0.00    -0.014 C 
ATOM     14  C   UNL     1     144.325 146.281 166.680  1.00  0.00     0.016 C 
ATOM     15  C   UNL     1     146.564 145.204 166.759  1.00  0.00     0.016 C 
BRANCH  13  16
ATOM     16  C   UNL     1     144.822 144.288 165.175  1.00  0.00     0.038 CG0
ATOM     17  G   UNL     1     145.348 143.017 165.818  1.00  0.00     0.000 G0
ENDBRANCH  13  16
ENDBRANCH  12  13
ENDBRANCH  10  11
ENDBRANCH   1  10
TORSDOF 0
ENDMDL
