MODEL 1
REMARK VINA RESULT:    -5.211      0.000      0.000
REMARK INTER + INTRA:          -5.696
REMARK INTER:                  -5.667
REMARK INTRA:                  -0.029
REMARK UNBOUND:                -0.029
REMARK SMILES O=C([O-])c1ccc(O)cc1
REMARK SMILES IDX 4 1 5 2 10 3 6 4 9 5 7 6 2 7 1 8 3 9 8 10
REMARK H PARENT 8 11
REMARK Flexibility Score: inf
ROOT
ATOM      1  C   UNL     1     -32.191  -3.798 -17.572  1.00  0.00    -0.003 A 
ATOM      2  C   UNL     1     -33.427  -3.957 -18.223  1.00  0.00     0.014 A 
ATOM      3  C   UNL     1     -31.207  -2.985 -18.165  1.00  0.00     0.014 A 
ATOM      4  C   UNL     1     -33.673  -3.316 -19.443  1.00  0.00     0.047 A 
ATOM      5  C   UNL     1     -31.457  -2.347 -19.384  1.00  0.00     0.047 A 
ATOM      6  C   UNL     1     -32.691  -2.512 -20.026  1.00  0.00     0.115 A 
ENDROOT
BRANCH   1   7
ATOM      7  C   UNL     1     -31.924  -4.471 -16.282  1.00  0.00     0.071 C 
ATOM      8  O   UNL     1     -32.614  -4.199 -15.263  1.00  0.00    -0.545 OA
ATOM      9  O   UNL     1     -30.909  -5.415 -16.176  1.00  0.00    -0.545 OA
ENDBRANCH   1   7
BRANCH   6  10
ATOM     10  O   UNL     1     -32.950  -1.880 -21.241  1.00  0.00    -0.508 OA
ATOM     11  H   UNL     1     -33.673  -1.176 -21.328  1.00  0.00     0.293 HD
ENDBRANCH   6  10
TORSDOF 2
ENDMDL
MODEL 2
REMARK VINA RESULT:    -5.147      0.133      1.842
REMARK INTER + INTRA:          -5.627
REMARK INTER:                  -5.598
REMARK INTRA:                  -0.029
REMARK UNBOUND:                -0.029
REMARK SMILES O=C([O-])c1ccc(O)cc1
REMARK SMILES IDX 4 1 5 2 10 3 6 4 9 5 7 6 2 7 1 8 3 9 8 10
REMARK H PARENT 8 11
REMARK Flexibility Score: inf
ROOT
ATOM      1  C   UNL     1     -32.229  -3.877 -17.556  1.00  0.00    -0.003 A 
ATOM      2  C   UNL     1     -31.273  -2.994 -18.091  1.00  0.00     0.014 A 
ATOM      3  C   UNL     1     -33.428  -4.091 -18.260  1.00  0.00     0.014 A 
ATOM      4  C   UNL     1     -31.514  -2.339 -19.304  1.00  0.00     0.047 A 
ATOM      5  C   UNL     1     -33.665  -3.435 -19.472  1.00  0.00     0.047 A 
ATOM      6  C   UNL     1     -32.708  -2.557 -19.997  1.00  0.00     0.115 A 
ENDROOT
BRANCH   1   7
ATOM      7  C   UNL     1     -31.980  -4.573 -16.274  1.00  0.00     0.071 C 
ATOM      8  O   UNL     1     -30.996  -5.349 -16.148  1.00  0.00    -0.545 OA
ATOM      9  O   UNL     1     -32.829  -4.379 -15.191  1.00  0.00    -0.545 OA
ENDBRANCH   1   7
BRANCH   6  10
ATOM     10  O   UNL     1     -32.935  -1.898 -21.203  1.00  0.00    -0.508 OA
ATOM     11  H   UNL     1     -32.613  -0.950 -21.358  1.00  0.00     0.293 HD
ENDBRANCH   6  10
TORSDOF 2
ENDMDL
MODEL 3
REMARK VINA RESULT:    -4.960      7.210      8.898
REMARK INTER + INTRA:          -5.423
REMARK INTER:                  -5.394
REMARK INTRA:                  -0.029
REMARK UNBOUND:                -0.029
REMARK SMILES O=C([O-])c1ccc(O)cc1
REMARK SMILES IDX 4 1 5 2 10 3 6 4 9 5 7 6 2 7 1 8 3 9 8 10
REMARK H PARENT 8 11
REMARK Flexibility Score: inf
ROOT
ATOM      1  C   UNL     1     -37.114  -7.028 -13.415  1.00  0.00    -0.003 A 
ATOM      2  C   UNL     1     -38.442  -6.571 -13.329  1.00  0.00     0.014 A 
ATOM      3  C   UNL     1     -36.870  -8.413 -13.444  1.00  0.00     0.014 A 
ATOM      4  C   UNL     1     -39.502  -7.483 -13.274  1.00  0.00     0.047 A 
ATOM      5  C   UNL     1     -37.932  -9.321 -13.389  1.00  0.00     0.047 A 
ATOM      6  C   UNL     1     -39.251  -8.857 -13.303  1.00  0.00     0.115 A 
ENDROOT
BRANCH   1   7
ATOM      7  C   UNL     1     -35.988  -6.070 -13.475  1.00  0.00     0.071 C 
ATOM      8  O   UNL     1     -35.208  -6.060 -14.465  1.00  0.00    -0.545 OA
ATOM      9  O   UNL     1     -35.775  -5.167 -12.440  1.00  0.00    -0.545 OA
ENDBRANCH   1   7
BRANCH   6  10
ATOM     10  O   UNL     1     -40.316  -9.753 -13.247  1.00  0.00    -0.508 OA
ATOM     11  H   UNL     1     -40.773 -10.087 -14.087  1.00  0.00     0.293 HD
ENDBRANCH   6  10
TORSDOF 2
ENDMDL
MODEL 4
REMARK VINA RESULT:    -4.959      7.241      8.883
REMARK INTER + INTRA:          -5.422
REMARK INTER:                  -5.395
REMARK INTRA:                  -0.028
REMARK UNBOUND:                -0.029
REMARK SMILES O=C([O-])c1ccc(O)cc1
REMARK SMILES IDX 4 1 5 2 10 3 6 4 9 5 7 6 2 7 1 8 3 9 8 10
REMARK H PARENT 8 11
REMARK Flexibility Score: inf
ROOT
ATOM      1  C   UNL     1     -37.122  -7.102 -13.422  1.00  0.00    -0.003 A 
ATOM      2  C   UNL     1     -38.446  -6.633 -13.349  1.00  0.00     0.014 A 
ATOM      3  C   UNL     1     -36.891  -8.489 -13.441  1.00  0.00     0.014 A 
ATOM      4  C   UNL     1     -39.515  -7.534 -13.294  1.00  0.00     0.047 A 
ATOM      5  C   UNL     1     -37.962  -9.387 -13.387  1.00  0.00     0.047 A 
ATOM      6  C   UNL     1     -39.277  -8.911 -13.312  1.00  0.00     0.115 A 
ENDROOT
BRANCH   1   7
ATOM      7  C   UNL     1     -35.987  -6.155 -13.481  1.00  0.00     0.071 C 
ATOM      8  O   UNL     1     -35.669  -5.473 -12.470  1.00  0.00    -0.545 OA
ATOM      9  O   UNL     1     -35.255  -6.005 -14.653  1.00  0.00    -0.545 OA
ENDBRANCH   1   7
BRANCH   6  10
ATOM     10  O   UNL     1     -40.351  -9.796 -13.257  1.00  0.00    -0.508 OA
ATOM     11  H   UNL     1     -41.297  -9.494 -13.454  1.00  0.00     0.293 HD
ENDBRANCH   6  10
TORSDOF 2
ENDMDL
MODEL 5
REMARK VINA RESULT:    -4.935      7.152      8.891
REMARK INTER + INTRA:          -5.396
REMARK INTER:                  -5.367
REMARK INTRA:                  -0.029
REMARK UNBOUND:                -0.029
REMARK SMILES O=C([O-])c1ccc(O)cc1
REMARK SMILES IDX 4 1 5 2 10 3 6 4 9 5 7 6 2 7 1 8 3 9 8 10
REMARK H PARENT 8 11
REMARK Flexibility Score: inf
ROOT
ATOM      1  C   UNL     1     -37.068  -6.990 -13.412  1.00  0.00    -0.003 A 
ATOM      2  C   UNL     1     -36.778  -8.366 -13.464  1.00  0.00     0.014 A 
ATOM      3  C   UNL     1     -38.410  -6.579 -13.327  1.00  0.00     0.014 A 
ATOM      4  C   UNL     1     -37.811  -9.309 -13.432  1.00  0.00     0.047 A 
ATOM      5  C   UNL     1     -39.440  -7.525 -13.295  1.00  0.00     0.047 A 
ATOM      6  C   UNL     1     -39.143  -8.892 -13.348  1.00  0.00     0.115 A 
ENDROOT
BRANCH   1   7
ATOM      7  C   UNL     1     -35.980  -5.988 -13.445  1.00  0.00     0.071 C 
ATOM      8  O   UNL     1     -35.165  -5.958 -14.405  1.00  0.00    -0.545 OA
ATOM      9  O   UNL     1     -35.843  -5.063 -12.416  1.00  0.00    -0.545 OA
ENDBRANCH   1   7
BRANCH   6  10
ATOM     10  O   UNL     1     -40.161  -9.842 -13.317  1.00  0.00    -0.508 OA
ATOM     11  H   UNL     1     -41.055  -9.647 -12.883  1.00  0.00     0.293 HD
ENDBRANCH   6  10
TORSDOF 2
ENDMDL
MODEL 6
REMARK VINA RESULT:    -4.923      8.141      9.548
REMARK INTER + INTRA:          -5.384
REMARK INTER:                  -5.352
REMARK INTRA:                  -0.032
REMARK UNBOUND:                -0.029
REMARK SMILES O=C([O-])c1ccc(O)cc1
REMARK SMILES IDX 4 1 5 2 10 3 6 4 9 5 7 6 2 7 1 8 3 9 8 10
REMARK H PARENT 8 11
REMARK Flexibility Score: inf
ROOT
ATOM      1  C   UNL     1     -38.083  -7.730 -13.361  1.00  0.00    -0.003 A 
ATOM      2  C   UNL     1     -38.794  -8.943 -13.398  1.00  0.00     0.014 A 
ATOM      3  C   UNL     1     -38.800  -6.520 -13.325  1.00  0.00     0.014 A 
ATOM      4  C   UNL     1     -40.193  -8.945 -13.400  1.00  0.00     0.047 A 
ATOM      5  C   UNL     1     -40.199  -6.526 -13.326  1.00  0.00     0.047 A 
ATOM      6  C   UNL     1     -40.898  -7.739 -13.365  1.00  0.00     0.115 A 
ENDROOT
BRANCH   1   7
ATOM      7  C   UNL     1     -36.603  -7.721 -13.358  1.00  0.00     0.071 C 
ATOM      8  O   UNL     1     -35.959  -8.572 -12.687  1.00  0.00    -0.545 OA
ATOM      9  O   UNL     1     -35.903  -6.775 -14.098  1.00  0.00    -0.545 OA
ENDBRANCH   1   7
BRANCH   6  10
ATOM     10  O   UNL     1     -42.291  -7.755 -13.367  1.00  0.00    -0.508 OA
ATOM     11  H   UNL     1     -42.826  -7.228 -14.047  1.00  0.00     0.293 HD
ENDBRANCH   6  10
TORSDOF 2
ENDMDL
MODEL 7
REMARK VINA RESULT:    -4.780      7.600      9.300
REMARK INTER + INTRA:          -5.228
REMARK INTER:                  -5.196
REMARK INTRA:                  -0.032
REMARK UNBOUND:                -0.029
REMARK SMILES O=C([O-])c1ccc(O)cc1
REMARK SMILES IDX 4 1 5 2 10 3 6 4 9 5 7 6 2 7 1 8 3 9 8 10
REMARK H PARENT 8 11
REMARK Flexibility Score: inf
ROOT
ATOM      1  C   UNL     1     -37.896  -6.596 -13.358  1.00  0.00    -0.003 A 
ATOM      2  C   UNL     1     -37.331  -7.853 -13.642  1.00  0.00     0.014 A 
ATOM      3  C   UNL     1     -39.260  -6.521 -13.023  1.00  0.00     0.014 A 
ATOM      4  C   UNL     1     -38.116  -9.010 -13.592  1.00  0.00     0.047 A 
ATOM      5  C   UNL     1     -40.041  -7.680 -12.974  1.00  0.00     0.047 A 
ATOM      6  C   UNL     1     -39.471  -8.927 -13.259  1.00  0.00     0.115 A 
ENDROOT
BRANCH   1   7
ATOM      7  C   UNL     1     -37.071  -5.368 -13.408  1.00  0.00     0.071 C 
ATOM      8  O   UNL     1     -35.876  -5.383 -13.008  1.00  0.00    -0.545 OA
ATOM      9  O   UNL     1     -37.603  -4.181 -13.898  1.00  0.00    -0.545 OA
ENDBRANCH   1   7
BRANCH   6  10
ATOM     10  O   UNL     1     -40.241 -10.087 -13.214  1.00  0.00    -0.508 OA
ATOM     11  H   UNL     1     -40.303 -10.649 -12.373  1.00  0.00     0.293 HD
ENDBRANCH   6  10
TORSDOF 2
ENDMDL
MODEL 8
REMARK VINA RESULT:    -4.669      6.422      8.259
REMARK INTER + INTRA:          -5.107
REMARK INTER:                  -5.079
REMARK INTRA:                  -0.028
REMARK UNBOUND:                -0.029
REMARK SMILES O=C([O-])c1ccc(O)cc1
REMARK SMILES IDX 4 1 5 2 10 3 6 4 9 5 7 6 2 7 1 8 3 9 8 10
REMARK H PARENT 8 11
REMARK Flexibility Score: inf
ROOT
ATOM      1  C   UNL     1     -36.984  -7.047 -15.250  1.00  0.00    -0.003 A 
ATOM      2  C   UNL     1     -38.201  -7.678 -15.569  1.00  0.00     0.014 A 
ATOM      3  C   UNL     1     -36.286  -7.454 -14.099  1.00  0.00     0.014 A 
ATOM      4  C   UNL     1     -38.707  -8.694 -14.751  1.00  0.00     0.047 A 
ATOM      5  C   UNL     1     -36.795  -8.471 -13.284  1.00  0.00     0.047 A 
ATOM      6  C   UNL     1     -38.007  -9.093 -13.608  1.00  0.00     0.115 A 
ENDROOT
BRANCH   1   7
ATOM      7  C   UNL     1     -36.443  -5.972 -16.111  1.00  0.00     0.071 C 
ATOM      8  O   UNL     1     -35.449  -6.187 -16.855  1.00  0.00    -0.545 OA
ATOM      9  O   UNL     1     -37.025  -4.710 -16.112  1.00  0.00    -0.545 OA
ENDBRANCH   1   7
BRANCH   6  10
ATOM     10  O   UNL     1     -38.523 -10.106 -12.804  1.00  0.00    -0.508 OA
ATOM     11  H   UNL     1     -38.770  -9.940 -11.835  1.00  0.00     0.293 HD
ENDBRANCH   6  10
TORSDOF 2
ENDMDL
MODEL 9
REMARK VINA RESULT:    -4.513      7.149      8.286
REMARK INTER + INTRA:          -4.937
REMARK INTER:                  -4.910
REMARK INTRA:                  -0.027
REMARK UNBOUND:                -0.029
REMARK SMILES O=C([O-])c1ccc(O)cc1
REMARK SMILES IDX 4 1 5 2 10 3 6 4 9 5 7 6 2 7 1 8 3 9 8 10
REMARK H PARENT 8 11
REMARK Flexibility Score: inf
ROOT
ATOM      1  C   UNL     1     -37.814  -7.274 -13.720  1.00  0.00    -0.003 A 
ATOM      2  C   UNL     1     -38.375  -6.014 -13.446  1.00  0.00     0.014 A 
ATOM      3  C   UNL     1     -36.438  -7.470 -13.502  1.00  0.00     0.014 A 
ATOM      4  C   UNL     1     -37.575  -4.972 -12.965  1.00  0.00     0.047 A 
ATOM      5  C   UNL     1     -35.641  -6.426 -13.021  1.00  0.00     0.047 A 
ATOM      6  C   UNL     1     -36.208  -5.174 -12.752  1.00  0.00     0.115 A 
ENDROOT
BRANCH   1   7
ATOM      7  C   UNL     1     -38.654  -8.381 -14.227  1.00  0.00     0.071 C 
ATOM      8  O   UNL     1     -39.361  -9.063 -13.437  1.00  0.00    -0.545 OA
ATOM      9  O   UNL     1     -38.677  -8.684 -15.584  1.00  0.00    -0.545 OA
ENDBRANCH   1   7
BRANCH   6  10
ATOM     10  O   UNL     1     -35.424  -4.127 -12.273  1.00  0.00    -0.508 OA
ATOM     11  H   UNL     1     -35.587  -3.169 -12.558  1.00  0.00     0.293 HD
ENDBRANCH   6  10
TORSDOF 2
ENDMDL
