MODEL 1
REMARK VINA RESULT:    -5.317      0.000      0.000
REMARK INTER + INTRA:          -6.131
REMARK INTER:                  -5.938
REMARK INTRA:                  -0.192
REMARK UNBOUND:                -0.192
REMARK SMILES CC(C)c1ccc(C=O)cc1
REMARK SMILES IDX 4 1 5 2 6 3 7 4 10 5 11 6 2 7 1 8 3 9 8 10 9 11
REMARK H PARENT
REMARK Flexibility Score: inf
ROOT
ATOM      1  C   UNL     1      60.139 153.058   2.068  1.00  0.00    -0.045 A 
ATOM      2  C   UNL     1      59.467 153.244   3.290  1.00  0.00     0.005 A 
ATOM      3  C   UNL     1      59.951 152.659   4.463  1.00  0.00     0.012 A 
ATOM      4  C   UNL     1      61.117 151.876   4.437  1.00  0.00     0.014 A 
ATOM      5  C   UNL     1      61.789 151.689   3.221  1.00  0.00     0.012 A 
ATOM      6  C   UNL     1      61.306 152.274   2.047  1.00  0.00     0.005 A 
ENDROOT
BRANCH   1   7
ATOM      7  C   UNL     1      59.625 153.686   0.786  1.00  0.00     0.013 C 
ATOM      8  C   UNL     1      58.632 154.816   1.084  1.00  0.00     0.012 C 
ATOM      9  C   UNL     1      60.783 154.185  -0.087  1.00  0.00     0.012 C 
ENDBRANCH   1   7
BRANCH   4  10
ATOM     10  C   UNL     1      61.643 151.251   5.664  1.00  0.00     0.260 C 
ATOM     11  O   UNL     1      62.853 151.380   5.994  1.00  0.00    -0.298 OA
ENDBRANCH   4  10
TORSDOF 2
ENDMDL
MODEL 2
REMARK VINA RESULT:    -5.293      5.749      6.308
REMARK INTER + INTRA:          -6.104
REMARK INTER:                  -5.913
REMARK INTRA:                  -0.191
REMARK UNBOUND:                -0.192
REMARK SMILES CC(C)c1ccc(C=O)cc1
REMARK SMILES IDX 4 1 5 2 6 3 7 4 10 5 11 6 2 7 1 8 3 9 8 10 9 11
REMARK H PARENT
REMARK Flexibility Score: inf
ROOT
ATOM      1  C   UNL     1      63.627 149.261   5.776  1.00  0.00    -0.045 A 
ATOM      2  C   UNL     1      63.095 148.051   5.295  1.00  0.00     0.005 A 
ATOM      3  C   UNL     1      61.869 147.576   5.771  1.00  0.00     0.012 A 
ATOM      4  C   UNL     1      61.152 148.303   6.735  1.00  0.00     0.014 A 
ATOM      5  C   UNL     1      61.680 149.510   7.215  1.00  0.00     0.012 A 
ATOM      6  C   UNL     1      62.905 149.986   6.740  1.00  0.00     0.005 A 
ENDROOT
BRANCH   1   7
ATOM      7  C   UNL     1      64.956 149.789   5.269  1.00  0.00     0.013 C 
ATOM      8  C   UNL     1      65.257 149.269   3.858  1.00  0.00     0.012 C 
ATOM      9  C   UNL     1      64.995 151.321   5.312  1.00  0.00     0.012 C 
ENDBRANCH   1   7
BRANCH   4  10
ATOM     10  C   UNL     1      59.857 147.819   7.248  1.00  0.00     0.260 C 
ATOM     11  O   UNL     1      59.760 146.697   7.815  1.00  0.00    -0.298 OA
ENDBRANCH   4  10
TORSDOF 2
ENDMDL
MODEL 3
REMARK VINA RESULT:    -5.258      2.709      4.893
REMARK INTER + INTRA:          -6.066
REMARK INTER:                  -5.882
REMARK INTRA:                  -0.184
REMARK UNBOUND:                -0.192
REMARK SMILES CC(C)c1ccc(C=O)cc1
REMARK SMILES IDX 4 1 5 2 6 3 7 4 10 5 11 6 2 7 1 8 3 9 8 10 9 11
REMARK H PARENT
REMARK Flexibility Score: inf
ROOT
ATOM      1  C   UNL     1      63.035 151.534   4.503  1.00  0.00    -0.045 A 
ATOM      2  C   UNL     1      61.910 151.829   5.293  1.00  0.00     0.005 A 
ATOM      3  C   UNL     1      60.706 152.216   4.696  1.00  0.00     0.012 A 
ATOM      4  C   UNL     1      60.606 152.314   3.299  1.00  0.00     0.014 A 
ATOM      5  C   UNL     1      61.727 152.019   2.509  1.00  0.00     0.012 A 
ATOM      6  C   UNL     1      62.930 151.633   3.105  1.00  0.00     0.005 A 
ENDROOT
BRANCH   1   7
ATOM      7  C   UNL     1      64.349 151.113   5.137  1.00  0.00     0.013 C 
ATOM      8  C   UNL     1      64.997 149.964   4.355  1.00  0.00     0.012 C 
ATOM      9  C   UNL     1      65.307 152.304   5.264  1.00  0.00     0.012 C 
ENDBRANCH   1   7
BRANCH   4  10
ATOM     10  C   UNL     1      59.345 152.720   2.651  1.00  0.00     0.260 C 
ATOM     11  O   UNL     1      59.341 153.513   1.672  1.00  0.00    -0.298 OA
ENDBRANCH   4  10
TORSDOF 2
ENDMDL
MODEL 4
REMARK VINA RESULT:    -5.224      1.855      2.762
REMARK INTER + INTRA:          -6.027
REMARK INTER:                  -5.837
REMARK INTRA:                  -0.190
REMARK UNBOUND:                -0.192
REMARK SMILES CC(C)c1ccc(C=O)cc1
REMARK SMILES IDX 4 1 5 2 6 3 7 4 10 5 11 6 2 7 1 8 3 9 8 10 9 11
REMARK H PARENT
REMARK Flexibility Score: inf
ROOT
ATOM      1  C   UNL     1      61.499 151.837   3.454  1.00  0.00    -0.045 A 
ATOM      2  C   UNL     1      61.401 151.352   4.771  1.00  0.00     0.005 A 
ATOM      3  C   UNL     1      62.539 150.902   5.448  1.00  0.00     0.012 A 
ATOM      4  C   UNL     1      63.795 150.929   4.821  1.00  0.00     0.014 A 
ATOM      5  C   UNL     1      63.895 151.414   3.509  1.00  0.00     0.012 A 
ATOM      6  C   UNL     1      62.759 151.863   2.831  1.00  0.00     0.005 A 
ENDROOT
BRANCH   1   7
ATOM      7  C   UNL     1      60.273 152.328   2.707  1.00  0.00     0.013 C 
ATOM      8  C   UNL     1      59.343 153.122   3.632  1.00  0.00     0.012 C 
ATOM      9  C   UNL     1      60.670 153.157   1.479  1.00  0.00     0.012 C 
ENDBRANCH   1   7
BRANCH   4  10
ATOM     10  C   UNL     1      65.006 150.460   5.519  1.00  0.00     0.260 C 
ATOM     11  O   UNL     1      65.423 149.279   5.378  1.00  0.00    -0.298 OA
ENDBRANCH   4  10
TORSDOF 2
ENDMDL
MODEL 5
REMARK VINA RESULT:    -5.142      2.497      4.878
REMARK INTER + INTRA:          -5.935
REMARK INTER:                  -5.741
REMARK INTRA:                  -0.194
REMARK UNBOUND:                -0.192
REMARK SMILES CC(C)c1ccc(C=O)cc1
REMARK SMILES IDX 4 1 5 2 6 3 7 4 10 5 11 6 2 7 1 8 3 9 8 10 9 11
REMARK H PARENT
REMARK Flexibility Score: inf
ROOT
ATOM      1  C   UNL     1      61.784 151.708   3.744  1.00  0.00    -0.045 A 
ATOM      2  C   UNL     1      61.851 151.990   2.367  1.00  0.00     0.005 A 
ATOM      3  C   UNL     1      60.835 152.719   1.742  1.00  0.00     0.012 A 
ATOM      4  C   UNL     1      59.735 153.181   2.482  1.00  0.00     0.014 A 
ATOM      5  C   UNL     1      59.666 152.902   3.854  1.00  0.00     0.012 A 
ATOM      6  C   UNL     1      60.680 152.173   4.480  1.00  0.00     0.005 A 
ENDROOT
BRANCH   1   7
ATOM      7  C   UNL     1      62.878 150.917   4.436  1.00  0.00     0.013 C 
ATOM      8  C   UNL     1      64.258 151.262   3.863  1.00  0.00     0.012 C 
ATOM      9  C   UNL     1      62.842 151.135   5.954  1.00  0.00     0.012 C 
ENDBRANCH   1   7
BRANCH   4  10
ATOM     10  C   UNL     1      58.654 153.952   1.840  1.00  0.00     0.260 C 
ATOM     11  O   UNL     1      58.860 154.605   0.782  1.00  0.00    -0.298 OA
ENDBRANCH   4  10
TORSDOF 2
ENDMDL
MODEL 6
REMARK VINA RESULT:    -5.013      4.366      5.904
REMARK INTER + INTRA:          -5.792
REMARK INTER:                  -5.607
REMARK INTRA:                  -0.184
REMARK UNBOUND:                -0.192
REMARK SMILES CC(C)c1ccc(C=O)cc1
REMARK SMILES IDX 4 1 5 2 6 3 7 4 10 5 11 6 2 7 1 8 3 9 8 10 9 11
REMARK H PARENT
REMARK Flexibility Score: inf
ROOT
ATOM      1  C   UNL     1      62.483 149.267   5.475  1.00  0.00    -0.045 A 
ATOM      2  C   UNL     1      62.099 150.620   5.440  1.00  0.00     0.005 A 
ATOM      3  C   UNL     1      63.059 151.627   5.299  1.00  0.00     0.012 A 
ATOM      4  C   UNL     1      64.420 151.298   5.189  1.00  0.00     0.014 A 
ATOM      5  C   UNL     1      64.805 149.950   5.223  1.00  0.00     0.012 A 
ATOM      6  C   UNL     1      63.846 148.943   5.364  1.00  0.00     0.005 A 
ENDROOT
BRANCH   1   7
ATOM      7  C   UNL     1      61.452 148.164   5.628  1.00  0.00     0.013 C 
ATOM      8  C   UNL     1      62.052 146.795   5.288  1.00  0.00     0.012 C 
ATOM      9  C   UNL     1      60.846 148.166   7.037  1.00  0.00     0.012 C 
ENDBRANCH   1   7
BRANCH   4  10
ATOM     10  C   UNL     1      65.447 152.346   5.039  1.00  0.00     0.260 C 
ATOM     11  O   UNL     1      65.844 153.016   6.029  1.00  0.00    -0.298 OA
ENDBRANCH   4  10
TORSDOF 2
ENDMDL
MODEL 7
REMARK VINA RESULT:    -4.969      4.674      6.107
REMARK INTER + INTRA:          -5.743
REMARK INTER:                  -5.555
REMARK INTRA:                  -0.188
REMARK UNBOUND:                -0.192
REMARK SMILES CC(C)c1ccc(C=O)cc1
REMARK SMILES IDX 4 1 5 2 6 3 7 4 10 5 11 6 2 7 1 8 3 9 8 10 9 11
REMARK H PARENT
REMARK Flexibility Score: inf
ROOT
ATOM      1  C   UNL     1      62.849 149.095   5.905  1.00  0.00    -0.045 A 
ATOM      2  C   UNL     1      64.217 148.927   5.625  1.00  0.00     0.005 A 
ATOM      3  C   UNL     1      65.026 150.035   5.352  1.00  0.00     0.012 A 
ATOM      4  C   UNL     1      64.482 151.329   5.354  1.00  0.00     0.014 A 
ATOM      5  C   UNL     1      63.118 151.498   5.634  1.00  0.00     0.012 A 
ATOM      6  C   UNL     1      62.308 150.392   5.907  1.00  0.00     0.005 A 
ENDROOT
BRANCH   1   7
ATOM      7  C   UNL     1      61.958 147.903   6.203  1.00  0.00     0.013 C 
ATOM      8  C   UNL     1      60.501 148.336   6.399  1.00  0.00     0.012 C 
ATOM      9  C   UNL     1      62.075 146.838   5.106  1.00  0.00     0.012 C 
ENDBRANCH   1   7
BRANCH   4  10
ATOM     10  C   UNL     1      65.319 152.509   5.069  1.00  0.00     0.260 C 
ATOM     11  O   UNL     1      66.012 153.049   5.972  1.00  0.00    -0.298 OA
ENDBRANCH   4  10
TORSDOF 2
ENDMDL
MODEL 8
REMARK VINA RESULT:    -4.737     19.925     21.077
REMARK INTER + INTRA:          -5.483
REMARK INTER:                  -5.287
REMARK INTRA:                  -0.196
REMARK UNBOUND:                -0.192
REMARK SMILES CC(C)c1ccc(C=O)cc1
REMARK SMILES IDX 4 1 5 2 6 3 7 4 10 5 11 6 2 7 1 8 3 9 8 10 9 11
REMARK H PARENT
REMARK Flexibility Score: inf
ROOT
ATOM      1  C   UNL     1      71.753 138.390  -8.520  1.00  0.00    -0.045 A 
ATOM      2  C   UNL     1      72.100 137.302  -7.698  1.00  0.00     0.005 A 
ATOM      3  C   UNL     1      71.301 136.956  -6.604  1.00  0.00     0.012 A 
ATOM      4  C   UNL     1      70.141 137.691  -6.311  1.00  0.00     0.014 A 
ATOM      5  C   UNL     1      69.793 138.776  -7.130  1.00  0.00     0.012 A 
ATOM      6  C   UNL     1      70.591 139.122  -8.224  1.00  0.00     0.005 A 
ENDROOT
BRANCH   1   7
ATOM      7  C   UNL     1      72.611 138.777  -9.710  1.00  0.00     0.013 C 
ATOM      8  C   UNL     1      73.391 137.571 -10.246  1.00  0.00     0.012 C 
ATOM      9  C   UNL     1      71.764 139.421 -10.815  1.00  0.00     0.012 C 
ENDBRANCH   1   7
BRANCH   4  10
ATOM     10  C   UNL     1      69.286 137.341  -5.163  1.00  0.00     0.260 C 
ATOM     11  O   UNL     1      68.315 138.071  -4.827  1.00  0.00    -0.298 OA
ENDBRANCH   4  10
TORSDOF 2
ENDMDL
MODEL 9
REMARK VINA RESULT:    -4.707      4.404      5.297
REMARK INTER + INTRA:          -5.450
REMARK INTER:                  -5.258
REMARK INTRA:                  -0.192
REMARK UNBOUND:                -0.192
REMARK SMILES CC(C)c1ccc(C=O)cc1
REMARK SMILES IDX 4 1 5 2 6 3 7 4 10 5 11 6 2 7 1 8 3 9 8 10 9 11
REMARK H PARENT
REMARK Flexibility Score: inf
ROOT
ATOM      1  C   UNL     1      63.336 150.907   5.399  1.00  0.00    -0.045 A 
ATOM      2  C   UNL     1      63.318 149.716   6.147  1.00  0.00     0.005 A 
ATOM      3  C   UNL     1      62.488 149.591   7.265  1.00  0.00     0.012 A 
ATOM      4  C   UNL     1      61.660 150.656   7.656  1.00  0.00     0.014 A 
ATOM      5  C   UNL     1      61.675 151.844   6.911  1.00  0.00     0.012 A 
ATOM      6  C   UNL     1      62.505 151.970   5.794  1.00  0.00     0.005 A 
ENDROOT
BRANCH   1   7
ATOM      7  C   UNL     1      64.232 151.057   4.184  1.00  0.00     0.013 C 
ATOM      8  C   UNL     1      65.119 152.302   4.300  1.00  0.00     0.012 C 
ATOM      9  C   UNL     1      65.077 149.796   3.963  1.00  0.00     0.012 C 
ENDBRANCH   1   7
BRANCH   4  10
ATOM     10  C   UNL     1      60.777 150.543   8.831  1.00  0.00     0.260 C 
ATOM     11  O   UNL     1      59.706 151.204   8.908  1.00  0.00    -0.298 OA
ENDBRANCH   4  10
TORSDOF 2
ENDMDL
