MODEL 1
REMARK VINA RESULT:    -3.823      0.000      0.000
REMARK INTER + INTRA:          -4.582
REMARK INTER:                  -4.494
REMARK INTRA:                  -0.088
REMARK UNBOUND:                -0.088
REMARK SMILES O=C([O-])CCC(=O)[O-]
REMARK SMILES IDX 4 1 2 2 1 3 3 4 5 5 6 6 7 7 8 8
REMARK H PARENT
REMARK Flexibility Score: inf
ROOT
ATOM      1  C   UNL     1     -30.378 -21.943 -22.584  1.00  0.00     0.059 C 
ENDROOT
BRANCH   1   2
ATOM      2  C   UNL     1     -28.986 -21.568 -22.177  1.00  0.00     0.042 C 
ATOM      3  O   UNL     1     -28.721 -21.336 -20.968  1.00  0.00    -0.550 OA
ATOM      4  O   UNL     1     -27.990 -21.436 -23.137  1.00  0.00    -0.550 OA
ENDBRANCH   1   2
BRANCH   1   5
ATOM      5  C   UNL     1     -31.116 -20.763 -23.226  1.00  0.00     0.059 C 
BRANCH   5   6
ATOM      6  C   UNL     1     -30.898 -20.715 -24.707  1.00  0.00     0.042 C 
ATOM      7  O   UNL     1     -31.131 -21.729 -25.415  1.00  0.00    -0.550 OA
ATOM      8  O   UNL     1     -30.398 -19.562 -25.299  1.00  0.00    -0.550 OA
ENDBRANCH   5   6
ENDBRANCH   1   5
TORSDOF 3
ENDMDL
MODEL 2
REMARK VINA RESULT:    -3.822      0.037      3.628
REMARK INTER + INTRA:          -4.580
REMARK INTER:                  -4.495
REMARK INTRA:                  -0.085
REMARK UNBOUND:                -0.088
REMARK SMILES O=C([O-])CCC(=O)[O-]
REMARK SMILES IDX 4 1 2 2 1 3 3 4 5 5 6 6 7 7 8 8
REMARK H PARENT
REMARK Flexibility Score: inf
ROOT
ATOM      1  C   UNL     1     -31.138 -20.788 -23.227  1.00  0.00     0.059 C 
ENDROOT
BRANCH   1   2
ATOM      2  C   UNL     1     -30.914 -20.723 -24.707  1.00  0.00     0.042 C 
ATOM      3  O   UNL     1     -31.147 -21.729 -25.427  1.00  0.00    -0.550 OA
ATOM      4  O   UNL     1     -30.410 -19.565 -25.285  1.00  0.00    -0.550 OA
ENDBRANCH   1   2
BRANCH   1   5
ATOM      5  C   UNL     1     -30.375 -21.955 -22.590  1.00  0.00     0.059 C 
BRANCH   5   6
ATOM      6  C   UNL     1     -28.980 -21.562 -22.211  1.00  0.00     0.042 C 
ATOM      7  O   UNL     1     -28.701 -21.294 -21.013  1.00  0.00    -0.550 OA
ATOM      8  O   UNL     1     -27.998 -21.452 -23.188  1.00  0.00    -0.550 OA
ENDBRANCH   5   6
ENDBRANCH   1   5
TORSDOF 3
ENDMDL
MODEL 3
REMARK VINA RESULT:    -3.800      0.099      1.147
REMARK INTER + INTRA:          -4.554
REMARK INTER:                  -4.474
REMARK INTRA:                  -0.080
REMARK UNBOUND:                -0.088
REMARK SMILES O=C([O-])CCC(=O)[O-]
REMARK SMILES IDX 4 1 2 2 1 3 3 4 5 5 6 6 7 7 8 8
REMARK H PARENT
REMARK Flexibility Score: inf
ROOT
ATOM      1  C   UNL     1     -30.411 -21.910 -22.644  1.00  0.00     0.059 C 
ENDROOT
BRANCH   1   2
ATOM      2  C   UNL     1     -29.016 -21.539 -22.242  1.00  0.00     0.042 C 
ATOM      3  O   UNL     1     -28.754 -21.269 -21.041  1.00  0.00    -0.550 OA
ATOM      4  O   UNL     1     -28.015 -21.452 -23.201  1.00  0.00    -0.550 OA
ENDBRANCH   1   2
BRANCH   1   5
ATOM      5  C   UNL     1     -31.152 -20.726 -23.275  1.00  0.00     0.059 C 
BRANCH   5   6
ATOM      6  C   UNL     1     -30.881 -20.626 -24.745  1.00  0.00     0.042 C 
ATOM      7  O   UNL     1     -30.489 -19.539 -25.244  1.00  0.00    -0.550 OA
ATOM      8  O   UNL     1     -31.102 -21.722 -25.570  1.00  0.00    -0.550 OA
ENDBRANCH   5   6
ENDBRANCH   1   5
TORSDOF 3
ENDMDL
MODEL 4
REMARK VINA RESULT:    -3.696      0.319      3.706
REMARK INTER + INTRA:          -4.432
REMARK INTER:                  -4.373
REMARK INTRA:                  -0.059
REMARK UNBOUND:                -0.088
REMARK SMILES O=C([O-])CCC(=O)[O-]
REMARK SMILES IDX 4 1 2 2 1 3 3 4 5 5 6 6 7 7 8 8
REMARK H PARENT
REMARK Flexibility Score: inf
ROOT
ATOM      1  C   UNL     1     -31.113 -20.742 -23.123  1.00  0.00     0.059 C 
ENDROOT
BRANCH   1   2
ATOM      2  C   UNL     1     -30.840 -20.663 -24.594  1.00  0.00     0.042 C 
ATOM      3  O   UNL     1     -30.392 -19.600 -25.099  1.00  0.00    -0.550 OA
ATOM      4  O   UNL     1     -31.120 -21.749 -25.415  1.00  0.00    -0.550 OA
ENDBRANCH   1   2
BRANCH   1   5
ATOM      5  C   UNL     1     -30.510 -22.007 -22.504  1.00  0.00     0.059 C 
BRANCH   5   6
ATOM      6  C   UNL     1     -29.136 -21.756 -21.961  1.00  0.00     0.042 C 
ATOM      7  O   UNL     1     -28.180 -21.515 -22.744  1.00  0.00    -0.550 OA
ATOM      8  O   UNL     1     -28.904 -21.828 -20.593  1.00  0.00    -0.550 OA
ENDBRANCH   5   6
ENDBRANCH   1   5
TORSDOF 3
ENDMDL
MODEL 5
REMARK VINA RESULT:    -3.587      1.487      2.000
REMARK INTER + INTRA:          -4.303
REMARK INTER:                  -4.250
REMARK INTRA:                  -0.053
REMARK UNBOUND:                -0.088
REMARK SMILES O=C([O-])CCC(=O)[O-]
REMARK SMILES IDX 4 1 2 2 1 3 3 4 5 5 6 6 7 7 8 8
REMARK H PARENT
REMARK Flexibility Score: inf
ROOT
ATOM      1  C   UNL     1     -29.268 -21.359 -23.654  1.00  0.00     0.059 C 
ENDROOT
BRANCH   1   2
ATOM      2  C   UNL     1     -28.206 -21.504 -22.607  1.00  0.00     0.042 C 
ATOM      3  O   UNL     1     -27.008 -21.696 -22.943  1.00  0.00    -0.550 OA
ATOM      4  O   UNL     1     -28.546 -21.468 -21.260  1.00  0.00    -0.550 OA
ENDBRANCH   1   2
BRANCH   1   5
ATOM      5  C   UNL     1     -30.672 -21.363 -23.039  1.00  0.00     0.059 C 
BRANCH   5   6
ATOM      6  C   UNL     1     -31.483 -20.194 -23.508  1.00  0.00     0.042 C 
ATOM      7  O   UNL     1     -31.413 -19.813 -24.705  1.00  0.00    -0.550 OA
ATOM      8  O   UNL     1     -32.286 -19.500 -22.611  1.00  0.00    -0.550 OA
ENDBRANCH   5   6
ENDBRANCH   1   5
TORSDOF 3
ENDMDL
MODEL 6
REMARK VINA RESULT:    -3.473      1.306      1.857
REMARK INTER + INTRA:          -4.170
REMARK INTER:                  -4.126
REMARK INTRA:                  -0.044
REMARK UNBOUND:                -0.088
REMARK SMILES O=C([O-])CCC(=O)[O-]
REMARK SMILES IDX 4 1 2 2 1 3 3 4 5 5 6 6 7 7 8 8
REMARK H PARENT
REMARK Flexibility Score: inf
ROOT
ATOM      1  C   UNL     1     -29.256 -21.362 -23.524  1.00  0.00     0.059 C 
ENDROOT
BRANCH   1   2
ATOM      2  C   UNL     1     -29.598 -21.763 -22.122  1.00  0.00     0.042 C 
ATOM      3  O   UNL     1     -30.772 -22.113 -21.832  1.00  0.00    -0.550 OA
ATOM      4  O   UNL     1     -28.631 -21.710 -21.126  1.00  0.00    -0.550 OA
ENDBRANCH   1   2
BRANCH   1   5
ATOM      5  C   UNL     1     -30.491 -21.366 -24.431  1.00  0.00     0.059 C 
BRANCH   5   6
ATOM      6  C   UNL     1     -30.372 -20.356 -25.532  1.00  0.00     0.042 C 
ATOM      7  O   UNL     1     -30.335 -19.127 -25.262  1.00  0.00    -0.550 OA
ATOM      8  O   UNL     1     -30.342 -20.772 -26.857  1.00  0.00    -0.550 OA
ENDBRANCH   5   6
ENDBRANCH   1   5
TORSDOF 3
ENDMDL
MODEL 7
REMARK VINA RESULT:    -3.465      1.792      3.891
REMARK INTER + INTRA:          -4.160
REMARK INTER:                  -4.086
REMARK INTRA:                  -0.074
REMARK UNBOUND:                -0.088
REMARK SMILES O=C([O-])CCC(=O)[O-]
REMARK SMILES IDX 4 1 2 2 1 3 3 4 5 5 6 6 7 7 8 8
REMARK H PARENT
REMARK Flexibility Score: inf
ROOT
ATOM      1  C   UNL     1     -30.216 -20.233 -24.811  1.00  0.00     0.059 C 
ENDROOT
BRANCH   1   2
ATOM      2  C   UNL     1     -30.572 -20.734 -26.177  1.00  0.00     0.042 C 
ATOM      3  O   UNL     1     -30.744 -19.922 -27.124  1.00  0.00    -0.550 OA
ATOM      4  O   UNL     1     -30.755 -22.094 -26.396  1.00  0.00    -0.550 OA
ENDBRANCH   1   2
BRANCH   1   5
ATOM      5  C   UNL     1     -30.006 -21.386 -23.823  1.00  0.00     0.059 C 
BRANCH   5   6
ATOM      6  C   UNL     1     -30.887 -21.248 -22.619  1.00  0.00     0.042 C 
ATOM      7  O   UNL     1     -30.726 -22.006 -21.626  1.00  0.00    -0.550 OA
ATOM      8  O   UNL     1     -31.912 -20.310 -22.609  1.00  0.00    -0.550 OA
ENDBRANCH   5   6
ENDBRANCH   1   5
TORSDOF 3
ENDMDL
MODEL 8
REMARK VINA RESULT:    -2.446      2.508      3.706
REMARK INTER + INTRA:          -2.963
REMARK INTER:                  -2.926
REMARK INTRA:                  -0.036
REMARK UNBOUND:                -0.088
REMARK SMILES O=C([O-])CCC(=O)[O-]
REMARK SMILES IDX 4 1 2 2 1 3 3 4 5 5 6 6 7 7 8 8
REMARK H PARENT
REMARK Flexibility Score: inf
ROOT
ATOM      1  C   UNL     1     -29.351 -21.993 -19.796  1.00  0.00     0.059 C 
ENDROOT
BRANCH   1   2
ATOM      2  C   UNL     1     -28.716 -22.095 -18.442  1.00  0.00     0.042 C 
ATOM      3  O   UNL     1     -29.433 -22.125 -17.408  1.00  0.00    -0.550 OA
ATOM      4  O   UNL     1     -27.332 -22.115 -18.321  1.00  0.00    -0.550 OA
ENDBRANCH   1   2
BRANCH   1   5
ATOM      5  C   UNL     1     -28.312 -22.104 -20.917  1.00  0.00     0.059 C 
BRANCH   5   6
ATOM      6  C   UNL     1     -28.890 -21.722 -22.246  1.00  0.00     0.042 C 
ATOM      7  O   UNL     1     -30.135 -21.750 -22.426  1.00  0.00    -0.550 OA
ATOM      8  O   UNL     1     -28.050 -21.375 -23.296  1.00  0.00    -0.550 OA
ENDBRANCH   5   6
ENDBRANCH   1   5
TORSDOF 3
ENDMDL
MODEL 9
REMARK VINA RESULT:    -2.370      1.884      3.290
REMARK INTER + INTRA:          -2.874
REMARK INTER:                  -3.044
REMARK INTRA:                   0.171
REMARK UNBOUND:                -0.088
REMARK SMILES O=C([O-])CCC(=O)[O-]
REMARK SMILES IDX 4 1 2 2 1 3 3 4 5 5 6 6 7 7 8 8
REMARK H PARENT
REMARK Flexibility Score: inf
ROOT
ATOM      1  C   UNL     1     -31.154 -20.842 -22.314  1.00  0.00     0.059 C 
ENDROOT
BRANCH   1   2
ATOM      2  C   UNL     1     -31.931 -19.706 -22.906  1.00  0.00     0.042 C 
ATOM      3  O   UNL     1     -32.039 -19.595 -24.156  1.00  0.00    -0.550 OA
ATOM      4  O   UNL     1     -32.502 -18.746 -22.079  1.00  0.00    -0.550 OA
ENDBRANCH   1   2
BRANCH   1   5
ATOM      5  C   UNL     1     -30.610 -21.779 -23.398  1.00  0.00     0.059 C 
BRANCH   5   6
ATOM      6  C   UNL     1     -29.358 -21.237 -24.018  1.00  0.00     0.042 C 
ATOM      7  O   UNL     1     -28.269 -21.279 -23.389  1.00  0.00    -0.550 OA
ATOM      8  O   UNL     1     -29.404 -20.648 -25.276  1.00  0.00    -0.550 OA
ENDBRANCH   5   6
ENDBRANCH   1   5
TORSDOF 3
ENDMDL
