MODEL 1
REMARK VINA RESULT:    -5.476      0.000      0.000
REMARK INTER + INTRA:          -5.956
REMARK INTER:                  -5.956
REMARK INTRA:                   0.000
REMARK UNBOUND:                 0.000
REMARK SMILES Cc1cc(O)c2c(c1)C(=O)c1cc(O)cc(O)c1C2=O
REMARK SMILES IDX 1 1 2 2 8 3 7 4 6 5 4 6 3 7 19 8 20 9 18 10 11 11 9 12 10 13
REMARK SMILES IDX 12 14 13 15 15 16 16 17 5 18 17 20 14 22
REMARK H PARENT 5 19 17 21 14 23
REMARK Flexibility Score: inf
ROOT
ATOM      1  C   UNL     1      -5.397   0.027   7.074  1.00  0.00     0.044 C 
ATOM      2  C   UNL     1      -5.146   1.506   7.047  1.00  0.00    -0.047 A 
ATOM      3  C   UNL     1      -6.110   2.374   6.522  1.00  0.00     0.016 A 
ATOM      4  C   UNL     1      -5.869   3.758   6.458  1.00  0.00     0.038 A 
ATOM      5  C   UNL     1      -4.642   4.278   6.921  1.00  0.00     0.076 A 
ATOM      6  C   UNL     1      -3.660   3.394   7.425  1.00  0.00     0.127 A 
ATOM      7  C   UNL     1      -3.919   2.019   7.480  1.00  0.00     0.050 A 
ATOM      8  C   UNL     1      -4.419   5.748   6.883  1.00  0.00     0.201 C 
ATOM      9  O   UNL     1      -3.520   6.256   7.604  1.00  0.00    -0.288 OA
ATOM     10  C   UNL     1      -5.327   6.623   6.091  1.00  0.00     0.076 A 
ATOM     11  C   UNL     1      -6.579   6.102   5.686  1.00  0.00     0.041 A 
ATOM     12  C   UNL     1      -6.897   4.671   5.907  1.00  0.00     0.194 C 
ATOM     13  O   UNL     1      -8.039   4.225   5.609  1.00  0.00    -0.289 OA
ATOM     14  C   UNL     1      -7.521   6.942   5.066  1.00  0.00     0.059 A 
ATOM     15  C   UNL     1      -7.225   8.286   4.829  1.00  0.00     0.120 A 
ATOM     16  C   UNL     1      -5.975   8.793   5.182  1.00  0.00     0.093 A 
ATOM     17  C   UNL     1      -5.011   7.974   5.776  1.00  0.00     0.131 A 
ENDROOT
BRANCH   6  18
ATOM     18  O   UNL     1      -2.426   3.876   7.860  1.00  0.00    -0.507 OA
ATOM     19  H   UNL     1      -1.755   3.278   8.329  1.00  0.00     0.293 HD
ENDBRANCH   6  18
BRANCH  17  20
ATOM     20  O   UNL     1      -3.750   8.532   6.000  1.00  0.00    -0.507 OA
ATOM     21  H   UNL     1      -3.214   9.008   5.289  1.00  0.00     0.293 HD
ENDBRANCH  17  20
BRANCH  15  22
ATOM     22  O   UNL     1      -8.161   9.125   4.230  1.00  0.00    -0.508 OA
ATOM     23  H   UNL     1      -8.358   9.075   3.237  1.00  0.00     0.293 HD
ENDBRANCH  15  22
TORSDOF 3
ENDMDL
MODEL 2
REMARK VINA RESULT:    -5.460     15.711     16.481
REMARK INTER + INTRA:          -5.939
REMARK INTER:                  -5.939
REMARK INTRA:                   0.000
REMARK UNBOUND:                 0.000
REMARK SMILES Cc1cc(O)c2c(c1)C(=O)c1cc(O)cc(O)c1C2=O
REMARK SMILES IDX 1 1 2 2 8 3 7 4 6 5 4 6 3 7 19 8 20 9 18 10 11 11 9 12 10 13
REMARK SMILES IDX 12 14 13 15 15 16 16 17 5 18 17 20 14 22
REMARK H PARENT 5 19 17 21 14 23
REMARK Flexibility Score: inf
ROOT
ATOM      1  C   UNL     1       6.917   6.508  -2.120  1.00  0.00     0.044 C 
ATOM      2  C   UNL     1       6.406   6.239  -3.505  1.00  0.00    -0.047 A 
ATOM      3  C   UNL     1       5.227   6.846  -3.950  1.00  0.00     0.016 A 
ATOM      4  C   UNL     1       4.718   6.572  -5.233  1.00  0.00     0.038 A 
ATOM      5  C   UNL     1       5.399   5.671  -6.078  1.00  0.00     0.076 A 
ATOM      6  C   UNL     1       6.575   5.038  -5.614  1.00  0.00     0.127 A 
ATOM      7  C   UNL     1       7.064   5.324  -4.333  1.00  0.00     0.050 A 
ATOM      8  C   UNL     1       4.870   5.423  -7.446  1.00  0.00     0.201 C 
ATOM      9  O   UNL     1       5.629   4.930  -8.322  1.00  0.00    -0.288 OA
ATOM     10  C   UNL     1       3.494   5.862  -7.808  1.00  0.00     0.076 A 
ATOM     11  C   UNL     1       2.851   6.811  -6.979  1.00  0.00     0.041 A 
ATOM     12  C   UNL     1       3.474   7.225  -5.699  1.00  0.00     0.194 C 
ATOM     13  O   UNL     1       2.933   8.123  -4.996  1.00  0.00    -0.289 OA
ATOM     14  C   UNL     1       1.615   7.357  -7.367  1.00  0.00     0.059 A 
ATOM     15  C   UNL     1       1.005   6.958  -8.558  1.00  0.00     0.120 A 
ATOM     16  C   UNL     1       1.610   5.987  -9.355  1.00  0.00     0.093 A 
ATOM     17  C   UNL     1       2.827   5.408  -8.979  1.00  0.00     0.131 A 
ENDROOT
BRANCH   6  18
ATOM     18  O   UNL     1       7.251   4.118  -6.416  1.00  0.00    -0.507 OA
ATOM     19  H   UNL     1       6.889   3.829  -7.317  1.00  0.00     0.293 HD
ENDBRANCH   6  18
BRANCH  17  20
ATOM     20  O   UNL     1       3.311   4.369  -9.777  1.00  0.00    -0.507 OA
ATOM     21  H   UNL     1       3.083   4.258 -10.754  1.00  0.00     0.293 HD
ENDBRANCH  17  20
BRANCH  15  22
ATOM     22  O   UNL     1      -0.212   7.508  -8.953  1.00  0.00    -0.508 OA
ATOM     23  H   UNL     1      -0.281   8.470  -9.266  1.00  0.00     0.293 HD
ENDBRANCH  15  22
TORSDOF 3
ENDMDL
MODEL 3
REMARK VINA RESULT:    -5.456     15.590     16.863
REMARK INTER + INTRA:          -5.935
REMARK INTER:                  -5.935
REMARK INTRA:                   0.000
REMARK UNBOUND:                 0.000
REMARK SMILES Cc1cc(O)c2c(c1)C(=O)c1cc(O)cc(O)c1C2=O
REMARK SMILES IDX 1 1 2 2 8 3 7 4 6 5 4 6 3 7 19 8 20 9 18 10 11 11 9 12 10 13
REMARK SMILES IDX 12 14 13 15 15 16 16 17 5 18 17 20 14 22
REMARK H PARENT 5 19 17 21 14 23
REMARK Flexibility Score: inf
ROOT
ATOM      1  C   UNL     1      -0.386   8.056  -8.598  1.00  0.00     0.044 C 
ATOM      2  C   UNL     1       0.832   7.249  -8.254  1.00  0.00    -0.047 A 
ATOM      3  C   UNL     1       1.528   7.497  -7.066  1.00  0.00     0.016 A 
ATOM      4  C   UNL     1       2.692   6.772  -6.752  1.00  0.00     0.038 A 
ATOM      5  C   UNL     1       3.168   5.789  -7.645  1.00  0.00     0.076 A 
ATOM      6  C   UNL     1       2.477   5.561  -8.857  1.00  0.00     0.127 A 
ATOM      7  C   UNL     1       1.320   6.294  -9.152  1.00  0.00     0.050 A 
ATOM      8  C   UNL     1       4.376   5.004  -7.279  1.00  0.00     0.201 C 
ATOM      9  O   UNL     1       4.601   3.908  -7.859  1.00  0.00    -0.288 OA
ATOM     10  C   UNL     1       5.248   5.449  -6.158  1.00  0.00     0.076 A 
ATOM     11  C   UNL     1       4.732   6.392  -5.238  1.00  0.00     0.041 A 
ATOM     12  C   UNL     1       3.419   7.036  -5.489  1.00  0.00     0.194 C 
ATOM     13  O   UNL     1       2.929   7.823  -4.633  1.00  0.00    -0.289 OA
ATOM     14  C   UNL     1       5.468   6.726  -4.088  1.00  0.00     0.059 A 
ATOM     15  C   UNL     1       6.716   6.147  -3.852  1.00  0.00     0.120 A 
ATOM     16  C   UNL     1       7.252   5.254  -4.778  1.00  0.00     0.093 A 
ATOM     17  C   UNL     1       6.553   4.924  -5.943  1.00  0.00     0.131 A 
ENDROOT
BRANCH   6  18
ATOM     18  O   UNL     1       2.941   4.617  -9.774  1.00  0.00    -0.507 OA
ATOM     19  H   UNL     1       2.597   3.664  -9.778  1.00  0.00     0.293 HD
ENDBRANCH   6  18
BRANCH  17  20
ATOM     20  O   UNL     1       7.206   4.107  -6.869  1.00  0.00    -0.507 OA
ATOM     21  H   UNL     1       7.423   4.391  -7.813  1.00  0.00     0.293 HD
ENDBRANCH  17  20
BRANCH  15  22
ATOM     22  O   UNL     1       7.441   6.463  -2.705  1.00  0.00    -0.508 OA
ATOM     23  H   UNL     1       7.754   5.745  -2.061  1.00  0.00     0.293 HD
ENDBRANCH  15  22
TORSDOF 3
ENDMDL
MODEL 4
REMARK VINA RESULT:    -5.348      1.362      5.504
REMARK INTER + INTRA:          -5.817
REMARK INTER:                  -5.817
REMARK INTRA:                   0.000
REMARK UNBOUND:                 0.000
REMARK SMILES Cc1cc(O)c2c(c1)C(=O)c1cc(O)cc(O)c1C2=O
REMARK SMILES IDX 1 1 2 2 8 3 7 4 6 5 4 6 3 7 19 8 20 9 18 10 11 11 9 12 10 13
REMARK SMILES IDX 12 14 13 15 15 16 16 17 5 18 17 20 14 22
REMARK H PARENT 5 19 17 21 14 23
REMARK Flexibility Score: inf
ROOT
ATOM      1  C   UNL     1      -8.369   9.125   4.109  1.00  0.00     0.044 C 
ATOM      2  C   UNL     1      -7.224   8.384   4.735  1.00  0.00    -0.047 A 
ATOM      3  C   UNL     1      -7.308   7.003   4.942  1.00  0.00     0.016 A 
ATOM      4  C   UNL     1      -6.257   6.305   5.562  1.00  0.00     0.038 A 
ATOM      5  C   UNL     1      -5.107   7.003   5.987  1.00  0.00     0.076 A 
ATOM      6  C   UNL     1      -5.037   8.403   5.801  1.00  0.00     0.127 A 
ATOM      7  C   UNL     1      -6.096   9.080   5.181  1.00  0.00     0.050 A 
ATOM      8  C   UNL     1      -3.987   6.245   6.604  1.00  0.00     0.201 C 
ATOM      9  O   UNL     1      -2.840   6.764   6.652  1.00  0.00    -0.288 OA
ATOM     10  C   UNL     1      -4.192   4.840   7.054  1.00  0.00     0.076 A 
ATOM     11  C   UNL     1      -5.320   4.137   6.571  1.00  0.00     0.041 A 
ATOM     12  C   UNL     1      -6.351   4.842   5.771  1.00  0.00     0.194 C 
ATOM     13  O   UNL     1      -7.320   4.198   5.283  1.00  0.00    -0.289 OA
ATOM     14  C   UNL     1      -5.469   2.768   6.856  1.00  0.00     0.059 A 
ATOM     15  C   UNL     1      -4.518   2.097   7.629  1.00  0.00     0.120 A 
ATOM     16  C   UNL     1      -3.430   2.796   8.148  1.00  0.00     0.093 A 
ATOM     17  C   UNL     1      -3.272   4.163   7.902  1.00  0.00     0.131 A 
ENDROOT
BRANCH   6  18
ATOM     18  O   UNL     1      -3.927   9.125   6.239  1.00  0.00    -0.507 OA
ATOM     19  H   UNL     1      -3.939   9.646   7.108  1.00  0.00     0.293 HD
ENDBRANCH   6  18
BRANCH  17  20
ATOM     20  O   UNL     1      -2.214   4.809   8.547  1.00  0.00    -0.507 OA
ATOM     21  H   UNL     1      -2.289   5.724   8.968  1.00  0.00     0.293 HD
ENDBRANCH  17  20
BRANCH  15  22
ATOM     22  O   UNL     1      -4.654   0.738   7.900  1.00  0.00    -0.508 OA
ATOM     23  H   UNL     1      -3.846   0.141   8.034  1.00  0.00     0.293 HD
ENDBRANCH  15  22
TORSDOF 3
ENDMDL
MODEL 5
REMARK VINA RESULT:    -5.304      2.640      3.431
REMARK INTER + INTRA:          -5.769
REMARK INTER:                  -5.769
REMARK INTRA:                   0.000
REMARK UNBOUND:                 0.000
REMARK SMILES Cc1cc(O)c2c(c1)C(=O)c1cc(O)cc(O)c1C2=O
REMARK SMILES IDX 1 1 2 2 8 3 7 4 6 5 4 6 3 7 19 8 20 9 18 10 11 11 9 12 10 13
REMARK SMILES IDX 12 14 13 15 15 16 16 17 5 18 17 20 14 22
REMARK H PARENT 5 19 17 21 14 23
REMARK Flexibility Score: inf
ROOT
ATOM      1  C   UNL     1      -9.055  -1.671   6.477  1.00  0.00     0.044 C 
ATOM      2  C   UNL     1      -8.193  -0.443   6.506  1.00  0.00    -0.047 A 
ATOM      3  C   UNL     1      -8.662   0.733   7.102  1.00  0.00     0.016 A 
ATOM      4  C   UNL     1      -7.877   1.900   7.102  1.00  0.00     0.038 A 
ATOM      5  C   UNL     1      -6.606   1.889   6.490  1.00  0.00     0.076 A 
ATOM      6  C   UNL     1      -6.148   0.707   5.864  1.00  0.00     0.127 A 
ATOM      7  C   UNL     1      -6.945  -0.445   5.874  1.00  0.00     0.050 A 
ATOM      8  C   UNL     1      -5.772   3.120   6.533  1.00  0.00     0.201 C 
ATOM      9  O   UNL     1      -4.531   3.034   6.329  1.00  0.00    -0.288 OA
ATOM     10  C   UNL     1      -6.377   4.421   6.929  1.00  0.00     0.076 A 
ATOM     11  C   UNL     1      -7.625   4.407   7.596  1.00  0.00     0.041 A 
ATOM     12  C   UNL     1      -8.377   3.138   7.741  1.00  0.00     0.194 C 
ATOM     13  O   UNL     1      -9.456   3.116   8.397  1.00  0.00    -0.289 OA
ATOM     14  C   UNL     1      -8.157   5.601   8.114  1.00  0.00     0.059 A 
ATOM     15  C   UNL     1      -7.471   6.808   7.962  1.00  0.00     0.120 A 
ATOM     16  C   UNL     1      -6.264   6.836   7.264  1.00  0.00     0.093 A 
ATOM     17  C   UNL     1      -5.726   5.667   6.716  1.00  0.00     0.131 A 
ENDROOT
BRANCH   6  18
ATOM     18  O   UNL     1      -4.909   0.676   5.222  1.00  0.00    -0.507 OA
ATOM     19  H   UNL     1      -4.730   1.214   4.383  1.00  0.00     0.293 HD
ENDBRANCH   6  18
BRANCH  17  20
ATOM     20  O   UNL     1      -4.571   5.800   5.942  1.00  0.00    -0.507 OA
ATOM     21  H   UNL     1      -4.561   6.193   5.012  1.00  0.00     0.293 HD
ENDBRANCH  17  20
BRANCH  15  22
ATOM     22  O   UNL     1      -7.986   7.990   8.488  1.00  0.00    -0.508 OA
ATOM     23  H   UNL     1      -8.302   8.743   7.888  1.00  0.00     0.293 HD
ENDBRANCH  15  22
TORSDOF 3
ENDMDL
MODEL 6
REMARK VINA RESULT:    -5.283      2.558      6.198
REMARK INTER + INTRA:          -5.746
REMARK INTER:                  -5.746
REMARK INTRA:                   0.000
REMARK UNBOUND:                 0.000
REMARK SMILES Cc1cc(O)c2c(c1)C(=O)c1cc(O)cc(O)c1C2=O
REMARK SMILES IDX 1 1 2 2 8 3 7 4 6 5 4 6 3 7 19 8 20 9 18 10 11 11 9 12 10 13
REMARK SMILES IDX 12 14 13 15 15 16 16 17 5 18 17 20 14 22
REMARK H PARENT 5 19 17 21 14 23
REMARK Flexibility Score: inf
ROOT
ATOM      1  C   UNL     1      -7.513   8.870   8.282  1.00  0.00     0.044 C 
ATOM      2  C   UNL     1      -7.317   7.579   7.544  1.00  0.00    -0.047 A 
ATOM      3  C   UNL     1      -7.411   6.359   8.223  1.00  0.00     0.016 A 
ATOM      4  C   UNL     1      -7.193   5.144   7.548  1.00  0.00     0.038 A 
ATOM      5  C   UNL     1      -6.870   5.153   6.175  1.00  0.00     0.076 A 
ATOM      6  C   UNL     1      -6.749   6.389   5.499  1.00  0.00     0.127 A 
ATOM      7  C   UNL     1      -6.969   7.588   6.189  1.00  0.00     0.050 A 
ATOM      8  C   UNL     1      -6.682   3.859   5.468  1.00  0.00     0.201 C 
ATOM      9  O   UNL     1      -6.757   3.824   4.210  1.00  0.00    -0.288 OA
ATOM     10  C   UNL     1      -6.524   2.597   6.243  1.00  0.00     0.076 A 
ATOM     11  C   UNL     1      -6.910   2.592   7.604  1.00  0.00     0.041 A 
ATOM     12  C   UNL     1      -7.301   3.857   8.272  1.00  0.00     0.194 C 
ATOM     13  O   UNL     1      -7.711   3.839   9.466  1.00  0.00    -0.289 OA
ATOM     14  C   UNL     1      -6.913   1.387   8.328  1.00  0.00     0.059 A 
ATOM     15  C   UNL     1      -6.522   0.192   7.718  1.00  0.00     0.120 A 
ATOM     16  C   UNL     1      -6.096   0.199   6.391  1.00  0.00     0.093 A 
ATOM     17  C   UNL     1      -6.058   1.388   5.657  1.00  0.00     0.131 A 
ENDROOT
BRANCH   6  18
ATOM     18  O   UNL     1      -6.399   6.431   4.149  1.00  0.00    -0.507 OA
ATOM     19  H   UNL     1      -5.555   5.989   3.804  1.00  0.00     0.293 HD
ENDBRANCH   6  18
BRANCH  17  20
ATOM     20  O   UNL     1      -5.517   1.326   4.370  1.00  0.00    -0.507 OA
ATOM     21  H   UNL     1      -5.615   0.529   3.759  1.00  0.00     0.293 HD
ENDBRANCH  17  20
BRANCH  15  22
ATOM     22  O   UNL     1      -6.540  -1.006   8.427  1.00  0.00    -0.508 OA
ATOM     23  H   UNL     1      -7.195  -1.165   9.183  1.00  0.00     0.293 HD
ENDBRANCH  15  22
TORSDOF 3
ENDMDL
MODEL 7
REMARK VINA RESULT:    -5.086      3.065      5.430
REMARK INTER + INTRA:          -5.532
REMARK INTER:                  -5.532
REMARK INTRA:                   0.000
REMARK UNBOUND:                 0.000
REMARK SMILES Cc1cc(O)c2c(c1)C(=O)c1cc(O)cc(O)c1C2=O
REMARK SMILES IDX 1 1 2 2 8 3 7 4 6 5 4 6 3 7 19 8 20 9 18 10 11 11 9 12 10 13
REMARK SMILES IDX 12 14 13 15 15 16 16 17 5 18 17 20 14 22
REMARK H PARENT 5 19 17 21 14 23
REMARK Flexibility Score: inf
ROOT
ATOM      1  C   UNL     1      -2.360  -2.506   7.161  1.00  0.00     0.044 C 
ATOM      2  C   UNL     1      -3.688  -1.809   7.203  1.00  0.00    -0.047 A 
ATOM      3  C   UNL     1      -3.826  -0.524   6.668  1.00  0.00     0.016 A 
ATOM      4  C   UNL     1      -5.057   0.154   6.735  1.00  0.00     0.038 A 
ATOM      5  C   UNL     1      -6.164  -0.465   7.353  1.00  0.00     0.076 A 
ATOM      6  C   UNL     1      -6.013  -1.753   7.917  1.00  0.00     0.127 A 
ATOM      7  C   UNL     1      -4.779  -2.411   7.840  1.00  0.00     0.050 A 
ATOM      8  C   UNL     1      -7.469   0.248   7.380  1.00  0.00     0.201 C 
ATOM      9  O   UNL     1      -8.526  -0.406   7.585  1.00  0.00    -0.288 OA
ATOM     10  C   UNL     1      -7.537   1.698   7.051  1.00  0.00     0.076 A 
ATOM     11  C   UNL     1      -6.440   2.287   6.378  1.00  0.00     0.041 A 
ATOM     12  C   UNL     1      -5.195   1.511   6.161  1.00  0.00     0.194 C 
ATOM     13  O   UNL     1      -4.246   2.015   5.500  1.00  0.00    -0.289 OA
ATOM     14  C   UNL     1      -6.527   3.614   5.923  1.00  0.00     0.059 A 
ATOM     15  C   UNL     1      -7.684   4.366   6.143  1.00  0.00     0.120 A 
ATOM     16  C   UNL     1      -8.749   3.806   6.847  1.00  0.00     0.093 A 
ATOM     17  C   UNL     1      -8.678   2.498   7.335  1.00  0.00     0.131 A 
ENDROOT
BRANCH   6  18
ATOM     18  O   UNL     1      -7.082  -2.377   8.561  1.00  0.00    -0.507 OA
ATOM     19  H   UNL     1      -7.528  -3.202   8.177  1.00  0.00     0.293 HD
ENDBRANCH   6  18
BRANCH  17  20
ATOM     20  O   UNL     1      -9.743   2.052   8.121  1.00  0.00    -0.507 OA
ATOM     21  H   UNL     1     -10.532   2.627   8.375  1.00  0.00     0.293 HD
ENDBRANCH  17  20
BRANCH  15  22
ATOM     22  O   UNL     1      -7.781   5.675   5.679  1.00  0.00    -0.508 OA
ATOM     23  H   UNL     1      -8.679   6.126   5.549  1.00  0.00     0.293 HD
ENDBRANCH  15  22
TORSDOF 3
ENDMDL
MODEL 8
REMARK VINA RESULT:    -4.994     11.092     13.844
REMARK INTER + INTRA:          -5.431
REMARK INTER:                  -5.431
REMARK INTRA:                   0.000
REMARK UNBOUND:                 0.000
REMARK SMILES Cc1cc(O)c2c(c1)C(=O)c1cc(O)cc(O)c1C2=O
REMARK SMILES IDX 1 1 2 2 8 3 7 4 6 5 4 6 3 7 19 8 20 9 18 10 11 11 9 12 10 13
REMARK SMILES IDX 12 14 13 15 15 16 16 17 5 18 17 20 14 22
REMARK H PARENT 5 19 17 21 14 23
REMARK Flexibility Score: inf
ROOT
ATOM      1  C   UNL     1      -0.026  -5.719   9.838  1.00  0.00     0.044 C 
ATOM      2  C   UNL     1      -1.042  -5.985   8.766  1.00  0.00    -0.047 A 
ATOM      3  C   UNL     1      -0.875  -7.063   7.889  1.00  0.00     0.016 A 
ATOM      4  C   UNL     1      -1.802  -7.299   6.858  1.00  0.00     0.038 A 
ATOM      5  C   UNL     1      -2.908  -6.438   6.699  1.00  0.00     0.076 A 
ATOM      6  C   UNL     1      -3.057  -5.333   7.569  1.00  0.00     0.127 A 
ATOM      7  C   UNL     1      -2.123  -5.115   8.590  1.00  0.00     0.050 A 
ATOM      8  C   UNL     1      -3.900  -6.724   5.629  1.00  0.00     0.201 C 
ATOM      9  O   UNL     1      -5.049  -6.210   5.697  1.00  0.00    -0.288 OA
ATOM     10  C   UNL     1      -3.579  -7.701   4.552  1.00  0.00     0.076 A 
ATOM     11  C   UNL     1      -2.502  -8.596   4.756  1.00  0.00     0.041 A 
ATOM     12  C   UNL     1      -1.622  -8.446   5.939  1.00  0.00     0.194 C 
ATOM     13  O   UNL     1      -0.707  -9.287   6.155  1.00  0.00    -0.289 OA
ATOM     14  C   UNL     1      -2.262  -9.626   3.829  1.00  0.00     0.059 A 
ATOM     15  C   UNL     1      -3.067  -9.764   2.696  1.00  0.00     0.120 A 
ATOM     16  C   UNL     1      -4.099  -8.855   2.466  1.00  0.00     0.093 A 
ATOM     17  C   UNL     1      -4.344  -7.806   3.358  1.00  0.00     0.131 A 
ENDROOT
BRANCH   6  18
ATOM     18  O   UNL     1      -4.124  -4.446   7.417  1.00  0.00    -0.507 OA
ATOM     19  H   UNL     1      -4.770  -4.519   6.639  1.00  0.00     0.293 HD
ENDBRANCH   6  18
BRANCH  17  20
ATOM     20  O   UNL     1      -5.325  -6.880   2.998  1.00  0.00    -0.507 OA
ATOM     21  H   UNL     1      -6.118  -7.101   2.414  1.00  0.00     0.293 HD
ENDBRANCH  17  20
BRANCH  15  22
ATOM     22  O   UNL     1      -2.842 -10.792   1.785  1.00  0.00    -0.508 OA
ATOM     23  H   UNL     1      -3.508 -11.546   1.661  1.00  0.00     0.293 HD
ENDBRANCH  15  22
TORSDOF 3
ENDMDL
MODEL 9
REMARK VINA RESULT:    -4.878     15.232     16.106
REMARK INTER + INTRA:          -5.306
REMARK INTER:                  -5.306
REMARK INTRA:                   0.000
REMARK UNBOUND:                 0.000
REMARK SMILES Cc1cc(O)c2c(c1)C(=O)c1cc(O)cc(O)c1C2=O
REMARK SMILES IDX 1 1 2 2 8 3 7 4 6 5 4 6 3 7 19 8 20 9 18 10 11 11 9 12 10 13
REMARK SMILES IDX 12 14 13 15 15 16 16 17 5 18 17 20 14 22
REMARK H PARENT 5 19 17 21 14 23
REMARK Flexibility Score: inf
ROOT
ATOM      1  C   UNL     1       8.744   5.503  -3.948  1.00  0.00     0.044 C 
ATOM      2  C   UNL     1       7.357   5.982  -4.265  1.00  0.00    -0.047 A 
ATOM      3  C   UNL     1       6.682   5.490  -5.388  1.00  0.00     0.016 A 
ATOM      4  C   UNL     1       5.397   5.960  -5.715  1.00  0.00     0.038 A 
ATOM      5  C   UNL     1       4.783   6.941  -4.908  1.00  0.00     0.076 A 
ATOM      6  C   UNL     1       5.481   7.456  -3.790  1.00  0.00     0.127 A 
ATOM      7  C   UNL     1       6.760   6.975  -3.482  1.00  0.00     0.050 A 
ATOM      8  C   UNL     1       3.409   7.398  -5.244  1.00  0.00     0.201 C 
ATOM      9  O   UNL     1       2.716   7.976  -4.364  1.00  0.00    -0.288 OA
ATOM     10  C   UNL     1       2.814   7.070  -6.569  1.00  0.00     0.076 A 
ATOM     11  C   UNL     1       3.409   6.042  -7.337  1.00  0.00     0.041 A 
ATOM     12  C   UNL     1       4.687   5.430  -6.900  1.00  0.00     0.194 C 
ATOM     13  O   UNL     1       5.179   4.466  -7.550  1.00  0.00    -0.289 OA
ATOM     14  C   UNL     1       2.792   5.606  -8.523  1.00  0.00     0.059 A 
ATOM     15  C   UNL     1       1.601   6.191  -8.960  1.00  0.00     0.120 A 
ATOM     16  C   UNL     1       1.036   7.237  -8.232  1.00  0.00     0.093 A 
ATOM     17  C   UNL     1       1.643   7.708  -7.064  1.00  0.00     0.131 A 
ENDROOT
BRANCH   6  18
ATOM     18  O   UNL     1       4.912   8.449  -2.993  1.00  0.00    -0.507 OA
ATOM     19  H   UNL     1       4.669   8.280  -2.023  1.00  0.00     0.293 HD
ENDBRANCH   6  18
BRANCH  17  20
ATOM     20  O   UNL     1       1.071   8.827  -6.455  1.00  0.00    -0.507 OA
ATOM     21  H   UNL     1       0.806   9.663  -6.955  1.00  0.00     0.293 HD
ENDBRANCH  17  20
BRANCH  15  22
ATOM     22  O   UNL     1       0.978   5.750 -10.125  1.00  0.00    -0.508 OA
ATOM     23  H   UNL     1       1.493   5.265 -10.850  1.00  0.00     0.293 HD
ENDBRANCH  15  22
TORSDOF 3
ENDMDL
