MODEL 1
REMARK VINA RESULT:    -6.489      0.000      0.000
REMARK INTER + INTRA:          -7.890
REMARK INTER:                  -7.627
REMARK INTRA:                  -0.263
REMARK UNBOUND:                -0.263
REMARK SMILES O=c1cc(-c2ccc(O)c(O)c2)oc2cc(O)cc(O)c12
REMARK SMILES IDX 4 1 3 2 2 3 1 4 21 5 19 6 18 7 16 8 15 9 14 10 13 11 5 12
REMARK SMILES IDX 6 13 7 14 8 15 12 16 10 17 9 18 11 20 20 22 17 24
REMARK H PARENT 9 19 11 21 20 23 17 25
REMARK Flexibility Score: inf
ROOT
ATOM      1  C   UNL     1       9.423  30.274   4.906  1.00  0.00     0.138 A 
ATOM      2  C   UNL     1       9.223  28.884   4.941  1.00  0.00     0.100 A 
ATOM      3  C   UNL     1       9.047  28.186   3.745  1.00  0.00     0.197 A 
ATOM      4  O   UNL     1       8.866  26.939   3.786  1.00  0.00    -0.289 OA
ATOM      5  C   UNL     1       9.069  28.885   2.523  1.00  0.00     0.107 A 
ATOM      6  C   UNL     1       8.900  28.254   1.266  1.00  0.00     0.134 A 
ATOM      7  C   UNL     1       8.930  29.023   0.093  1.00  0.00     0.093 A 
ATOM      8  C   UNL     1       9.123  30.405   0.152  1.00  0.00     0.123 A 
ATOM      9  C   UNL     1       9.291  31.034   1.390  1.00  0.00     0.094 A 
ATOM     10  C   UNL     1       9.266  30.286   2.570  1.00  0.00     0.146 A 
ATOM     11  O   UNL     1       9.429  30.906   3.735  1.00  0.00    -0.456 OA
ENDROOT
BRANCH   1  12
ATOM     12  C   UNL     1       9.615  31.068   6.147  1.00  0.00     0.021 A 
ATOM     13  C   UNL     1       8.557  31.785   6.738  1.00  0.00     0.016 A 
ATOM     14  C   UNL     1       8.764  32.515   7.911  1.00  0.00     0.051 A 
ATOM     15  C   UNL     1      10.026  32.537   8.518  1.00  0.00     0.157 A 
ATOM     16  C   UNL     1      10.876  31.085   6.768  1.00  0.00     0.062 A 
ATOM     17  C   UNL     1      11.086  31.817   7.944  1.00  0.00     0.158 A 
BRANCH  15  18
ATOM     18  O   UNL     1      10.229  33.268   9.687  1.00  0.00    -0.504 OA
ATOM     19  H   UNL     1      10.472  32.815  10.560  1.00  0.00     0.293 HD
ENDBRANCH  15  18
BRANCH  17  20
ATOM     20  O   UNL     1      12.354  31.815   8.524  1.00  0.00    -0.504 OA
ATOM     21  H   UNL     1      12.575  31.245   9.332  1.00  0.00     0.293 HD
ENDBRANCH  17  20
ENDBRANCH   1  12
BRANCH   6  22
ATOM     22  O   UNL     1       8.704  26.875   1.176  1.00  0.00    -0.507 OA
ATOM     23  H   UNL     1       9.006  26.246   1.910  1.00  0.00     0.293 HD
ENDBRANCH   6  22
BRANCH   8  24
ATOM     24  O   UNL     1       9.148  31.146  -1.029  1.00  0.00    -0.508 OA
ATOM     25  H   UNL     1      10.011  31.311  -1.533  1.00  0.00     0.293 HD
ENDBRANCH   8  24
TORSDOF 5
ENDMDL
MODEL 2
REMARK VINA RESULT:    -6.420      6.393     11.478
REMARK INTER + INTRA:          -7.809
REMARK INTER:                  -7.532
REMARK INTRA:                  -0.277
REMARK UNBOUND:                -0.263
REMARK SMILES O=c1cc(-c2ccc(O)c(O)c2)oc2cc(O)cc(O)c12
REMARK SMILES IDX 4 1 3 2 2 3 1 4 21 5 19 6 18 7 16 8 15 9 14 10 13 11 5 12
REMARK SMILES IDX 6 13 7 14 8 15 12 16 10 17 9 18 11 20 20 22 17 24
REMARK H PARENT 9 19 11 21 20 23 17 25
REMARK Flexibility Score: inf
ROOT
ATOM      1  C   UNL     1      11.682  30.297  -5.302  1.00  0.00     0.138 A 
ATOM      2  C   UNL     1      10.874  31.446  -5.283  1.00  0.00     0.100 A 
ATOM      3  C   UNL     1      10.059  31.694  -4.178  1.00  0.00     0.197 A 
ATOM      4  O   UNL     1       9.336  32.726  -4.171  1.00  0.00    -0.289 OA
ATOM      5  C   UNL     1      10.055  30.788  -3.100  1.00  0.00     0.107 A 
ATOM      6  C   UNL     1       9.260  30.964  -1.942  1.00  0.00     0.134 A 
ATOM      7  C   UNL     1       9.310  30.011  -0.913  1.00  0.00     0.093 A 
ATOM      8  C   UNL     1      10.135  28.890  -1.020  1.00  0.00     0.123 A 
ATOM      9  C   UNL     1      10.923  28.710  -2.161  1.00  0.00     0.094 A 
ATOM     10  C   UNL     1      10.889  29.648  -3.197  1.00  0.00     0.146 A 
ATOM     11  O   UNL     1      11.648  29.456  -4.271  1.00  0.00    -0.456 OA
ENDROOT
BRANCH   1  12
ATOM     12  C   UNL     1      12.568  29.982  -6.452  1.00  0.00     0.021 A 
ATOM     13  C   UNL     1      12.057  29.786  -7.748  1.00  0.00     0.016 A 
ATOM     14  C   UNL     1      12.915  29.501  -8.813  1.00  0.00     0.051 A 
ATOM     15  C   UNL     1      14.298  29.415  -8.604  1.00  0.00     0.157 A 
ATOM     16  C   UNL     1      13.958  29.906  -6.252  1.00  0.00     0.062 A 
ATOM     17  C   UNL     1      14.821  29.620  -7.317  1.00  0.00     0.158 A 
BRANCH  15  18
ATOM     18  O   UNL     1      15.151  29.129  -9.668  1.00  0.00    -0.504 OA
ATOM     19  H   UNL     1      15.887  29.768  -9.945  1.00  0.00     0.293 HD
ENDBRANCH  15  18
BRANCH  17  20
ATOM     20  O   UNL     1      16.192  29.545  -7.076  1.00  0.00    -0.504 OA
ATOM     21  H   UNL     1      16.570  29.471  -6.138  1.00  0.00     0.293 HD
ENDBRANCH  17  20
ENDBRANCH   1  12
BRANCH   6  22
ATOM     22  O   UNL     1       8.425  32.074  -1.807  1.00  0.00    -0.507 OA
ATOM     23  H   UNL     1       7.739  32.137  -1.064  1.00  0.00     0.293 HD
ENDBRANCH   6  22
BRANCH   8  24
ATOM     24  O   UNL     1      10.166  27.958   0.017  1.00  0.00    -0.508 OA
ATOM     25  H   UNL     1      10.456  28.215   0.952  1.00  0.00     0.293 HD
ENDBRANCH   8  24
TORSDOF 5
ENDMDL
MODEL 3
REMARK VINA RESULT:    -6.334      7.096     11.885
REMARK INTER + INTRA:          -7.708
REMARK INTER:                  -7.411
REMARK INTRA:                  -0.297
REMARK UNBOUND:                -0.263
REMARK SMILES O=c1cc(-c2ccc(O)c(O)c2)oc2cc(O)cc(O)c12
REMARK SMILES IDX 4 1 3 2 2 3 1 4 21 5 19 6 18 7 16 8 15 9 14 10 13 11 5 12
REMARK SMILES IDX 6 13 7 14 8 15 12 16 10 17 9 18 11 20 20 22 17 24
REMARK H PARENT 9 19 11 21 20 23 17 25
REMARK Flexibility Score: inf
ROOT
ATOM      1  C   UNL     1      11.197  31.939  -6.267  1.00  0.00     0.138 A 
ATOM      2  C   UNL     1      12.217  31.047  -6.641  1.00  0.00     0.100 A 
ATOM      3  C   UNL     1      12.673  30.103  -5.721  1.00  0.00     0.197 A 
ATOM      4  O   UNL     1      13.590  29.308  -6.065  1.00  0.00    -0.289 OA
ATOM      5  C   UNL     1      12.109  30.058  -4.432  1.00  0.00     0.107 A 
ATOM      6  C   UNL     1      12.513  29.132  -3.440  1.00  0.00     0.134 A 
ATOM      7  C   UNL     1      11.903  29.156  -2.177  1.00  0.00     0.093 A 
ATOM      8  C   UNL     1      10.903  30.086  -1.886  1.00  0.00     0.123 A 
ATOM      9  C   UNL     1      10.499  31.004  -2.861  1.00  0.00     0.094 A 
ATOM     10  C   UNL     1      11.093  30.996  -4.127  1.00  0.00     0.146 A 
ATOM     11  O   UNL     1      10.692  31.877  -5.037  1.00  0.00    -0.456 OA
ENDROOT
BRANCH   1  12
ATOM     12  C   UNL     1      10.673  32.965  -7.204  1.00  0.00     0.021 A 
ATOM     13  C   UNL     1      10.425  32.674  -8.558  1.00  0.00     0.016 A 
ATOM     14  C   UNL     1       9.922  33.657  -9.414  1.00  0.00     0.051 A 
ATOM     15  C   UNL     1       9.651  34.945  -8.932  1.00  0.00     0.157 A 
ATOM     16  C   UNL     1      10.387  34.256  -6.724  1.00  0.00     0.062 A 
ATOM     17  C   UNL     1       9.884  35.244  -7.580  1.00  0.00     0.158 A 
BRANCH  15  18
ATOM     18  O   UNL     1       9.151  35.923  -9.789  1.00  0.00    -0.504 OA
ATOM     19  H   UNL     1       9.703  36.291 -10.555  1.00  0.00     0.293 HD
ENDBRANCH  15  18
BRANCH  17  20
ATOM     20  O   UNL     1       9.622  36.514  -7.067  1.00  0.00    -0.504 OA
ATOM     21  H   UNL     1      10.244  36.966  -6.407  1.00  0.00     0.293 HD
ENDBRANCH  17  20
ENDBRANCH   1  12
BRANCH   6  22
ATOM     22  O   UNL     1      13.510  28.191  -3.701  1.00  0.00    -0.507 OA
ATOM     23  H   UNL     1      14.336  28.425  -4.239  1.00  0.00     0.293 HD
ENDBRANCH   6  22
BRANCH   8  24
ATOM     24  O   UNL     1      10.314  30.090  -0.623  1.00  0.00    -0.508 OA
ATOM     25  H   UNL     1       9.902  30.929  -0.232  1.00  0.00     0.293 HD
ENDBRANCH   8  24
TORSDOF 5
ENDMDL
MODEL 4
REMARK VINA RESULT:    -6.323      3.985      7.402
REMARK INTER + INTRA:          -7.695
REMARK INTER:                  -7.420
REMARK INTRA:                  -0.276
REMARK UNBOUND:                -0.263
REMARK SMILES O=c1cc(-c2ccc(O)c(O)c2)oc2cc(O)cc(O)c12
REMARK SMILES IDX 4 1 3 2 2 3 1 4 21 5 19 6 18 7 16 8 15 9 14 10 13 11 5 12
REMARK SMILES IDX 6 13 7 14 8 15 12 16 10 17 9 18 11 20 20 22 17 24
REMARK H PARENT 9 19 11 21 20 23 17 25
REMARK Flexibility Score: inf
ROOT
ATOM      1  C   UNL     1       9.942  30.378  -1.588  1.00  0.00     0.138 A 
ATOM      2  C   UNL     1       9.286  31.329  -2.388  1.00  0.00     0.100 A 
ATOM      3  C   UNL     1       9.756  31.584  -3.676  1.00  0.00     0.197 A 
ATOM      4  O   UNL     1       9.162  32.440  -4.386  1.00  0.00    -0.289 OA
ATOM      5  C   UNL     1      10.882  30.887  -4.157  1.00  0.00     0.107 A 
ATOM      6  C   UNL     1      11.422  31.084  -5.450  1.00  0.00     0.134 A 
ATOM      7  C   UNL     1      12.551  30.353  -5.851  1.00  0.00     0.093 A 
ATOM      8  C   UNL     1      13.148  29.434  -4.985  1.00  0.00     0.123 A 
ATOM      9  C   UNL     1      12.620  29.235  -3.706  1.00  0.00     0.094 A 
ATOM     10  C   UNL     1      11.495  29.952  -3.288  1.00  0.00     0.146 A 
ATOM     11  O   UNL     1      11.010  29.744  -2.068  1.00  0.00    -0.456 OA
ENDROOT
BRANCH   1  12
ATOM     12  C   UNL     1       9.487  30.067  -0.209  1.00  0.00     0.021 A 
ATOM     13  C   UNL     1       9.479  31.043   0.805  1.00  0.00     0.016 A 
ATOM     14  C   UNL     1       9.036  30.725   2.091  1.00  0.00     0.051 A 
ATOM     15  C   UNL     1       8.587  29.431   2.386  1.00  0.00     0.157 A 
ATOM     16  C   UNL     1       9.023  28.774   0.090  1.00  0.00     0.062 A 
ATOM     17  C   UNL     1       8.579  28.452   1.379  1.00  0.00     0.158 A 
BRANCH  15  18
ATOM     18  O   UNL     1       8.147  29.117   3.670  1.00  0.00    -0.504 OA
ATOM     19  H   UNL     1       7.366  28.489   3.825  1.00  0.00     0.293 HD
ENDBRANCH  15  18
BRANCH  17  20
ATOM     20  O   UNL     1       8.135  27.156   1.637  1.00  0.00    -0.504 OA
ATOM     21  H   UNL     1       8.768  26.364   1.655  1.00  0.00     0.293 HD
ENDBRANCH  17  20
ENDBRANCH   1  12
BRANCH   6  22
ATOM     22  O   UNL     1      10.848  31.996  -6.336  1.00  0.00    -0.507 OA
ATOM     23  H   UNL     1       9.969  32.457  -6.131  1.00  0.00     0.293 HD
ENDBRANCH   6  22
BRANCH   8  24
ATOM     24  O   UNL     1      14.269  28.721  -5.408  1.00  0.00    -0.508 OA
ATOM     25  H   UNL     1      15.147  28.766  -4.904  1.00  0.00     0.293 HD
ENDBRANCH   8  24
TORSDOF 5
ENDMDL
MODEL 5
REMARK VINA RESULT:    -6.290      7.695     12.535
REMARK INTER + INTRA:          -7.657
REMARK INTER:                  -7.340
REMARK INTRA:                  -0.316
REMARK UNBOUND:                -0.263
REMARK SMILES O=c1cc(-c2ccc(O)c(O)c2)oc2cc(O)cc(O)c12
REMARK SMILES IDX 4 1 3 2 2 3 1 4 21 5 19 6 18 7 16 8 15 9 14 10 13 11 5 12
REMARK SMILES IDX 6 13 7 14 8 15 12 16 10 17 9 18 11 20 20 22 17 24
REMARK H PARENT 9 19 11 21 20 23 17 25
REMARK Flexibility Score: inf
ROOT
ATOM      1  C   UNL     1      12.445  29.742  -6.630  1.00  0.00     0.138 A 
ATOM      2  C   UNL     1      11.121  29.889  -7.077  1.00  0.00     0.100 A 
ATOM      3  C   UNL     1      10.124  30.240  -6.167  1.00  0.00     0.197 A 
ATOM      4  O   UNL     1       8.939  30.367  -6.577  1.00  0.00    -0.289 OA
ATOM      5  C   UNL     1      10.457  30.440  -4.813  1.00  0.00     0.107 A 
ATOM      6  C   UNL     1       9.508  30.799  -3.826  1.00  0.00     0.134 A 
ATOM      7  C   UNL     1       9.921  30.976  -2.496  1.00  0.00     0.093 A 
ATOM      8  C   UNL     1      11.259  30.798  -2.136  1.00  0.00     0.123 A 
ATOM      9  C   UNL     1      12.201  30.444  -3.107  1.00  0.00     0.094 A 
ATOM     10  C   UNL     1      11.811  30.265  -4.437  1.00  0.00     0.146 A 
ATOM     11  O   UNL     1      12.725  29.929  -5.342  1.00  0.00    -0.456 OA
ENDROOT
BRANCH   1  12
ATOM     12  C   UNL     1      13.546  29.368  -7.553  1.00  0.00     0.021 A 
ATOM     13  C   UNL     1      13.294  28.908  -8.859  1.00  0.00     0.016 A 
ATOM     14  C   UNL     1      14.350  28.573  -9.709  1.00  0.00     0.051 A 
ATOM     15  C   UNL     1      15.676  28.698  -9.274  1.00  0.00     0.157 A 
ATOM     16  C   UNL     1      14.880  29.503  -7.128  1.00  0.00     0.062 A 
ATOM     17  C   UNL     1      15.941  29.167  -7.978  1.00  0.00     0.158 A 
BRANCH  15  18
ATOM     18  O   UNL     1      16.727  28.362 -10.125  1.00  0.00    -0.504 OA
ATOM     19  H   UNL     1      17.635  28.807 -10.050  1.00  0.00     0.293 HD
ENDBRANCH  15  18
BRANCH  17  20
ATOM     20  O   UNL     1      17.249  29.307  -7.515  1.00  0.00    -0.504 OA
ATOM     21  H   UNL     1      18.039  28.905  -8.007  1.00  0.00     0.293 HD
ENDBRANCH  17  20
ENDBRANCH   1  12
BRANCH   6  22
ATOM     22  O   UNL     1       8.164  30.983  -4.155  1.00  0.00    -0.507 OA
ATOM     23  H   UNL     1       7.520  30.204  -4.214  1.00  0.00     0.293 HD
ENDBRANCH   6  22
BRANCH   8  24
ATOM     24  O   UNL     1      11.642  30.979  -0.808  1.00  0.00    -0.508 OA
ATOM     25  H   UNL     1      11.239  31.710  -0.235  1.00  0.00     0.293 HD
ENDBRANCH   8  24
TORSDOF 5
ENDMDL
MODEL 6
REMARK VINA RESULT:    -6.199      3.309      7.976
REMARK INTER + INTRA:          -7.549
REMARK INTER:                  -7.286
REMARK INTRA:                  -0.263
REMARK UNBOUND:                -0.263
REMARK SMILES O=c1cc(-c2ccc(O)c(O)c2)oc2cc(O)cc(O)c12
REMARK SMILES IDX 4 1 3 2 2 3 1 4 21 5 19 6 18 7 16 8 15 9 14 10 13 11 5 12
REMARK SMILES IDX 6 13 7 14 8 15 12 16 10 17 9 18 11 20 20 22 17 24
REMARK H PARENT 9 19 11 21 20 23 17 25
REMARK Flexibility Score: inf
ROOT
ATOM      1  C   UNL     1      10.169  29.823  -1.093  1.00  0.00     0.138 A 
ATOM      2  C   UNL     1       9.942  28.464  -0.816  1.00  0.00     0.100 A 
ATOM      3  C   UNL     1       9.375  28.097   0.404  1.00  0.00     0.197 A 
ATOM      4  O   UNL     1       9.177  26.875   0.644  1.00  0.00    -0.289 OA
ATOM      5  C   UNL     1       9.040  29.093   1.343  1.00  0.00     0.107 A 
ATOM      6  C   UNL     1       8.461  28.808   2.602  1.00  0.00     0.134 A 
ATOM      7  C   UNL     1       8.161  29.858   3.483  1.00  0.00     0.093 A 
ATOM      8  C   UNL     1       8.431  31.182   3.131  1.00  0.00     0.123 A 
ATOM      9  C   UNL     1       9.003  31.471   1.888  1.00  0.00     0.094 A 
ATOM     10  C   UNL     1       9.308  30.439   0.995  1.00  0.00     0.146 A 
ATOM     11  O   UNL     1       9.850  30.738  -0.181  1.00  0.00    -0.456 OA
ENDROOT
BRANCH   1  12
ATOM     12  C   UNL     1      10.771  30.271  -2.374  1.00  0.00     0.021 A 
ATOM     13  C   UNL     1       9.989  30.821  -3.408  1.00  0.00     0.016 A 
ATOM     14  C   UNL     1      10.584  31.244  -4.599  1.00  0.00     0.051 A 
ATOM     15  C   UNL     1      11.969  31.132  -4.777  1.00  0.00     0.157 A 
ATOM     16  C   UNL     1      12.162  30.173  -2.555  1.00  0.00     0.062 A 
ATOM     17  C   UNL     1      12.761  30.596  -3.748  1.00  0.00     0.158 A 
BRANCH  15  18
ATOM     18  O   UNL     1      12.559  31.553  -5.967  1.00  0.00    -0.504 OA
ATOM     19  H   UNL     1      13.565  31.553  -6.090  1.00  0.00     0.293 HD
ENDBRANCH  15  18
BRANCH  17  20
ATOM     20  O   UNL     1      14.143  30.474  -3.892  1.00  0.00    -0.504 OA
ATOM     21  H   UNL     1      14.561  29.975  -4.669  1.00  0.00     0.293 HD
ENDBRANCH  17  20
ENDBRANCH   1  12
BRANCH   6  22
ATOM     22  O   UNL     1       8.181  27.494   2.983  1.00  0.00    -0.507 OA
ATOM     23  H   UNL     1       7.285  27.063   2.787  1.00  0.00     0.293 HD
ENDBRANCH   6  22
BRANCH   8  24
ATOM     24  O   UNL     1       8.124  32.207   4.025  1.00  0.00    -0.508 OA
ATOM     25  H   UNL     1       8.814  32.898   4.296  1.00  0.00     0.293 HD
ENDBRANCH   8  24
TORSDOF 5
ENDMDL
MODEL 7
REMARK VINA RESULT:    -6.055      4.783      7.730
REMARK INTER + INTRA:          -7.380
REMARK INTER:                  -7.078
REMARK INTRA:                  -0.303
REMARK UNBOUND:                -0.263
REMARK SMILES O=c1cc(-c2ccc(O)c(O)c2)oc2cc(O)cc(O)c12
REMARK SMILES IDX 4 1 3 2 2 3 1 4 21 5 19 6 18 7 16 8 15 9 14 10 13 11 5 12
REMARK SMILES IDX 6 13 7 14 8 15 12 16 10 17 9 18 11 20 20 22 17 24
REMARK H PARENT 9 19 11 21 20 23 17 25
REMARK Flexibility Score: inf
ROOT
ATOM      1  C   UNL     1      10.475  29.434  -1.989  1.00  0.00     0.138 A 
ATOM      2  C   UNL     1      11.701  29.005  -2.525  1.00  0.00     0.100 A 
ATOM      3  C   UNL     1      12.207  29.628  -3.666  1.00  0.00     0.197 A 
ATOM      4  O   UNL     1      13.307  29.235  -4.141  1.00  0.00    -0.289 OA
ATOM      5  C   UNL     1      11.481  30.675  -4.266  1.00  0.00     0.107 A 
ATOM      6  C   UNL     1      11.922  31.361  -5.423  1.00  0.00     0.134 A 
ATOM      7  C   UNL     1      11.138  32.391  -5.962  1.00  0.00     0.093 A 
ATOM      8  C   UNL     1       9.924  32.746  -5.370  1.00  0.00     0.123 A 
ATOM      9  C   UNL     1       9.482  32.073  -4.227  1.00  0.00     0.094 A 
ATOM     10  C   UNL     1      10.249  31.044  -3.673  1.00  0.00     0.146 A 
ATOM     11  O   UNL     1       9.810  30.420  -2.586  1.00  0.00    -0.456 OA
ENDROOT
BRANCH   1  12
ATOM     12  C   UNL     1       9.888  28.806  -0.778  1.00  0.00     0.021 A 
ATOM     13  C   UNL     1      10.052  27.436  -0.500  1.00  0.00     0.016 A 
ATOM     14  C   UNL     1       9.497  26.875   0.653  1.00  0.00     0.051 A 
ATOM     15  C   UNL     1       8.776  27.672   1.552  1.00  0.00     0.157 A 
ATOM     16  C   UNL     1       9.174  29.603   0.136  1.00  0.00     0.062 A 
ATOM     17  C   UNL     1       8.617  29.043   1.292  1.00  0.00     0.158 A 
BRANCH  15  18
ATOM     18  O   UNL     1       8.223  27.109   2.700  1.00  0.00    -0.504 OA
ATOM     19  H   UNL     1       8.794  26.619   3.379  1.00  0.00     0.293 HD
ENDBRANCH  15  18
BRANCH  17  20
ATOM     20  O   UNL     1       7.908  29.864   2.168  1.00  0.00    -0.504 OA
ATOM     21  H   UNL     1       6.932  30.094   2.020  1.00  0.00     0.293 HD
ENDBRANCH  17  20
ENDBRANCH   1  12
BRANCH   6  22
ATOM     22  O   UNL     1      13.131  31.028  -6.037  1.00  0.00    -0.507 OA
ATOM     23  H   UNL     1      13.283  30.118  -6.454  1.00  0.00     0.293 HD
ENDBRANCH   6  22
BRANCH   8  24
ATOM     24  O   UNL     1       9.162  33.773  -5.927  1.00  0.00    -0.508 OA
ATOM     25  H   UNL     1       8.668  33.651  -6.803  1.00  0.00     0.293 HD
ENDBRANCH   8  24
TORSDOF 5
ENDMDL
MODEL 8
REMARK VINA RESULT:    -6.055      5.622      9.172
REMARK INTER + INTRA:          -7.380
REMARK INTER:                  -7.104
REMARK INTRA:                  -0.277
REMARK UNBOUND:                -0.263
REMARK SMILES O=c1cc(-c2ccc(O)c(O)c2)oc2cc(O)cc(O)c12
REMARK SMILES IDX 4 1 3 2 2 3 1 4 21 5 19 6 18 7 16 8 15 9 14 10 13 11 5 12
REMARK SMILES IDX 6 13 7 14 8 15 12 16 10 17 9 18 11 20 20 22 17 24
REMARK H PARENT 9 19 11 21 20 23 17 25
REMARK Flexibility Score: inf
ROOT
ATOM      1  C   UNL     1      10.577  29.623  -3.670  1.00  0.00     0.138 A 
ATOM      2  C   UNL     1       9.721  29.870  -4.756  1.00  0.00     0.100 A 
ATOM      3  C   UNL     1      10.258  29.995  -6.038  1.00  0.00     0.197 A 
ATOM      4  O   UNL     1       9.482  30.219  -7.006  1.00  0.00    -0.289 OA
ATOM      5  C   UNL     1      11.648  29.875  -6.225  1.00  0.00     0.107 A 
ATOM      6  C   UNL     1      12.274  29.987  -7.489  1.00  0.00     0.134 A 
ATOM      7  C   UNL     1      13.667  29.859  -7.590  1.00  0.00     0.093 A 
ATOM      8  C   UNL     1      14.445  29.624  -6.454  1.00  0.00     0.123 A 
ATOM      9  C   UNL     1      13.833  29.512  -5.201  1.00  0.00     0.094 A 
ATOM     10  C   UNL     1      12.446  29.635  -5.079  1.00  0.00     0.146 A 
ATOM     11  O   UNL     1      11.888  29.524  -3.879  1.00  0.00    -0.456 OA
ENDROOT
BRANCH   1  12
ATOM     12  C   UNL     1      10.062  29.482  -2.284  1.00  0.00     0.021 A 
ATOM     13  C   UNL     1       9.375  30.529  -1.639  1.00  0.00     0.016 A 
ATOM     14  C   UNL     1       8.893  30.364  -0.339  1.00  0.00     0.051 A 
ATOM     15  C   UNL     1       9.080  29.152   0.338  1.00  0.00     0.157 A 
ATOM     16  C   UNL     1      10.235  28.264  -1.603  1.00  0.00     0.062 A 
ATOM     17  C   UNL     1       9.753  28.097  -0.299  1.00  0.00     0.158 A 
BRANCH  15  18
ATOM     18  O   UNL     1       8.598  28.992   1.636  1.00  0.00    -0.504 OA
ATOM     19  H   UNL     1       9.209  28.728   2.400  1.00  0.00     0.293 HD
ENDBRANCH  15  18
BRANCH  17  20
ATOM     20  O   UNL     1       9.953  26.877   0.345  1.00  0.00    -0.504 OA
ATOM     21  H   UNL     1       9.858  25.991  -0.139  1.00  0.00     0.293 HD
ENDBRANCH  17  20
ENDBRANCH   1  12
BRANCH   6  22
ATOM     22  O   UNL     1      11.523  30.222  -8.643  1.00  0.00    -0.507 OA
ATOM     23  H   UNL     1      10.735  29.637  -8.893  1.00  0.00     0.293 HD
ENDBRANCH   6  22
BRANCH   8  24
ATOM     24  O   UNL     1      15.828  29.502  -6.581  1.00  0.00    -0.508 OA
ATOM     25  H   UNL     1      16.327  28.709  -6.196  1.00  0.00     0.293 HD
ENDBRANCH   8  24
TORSDOF 5
ENDMDL
MODEL 9
REMARK VINA RESULT:    -5.960      7.315     11.408
REMARK INTER + INTRA:          -7.269
REMARK INTER:                  -6.993
REMARK INTRA:                  -0.276
REMARK UNBOUND:                -0.263
REMARK SMILES O=c1cc(-c2ccc(O)c(O)c2)oc2cc(O)cc(O)c12
REMARK SMILES IDX 4 1 3 2 2 3 1 4 21 5 19 6 18 7 16 8 15 9 14 10 13 11 5 12
REMARK SMILES IDX 6 13 7 14 8 15 12 16 10 17 9 18 11 20 20 22 17 24
REMARK H PARENT 9 19 11 21 20 23 17 25
REMARK Flexibility Score: inf
ROOT
ATOM      1  C   UNL     1      10.297  32.422  -5.357  1.00  0.00     0.138 A 
ATOM      2  C   UNL     1       9.334  32.514  -4.337  1.00  0.00     0.100 A 
ATOM      3  C   UNL     1       9.394  31.637  -3.255  1.00  0.00     0.197 A 
ATOM      4  O   UNL     1       8.525  31.726  -2.346  1.00  0.00    -0.289 OA
ATOM      5  C   UNL     1      10.416  30.669  -3.199  1.00  0.00     0.107 A 
ATOM      6  C   UNL     1      10.551  29.743  -2.138  1.00  0.00     0.134 A 
ATOM      7  C   UNL     1      11.595  28.806  -2.160  1.00  0.00     0.093 A 
ATOM      8  C   UNL     1      12.503  28.777  -3.220  1.00  0.00     0.123 A 
ATOM      9  C   UNL     1      12.376  29.690  -4.273  1.00  0.00     0.094 A 
ATOM     10  C   UNL     1      11.344  30.632  -4.269  1.00  0.00     0.146 A 
ATOM     11  O   UNL     1      11.244  31.490  -5.279  1.00  0.00    -0.456 OA
ENDROOT
BRANCH   1  12
ATOM     12  C   UNL     1      10.281  33.327  -6.533  1.00  0.00     0.021 A 
ATOM     13  C   UNL     1      10.445  32.842  -7.844  1.00  0.00     0.016 A 
ATOM     14  C   UNL     1      10.415  33.716  -8.933  1.00  0.00     0.051 A 
ATOM     15  C   UNL     1      10.214  35.089  -8.734  1.00  0.00     0.157 A 
ATOM     16  C   UNL     1      10.067  34.704  -6.342  1.00  0.00     0.062 A 
ATOM     17  C   UNL     1      10.038  35.583  -7.432  1.00  0.00     0.158 A 
BRANCH  15  18
ATOM     18  O   UNL     1      10.187  35.958  -9.822  1.00  0.00    -0.504 OA
ATOM     19  H   UNL     1       9.327  36.156 -10.322  1.00  0.00     0.293 HD
ENDBRANCH  15  18
BRANCH  17  20
ATOM     20  O   UNL     1       9.833  36.943  -7.199  1.00  0.00    -0.504 OA
ATOM     21  H   UNL     1      10.506  37.510  -6.697  1.00  0.00     0.293 HD
ENDBRANCH  17  20
ENDBRANCH   1  12
BRANCH   6  22
ATOM     22  O   UNL     1       9.658  29.747  -1.064  1.00  0.00    -0.507 OA
ATOM     23  H   UNL     1       9.784  30.362  -0.270  1.00  0.00     0.293 HD
ENDBRANCH   6  22
BRANCH   8  24
ATOM     24  O   UNL     1      13.531  27.836  -3.219  1.00  0.00    -0.508 OA
ATOM     25  H   UNL     1      13.637  27.165  -3.971  1.00  0.00     0.293 HD
ENDBRANCH   8  24
TORSDOF 5
ENDMDL
