MODEL 1
REMARK VINA RESULT:    -6.112      0.000      0.000
REMARK INTER + INTRA:          -7.492
REMARK INTER:                  -7.184
REMARK INTRA:                  -0.307
REMARK UNBOUND:                -0.307
REMARK SMILES O=c1cc(-c2ccc(O)c(O)c2)oc2cc(O)cc(O)c12
REMARK SMILES IDX 4 1 3 2 2 3 1 4 21 5 19 6 18 7 16 8 15 9 14 10 13 11 5 12
REMARK SMILES IDX 6 13 7 14 8 15 12 16 10 17 9 18 11 20 20 22 17 24
REMARK H PARENT 9 19 11 21 20 23 17 25
REMARK Flexibility Score: inf
ROOT
ATOM      1  C   UNL     1      26.470  25.551 -13.522  1.00  0.00     0.138 A 
ATOM      2  C   UNL     1      25.862  26.011 -14.699  1.00  0.00     0.100 A 
ATOM      3  C   UNL     1      25.877  27.373 -14.999  1.00  0.00     0.197 A 
ATOM      4  O   UNL     1      25.377  27.747 -16.091  1.00  0.00    -0.289 OA
ATOM      5  C   UNL     1      26.478  28.285 -14.097  1.00  0.00     0.107 A 
ATOM      6  C   UNL     1      26.517  29.699 -14.278  1.00  0.00     0.134 A 
ATOM      7  C   UNL     1      27.241  30.490 -13.377  1.00  0.00     0.093 A 
ATOM      8  C   UNL     1      27.875  29.926 -12.271  1.00  0.00     0.123 A 
ATOM      9  C   UNL     1      27.799  28.549 -12.055  1.00  0.00     0.094 A 
ATOM     10  C   UNL     1      27.113  27.729 -12.954  1.00  0.00     0.146 A 
ATOM     11  O   UNL     1      27.075  26.422 -12.720  1.00  0.00    -0.456 OA
ENDROOT
BRANCH   1  12
ATOM     12  C   UNL     1      26.482  24.112 -13.155  1.00  0.00     0.021 A 
ATOM     13  C   UNL     1      25.445  23.244 -13.539  1.00  0.00     0.016 A 
ATOM     14  C   UNL     1      25.478  21.898 -13.170  1.00  0.00     0.051 A 
ATOM     15  C   UNL     1      26.535  21.390 -12.410  1.00  0.00     0.157 A 
ATOM     16  C   UNL     1      27.538  23.605 -12.379  1.00  0.00     0.062 A 
ATOM     17  C   UNL     1      27.578  22.255 -12.006  1.00  0.00     0.158 A 
BRANCH  15  18
ATOM     18  O   UNL     1      26.508  20.033 -12.077  1.00  0.00    -0.504 OA
ATOM     19  H   UNL     1      26.444  19.685 -11.132  1.00  0.00     0.293 HD
ENDBRANCH  15  18
BRANCH  17  20
ATOM     20  O   UNL     1      28.664  21.823 -11.242  1.00  0.00    -0.504 OA
ATOM     21  H   UNL     1      28.617  21.630 -10.252  1.00  0.00     0.293 HD
ENDBRANCH  17  20
ENDBRANCH   1  12
BRANCH   6  22
ATOM     22  O   UNL     1      25.846  30.375 -15.302  1.00  0.00    -0.507 OA
ATOM     23  H   UNL     1      26.088  31.292 -15.643  1.00  0.00     0.293 HD
ENDBRANCH   6  22
BRANCH   8  24
ATOM     24  O   UNL     1      28.574  30.746 -11.388  1.00  0.00    -0.508 OA
ATOM     25  H   UNL     1      28.142  31.559 -10.965  1.00  0.00     0.293 HD
ENDBRANCH   8  24
TORSDOF 5
ENDMDL
MODEL 2
REMARK VINA RESULT:    -6.047      5.662      7.077
REMARK INTER + INTRA:          -7.415
REMARK INTER:                  -7.138
REMARK INTRA:                  -0.278
REMARK UNBOUND:                -0.307
REMARK SMILES O=c1cc(-c2ccc(O)c(O)c2)oc2cc(O)cc(O)c12
REMARK SMILES IDX 4 1 3 2 2 3 1 4 21 5 19 6 18 7 16 8 15 9 14 10 13 11 5 12
REMARK SMILES IDX 6 13 7 14 8 15 12 16 10 17 9 18 11 20 20 22 17 24
REMARK H PARENT 9 19 11 21 20 23 17 25
REMARK Flexibility Score: inf
ROOT
ATOM      1  C   UNL     1      24.314  30.756 -11.413  1.00  0.00     0.138 A 
ATOM      2  C   UNL     1      24.111  30.693 -12.799  1.00  0.00     0.100 A 
ATOM      3  C   UNL     1      25.207  30.559 -13.652  1.00  0.00     0.197 A 
ATOM      4  O   UNL     1      24.989  30.442 -14.886  1.00  0.00    -0.289 OA
ATOM      5  C   UNL     1      26.516  30.519 -13.114  1.00  0.00     0.107 A 
ATOM      6  C   UNL     1      27.710  30.425 -13.890  1.00  0.00     0.134 A 
ATOM      7  C   UNL     1      28.943  30.277 -13.243  1.00  0.00     0.093 A 
ATOM      8  C   UNL     1      29.032  30.279 -11.851  1.00  0.00     0.123 A 
ATOM      9  C   UNL     1      27.875  30.424 -11.083  1.00  0.00     0.094 A 
ATOM     10  C   UNL     1      26.627  30.540 -11.698  1.00  0.00     0.146 A 
ATOM     11  O   UNL     1      25.549  30.662 -10.932  1.00  0.00    -0.456 OA
ENDROOT
BRANCH   1  12
ATOM     12  C   UNL     1      23.183  30.900 -10.461  1.00  0.00     0.021 A 
ATOM     13  C   UNL     1      22.349  32.031 -10.470  1.00  0.00     0.016 A 
ATOM     14  C   UNL     1      21.300  32.144  -9.555  1.00  0.00     0.051 A 
ATOM     15  C   UNL     1      21.063  31.140  -8.611  1.00  0.00     0.157 A 
ATOM     16  C   UNL     1      22.954  29.897  -9.503  1.00  0.00     0.062 A 
ATOM     17  C   UNL     1      21.903  30.003  -8.583  1.00  0.00     0.158 A 
BRANCH  15  18
ATOM     18  O   UNL     1      19.996  31.313  -7.727  1.00  0.00    -0.504 OA
ATOM     19  H   UNL     1      19.038  31.444  -8.018  1.00  0.00     0.293 HD
ENDBRANCH  15  18
BRANCH  17  20
ATOM     20  O   UNL     1      21.732  28.962  -7.667  1.00  0.00    -0.504 OA
ATOM     21  H   UNL     1      22.478  28.573  -7.109  1.00  0.00     0.293 HD
ENDBRANCH  17  20
ENDBRANCH   1  12
BRANCH   6  22
ATOM     22  O   UNL     1      27.742  30.498 -15.286  1.00  0.00    -0.507 OA
ATOM     23  H   UNL     1      28.085  29.771 -15.893  1.00  0.00     0.293 HD
ENDBRANCH   6  22
BRANCH   8  24
ATOM     24  O   UNL     1      30.277  30.144 -11.242  1.00  0.00    -0.508 OA
ATOM     25  H   UNL     1      30.860  29.330 -11.404  1.00  0.00     0.293 HD
ENDBRANCH   8  24
TORSDOF 5
ENDMDL
MODEL 3
REMARK VINA RESULT:    -5.997      5.639      7.346
REMARK INTER + INTRA:          -7.357
REMARK INTER:                  -7.093
REMARK INTRA:                  -0.264
REMARK UNBOUND:                -0.307
REMARK SMILES O=c1cc(-c2ccc(O)c(O)c2)oc2cc(O)cc(O)c12
REMARK SMILES IDX 4 1 3 2 2 3 1 4 21 5 19 6 18 7 16 8 15 9 14 10 13 11 5 12
REMARK SMILES IDX 6 13 7 14 8 15 12 16 10 17 9 18 11 20 20 22 17 24
REMARK H PARENT 9 19 11 21 20 23 17 25
REMARK Flexibility Score: inf
ROOT
ATOM      1  C   UNL     1      24.364  30.688 -11.341  1.00  0.00     0.138 A 
ATOM      2  C   UNL     1      24.141  30.634 -12.724  1.00  0.00     0.100 A 
ATOM      3  C   UNL     1      25.224  30.517 -13.595  1.00  0.00     0.197 A 
ATOM      4  O   UNL     1      24.988  30.408 -14.826  1.00  0.00    -0.289 OA
ATOM      5  C   UNL     1      26.542  30.485 -13.078  1.00  0.00     0.107 A 
ATOM      6  C   UNL     1      27.725  30.409 -13.872  1.00  0.00     0.134 A 
ATOM      7  C   UNL     1      28.969  30.266 -13.245  1.00  0.00     0.093 A 
ATOM      8  C   UNL     1      29.079  30.258 -11.855  1.00  0.00     0.123 A 
ATOM      9  C   UNL     1      27.933  30.386 -11.068  1.00  0.00     0.094 A 
ATOM     10  C   UNL     1      26.675  30.495 -11.664  1.00  0.00     0.146 A 
ATOM     11  O   UNL     1      25.607  30.601 -10.879  1.00  0.00    -0.456 OA
ENDROOT
BRANCH   1  12
ATOM     12  C   UNL     1      23.247  30.813 -10.371  1.00  0.00     0.021 A 
ATOM     13  C   UNL     1      22.867  29.744  -9.541  1.00  0.00     0.016 A 
ATOM     14  C   UNL     1      21.806  29.887  -8.644  1.00  0.00     0.051 A 
ATOM     15  C   UNL     1      21.098  31.089  -8.560  1.00  0.00     0.157 A 
ATOM     16  C   UNL     1      22.527  32.017 -10.296  1.00  0.00     0.062 A 
ATOM     17  C   UNL     1      21.461  32.168  -9.399  1.00  0.00     0.158 A 
BRANCH  15  18
ATOM     18  O   UNL     1      20.049  31.167  -7.641  1.00  0.00    -0.504 OA
ATOM     19  H   UNL     1      19.145  31.566  -7.848  1.00  0.00     0.293 HD
ENDBRANCH  15  18
BRANCH  17  20
ATOM     20  O   UNL     1      20.798  33.397  -9.376  1.00  0.00    -0.504 OA
ATOM     21  H   UNL     1      21.195  34.245  -8.998  1.00  0.00     0.293 HD
ENDBRANCH  17  20
ENDBRANCH   1  12
BRANCH   6  22
ATOM     22  O   UNL     1      27.735  30.493 -15.268  1.00  0.00    -0.507 OA
ATOM     23  H   UNL     1      28.238  31.185 -15.800  1.00  0.00     0.293 HD
ENDBRANCH   6  22
BRANCH   8  24
ATOM     24  O   UNL     1      30.335  30.130 -11.267  1.00  0.00    -0.508 OA
ATOM     25  H   UNL     1      30.714  29.222 -11.022  1.00  0.00     0.293 HD
ENDBRANCH   8  24
TORSDOF 5
ENDMDL
MODEL 4
REMARK VINA RESULT:    -5.877      5.806      7.089
REMARK INTER + INTRA:          -7.215
REMARK INTER:                  -6.898
REMARK INTRA:                  -0.318
REMARK UNBOUND:                -0.307
REMARK SMILES O=c1cc(-c2ccc(O)c(O)c2)oc2cc(O)cc(O)c12
REMARK SMILES IDX 4 1 3 2 2 3 1 4 21 5 19 6 18 7 16 8 15 9 14 10 13 11 5 12
REMARK SMILES IDX 6 13 7 14 8 15 12 16 10 17 9 18 11 20 20 22 17 24
REMARK H PARENT 9 19 11 21 20 23 17 25
REMARK Flexibility Score: inf
ROOT
ATOM      1  C   UNL     1      25.019  30.777 -13.152  1.00  0.00     0.138 A 
ATOM      2  C   UNL     1      24.717  30.954 -14.509  1.00  0.00     0.100 A 
ATOM      3  C   UNL     1      23.387  31.090 -14.909  1.00  0.00     0.197 A 
ATOM      4  O   UNL     1      23.151  31.309 -16.125  1.00  0.00    -0.289 OA
ATOM      5  C   UNL     1      22.352  31.017 -13.945  1.00  0.00     0.107 A 
ATOM      6  C   UNL     1      20.959  31.101 -14.240  1.00  0.00     0.134 A 
ATOM      7  C   UNL     1      20.031  31.133 -13.192  1.00  0.00     0.093 A 
ATOM      8  C   UNL     1      20.441  31.023 -11.864  1.00  0.00     0.123 A 
ATOM      9  C   UNL     1      21.798  30.886 -11.566  1.00  0.00     0.094 A 
ATOM     10  C   UNL     1      22.750  30.885 -12.587  1.00  0.00     0.146 A 
ATOM     11  O   UNL     1      24.033  30.767 -12.261  1.00  0.00    -0.456 OA
ENDROOT
BRANCH   1  12
ATOM     12  C   UNL     1      26.417  30.627 -12.673  1.00  0.00     0.021 A 
ATOM     13  C   UNL     1      27.490  30.467 -13.566  1.00  0.00     0.016 A 
ATOM     14  C   UNL     1      28.793  30.317 -13.086  1.00  0.00     0.051 A 
ATOM     15  C   UNL     1      29.054  30.315 -11.713  1.00  0.00     0.157 A 
ATOM     16  C   UNL     1      26.677  30.611 -11.292  1.00  0.00     0.062 A 
ATOM     17  C   UNL     1      27.982  30.461 -10.803  1.00  0.00     0.158 A 
BRANCH  15  18
ATOM     18  O   UNL     1      30.380  30.164 -11.300  1.00  0.00    -0.504 OA
ATOM     19  H   UNL     1      30.896  30.866 -10.789  1.00  0.00     0.293 HD
ENDBRANCH  15  18
BRANCH  17  20
ATOM     20  O   UNL     1      28.163  30.465  -9.418  1.00  0.00    -0.504 OA
ATOM     21  H   UNL     1      28.944  30.903  -8.952  1.00  0.00     0.293 HD
ENDBRANCH  17  20
ENDBRANCH   1  12
BRANCH   6  22
ATOM     22  O   UNL     1      20.436  31.130 -15.538  1.00  0.00    -0.507 OA
ATOM     23  H   UNL     1      20.009  31.934 -15.969  1.00  0.00     0.293 HD
ENDBRANCH   6  22
BRANCH   8  24
ATOM     24  O   UNL     1      19.489  31.043 -10.847  1.00  0.00    -0.508 OA
ATOM     25  H   UNL     1      19.607  30.500 -10.000  1.00  0.00     0.293 HD
ENDBRANCH   8  24
TORSDOF 5
ENDMDL
MODEL 5
REMARK VINA RESULT:    -5.739      1.569      6.541
REMARK INTER + INTRA:          -7.053
REMARK INTER:                  -6.770
REMARK INTRA:                  -0.283
REMARK UNBOUND:                -0.307
REMARK SMILES O=c1cc(-c2ccc(O)c(O)c2)oc2cc(O)cc(O)c12
REMARK SMILES IDX 4 1 3 2 2 3 1 4 21 5 19 6 18 7 16 8 15 9 14 10 13 11 5 12
REMARK SMILES IDX 6 13 7 14 8 15 12 16 10 17 9 18 11 20 20 22 17 24
REMARK H PARENT 9 19 11 21 20 23 17 25
REMARK Flexibility Score: inf
ROOT
ATOM      1  C   UNL     1      26.841  27.166 -12.980  1.00  0.00     0.138 A 
ATOM      2  C   UNL     1      26.028  27.318 -14.111  1.00  0.00     0.100 A 
ATOM      3  C   UNL     1      25.484  26.191 -14.728  1.00  0.00     0.197 A 
ATOM      4  O   UNL     1      24.708  26.363 -15.704  1.00  0.00    -0.289 OA
ATOM      5  C   UNL     1      25.782  24.901 -14.225  1.00  0.00     0.107 A 
ATOM      6  C   UNL     1      25.317  23.679 -14.796  1.00  0.00     0.134 A 
ATOM      7  C   UNL     1      25.581  22.468 -14.144  1.00  0.00     0.093 A 
ATOM      8  C   UNL     1      26.343  22.429 -12.977  1.00  0.00     0.123 A 
ATOM      9  C   UNL     1      26.848  23.615 -12.438  1.00  0.00     0.094 A 
ATOM     10  C   UNL     1      26.573  24.841 -13.047  1.00  0.00     0.146 A 
ATOM     11  O   UNL     1      27.061  25.948 -12.496  1.00  0.00    -0.456 OA
ENDROOT
BRANCH   1  12
ATOM     12  C   UNL     1      27.446  28.331 -12.286  1.00  0.00     0.021 A 
ATOM     13  C   UNL     1      28.281  29.239 -12.960  1.00  0.00     0.016 A 
ATOM     14  C   UNL     1      28.845  30.320 -12.279  1.00  0.00     0.051 A 
ATOM     15  C   UNL     1      28.596  30.517 -10.917  1.00  0.00     0.157 A 
ATOM     16  C   UNL     1      27.207  28.520 -10.914  1.00  0.00     0.062 A 
ATOM     17  C   UNL     1      27.769  29.603 -10.225  1.00  0.00     0.158 A 
BRANCH  15  18
ATOM     18  O   UNL     1      29.188  31.619 -10.297  1.00  0.00    -0.504 OA
ATOM     19  H   UNL     1      30.033  32.065 -10.624  1.00  0.00     0.293 HD
ENDBRANCH  15  18
BRANCH  17  20
ATOM     20  O   UNL     1      27.478  29.730  -8.865  1.00  0.00    -0.504 OA
ATOM     21  H   UNL     1      27.308  30.612  -8.403  1.00  0.00     0.293 HD
ENDBRANCH  17  20
ENDBRANCH   1  12
BRANCH   6  22
ATOM     22  O   UNL     1      24.619  23.598 -16.005  1.00  0.00    -0.507 OA
ATOM     23  H   UNL     1      24.633  24.301 -16.727  1.00  0.00     0.293 HD
ENDBRANCH   6  22
BRANCH   8  24
ATOM     24  O   UNL     1      26.598  21.205 -12.363  1.00  0.00    -0.508 OA
ATOM     25  H   UNL     1      26.153  20.948 -11.489  1.00  0.00     0.293 HD
ENDBRANCH   8  24
TORSDOF 5
ENDMDL
MODEL 6
REMARK VINA RESULT:    -5.600      2.259      3.012
REMARK INTER + INTRA:          -6.889
REMARK INTER:                  -6.595
REMARK INTRA:                  -0.294
REMARK UNBOUND:                -0.307
REMARK SMILES O=c1cc(-c2ccc(O)c(O)c2)oc2cc(O)cc(O)c12
REMARK SMILES IDX 4 1 3 2 2 3 1 4 21 5 19 6 18 7 16 8 15 9 14 10 13 11 5 12
REMARK SMILES IDX 6 13 7 14 8 15 12 16 10 17 9 18 11 20 20 22 17 24
REMARK H PARENT 9 19 11 21 20 23 17 25
REMARK Flexibility Score: inf
ROOT
ATOM      1  C   UNL     1      26.237  26.280 -11.496  1.00  0.00     0.138 A 
ATOM      2  C   UNL     1      25.410  26.852 -10.520  1.00  0.00     0.100 A 
ATOM      3  C   UNL     1      25.086  28.206 -10.596  1.00  0.00     0.197 A 
ATOM      4  O   UNL     1      24.292  28.677  -9.740  1.00  0.00    -0.289 OA
ATOM      5  C   UNL     1      25.619  29.000 -11.641  1.00  0.00     0.107 A 
ATOM      6  C   UNL     1      25.390  30.399 -11.796  1.00  0.00     0.134 A 
ATOM      7  C   UNL     1      25.875  31.056 -12.934  1.00  0.00     0.093 A 
ATOM      8  C   UNL     1      26.630  30.378 -13.890  1.00  0.00     0.123 A 
ATOM      9  C   UNL     1      26.905  29.020 -13.721  1.00  0.00     0.094 A 
ATOM     10  C   UNL     1      26.407  28.329 -12.614  1.00  0.00     0.146 A 
ATOM     11  O   UNL     1      26.680  27.034 -12.497  1.00  0.00    -0.456 OA
ENDROOT
BRANCH   1  12
ATOM     12  C   UNL     1      26.614  24.844 -11.462  1.00  0.00     0.021 A 
ATOM     13  C   UNL     1      27.300  24.235 -12.527  1.00  0.00     0.016 A 
ATOM     14  C   UNL     1      27.632  22.880 -12.472  1.00  0.00     0.051 A 
ATOM     15  C   UNL     1      27.284  22.102 -11.364  1.00  0.00     0.157 A 
ATOM     16  C   UNL     1      26.252  24.060 -10.354  1.00  0.00     0.062 A 
ATOM     17  C   UNL     1      26.582  22.699 -10.291  1.00  0.00     0.158 A 
BRANCH  15  18
ATOM     18  O   UNL     1      27.648  20.754 -11.370  1.00  0.00    -0.504 OA
ATOM     19  H   UNL     1      27.489  20.130 -12.147  1.00  0.00     0.293 HD
ENDBRANCH  15  18
BRANCH  17  20
ATOM     20  O   UNL     1      26.196  21.987  -9.153  1.00  0.00    -0.504 OA
ATOM     21  H   UNL     1      25.505  22.311  -8.492  1.00  0.00     0.293 HD
ENDBRANCH  17  20
ENDBRANCH   1  12
BRANCH   6  22
ATOM     22  O   UNL     1      24.720  31.190 -10.857  1.00  0.00    -0.507 OA
ATOM     23  H   UNL     1      24.643  30.978  -9.875  1.00  0.00     0.293 HD
ENDBRANCH   6  22
BRANCH   8  24
ATOM     24  O   UNL     1      27.109  31.067 -15.002  1.00  0.00    -0.508 OA
ATOM     25  H   UNL     1      28.103  31.181 -15.167  1.00  0.00     0.293 HD
ENDBRANCH   8  24
TORSDOF 5
ENDMDL
MODEL 7
REMARK VINA RESULT:    -5.585      5.757      7.821
REMARK INTER + INTRA:          -6.872
REMARK INTER:                  -6.554
REMARK INTRA:                  -0.318
REMARK UNBOUND:                -0.307
REMARK SMILES O=c1cc(-c2ccc(O)c(O)c2)oc2cc(O)cc(O)c12
REMARK SMILES IDX 4 1 3 2 2 3 1 4 21 5 19 6 18 7 16 8 15 9 14 10 13 11 5 12
REMARK SMILES IDX 6 13 7 14 8 15 12 16 10 17 9 18 11 20 20 22 17 24
REMARK H PARENT 9 19 11 21 20 23 17 25
REMARK Flexibility Score: inf
ROOT
ATOM      1  C   UNL     1      24.371  30.733 -11.894  1.00  0.00     0.138 A 
ATOM      2  C   UNL     1      23.812  30.676 -10.609  1.00  0.00     0.100 A 
ATOM      3  C   UNL     1      22.433  30.806 -10.449  1.00  0.00     0.197 A 
ATOM      4  O   UNL     1      21.955  30.689  -9.291  1.00  0.00    -0.289 OA
ATOM      5  C   UNL     1      21.610  31.025 -11.581  1.00  0.00     0.107 A 
ATOM      6  C   UNL     1      20.197  31.212 -11.535  1.00  0.00     0.134 A 
ATOM      7  C   UNL     1      19.473  31.304 -12.730  1.00  0.00     0.093 A 
ATOM      8  C   UNL     1      20.118  31.278 -13.966  1.00  0.00     0.123 A 
ATOM      9  C   UNL     1      21.507  31.148 -14.022  1.00  0.00     0.094 A 
ATOM     10  C   UNL     1      22.253  31.020 -12.848  1.00  0.00     0.146 A 
ATOM     11  O   UNL     1      23.571  30.885 -12.944  1.00  0.00    -0.456 OA
ENDROOT
BRANCH   1  12
ATOM     12  C   UNL     1      25.833  30.602 -12.120  1.00  0.00     0.021 A 
ATOM     13  C   UNL     1      26.740  30.514 -11.050  1.00  0.00     0.016 A 
ATOM     14  C   UNL     1      28.111  30.402 -11.294  1.00  0.00     0.051 A 
ATOM     15  C   UNL     1      28.606  30.382 -12.601  1.00  0.00     0.157 A 
ATOM     16  C   UNL     1      26.331  30.595 -13.434  1.00  0.00     0.062 A 
ATOM     17  C   UNL     1      27.705  30.483 -13.686  1.00  0.00     0.158 A 
BRANCH  15  18
ATOM     18  O   UNL     1      29.987  30.265 -12.775  1.00  0.00    -0.504 OA
ATOM     19  H   UNL     1      30.475  29.383 -12.844  1.00  0.00     0.293 HD
ENDBRANCH  15  18
BRANCH  17  20
ATOM     20  O   UNL     1      28.124  30.474 -15.018  1.00  0.00    -0.504 OA
ATOM     21  H   UNL     1      28.856  31.066 -15.384  1.00  0.00     0.293 HD
ENDBRANCH  17  20
ENDBRANCH   1  12
BRANCH   6  22
ATOM     22  O   UNL     1      19.464  31.338 -10.350  1.00  0.00    -0.507 OA
ATOM     23  H   UNL     1      18.982  30.584  -9.888  1.00  0.00     0.293 HD
ENDBRANCH   6  22
BRANCH   8  24
ATOM     24  O   UNL     1      19.367  31.387 -15.134  1.00  0.00    -0.508 OA
ATOM     25  H   UNL     1      18.477  30.914 -15.238  1.00  0.00     0.293 HD
ENDBRANCH   8  24
TORSDOF 5
ENDMDL
MODEL 8
REMARK VINA RESULT:    -5.583     15.484     17.542
REMARK INTER + INTRA:          -6.869
REMARK INTER:                  -6.605
REMARK INTRA:                  -0.265
REMARK UNBOUND:                -0.307
REMARK SMILES O=c1cc(-c2ccc(O)c(O)c2)oc2cc(O)cc(O)c12
REMARK SMILES IDX 4 1 3 2 2 3 1 4 21 5 19 6 18 7 16 8 15 9 14 10 13 11 5 12
REMARK SMILES IDX 6 13 7 14 8 15 12 16 10 17 9 18 11 20 20 22 17 24
REMARK H PARENT 9 19 11 21 20 23 17 25
REMARK Flexibility Score: inf
ROOT
ATOM      1  C   UNL     1      21.235  19.380   0.943  1.00  0.00     0.138 A 
ATOM      2  C   UNL     1      22.065  19.764   2.005  1.00  0.00     0.100 A 
ATOM      3  C   UNL     1      23.395  19.344   2.031  1.00  0.00     0.197 A 
ATOM      4  O   UNL     1      24.131  19.756   2.965  1.00  0.00    -0.289 OA
ATOM      5  C   UNL     1      23.888  18.507   1.000  1.00  0.00     0.107 A 
ATOM      6  C   UNL     1      25.213  17.983   0.944  1.00  0.00     0.134 A 
ATOM      7  C   UNL     1      25.623  17.261  -0.184  1.00  0.00     0.093 A 
ATOM      8  C   UNL     1      24.737  16.991  -1.227  1.00  0.00     0.123 A 
ATOM      9  C   UNL     1      23.422  17.454  -1.157  1.00  0.00     0.094 A 
ATOM     10  C   UNL     1      22.994  18.206  -0.062  1.00  0.00     0.146 A 
ATOM     11  O   UNL     1      21.738  18.639  -0.039  1.00  0.00    -0.456 OA
ENDROOT
BRANCH   1  12
ATOM     12  C   UNL     1      19.813  19.799   0.867  1.00  0.00     0.021 A 
ATOM     13  C   UNL     1      19.438  21.046   0.336  1.00  0.00     0.016 A 
ATOM     14  C   UNL     1      18.093  21.417   0.288  1.00  0.00     0.051 A 
ATOM     15  C   UNL     1      17.096  20.564   0.770  1.00  0.00     0.157 A 
ATOM     16  C   UNL     1      18.813  18.947   1.365  1.00  0.00     0.062 A 
ATOM     17  C   UNL     1      17.461  19.313   1.319  1.00  0.00     0.158 A 
BRANCH  15  18
ATOM     18  O   UNL     1      15.770  20.995   0.689  1.00  0.00    -0.504 OA
ATOM     19  H   UNL     1      14.977  20.374   0.625  1.00  0.00     0.293 HD
ENDBRANCH  15  18
BRANCH  17  20
ATOM     20  O   UNL     1      16.524  18.409   1.825  1.00  0.00    -0.504 OA
ATOM     21  H   UNL     1      15.667  18.682   2.285  1.00  0.00     0.293 HD
ENDBRANCH  17  20
ENDBRANCH   1  12
BRANCH   6  22
ATOM     22  O   UNL     1      26.153  18.121   1.971  1.00  0.00    -0.507 OA
ATOM     23  H   UNL     1      26.343  17.426   2.675  1.00  0.00     0.293 HD
ENDBRANCH   6  22
BRANCH   8  24
ATOM     24  O   UNL     1      25.175  16.257  -2.327  1.00  0.00    -0.508 OA
ATOM     25  H   UNL     1      24.842  15.316  -2.501  1.00  0.00     0.293 HD
ENDBRANCH   8  24
TORSDOF 5
ENDMDL
MODEL 9
REMARK VINA RESULT:    -5.492      2.647      4.196
REMARK INTER + INTRA:          -6.763
REMARK INTER:                  -6.493
REMARK INTRA:                  -0.269
REMARK UNBOUND:                -0.307
REMARK SMILES O=c1cc(-c2ccc(O)c(O)c2)oc2cc(O)cc(O)c12
REMARK SMILES IDX 4 1 3 2 2 3 1 4 21 5 19 6 18 7 16 8 15 9 14 10 13 11 5 12
REMARK SMILES IDX 6 13 7 14 8 15 12 16 10 17 9 18 11 20 20 22 17 24
REMARK H PARENT 9 19 11 21 20 23 17 25
REMARK Flexibility Score: inf
ROOT
ATOM      1  C   UNL     1      25.652  27.999 -13.819  1.00  0.00     0.138 A 
ATOM      2  C   UNL     1      26.564  29.063 -13.802  1.00  0.00     0.100 A 
ATOM      3  C   UNL     1      26.154  30.331 -14.216  1.00  0.00     0.197 A 
ATOM      4  O   UNL     1      26.977  31.279 -14.131  1.00  0.00    -0.289 OA
ATOM      5  C   UNL     1      24.830  30.526 -14.679  1.00  0.00     0.107 A 
ATOM      6  C   UNL     1      24.313  31.764 -15.164  1.00  0.00     0.134 A 
ATOM      7  C   UNL     1      22.954  31.865 -15.488  1.00  0.00     0.093 A 
ATOM      8  C   UNL     1      22.109  30.760 -15.402  1.00  0.00     0.123 A 
ATOM      9  C   UNL     1      22.616  29.530 -14.979  1.00  0.00     0.094 A 
ATOM     10  C   UNL     1      23.959  29.405 -14.617  1.00  0.00     0.146 A 
ATOM     11  O   UNL     1      24.400  28.221 -14.207  1.00  0.00    -0.456 OA
ENDROOT
BRANCH   1  12
ATOM     12  C   UNL     1      26.036  26.630 -13.389  1.00  0.00     0.021 A 
ATOM     13  C   UNL     1      26.239  26.311 -12.035  1.00  0.00     0.016 A 
ATOM     14  C   UNL     1      26.610  25.017 -11.662  1.00  0.00     0.051 A 
ATOM     15  C   UNL     1      26.793  24.020 -12.624  1.00  0.00     0.157 A 
ATOM     16  C   UNL     1      26.233  25.631 -14.358  1.00  0.00     0.062 A 
ATOM     17  C   UNL     1      26.605  24.331 -13.990  1.00  0.00     0.158 A 
BRANCH  15  18
ATOM     18  O   UNL     1      27.161  22.746 -12.183  1.00  0.00    -0.504 OA
ATOM     19  H   UNL     1      28.071  22.519 -11.810  1.00  0.00     0.293 HD
ENDBRANCH  15  18
BRANCH  17  20
ATOM     20  O   UNL     1      26.773  23.389 -15.008  1.00  0.00    -0.504 OA
ATOM     21  H   UNL     1      26.012  22.977 -15.528  1.00  0.00     0.293 HD
ENDBRANCH  17  20
ENDBRANCH   1  12
BRANCH   6  22
ATOM     22  O   UNL     1      25.091  32.908 -15.370  1.00  0.00    -0.507 OA
ATOM     23  H   UNL     1      26.052  33.011 -15.083  1.00  0.00     0.293 HD
ENDBRANCH   6  22
BRANCH   8  24
ATOM     24  O   UNL     1      20.766  30.894 -15.745  1.00  0.00    -0.508 OA
ATOM     25  H   UNL     1      20.480  31.408 -16.571  1.00  0.00     0.293 HD
ENDBRANCH   8  24
TORSDOF 5
ENDMDL
