MODEL 1
REMARK VINA RESULT:    -3.638      0.000      0.000
REMARK INTER + INTRA:          -5.965
REMARK INTER:                  -5.233
REMARK INTRA:                  -0.732
REMARK UNBOUND:                -0.732
REMARK SMILES CCCCCCCCCO
REMARK SMILES IDX 6 1 5 2 4 3 3 4 2 5 1 6 7 7 8 8 9 9 10 10
REMARK H PARENT 10 11
REMARK Flexibility Score: inf
ROOT
ATOM      1  C   UNL     1     177.170 177.494 181.582  1.00  0.00     0.000 C 
ENDROOT
BRANCH   1   2
ATOM      2  C   UNL     1     175.884 177.003 182.276  1.00  0.00     0.000 C 
BRANCH   2   3
ATOM      3  C   UNL     1     176.091 175.901 183.332  1.00  0.00    -0.000 C 
BRANCH   3   4
ATOM      4  C   UNL     1     175.426 174.571 182.943  1.00  0.00    -0.000 C 
BRANCH   4   5
ATOM      5  C   UNL     1     176.057 173.943 181.689  1.00  0.00    -0.003 C 
ATOM      6  C   UNL     1     177.564 173.732 181.827  1.00  0.00     0.004 C 
ENDBRANCH   4   5
ENDBRANCH   3   4
ENDBRANCH   2   3
ENDBRANCH   1   2
BRANCH   1   7
ATOM      7  C   UNL     1     177.074 177.649 180.052  1.00  0.00     0.002 C 
BRANCH   7   8
ATOM      8  C   UNL     1     175.849 176.975 179.409  1.00  0.00     0.028 C 
BRANCH   8   9
ATOM      9  C   UNL     1     176.217 176.059 178.236  1.00  0.00     0.156 C 
BRANCH   9  10
ATOM     10  O   UNL     1     177.264 175.203 178.601  1.00  0.00    -0.396 OA
ATOM     11  H   UNL     1     178.081 175.545 178.152  1.00  0.00     0.210 HD
ENDBRANCH   9  10
ENDBRANCH   8   9
ENDBRANCH   7   8
ENDBRANCH   1   7
TORSDOF 8
ENDMDL
MODEL 2
REMARK VINA RESULT:    -3.578      1.481      2.309
REMARK INTER + INTRA:          -5.879
REMARK INTER:                  -5.099
REMARK INTRA:                  -0.780
REMARK UNBOUND:                -0.732
REMARK SMILES CCCCCCCCCO
REMARK SMILES IDX 6 1 5 2 4 3 3 4 2 5 1 6 7 7 8 8 9 9 10 10
REMARK H PARENT 10 11
REMARK Flexibility Score: inf
ROOT
ATOM      1  C   UNL     1     177.330 177.001 181.374  1.00  0.00     0.000 C 
ENDROOT
BRANCH   1   2
ATOM      2  C   UNL     1     176.740 177.264 182.774  1.00  0.00     0.000 C 
BRANCH   2   3
ATOM      3  C   UNL     1     175.960 176.086 183.387  1.00  0.00    -0.000 C 
BRANCH   3   4
ATOM      4  C   UNL     1     174.660 175.774 182.627  1.00  0.00    -0.000 C 
BRANCH   4   5
ATOM      5  C   UNL     1     173.737 176.998 182.512  1.00  0.00    -0.003 C 
ATOM      6  C   UNL     1     172.899 176.990 181.234  1.00  0.00     0.004 C 
ENDBRANCH   4   5
ENDBRANCH   3   4
ENDBRANCH   2   3
ENDBRANCH   1   2
BRANCH   1   7
ATOM      7  C   UNL     1     176.727 177.849 180.237  1.00  0.00     0.002 C 
BRANCH   7   8
ATOM      8  C   UNL     1     176.047 177.041 179.118  1.00  0.00     0.028 C 
BRANCH   8   9
ATOM      9  C   UNL     1     176.301 175.533 179.230  1.00  0.00     0.156 C 
BRANCH   9  10
ATOM     10  O   UNL     1     177.321 175.147 178.350  1.00  0.00    -0.396 OA
ATOM     11  H   UNL     1     177.239 175.727 177.549  1.00  0.00     0.210 HD
ENDBRANCH   9  10
ENDBRANCH   8   9
ENDBRANCH   7   8
ENDBRANCH   1   7
TORSDOF 8
ENDMDL
MODEL 3
REMARK VINA RESULT:    -3.509      1.243      1.777
REMARK INTER + INTRA:          -5.780
REMARK INTER:                  -5.021
REMARK INTRA:                  -0.759
REMARK UNBOUND:                -0.732
REMARK SMILES CCCCCCCCCO
REMARK SMILES IDX 6 1 5 2 4 3 3 4 2 5 1 6 7 7 8 8 9 9 10 10
REMARK H PARENT 10 11
REMARK Flexibility Score: inf
ROOT
ATOM      1  C   UNL     1     177.044 177.440 180.834  1.00  0.00     0.000 C 
ENDROOT
BRANCH   1   2
ATOM      2  C   UNL     1     177.003 177.414 182.375  1.00  0.00     0.000 C 
BRANCH   2   3
ATOM      3  C   UNL     1     175.772 176.718 182.985  1.00  0.00    -0.000 C 
BRANCH   3   4
ATOM      4  C   UNL     1     176.021 175.234 183.298  1.00  0.00    -0.000 C 
BRANCH   4   5
ATOM      5  C   UNL     1     174.850 174.336 182.867  1.00  0.00    -0.003 C 
ATOM      6  C   UNL     1     173.565 175.123 182.609  1.00  0.00     0.004 C 
ENDBRANCH   4   5
ENDBRANCH   3   4
ENDBRANCH   2   3
ENDBRANCH   1   2
BRANCH   1   7
ATOM      7  C   UNL     1     175.674 177.327 180.138  1.00  0.00     0.002 C 
BRANCH   7   8
ATOM      8  C   UNL     1     175.396 175.968 179.473  1.00  0.00     0.028 C 
BRANCH   8   9
ATOM      9  C   UNL     1     176.605 175.025 179.511  1.00  0.00     0.156 C 
BRANCH   9  10
ATOM     10  O   UNL     1     177.326 175.113 178.313  1.00  0.00    -0.396 OA
ATOM     11  H   UNL     1     178.288 175.122 178.559  1.00  0.00     0.210 HD
ENDBRANCH   9  10
ENDBRANCH   8   9
ENDBRANCH   7   8
ENDBRANCH   1   7
TORSDOF 8
ENDMDL
MODEL 4
REMARK VINA RESULT:    -3.458      1.497      2.343
REMARK INTER + INTRA:          -5.707
REMARK INTER:                  -4.961
REMARK INTRA:                  -0.746
REMARK UNBOUND:                -0.732
REMARK SMILES CCCCCCCCCO
REMARK SMILES IDX 6 1 5 2 4 3 3 4 2 5 1 6 7 7 8 8 9 9 10 10
REMARK H PARENT 10 11
REMARK Flexibility Score: inf
ROOT
ATOM      1  C   UNL     1     173.895 176.528 180.045  1.00  0.00     0.000 C 
ENDROOT
BRANCH   1   2
ATOM      2  C   UNL     1     173.252 177.172 181.289  1.00  0.00     0.000 C 
BRANCH   2   3
ATOM      3  C   UNL     1     174.005 176.934 182.612  1.00  0.00    -0.000 C 
BRANCH   3   4
ATOM      4  C   UNL     1     174.663 175.546 182.681  1.00  0.00    -0.000 C 
BRANCH   4   5
ATOM      5  C   UNL     1     176.112 175.607 183.192  1.00  0.00    -0.003 C 
ATOM      6  C   UNL     1     176.742 176.989 183.025  1.00  0.00     0.004 C 
ENDBRANCH   4   5
ENDBRANCH   3   4
ENDBRANCH   2   3
ENDBRANCH   1   2
BRANCH   1   7
ATOM      7  C   UNL     1     174.902 177.418 179.290  1.00  0.00     0.002 C 
BRANCH   7   8
ATOM      8  C   UNL     1     176.380 177.044 179.499  1.00  0.00     0.028 C 
BRANCH   8   9
ATOM      9  C   UNL     1     176.629 175.532 179.439  1.00  0.00     0.156 C 
BRANCH   9  10
ATOM     10  O   UNL     1     177.311 175.201 178.261  1.00  0.00    -0.396 OA
ATOM     11  H   UNL     1     177.316 174.210 178.204  1.00  0.00     0.210 HD
ENDBRANCH   9  10
ENDBRANCH   8   9
ENDBRANCH   7   8
ENDBRANCH   1   7
TORSDOF 8
ENDMDL
MODEL 5
REMARK VINA RESULT:    -3.442      1.566      3.816
REMARK INTER + INTRA:          -5.684
REMARK INTER:                  -5.070
REMARK INTRA:                  -0.613
REMARK UNBOUND:                -0.732
REMARK SMILES CCCCCCCCCO
REMARK SMILES IDX 6 1 5 2 4 3 3 4 2 5 1 6 7 7 8 8 9 9 10 10
REMARK H PARENT 10 11
REMARK Flexibility Score: inf
ROOT
ATOM      1  C   UNL     1     176.162 175.341 183.239  1.00  0.00     0.000 C 
ENDROOT
BRANCH   1   2
ATOM      2  C   UNL     1     175.810 176.783 182.824  1.00  0.00     0.000 C 
BRANCH   2   3
ATOM      3  C   UNL     1     177.019 177.699 182.557  1.00  0.00    -0.000 C 
BRANCH   3   4
ATOM      4  C   UNL     1     177.401 177.762 181.069  1.00  0.00    -0.000 C 
BRANCH   4   5
ATOM      5  C   UNL     1     176.215 177.446 180.143  1.00  0.00    -0.003 C 
ATOM      6  C   UNL     1     176.583 176.479 179.019  1.00  0.00     0.004 C 
ENDBRANCH   4   5
ENDBRANCH   3   4
ENDBRANCH   2   3
ENDBRANCH   1   2
BRANCH   1   7
ATOM      7  C   UNL     1     176.037 174.286 182.122  1.00  0.00     0.002 C 
BRANCH   7   8
ATOM      8  C   UNL     1     177.312 173.464 181.863  1.00  0.00     0.028 C 
BRANCH   8   9
ATOM      9  C   UNL     1     177.034 171.965 181.704  1.00  0.00     0.156 C 
BRANCH   9  10
ATOM     10  O   UNL     1     177.438 171.530 180.435  1.00  0.00    -0.396 OA
ATOM     11  H   UNL     1     177.801 172.325 179.964  1.00  0.00     0.210 HD
ENDBRANCH   9  10
ENDBRANCH   8   9
ENDBRANCH   7   8
ENDBRANCH   1   7
TORSDOF 8
ENDMDL
MODEL 6
REMARK VINA RESULT:    -3.353      1.356      1.764
REMARK INTER + INTRA:          -5.555
REMARK INTER:                  -5.002
REMARK INTRA:                  -0.553
REMARK UNBOUND:                -0.732
REMARK SMILES CCCCCCCCCO
REMARK SMILES IDX 6 1 5 2 4 3 3 4 2 5 1 6 7 7 8 8 9 9 10 10
REMARK H PARENT 10 11
REMARK Flexibility Score: inf
ROOT
ATOM      1  C   UNL     1     176.973 176.527 182.315  1.00  0.00     0.000 C 
ENDROOT
BRANCH   1   2
ATOM      2  C   UNL     1     175.742 176.602 183.240  1.00  0.00     0.000 C 
BRANCH   2   3
ATOM      3  C   UNL     1     174.405 176.875 182.526  1.00  0.00    -0.000 C 
BRANCH   3   4
ATOM      4  C   UNL     1     173.560 175.604 182.338  1.00  0.00    -0.000 C 
BRANCH   4   5
ATOM      5  C   UNL     1     174.219 174.362 182.961  1.00  0.00    -0.003 C 
ATOM      6  C   UNL     1     174.646 173.332 181.916  1.00  0.00     0.004 C 
ENDBRANCH   4   5
ENDBRANCH   3   4
ENDBRANCH   2   3
ENDBRANCH   1   2
BRANCH   1   7
ATOM      7  C   UNL     1     177.063 177.634 181.247  1.00  0.00     0.002 C 
BRANCH   7   8
ATOM      8  C   UNL     1     176.943 177.144 179.794  1.00  0.00     0.028 C 
BRANCH   8   9
ATOM      9  C   UNL     1     176.632 175.646 179.692  1.00  0.00     0.156 C 
BRANCH   9  10
ATOM     10  O   UNL     1     177.286 175.090 178.584  1.00  0.00    -0.396 OA
ATOM     11  H   UNL     1     177.926 175.776 178.259  1.00  0.00     0.210 HD
ENDBRANCH   9  10
ENDBRANCH   8   9
ENDBRANCH   7   8
ENDBRANCH   1   7
TORSDOF 8
ENDMDL
MODEL 7
REMARK VINA RESULT:    -3.272      2.558      3.704
REMARK INTER + INTRA:          -5.439
REMARK INTER:                  -5.026
REMARK INTRA:                  -0.413
REMARK UNBOUND:                -0.732
REMARK SMILES CCCCCCCCCO
REMARK SMILES IDX 6 1 5 2 4 3 3 4 2 5 1 6 7 7 8 8 9 9 10 10
REMARK H PARENT 10 11
REMARK Flexibility Score: inf
ROOT
ATOM      1  C   UNL     1     175.684 176.739 182.779  1.00  0.00     0.000 C 
ENDROOT
BRANCH   1   2
ATOM      2  C   UNL     1     174.742 175.522 182.869  1.00  0.00     0.000 C 
BRANCH   2   3
ATOM      3  C   UNL     1     173.292 175.783 182.420  1.00  0.00    -0.000 C 
BRANCH   3   4
ATOM      4  C   UNL     1     173.075 177.219 181.915  1.00  0.00    -0.000 C 
BRANCH   4   5
ATOM      5  C   UNL     1     172.033 177.984 182.748  1.00  0.00    -0.003 C 
ATOM      6  C   UNL     1     170.739 177.197 182.946  1.00  0.00     0.004 C 
ENDBRANCH   4   5
ENDBRANCH   3   4
ENDBRANCH   2   3
ENDBRANCH   1   2
BRANCH   1   7
ATOM      7  C   UNL     1     176.980 176.510 181.977  1.00  0.00     0.002 C 
BRANCH   7   8
ATOM      8  C   UNL     1     176.928 175.334 180.985  1.00  0.00     0.028 C 
BRANCH   8   9
ATOM      9  C   UNL     1     176.532 175.764 179.568  1.00  0.00     0.156 C 
BRANCH   9  10
ATOM     10  O   UNL     1     177.252 175.025 178.620  1.00  0.00    -0.396 OA
ATOM     11  H   UNL     1     177.982 175.614 178.294  1.00  0.00     0.210 HD
ENDBRANCH   9  10
ENDBRANCH   8   9
ENDBRANCH   7   8
ENDBRANCH   1   7
TORSDOF 8
ENDMDL
MODEL 8
REMARK VINA RESULT:    -3.260      2.913      4.306
REMARK INTER + INTRA:          -5.421
REMARK INTER:                  -4.885
REMARK INTRA:                  -0.536
REMARK UNBOUND:                -0.732
REMARK SMILES CCCCCCCCCO
REMARK SMILES IDX 6 1 5 2 4 3 3 4 2 5 1 6 7 7 8 8 9 9 10 10
REMARK H PARENT 10 11
REMARK Flexibility Score: inf
ROOT
ATOM      1  C   UNL     1     174.589 176.037 182.614  1.00  0.00     0.000 C 
ENDROOT
BRANCH   1   2
ATOM      2  C   UNL     1     175.913 176.352 183.338  1.00  0.00     0.000 C 
BRANCH   2   3
ATOM      3  C   UNL     1     176.928 177.170 182.518  1.00  0.00    -0.000 C 
BRANCH   3   4
ATOM      4  C   UNL     1     177.062 176.672 181.069  1.00  0.00    -0.000 C 
BRANCH   4   5
ATOM      5  C   UNL     1     176.754 177.771 180.039  1.00  0.00    -0.003 C 
ATOM      6  C   UNL     1     175.436 177.539 179.303  1.00  0.00     0.004 C 
ENDBRANCH   4   5
ENDBRANCH   3   4
ENDBRANCH   2   3
ENDBRANCH   1   2
BRANCH   1   7
ATOM      7  C   UNL     1     173.558 177.183 182.603  1.00  0.00     0.002 C 
BRANCH   7   8
ATOM      8  C   UNL     1     172.090 176.731 182.495  1.00  0.00     0.028 C 
BRANCH   8   9
ATOM      9  C   UNL     1     171.280 177.566 181.496  1.00  0.00     0.156 C 
BRANCH   9  10
ATOM     10  O   UNL     1     172.032 177.795 180.336  1.00  0.00    -0.396 OA
ATOM     11  H   UNL     1     172.853 177.243 180.415  1.00  0.00     0.210 HD
ENDBRANCH   9  10
ENDBRANCH   8   9
ENDBRANCH   7   8
ENDBRANCH   1   7
TORSDOF 8
ENDMDL
MODEL 9
REMARK VINA RESULT:    -3.174      1.730      3.730
REMARK INTER + INTRA:          -5.297
REMARK INTER:                  -4.702
REMARK INTRA:                  -0.595
REMARK UNBOUND:                -0.732
REMARK SMILES CCCCCCCCCO
REMARK SMILES IDX 6 1 5 2 4 3 3 4 2 5 1 6 7 7 8 8 9 9 10 10
REMARK H PARENT 10 11
REMARK Flexibility Score: inf
ROOT
ATOM      1  C   UNL     1     175.366 176.480 182.913  1.00  0.00     0.000 C 
ENDROOT
BRANCH   1   2
ATOM      2  C   UNL     1     173.878 176.436 182.514  1.00  0.00     0.000 C 
BRANCH   2   3
ATOM      3  C   UNL     1     173.542 177.103 181.166  1.00  0.00    -0.000 C 
BRANCH   3   4
ATOM      4  C   UNL     1     174.348 176.516 179.995  1.00  0.00    -0.000 C 
BRANCH   4   5
ATOM      5  C   UNL     1     175.334 177.531 179.393  1.00  0.00    -0.003 C 
ATOM      6  C   UNL     1     176.795 177.147 179.625  1.00  0.00     0.004 C 
ENDBRANCH   4   5
ENDBRANCH   3   4
ENDBRANCH   2   3
ENDBRANCH   1   2
BRANCH   1   7
ATOM      7  C   UNL     1     175.977 175.126 183.323  1.00  0.00     0.002 C 
BRANCH   7   8
ATOM      8  C   UNL     1     176.135 174.113 182.175  1.00  0.00     0.028 C 
BRANCH   8   9
ATOM      9  C   UNL     1     177.600 173.863 181.795  1.00  0.00     0.156 C 
BRANCH   9  10
ATOM     10  O   UNL     1     177.721 172.644 181.115  1.00  0.00    -0.396 OA
ATOM     11  H   UNL     1     176.800 172.302 180.977  1.00  0.00     0.210 HD
ENDBRANCH   9  10
ENDBRANCH   8   9
ENDBRANCH   7   8
ENDBRANCH   1   7
TORSDOF 8
ENDMDL
