MODEL 1
REMARK VINA RESULT:    -4.956      0.000      0.000
REMARK INTER + INTRA:          -6.468
REMARK INTER:                  -6.115
REMARK INTRA:                  -0.353
REMARK UNBOUND:                -0.353
REMARK SMILES O=c1c(O)c(-c2cc(O)c(O)c(O)c2)oc2cc(O)cc(O)c12
REMARK SMILES IDX 5 1 3 2 2 3 1 4 23 5 21 6 20 7 18 8 17 9 16 10 15 11 6 12
REMARK SMILES IDX 7 13 8 14 14 15 10 16 12 17 9 18 11 20 13 22 4 24 22 26
REMARK SMILES IDX 19 28
REMARK H PARENT 9 19 11 21 13 23 4 25 22 27 19 29
REMARK Flexibility Score: inf
ROOT
ATOM      1  C   UNL     1      -2.342   9.381 -10.461  1.00  0.00     0.180 A 
ATOM      2  C   UNL     1      -3.238   8.587 -11.197  1.00  0.00     0.208 A 
ATOM      3  C   UNL     1      -4.523   9.082 -11.469  1.00  0.00     0.238 A 
ATOM      4  O   UNL     1      -5.338   8.344 -12.081  1.00  0.00    -0.285 OA
ATOM      5  C   UNL     1      -4.892  10.371 -11.016  1.00  0.00     0.111 A 
ATOM      6  C   UNL     1      -6.154  10.989 -11.268  1.00  0.00     0.134 A 
ATOM      7  C   UNL     1      -6.457  12.214 -10.660  1.00  0.00     0.093 A 
ATOM      8  C   UNL     1      -5.521  12.874  -9.864  1.00  0.00     0.123 A 
ATOM      9  C   UNL     1      -4.263  12.307  -9.658  1.00  0.00     0.094 A 
ATOM     10  C   UNL     1      -3.944  11.069 -10.222  1.00  0.00     0.146 A 
ATOM     11  O   UNL     1      -2.740  10.559  -9.994  1.00  0.00    -0.452 OA
ENDROOT
BRANCH   1  12
ATOM     12  C   UNL     1      -0.962   8.938 -10.157  1.00  0.00     0.029 A 
ATOM     13  C   UNL     1      -0.656   8.269  -8.961  1.00  0.00     0.062 A 
ATOM     14  C   UNL     1       0.652   7.837  -8.701  1.00  0.00     0.162 A 
ATOM     15  C   UNL     1       0.051   9.140 -11.106  1.00  0.00     0.062 A 
ATOM     16  C   UNL     1       1.666   8.063  -9.648  1.00  0.00     0.200 A 
ATOM     17  C   UNL     1       1.360   8.714 -10.855  1.00  0.00     0.162 A 
BRANCH  14  18
ATOM     18  O   UNL     1       0.946   7.179  -7.507  1.00  0.00    -0.504 OA
ATOM     19  H   UNL     1       0.414   6.374  -7.199  1.00  0.00     0.293 HD
ENDBRANCH  14  18
BRANCH  16  20
ATOM     20  O   UNL     1       2.975   7.644  -9.403  1.00  0.00    -0.502 OA
ATOM     21  H   UNL     1       3.207   7.016  -8.643  1.00  0.00     0.293 HD
ENDBRANCH  16  20
BRANCH  17  22
ATOM     22  O   UNL     1       2.342   8.945 -11.818  1.00  0.00    -0.504 OA
ATOM     23  H   UNL     1       3.182   8.382 -11.878  1.00  0.00     0.293 HD
ENDBRANCH  17  22
ENDBRANCH   1  12
BRANCH   2  24
ATOM     24  O   UNL     1      -2.861   7.308 -11.616  1.00  0.00    -0.502 OA
ATOM     25  H   UNL     1      -2.199   7.154 -12.367  1.00  0.00     0.293 HD
ENDBRANCH   2  24
BRANCH   6  26
ATOM     26  O   UNL     1      -7.125  10.460 -12.123  1.00  0.00    -0.507 OA
ATOM     27  H   UNL     1      -8.105  10.700 -12.097  1.00  0.00     0.293 HD
ENDBRANCH   6  26
BRANCH   8  28
ATOM     28  O   UNL     1      -5.851  14.099  -9.287  1.00  0.00    -0.508 OA
ATOM     29  H   UNL     1      -6.348  14.812  -9.807  1.00  0.00     0.293 HD
ENDBRANCH   8  28
TORSDOF 7
ENDMDL
MODEL 2
REMARK VINA RESULT:    -4.918      1.699      7.106
REMARK INTER + INTRA:          -6.420
REMARK INTER:                  -6.597
REMARK INTRA:                   0.176
REMARK UNBOUND:                -0.353
REMARK SMILES O=c1c(O)c(-c2cc(O)c(O)c(O)c2)oc2cc(O)cc(O)c12
REMARK SMILES IDX 5 1 3 2 2 3 1 4 23 5 21 6 20 7 18 8 17 9 16 10 15 11 6 12
REMARK SMILES IDX 7 13 8 14 14 15 10 16 12 17 9 18 11 20 13 22 4 24 22 26
REMARK SMILES IDX 19 28
REMARK H PARENT 9 19 11 21 13 23 4 25 22 27 19 29
REMARK Flexibility Score: inf
ROOT
ATOM      1  C   UNL     1      -1.645   9.847 -10.970  1.00  0.00     0.180 A 
ATOM      2  C   UNL     1      -1.638   8.660 -10.218  1.00  0.00     0.208 A 
ATOM      3  C   UNL     1      -0.410   8.043  -9.930  1.00  0.00     0.238 A 
ATOM      4  O   UNL     1      -0.415   6.952  -9.303  1.00  0.00    -0.285 OA
ATOM      5  C   UNL     1       0.796   8.629 -10.382  1.00  0.00     0.111 A 
ATOM      6  C   UNL     1       2.099   8.112 -10.114  1.00  0.00     0.134 A 
ATOM      7  C   UNL     1       3.214   8.701 -10.722  1.00  0.00     0.093 A 
ATOM      8  C   UNL     1       3.082   9.827 -11.534  1.00  0.00     0.123 A 
ATOM      9  C   UNL     1       1.819  10.376 -11.756  1.00  0.00     0.094 A 
ATOM     10  C   UNL     1       0.683   9.790 -11.192  1.00  0.00     0.146 A 
ATOM     11  O   UNL     1      -0.502  10.337 -11.435  1.00  0.00    -0.452 OA
ENDROOT
BRANCH   1  12
ATOM     12  C   UNL     1      -2.897  10.569 -11.292  1.00  0.00     0.029 A 
ATOM     13  C   UNL     1      -4.089   9.879 -11.566  1.00  0.00     0.062 A 
ATOM     14  C   UNL     1      -5.271  10.580 -11.847  1.00  0.00     0.162 A 
ATOM     15  C   UNL     1      -2.910  11.972 -11.269  1.00  0.00     0.062 A 
ATOM     16  C   UNL     1      -5.269  11.985 -11.843  1.00  0.00     0.200 A 
ATOM     17  C   UNL     1      -4.084  12.680 -11.548  1.00  0.00     0.162 A 
BRANCH  14  18
ATOM     18  O   UNL     1      -6.447   9.883 -12.124  1.00  0.00    -0.504 OA
ATOM     19  H   UNL     1      -6.511   8.880 -12.003  1.00  0.00     0.293 HD
ENDBRANCH  14  18
BRANCH  16  20
ATOM     20  O   UNL     1      -6.435  12.699 -12.124  1.00  0.00    -0.502 OA
ATOM     21  H   UNL     1      -7.349  12.377 -11.829  1.00  0.00     0.293 HD
ENDBRANCH  16  20
BRANCH  17  22
ATOM     22  O   UNL     1      -4.053  14.074 -11.528  1.00  0.00    -0.504 OA
ATOM     23  H   UNL     1      -3.523  14.592 -10.837  1.00  0.00     0.293 HD
ENDBRANCH  17  22
ENDBRANCH   1  12
BRANCH   2  24
ATOM     24  O   UNL     1      -2.842   8.087  -9.799  1.00  0.00    -0.502 OA
ATOM     25  H   UNL     1      -3.700   8.619  -9.720  1.00  0.00     0.293 HD
ENDBRANCH   2  24
BRANCH   6  26
ATOM     26  O   UNL     1       2.353   7.048  -9.243  1.00  0.00    -0.507 OA
ATOM     27  H   UNL     1       3.216   6.912  -8.739  1.00  0.00     0.293 HD
ENDBRANCH   6  26
BRANCH   8  28
ATOM     28  O   UNL     1       4.216  10.397 -12.110  1.00  0.00    -0.508 OA
ATOM     29  H   UNL     1       4.389  10.340 -13.106  1.00  0.00     0.293 HD
ENDBRANCH   8  28
TORSDOF 7
ENDMDL
MODEL 3
REMARK VINA RESULT:    -4.815     14.803     15.938
REMARK INTER + INTRA:          -6.293
REMARK INTER:                  -6.581
REMARK INTRA:                   0.288
REMARK UNBOUND:                -0.353
REMARK SMILES O=c1c(O)c(-c2cc(O)c(O)c(O)c2)oc2cc(O)cc(O)c12
REMARK SMILES IDX 5 1 3 2 2 3 1 4 23 5 21 6 20 7 18 8 17 9 16 10 15 11 6 12
REMARK SMILES IDX 7 13 8 14 14 15 10 16 12 17 9 18 11 20 13 22 4 24 22 26
REMARK SMILES IDX 19 28
REMARK H PARENT 9 19 11 21 13 23 4 25 22 27 19 29
REMARK Flexibility Score: inf
ROOT
ATOM      1  C   UNL     1      -4.320  -4.936  -6.357  1.00  0.00     0.180 A 
ATOM      2  C   UNL     1      -5.640  -4.629  -6.731  1.00  0.00     0.208 A 
ATOM      3  C   UNL     1      -5.954  -4.520  -8.094  1.00  0.00     0.238 A 
ATOM      4  O   UNL     1      -7.125  -4.191  -8.419  1.00  0.00    -0.285 OA
ATOM      5  C   UNL     1      -4.951  -4.735  -9.068  1.00  0.00     0.111 A 
ATOM      6  C   UNL     1      -5.166  -4.689 -10.479  1.00  0.00     0.134 A 
ATOM      7  C   UNL     1      -4.073  -4.788 -11.348  1.00  0.00     0.093 A 
ATOM      8  C   UNL     1      -2.782  -4.997 -10.862  1.00  0.00     0.123 A 
ATOM      9  C   UNL     1      -2.568  -5.102  -9.488  1.00  0.00     0.094 A 
ATOM     10  C   UNL     1      -3.633  -4.972  -8.593  1.00  0.00     0.146 A 
ATOM     11  O   UNL     1      -3.386  -5.068  -7.292  1.00  0.00    -0.452 OA
ENDROOT
BRANCH   1  12
ATOM     12  C   UNL     1      -3.917  -5.093  -4.941  1.00  0.00     0.029 A 
ATOM     13  C   UNL     1      -2.624  -4.761  -4.507  1.00  0.00     0.062 A 
ATOM     14  C   UNL     1      -2.268  -4.895  -3.158  1.00  0.00     0.162 A 
ATOM     15  C   UNL     1      -4.862  -5.530  -3.999  1.00  0.00     0.062 A 
ATOM     16  C   UNL     1      -3.214  -5.355  -2.226  1.00  0.00     0.200 A 
ATOM     17  C   UNL     1      -4.516  -5.668  -2.651  1.00  0.00     0.162 A 
BRANCH  14  18
ATOM     18  O   UNL     1      -0.978  -4.568  -2.740  1.00  0.00    -0.504 OA
ATOM     19  H   UNL     1      -0.159  -4.920  -3.220  1.00  0.00     0.293 HD
ENDBRANCH  14  18
BRANCH  16  20
ATOM     20  O   UNL     1      -2.875  -5.498  -0.879  1.00  0.00    -0.502 OA
ATOM     21  H   UNL     1      -3.206  -4.857  -0.169  1.00  0.00     0.293 HD
ENDBRANCH  16  20
BRANCH  17  22
ATOM     22  O   UNL     1      -5.480  -6.118  -1.749  1.00  0.00    -0.504 OA
ATOM     23  H   UNL     1      -5.273  -6.268  -0.769  1.00  0.00     0.293 HD
ENDBRANCH  17  22
ENDBRANCH   1  12
BRANCH   2  24
ATOM     24  O   UNL     1      -6.611  -4.399  -5.752  1.00  0.00    -0.502 OA
ATOM     25  H   UNL     1      -7.147  -5.149  -5.331  1.00  0.00     0.293 HD
ENDBRANCH   2  24
BRANCH   6  26
ATOM     26  O   UNL     1      -6.426  -4.577 -11.072  1.00  0.00    -0.507 OA
ATOM     27  H   UNL     1      -7.287  -4.426 -10.569  1.00  0.00     0.293 HD
ENDBRANCH   6  26
BRANCH   8  28
ATOM     28  O   UNL     1      -1.720  -5.106 -11.757  1.00  0.00    -0.508 OA
ATOM     29  H   UNL     1      -1.789  -4.761 -12.706  1.00  0.00     0.293 HD
ENDBRANCH   8  28
TORSDOF 7
ENDMDL
MODEL 4
REMARK VINA RESULT:    -4.803      2.257      3.382
REMARK INTER + INTRA:          -6.279
REMARK INTER:                  -6.384
REMARK INTRA:                   0.105
REMARK UNBOUND:                -0.353
REMARK SMILES O=c1c(O)c(-c2cc(O)c(O)c(O)c2)oc2cc(O)cc(O)c12
REMARK SMILES IDX 5 1 3 2 2 3 1 4 23 5 21 6 20 7 18 8 17 9 16 10 15 11 6 12
REMARK SMILES IDX 7 13 8 14 14 15 10 16 12 17 9 18 11 20 13 22 4 24 22 26
REMARK SMILES IDX 19 28
REMARK H PARENT 9 19 11 21 13 23 4 25 22 27 19 29
REMARK Flexibility Score: inf
ROOT
ATOM      1  C   UNL     1       0.053   9.665 -11.134  1.00  0.00     0.180 A 
ATOM      2  C   UNL     1      -0.521   8.450 -10.721  1.00  0.00     0.208 A 
ATOM      3  C   UNL     1      -1.918   8.325 -10.710  1.00  0.00     0.238 A 
ATOM      4  O   UNL     1      -2.426   7.253 -10.287  1.00  0.00    -0.285 OA
ATOM      5  C   UNL     1      -2.726   9.408 -11.129  1.00  0.00     0.111 A 
ATOM      6  C   UNL     1      -4.152   9.379 -11.198  1.00  0.00     0.134 A 
ATOM      7  C   UNL     1      -4.853  10.552 -11.501  1.00  0.00     0.093 A 
ATOM      8  C   UNL     1      -4.181  11.736 -11.804  1.00  0.00     0.123 A 
ATOM      9  C   UNL     1      -2.786  11.761 -11.798  1.00  0.00     0.094 A 
ATOM     10  C   UNL     1      -2.059  10.617 -11.463  1.00  0.00     0.146 A 
ATOM     11  O   UNL     1      -0.733  10.685 -11.460  1.00  0.00    -0.452 OA
ENDROOT
BRANCH   1  12
ATOM     12  C   UNL     1       1.519   9.864 -11.196  1.00  0.00     0.029 A 
ATOM     13  C   UNL     1       2.378   8.841 -11.627  1.00  0.00     0.062 A 
ATOM     14  C   UNL     1       3.762   9.056 -11.701  1.00  0.00     0.162 A 
ATOM     15  C   UNL     1       2.059  11.119 -10.872  1.00  0.00     0.062 A 
ATOM     16  C   UNL     1       4.296  10.308 -11.353  1.00  0.00     0.200 A 
ATOM     17  C   UNL     1       3.438  11.342 -10.942  1.00  0.00     0.162 A 
BRANCH  14  18
ATOM     18  O   UNL     1       4.606   8.030 -12.124  1.00  0.00    -0.504 OA
ATOM     19  H   UNL     1       5.036   8.040 -13.041  1.00  0.00     0.293 HD
ENDBRANCH  14  18
BRANCH  16  20
ATOM     20  O   UNL     1       5.671  10.538 -11.417  1.00  0.00    -0.502 OA
ATOM     21  H   UNL     1       6.057  11.457 -11.594  1.00  0.00     0.293 HD
ENDBRANCH  16  20
BRANCH  17  22
ATOM     22  O   UNL     1       3.936  12.598 -10.598  1.00  0.00    -0.504 OA
ATOM     23  H   UNL     1       3.699  13.434 -11.119  1.00  0.00     0.293 HD
ENDBRANCH  17  22
ENDBRANCH   1  12
BRANCH   2  24
ATOM     24  O   UNL     1       0.295   7.400 -10.290  1.00  0.00    -0.502 OA
ATOM     25  H   UNL     1      -0.034   6.678  -9.660  1.00  0.00     0.293 HD
ENDBRANCH   2  24
BRANCH   6  26
ATOM     26  O   UNL     1      -4.918   8.226 -11.005  1.00  0.00    -0.507 OA
ATOM     27  H   UNL     1      -5.906   8.220 -10.798  1.00  0.00     0.293 HD
ENDBRANCH   6  26
BRANCH   8  28
ATOM     28  O   UNL     1      -4.912  12.880 -12.117  1.00  0.00    -0.508 OA
ATOM     29  H   UNL     1      -4.714  13.771 -11.678  1.00  0.00     0.293 HD
ENDBRANCH   8  28
TORSDOF 7
ENDMDL
MODEL 5
REMARK VINA RESULT:    -4.781     12.012     14.616
REMARK INTER + INTRA:          -6.252
REMARK INTER:                  -5.894
REMARK INTRA:                  -0.357
REMARK UNBOUND:                -0.353
REMARK SMILES O=c1c(O)c(-c2cc(O)c(O)c(O)c2)oc2cc(O)cc(O)c12
REMARK SMILES IDX 5 1 3 2 2 3 1 4 23 5 21 6 20 7 18 8 17 9 16 10 15 11 6 12
REMARK SMILES IDX 7 13 8 14 14 15 10 16 12 17 9 18 11 20 13 22 4 24 22 26
REMARK SMILES IDX 19 28
REMARK H PARENT 9 19 11 21 13 23 4 25 22 27 19 29
REMARK Flexibility Score: inf
ROOT
ATOM      1  C   UNL     1      10.169  11.211  -7.402  1.00  0.00     0.180 A 
ATOM      2  C   UNL     1      10.260  11.867  -8.642  1.00  0.00     0.208 A 
ATOM      3  C   UNL     1      10.794  11.177  -9.741  1.00  0.00     0.238 A 
ATOM      4  O   UNL     1      10.924  11.789 -10.834  1.00  0.00    -0.285 OA
ATOM      5  C   UNL     1      11.215   9.834  -9.593  1.00  0.00     0.111 A 
ATOM      6  C   UNL     1      11.735   9.026 -10.648  1.00  0.00     0.134 A 
ATOM      7  C   UNL     1      12.242   7.753 -10.359  1.00  0.00     0.093 A 
ATOM      8  C   UNL     1      12.188   7.233  -9.066  1.00  0.00     0.123 A 
ATOM      9  C   UNL     1      11.629   7.992  -8.037  1.00  0.00     0.094 A 
ATOM     10  C   UNL     1      11.148   9.279  -8.288  1.00  0.00     0.146 A 
ATOM     11  O   UNL     1      10.632   9.972  -7.279  1.00  0.00    -0.452 OA
ENDROOT
BRANCH   1  12
ATOM     12  C   UNL     1       9.594  11.864  -6.204  1.00  0.00     0.029 A 
ATOM     13  C   UNL     1      10.393  12.612  -5.325  1.00  0.00     0.062 A 
ATOM     14  C   UNL     1       9.827  13.243  -4.208  1.00  0.00     0.162 A 
ATOM     15  C   UNL     1       8.213  11.782  -5.970  1.00  0.00     0.062 A 
ATOM     16  C   UNL     1       8.446  13.137  -3.969  1.00  0.00     0.200 A 
ATOM     17  C   UNL     1       7.639  12.407  -4.858  1.00  0.00     0.162 A 
BRANCH  14  18
ATOM     18  O   UNL     1      10.632  13.978  -3.338  1.00  0.00    -0.504 OA
ATOM     19  H   UNL     1      11.621  13.786  -3.240  1.00  0.00     0.293 HD
ENDBRANCH  14  18
BRANCH  16  20
ATOM     20  O   UNL     1       7.866  13.755  -2.860  1.00  0.00    -0.502 OA
ATOM     21  H   UNL     1       8.318  13.769  -1.953  1.00  0.00     0.293 HD
ENDBRANCH  16  20
BRANCH  17  22
ATOM     22  O   UNL     1       6.264  12.291  -4.653  1.00  0.00    -0.504 OA
ATOM     23  H   UNL     1       5.865  11.559  -4.078  1.00  0.00     0.293 HD
ENDBRANCH  17  22
ENDBRANCH   1  12
BRANCH   2  24
ATOM     24  O   UNL     1       9.859  13.201  -8.761  1.00  0.00    -0.502 OA
ATOM     25  H   UNL     1       8.903  13.498  -8.603  1.00  0.00     0.293 HD
ENDBRANCH   2  24
BRANCH   6  26
ATOM     26  O   UNL     1      11.749   9.411 -11.992  1.00  0.00    -0.507 OA
ATOM     27  H   UNL     1      11.280   8.918 -12.737  1.00  0.00     0.293 HD
ENDBRANCH   6  26
BRANCH   8  28
ATOM     28  O   UNL     1      12.688   5.957  -8.816  1.00  0.00    -0.508 OA
ATOM     29  H   UNL     1      13.143   5.728  -7.941  1.00  0.00     0.293 HD
ENDBRANCH   8  28
TORSDOF 7
ENDMDL
MODEL 6
REMARK VINA RESULT:    -4.694     12.488     14.482
REMARK INTER + INTRA:          -6.144
REMARK INTER:                  -5.792
REMARK INTRA:                  -0.352
REMARK UNBOUND:                -0.353
REMARK SMILES O=c1c(O)c(-c2cc(O)c(O)c(O)c2)oc2cc(O)cc(O)c12
REMARK SMILES IDX 5 1 3 2 2 3 1 4 23 5 21 6 20 7 18 8 17 9 16 10 15 11 6 12
REMARK SMILES IDX 7 13 8 14 14 15 10 16 12 17 9 18 11 20 13 22 4 24 22 26
REMARK SMILES IDX 19 28
REMARK H PARENT 9 19 11 21 13 23 4 25 22 27 19 29
REMARK Flexibility Score: inf
ROOT
ATOM      1  C   UNL     1      10.855  10.409  -7.262  1.00  0.00     0.180 A 
ATOM      2  C   UNL     1       9.531  10.868  -7.374  1.00  0.00     0.208 A 
ATOM      3  C   UNL     1       9.035  11.759  -6.410  1.00  0.00     0.238 A 
ATOM      4  O   UNL     1       7.832  12.123  -6.485  1.00  0.00    -0.285 OA
ATOM      5  C   UNL     1       9.872  12.194  -5.356  1.00  0.00     0.111 A 
ATOM      6  C   UNL     1       9.487  13.127  -4.346  1.00  0.00     0.134 A 
ATOM      7  C   UNL     1      10.353  13.385  -3.277  1.00  0.00     0.093 A 
ATOM      8  C   UNL     1      11.616  12.797  -3.214  1.00  0.00     0.123 A 
ATOM      9  C   UNL     1      12.026  11.929  -4.227  1.00  0.00     0.094 A 
ATOM     10  C   UNL     1      11.170  11.624  -5.287  1.00  0.00     0.146 A 
ATOM     11  O   UNL     1      11.595  10.785  -6.226  1.00  0.00    -0.452 OA
ENDROOT
BRANCH   1  12
ATOM     12  C   UNL     1      11.457   9.489  -8.254  1.00  0.00     0.029 A 
ATOM     13  C   UNL     1      11.434   8.098  -8.067  1.00  0.00     0.062 A 
ATOM     14  C   UNL     1      11.989   7.240  -9.028  1.00  0.00     0.162 A 
ATOM     15  C   UNL     1      12.013  10.012  -9.432  1.00  0.00     0.062 A 
ATOM     16  C   UNL     1      12.564   7.774 -10.195  1.00  0.00     0.200 A 
ATOM     17  C   UNL     1      12.570   9.165 -10.395  1.00  0.00     0.162 A 
BRANCH  14  18
ATOM     18  O   UNL     1      11.967   5.860  -8.830  1.00  0.00    -0.504 OA
ATOM     19  H   UNL     1      12.648   5.397  -8.239  1.00  0.00     0.293 HD
ENDBRANCH  14  18
BRANCH  16  20
ATOM     20  O   UNL     1      13.125   6.936 -11.160  1.00  0.00    -0.502 OA
ATOM     21  H   UNL     1      13.944   7.200 -11.694  1.00  0.00     0.293 HD
ENDBRANCH  16  20
BRANCH  17  22
ATOM     22  O   UNL     1      13.125   9.724 -11.546  1.00  0.00    -0.504 OA
ATOM     23  H   UNL     1      13.944  10.319 -11.515  1.00  0.00     0.293 HD
ENDBRANCH  17  22
ENDBRANCH   1  12
BRANCH   2  24
ATOM     24  O   UNL     1       8.714  10.408  -8.411  1.00  0.00    -0.502 OA
ATOM     25  H   UNL     1       8.399  11.010  -9.163  1.00  0.00     0.293 HD
ENDBRANCH   2  24
BRANCH   6  26
ATOM     26  O   UNL     1       8.285  13.842  -4.361  1.00  0.00    -0.507 OA
ATOM     27  H   UNL     1       8.215  14.846  -4.418  1.00  0.00     0.293 HD
ENDBRANCH   6  26
BRANCH   8  28
ATOM     28  O   UNL     1      12.459  13.089  -2.144  1.00  0.00    -0.508 OA
ATOM     29  H   UNL     1      12.263  13.853  -1.509  1.00  0.00     0.293 HD
ENDBRANCH   8  28
TORSDOF 7
ENDMDL
MODEL 7
REMARK VINA RESULT:    -4.529      2.672      5.121
REMARK INTER + INTRA:          -5.941
REMARK INTER:                  -5.992
REMARK INTRA:                   0.051
REMARK UNBOUND:                -0.353
REMARK SMILES O=c1c(O)c(-c2cc(O)c(O)c(O)c2)oc2cc(O)cc(O)c12
REMARK SMILES IDX 5 1 3 2 2 3 1 4 23 5 21 6 20 7 18 8 17 9 16 10 15 11 6 12
REMARK SMILES IDX 7 13 8 14 14 15 10 16 12 17 9 18 11 20 13 22 4 24 22 26
REMARK SMILES IDX 19 28
REMARK H PARENT 9 19 11 21 13 23 4 25 22 27 19 29
REMARK Flexibility Score: inf
ROOT
ATOM      1  C   UNL     1       1.693   9.038 -10.653  1.00  0.00     0.180 A 
ATOM      2  C   UNL     1       1.535   7.965  -9.759  1.00  0.00     0.208 A 
ATOM      3  C   UNL     1       0.239   7.524  -9.446  1.00  0.00     0.238 A 
ATOM      4  O   UNL     1       0.103   6.599  -8.603  1.00  0.00    -0.285 OA
ATOM      5  C   UNL     1      -0.881   8.148 -10.043  1.00  0.00     0.111 A 
ATOM      6  C   UNL     1      -2.237   7.757  -9.830  1.00  0.00     0.134 A 
ATOM      7  C   UNL     1      -3.272   8.530 -10.370  1.00  0.00     0.093 A 
ATOM      8  C   UNL     1      -3.001   9.640 -11.170  1.00  0.00     0.123 A 
ATOM      9  C   UNL     1      -1.679   9.997 -11.433  1.00  0.00     0.094 A 
ATOM     10  C   UNL     1      -0.625   9.267 -10.879  1.00  0.00     0.146 A 
ATOM     11  O   UNL     1       0.620   9.645 -11.146  1.00  0.00    -0.452 OA
ENDROOT
BRANCH   1  12
ATOM     12  C   UNL     1       3.027   9.543 -11.051  1.00  0.00     0.029 A 
ATOM     13  C   UNL     1       3.326  10.914 -11.027  1.00  0.00     0.062 A 
ATOM     14  C   UNL     1       4.602  11.372 -11.386  1.00  0.00     0.162 A 
ATOM     15  C   UNL     1       4.032   8.630 -11.405  1.00  0.00     0.062 A 
ATOM     16  C   UNL     1       5.596  10.452 -11.761  1.00  0.00     0.200 A 
ATOM     17  C   UNL     1       5.308   9.077 -11.766  1.00  0.00     0.162 A 
BRANCH  14  18
ATOM     18  O   UNL     1       4.886  12.737 -11.365  1.00  0.00    -0.504 OA
ATOM     19  H   UNL     1       5.835  13.081 -11.274  1.00  0.00     0.293 HD
ENDBRANCH  14  18
BRANCH  16  20
ATOM     20  O   UNL     1       6.871  10.891 -12.125  1.00  0.00    -0.502 OA
ATOM     21  H   UNL     1       7.163  11.853 -12.009  1.00  0.00     0.293 HD
ENDBRANCH  16  20
BRANCH  17  22
ATOM     22  O   UNL     1       6.275   8.139 -12.125  1.00  0.00    -0.504 OA
ATOM     23  H   UNL     1       7.106   8.394 -12.645  1.00  0.00     0.293 HD
ENDBRANCH  17  22
ENDBRANCH   1  12
BRANCH   2  24
ATOM     24  O   UNL     1       2.654   7.376  -9.164  1.00  0.00    -0.502 OA
ATOM     25  H   UNL     1       3.515   7.210  -9.670  1.00  0.00     0.293 HD
ENDBRANCH   2  24
BRANCH   6  26
ATOM     26  O   UNL     1      -2.617   6.612  -9.125  1.00  0.00    -0.507 OA
ATOM     27  H   UNL     1      -2.214   5.696  -9.255  1.00  0.00     0.293 HD
ENDBRANCH   6  26
BRANCH   8  28
ATOM     28  O   UNL     1      -4.056  10.377 -11.704  1.00  0.00    -0.508 OA
ATOM     29  H   UNL     1      -4.450  10.157 -12.611  1.00  0.00     0.293 HD
ENDBRANCH   8  28
TORSDOF 7
ENDMDL
MODEL 8
REMARK VINA RESULT:    -2.465      2.677      5.092
REMARK INTER + INTRA:          -3.394
REMARK INTER:                  -3.414
REMARK INTRA:                   0.020
REMARK UNBOUND:                -0.353
REMARK SMILES O=c1c(O)c(-c2cc(O)c(O)c(O)c2)oc2cc(O)cc(O)c12
REMARK SMILES IDX 5 1 3 2 2 3 1 4 23 5 21 6 20 7 18 8 17 9 16 10 15 11 6 12
REMARK SMILES IDX 7 13 8 14 14 15 10 16 12 17 9 18 11 20 13 22 4 24 22 26
REMARK SMILES IDX 19 28
REMARK H PARENT 9 19 11 21 13 23 4 25 22 27 19 29
REMARK Flexibility Score: inf
ROOT
ATOM      1  C   UNL     1       1.676   9.063 -10.647  1.00  0.00     0.180 A 
ATOM      2  C   UNL     1       1.528   7.954  -9.797  1.00  0.00     0.208 A 
ATOM      3  C   UNL     1       0.238   7.482  -9.510  1.00  0.00     0.238 A 
ATOM      4  O   UNL     1       0.110   6.523  -8.705  1.00  0.00    -0.285 OA
ATOM      5  C   UNL     1      -0.888   8.114 -10.090  1.00  0.00     0.111 A 
ATOM      6  C   UNL     1      -2.240   7.695  -9.902  1.00  0.00     0.134 A 
ATOM      7  C   UNL     1      -3.283   8.474 -10.418  1.00  0.00     0.093 A 
ATOM      8  C   UNL     1      -3.023   9.618 -11.172  1.00  0.00     0.123 A 
ATOM      9  C   UNL     1      -1.704  10.004 -11.413  1.00  0.00     0.094 A 
ATOM     10  C   UNL     1      -0.643   9.268 -10.880  1.00  0.00     0.146 A 
ATOM     11  O   UNL     1       0.598   9.674 -11.124  1.00  0.00    -0.452 OA
ENDROOT
BRANCH   1  12
ATOM     12  C   UNL     1       3.005   9.602 -11.016  1.00  0.00     0.029 A 
ATOM     13  C   UNL     1       4.059   8.754 -11.392  1.00  0.00     0.062 A 
ATOM     14  C   UNL     1       5.304   9.284 -11.760  1.00  0.00     0.162 A 
ATOM     15  C   UNL     1       3.202  10.991 -11.046  1.00  0.00     0.062 A 
ATOM     16  C   UNL     1       5.499  10.675 -11.766  1.00  0.00     0.200 A 
ATOM     17  C   UNL     1       4.441  11.529 -11.411  1.00  0.00     0.162 A 
BRANCH  14  18
ATOM     18  O   UNL     1       6.346   8.431 -12.125  1.00  0.00    -0.504 OA
ATOM     19  H   UNL     1       6.818   7.847 -11.445  1.00  0.00     0.293 HD
ENDBRANCH  14  18
BRANCH  16  20
ATOM     20  O   UNL     1       6.733  11.220 -12.125  1.00  0.00    -0.502 OA
ATOM     21  H   UNL     1       6.890  11.651 -13.028  1.00  0.00     0.293 HD
ENDBRANCH  16  20
BRANCH  17  22
ATOM     22  O   UNL     1       4.601  12.914 -11.415  1.00  0.00    -0.504 OA
ATOM     23  H   UNL     1       5.205  13.386 -12.077  1.00  0.00     0.293 HD
ENDBRANCH  17  22
ENDBRANCH   1  12
BRANCH   2  24
ATOM     24  O   UNL     1       2.652   7.359  -9.217  1.00  0.00    -0.502 OA
ATOM     25  H   UNL     1       3.264   7.855  -8.581  1.00  0.00     0.293 HD
ENDBRANCH   2  24
BRANCH   6  26
ATOM     26  O   UNL     1      -2.608   6.518  -9.244  1.00  0.00    -0.507 OA
ATOM     27  H   UNL     1      -3.512   6.349  -8.830  1.00  0.00     0.293 HD
ENDBRANCH   6  26
BRANCH   8  28
ATOM     28  O   UNL     1      -4.085  10.360 -11.685  1.00  0.00    -0.508 OA
ATOM     29  H   UNL     1      -4.667  10.004 -12.433  1.00  0.00     0.293 HD
ENDBRANCH   8  28
TORSDOF 7
ENDMDL
