MODEL 1
REMARK VINA RESULT:    -4.701      0.000      0.000
REMARK INTER + INTRA:          -5.588
REMARK INTER:                  -5.388
REMARK INTRA:                  -0.200
REMARK UNBOUND:                -0.200
REMARK SMILES CC=Cc1ccc(O)c(OC)c1
REMARK SMILES IDX 4 1 12 2 9 3 7 4 6 5 5 6 3 7 1 8 2 9 10 10 11 11 8 12
REMARK H PARENT 8 13
REMARK Flexibility Score: inf
ROOT
ATOM      1  C   UNL     1     -18.264  31.798  -2.830  1.00  0.00    -0.022 A 
ATOM      2  C   UNL     1     -19.448  31.623  -2.098  1.00  0.00     0.058 A 
ATOM      3  C   UNL     1     -20.660  32.182  -2.552  1.00  0.00     0.161 A 
ATOM      4  C   UNL     1     -20.668  32.934  -3.735  1.00  0.00     0.157 A 
ATOM      5  C   UNL     1     -19.482  33.132  -4.451  1.00  0.00     0.051 A 
ATOM      6  C   UNL     1     -18.284  32.577  -3.997  1.00  0.00     0.012 A 
ENDROOT
BRANCH   1   7
ATOM      7  C   UNL     1     -17.005  31.223  -2.311  1.00  0.00     0.003 C 
ATOM      8  C   UNL     1     -16.962  29.309  -3.933  1.00  0.00     0.035 C 
ATOM      9  C   UNL     1     -16.408  30.131  -2.809  1.00  0.00    -0.030 C 
ENDBRANCH   1   7
BRANCH   3  10
ATOM     10  O   UNL     1     -21.868  32.013  -1.857  1.00  0.00    -0.493 OA
ATOM     11  C   UNL     1     -22.265  30.808  -1.211  1.00  0.00     0.278 C 
ENDBRANCH   3  10
BRANCH   4  12
ATOM     12  O   UNL     1     -21.864  33.487  -4.191  1.00  0.00    -0.504 OA
ATOM     13  H   UNL     1     -22.550  33.869  -3.551  1.00  0.00     0.293 HD
ENDBRANCH   4  12
TORSDOF 3
ENDMDL
MODEL 2
REMARK VINA RESULT:    -4.681      2.200      4.479
REMARK INTER + INTRA:          -5.565
REMARK INTER:                  -5.371
REMARK INTRA:                  -0.194
REMARK UNBOUND:                -0.200
REMARK SMILES CC=Cc1ccc(O)c(OC)c1
REMARK SMILES IDX 4 1 12 2 9 3 7 4 6 5 5 6 3 7 1 8 2 9 10 10 11 11 8 12
REMARK H PARENT 8 13
REMARK Flexibility Score: inf
ROOT
ATOM      1  C   UNL     1     -20.947  32.028  -2.664  1.00  0.00    -0.022 A 
ATOM      2  C   UNL     1     -19.733  31.666  -2.062  1.00  0.00     0.058 A 
ATOM      3  C   UNL     1     -18.506  31.977  -2.682  1.00  0.00     0.161 A 
ATOM      4  C   UNL     1     -18.509  32.636  -3.920  1.00  0.00     0.157 A 
ATOM      5  C   UNL     1     -19.722  32.973  -4.534  1.00  0.00     0.051 A 
ATOM      6  C   UNL     1     -20.935  32.661  -3.916  1.00  0.00     0.012 A 
ENDROOT
BRANCH   1   7
ATOM      7  C   UNL     1     -22.217  31.662  -2.001  1.00  0.00     0.003 C 
ATOM      8  C   UNL     1     -22.751  33.999  -1.261  1.00  0.00     0.035 C 
ATOM      9  C   UNL     1     -23.035  32.533  -1.395  1.00  0.00    -0.030 C 
ENDBRANCH   1   7
BRANCH   3  10
ATOM     10  O   UNL     1     -17.270  31.648  -2.102  1.00  0.00    -0.493 OA
ATOM     11  C   UNL     1     -16.668  30.359  -2.165  1.00  0.00     0.278 C 
ENDBRANCH   3  10
BRANCH   4  12
ATOM     12  O   UNL     1     -17.299  32.949  -4.537  1.00  0.00    -0.504 OA
ATOM     13  H   UNL     1     -16.641  33.595  -4.117  1.00  0.00     0.293 HD
ENDBRANCH   4  12
TORSDOF 3
ENDMDL
MODEL 3
REMARK VINA RESULT:    -4.654      1.896      2.787
REMARK INTER + INTRA:          -5.535
REMARK INTER:                  -5.301
REMARK INTRA:                  -0.234
REMARK UNBOUND:                -0.200
REMARK SMILES CC=Cc1ccc(O)c(OC)c1
REMARK SMILES IDX 4 1 12 2 9 3 7 4 6 5 5 6 3 7 1 8 2 9 10 10 11 11 8 12
REMARK H PARENT 8 13
REMARK Flexibility Score: inf
ROOT
ATOM      1  C   UNL     1     -20.294  32.056  -2.902  1.00  0.00    -0.022 A 
ATOM      2  C   UNL     1     -20.988  30.944  -2.404  1.00  0.00     0.058 A 
ATOM      3  C   UNL     1     -22.201  31.111  -1.705  1.00  0.00     0.161 A 
ATOM      4  C   UNL     1     -22.698  32.404  -1.491  1.00  0.00     0.157 A 
ATOM      5  C   UNL     1     -21.990  33.517  -1.963  1.00  0.00     0.051 A 
ATOM      6  C   UNL     1     -20.789  33.345  -2.655  1.00  0.00     0.012 A 
ENDROOT
BRANCH   1   7
ATOM      7  C   UNL     1     -19.011  31.848  -3.607  1.00  0.00     0.003 C 
ATOM      8  C   UNL     1     -17.614  31.890  -1.524  1.00  0.00     0.035 C 
ATOM      9  C   UNL     1     -17.819  31.751  -3.003  1.00  0.00    -0.030 C 
ENDBRANCH   1   7
BRANCH   3  10
ATOM     10  O   UNL     1     -22.934  30.021  -1.208  1.00  0.00    -0.493 OA
ATOM     11  C   UNL     1     -23.806  29.213  -1.992  1.00  0.00     0.278 C 
ENDBRANCH   3  10
BRANCH   4  12
ATOM     12  O   UNL     1     -23.898  32.576  -0.802  1.00  0.00    -0.504 OA
ATOM     13  H   UNL     1     -24.486  33.387  -0.956  1.00  0.00     0.293 HD
ENDBRANCH   4  12
TORSDOF 3
ENDMDL
MODEL 4
REMARK VINA RESULT:    -4.619      1.703      2.933
REMARK INTER + INTRA:          -5.495
REMARK INTER:                  -5.325
REMARK INTRA:                  -0.170
REMARK UNBOUND:                -0.200
REMARK SMILES CC=Cc1ccc(O)c(OC)c1
REMARK SMILES IDX 4 1 12 2 9 3 7 4 6 5 5 6 3 7 1 8 2 9 10 10 11 11 8 12
REMARK H PARENT 8 13
REMARK Flexibility Score: inf
ROOT
ATOM      1  C   UNL     1     -19.520  31.829  -2.363  1.00  0.00    -0.022 A 
ATOM      2  C   UNL     1     -20.608  32.711  -2.441  1.00  0.00     0.058 A 
ATOM      3  C   UNL     1     -21.890  32.306  -2.016  1.00  0.00     0.161 A 
ATOM      4  C   UNL     1     -22.073  31.002  -1.533  1.00  0.00     0.157 A 
ATOM      5  C   UNL     1     -20.993  30.112  -1.482  1.00  0.00     0.051 A 
ATOM      6  C   UNL     1     -19.725  30.519  -1.905  1.00  0.00     0.012 A 
ENDROOT
BRANCH   1   7
ATOM      7  C   UNL     1     -18.195  32.276  -2.843  1.00  0.00     0.003 C 
ATOM      8  C   UNL     1     -18.646  31.733  -5.250  1.00  0.00     0.035 C 
ATOM      9  C   UNL     1     -17.806  32.258  -4.125  1.00  0.00    -0.030 C 
ENDBRANCH   1   7
BRANCH   3  10
ATOM     10  O   UNL     1     -22.999  33.165  -2.060  1.00  0.00    -0.493 OA
ATOM     11  C   UNL     1     -23.449  33.957  -0.966  1.00  0.00     0.278 C 
ENDBRANCH   3  10
BRANCH   4  12
ATOM     12  O   UNL     1     -23.338  30.596  -1.109  1.00  0.00    -0.504 OA
ATOM     13  H   UNL     1     -23.540  30.426  -0.131  1.00  0.00     0.293 HD
ENDBRANCH   4  12
TORSDOF 3
ENDMDL
MODEL 5
REMARK VINA RESULT:    -4.562      2.903      5.046
REMARK INTER + INTRA:          -5.429
REMARK INTER:                  -5.185
REMARK INTRA:                  -0.245
REMARK UNBOUND:                -0.200
REMARK SMILES CC=Cc1ccc(O)c(OC)c1
REMARK SMILES IDX 4 1 12 2 9 3 7 4 6 5 5 6 3 7 1 8 2 9 10 10 11 11 8 12
REMARK H PARENT 8 13
REMARK Flexibility Score: inf
ROOT
ATOM      1  C   UNL     1     -19.197  32.219  -3.019  1.00  0.00    -0.022 A 
ATOM      2  C   UNL     1     -18.297  32.236  -4.095  1.00  0.00     0.058 A 
ATOM      3  C   UNL     1     -17.171  31.388  -4.100  1.00  0.00     0.161 A 
ATOM      4  C   UNL     1     -16.946  30.538  -3.008  1.00  0.00     0.157 A 
ATOM      5  C   UNL     1     -17.828  30.541  -1.921  1.00  0.00     0.051 A 
ATOM      6  C   UNL     1     -18.942  31.384  -1.920  1.00  0.00     0.012 A 
ENDROOT
BRANCH   1   7
ATOM      7  C   UNL     1     -20.353  33.140  -3.032  1.00  0.00     0.003 C 
ATOM      8  C   UNL     1     -21.879  31.550  -4.229  1.00  0.00     0.035 C 
ATOM      9  C   UNL     1     -21.554  32.844  -3.547  1.00  0.00    -0.030 C 
ENDBRANCH   1   7
BRANCH   3  10
ATOM     10  O   UNL     1     -16.258  31.363  -5.167  1.00  0.00    -0.493 OA
ATOM     11  C   UNL     1     -15.609  32.513  -5.699  1.00  0.00     0.278 C 
ENDBRANCH   3  10
BRANCH   4  12
ATOM     12  O   UNL     1     -15.835  29.695  -3.008  1.00  0.00    -0.504 OA
ATOM     13  H   UNL     1     -14.990  29.931  -2.502  1.00  0.00     0.293 HD
ENDBRANCH   4  12
TORSDOF 3
ENDMDL
MODEL 6
REMARK VINA RESULT:    -4.516      2.842      4.896
REMARK INTER + INTRA:          -5.377
REMARK INTER:                  -5.118
REMARK INTRA:                  -0.259
REMARK UNBOUND:                -0.200
REMARK SMILES CC=Cc1ccc(O)c(OC)c1
REMARK SMILES IDX 4 1 12 2 9 3 7 4 6 5 5 6 3 7 1 8 2 9 10 10 11 11 8 12
REMARK H PARENT 8 13
REMARK Flexibility Score: inf
ROOT
ATOM      1  C   UNL     1     -19.172  31.747  -2.754  1.00  0.00    -0.022 A 
ATOM      2  C   UNL     1     -18.976  31.123  -3.995  1.00  0.00     0.058 A 
ATOM      3  C   UNL     1     -17.851  30.303  -4.216  1.00  0.00     0.161 A 
ATOM      4  C   UNL     1     -16.914  30.133  -3.187  1.00  0.00     0.157 A 
ATOM      5  C   UNL     1     -17.093  30.778  -1.957  1.00  0.00     0.051 A 
ATOM      6  C   UNL     1     -18.210  31.589  -1.744  1.00  0.00     0.012 A 
ENDROOT
BRANCH   1   7
ATOM      7  C   UNL     1     -20.348  32.622  -2.565  1.00  0.00     0.003 C 
ATOM      8  C   UNL     1     -21.799  30.820  -1.594  1.00  0.00     0.035 C 
ATOM      9  C   UNL     1     -21.511  32.225  -2.031  1.00  0.00    -0.030 C 
ENDBRANCH   1   7
BRANCH   3  10
ATOM     10  O   UNL     1     -17.631  29.647  -5.437  1.00  0.00    -0.493 OA
ATOM     11  C   UNL     1     -17.061  30.259  -6.589  1.00  0.00     0.278 C 
ENDBRANCH   3  10
BRANCH   4  12
ATOM     12  O   UNL     1     -15.799  29.321  -3.397  1.00  0.00    -0.504 OA
ATOM     13  H   UNL     1     -14.979  29.663  -3.882  1.00  0.00     0.293 HD
ENDBRANCH   4  12
TORSDOF 3
ENDMDL
MODEL 7
REMARK VINA RESULT:    -4.379      1.789      2.384
REMARK INTER + INTRA:          -5.219
REMARK INTER:                  -4.994
REMARK INTRA:                  -0.225
REMARK UNBOUND:                -0.200
REMARK SMILES CC=Cc1ccc(O)c(OC)c1
REMARK SMILES IDX 4 1 12 2 9 3 7 4 6 5 5 6 3 7 1 8 2 9 10 10 11 11 8 12
REMARK H PARENT 8 13
REMARK Flexibility Score: inf
ROOT
ATOM      1  C   UNL     1     -19.721  31.231  -2.463  1.00  0.00    -0.022 A 
ATOM      2  C   UNL     1     -20.486  32.368  -2.160  1.00  0.00     0.058 A 
ATOM      3  C   UNL     1     -21.810  32.486  -2.628  1.00  0.00     0.161 A 
ATOM      4  C   UNL     1     -22.352  31.463  -3.420  1.00  0.00     0.157 A 
ATOM      5  C   UNL     1     -21.580  30.341  -3.746  1.00  0.00     0.051 A 
ATOM      6  C   UNL     1     -20.268  30.230  -3.280  1.00  0.00     0.012 A 
ENDROOT
BRANCH   1   7
ATOM      7  C   UNL     1     -18.327  31.151  -1.980  1.00  0.00     0.003 C 
ATOM      8  C   UNL     1     -17.354  32.388  -3.933  1.00  0.00     0.035 C 
ATOM      9  C   UNL     1     -17.272  31.680  -2.614  1.00  0.00    -0.030 C 
ENDBRANCH   1   7
BRANCH   3  10
ATOM     10  O   UNL     1     -22.613  33.599  -2.331  1.00  0.00    -0.493 OA
ATOM     11  C   UNL     1     -23.372  33.748  -1.135  1.00  0.00     0.278 C 
ENDBRANCH   3  10
BRANCH   4  12
ATOM     12  O   UNL     1     -23.663  31.572  -3.884  1.00  0.00    -0.504 OA
ATOM     13  H   UNL     1     -24.421  31.845  -3.271  1.00  0.00     0.293 HD
ENDBRANCH   4  12
TORSDOF 3
ENDMDL
MODEL 8
REMARK VINA RESULT:    -4.310      2.249      4.310
REMARK INTER + INTRA:          -5.141
REMARK INTER:                  -5.015
REMARK INTRA:                  -0.125
REMARK UNBOUND:                -0.200
REMARK SMILES CC=Cc1ccc(O)c(OC)c1
REMARK SMILES IDX 4 1 12 2 9 3 7 4 6 5 5 6 3 7 1 8 2 9 10 10 11 11 8 12
REMARK H PARENT 8 13
REMARK Flexibility Score: inf
ROOT
ATOM      1  C   UNL     1     -19.756  30.945  -2.503  1.00  0.00    -0.022 A 
ATOM      2  C   UNL     1     -19.963  31.284  -3.849  1.00  0.00     0.058 A 
ATOM      3  C   UNL     1     -18.974  31.982  -4.572  1.00  0.00     0.161 A 
ATOM      4  C   UNL     1     -17.787  32.356  -3.926  1.00  0.00     0.157 A 
ATOM      5  C   UNL     1     -17.592  32.043  -2.575  1.00  0.00     0.051 A 
ATOM      6  C   UNL     1     -18.575  31.351  -1.864  1.00  0.00     0.012 A 
ENDROOT
BRANCH   1   7
ATOM      7  C   UNL     1     -20.824  30.236  -1.767  1.00  0.00     0.003 C 
ATOM      8  C   UNL     1     -22.335  32.232  -1.611  1.00  0.00     0.035 C 
ATOM      9  C   UNL     1     -21.981  30.793  -1.386  1.00  0.00    -0.030 C 
ENDBRANCH   1   7
BRANCH   3  10
ATOM     10  O   UNL     1     -19.136  32.322  -5.924  1.00  0.00    -0.493 OA
ATOM     11  C   UNL     1     -19.074  31.394  -7.002  1.00  0.00     0.278 C 
ENDBRANCH   3  10
BRANCH   4  12
ATOM     12  O   UNL     1     -16.804  33.045  -4.636  1.00  0.00    -0.504 OA
ATOM     13  H   UNL     1     -15.849  33.098  -4.303  1.00  0.00     0.293 HD
ENDBRANCH   4  12
TORSDOF 3
ENDMDL
MODEL 9
REMARK VINA RESULT:    -4.304      2.012      4.180
REMARK INTER + INTRA:          -5.133
REMARK INTER:                  -4.902
REMARK INTRA:                  -0.231
REMARK UNBOUND:                -0.200
REMARK SMILES CC=Cc1ccc(O)c(OC)c1
REMARK SMILES IDX 4 1 12 2 9 3 7 4 6 5 5 6 3 7 1 8 2 9 10 10 11 11 8 12
REMARK H PARENT 8 13
REMARK Flexibility Score: inf
ROOT
ATOM      1  C   UNL     1     -21.123  31.457  -2.099  1.00  0.00    -0.022 A 
ATOM      2  C   UNL     1     -19.900  30.781  -2.212  1.00  0.00     0.058 A 
ATOM      3  C   UNL     1     -18.879  31.281  -3.045  1.00  0.00     0.161 A 
ATOM      4  C   UNL     1     -19.105  32.454  -3.780  1.00  0.00     0.157 A 
ATOM      5  C   UNL     1     -20.337  33.114  -3.689  1.00  0.00     0.051 A 
ATOM      6  C   UNL     1     -21.345  32.613  -2.862  1.00  0.00     0.012 A 
ENDROOT
BRANCH   1   7
ATOM      7  C   UNL     1     -22.183  30.891  -1.237  1.00  0.00     0.003 C 
ATOM      8  C   UNL     1     -23.149  29.423  -3.027  1.00  0.00     0.035 C 
ATOM      9  C   UNL     1     -23.073  29.971  -1.634  1.00  0.00    -0.030 C 
ENDBRANCH   1   7
BRANCH   3  10
ATOM     10  O   UNL     1     -17.635  30.643  -3.170  1.00  0.00    -0.493 OA
ATOM     11  C   UNL     1     -16.701  30.483  -2.107  1.00  0.00     0.278 C 
ENDBRANCH   3  10
BRANCH   4  12
ATOM     12  O   UNL     1     -18.099  32.956  -4.604  1.00  0.00    -0.504 OA
ATOM     13  H   UNL     1     -17.537  32.346  -5.186  1.00  0.00     0.293 HD
ENDBRANCH   4  12
TORSDOF 3
ENDMDL
