MODEL 1
REMARK VINA RESULT:    27.995      0.000      0.000
REMARK INTER + INTRA:          33.641
REMARK INTER:                  32.086
REMARK INTRA:                   1.554
REMARK UNBOUND:                 1.554
REMARK SMILES C=C(C)[C@H]1CC[C@@]2(C(=O)[O-])CC[C@@]3(C)[C@H](CC[C@H]4[C@]5(C)CC[C@H](O)C(C)(C)[C@@H]5CC[C@@]43C)[C@@H]12
REMARK SMILES IDX 7 1 6 2 33 3 11 4 5 5 15 6 4 7 12 8 16 9 13 10 17 11 31 12
REMARK SMILES IDX 14 13 18 14 30 15 32 16 19 17 29 18 21 19 20 20 28 21 22 22
REMARK SMILES IDX 25 23 23 24 26 25 27 26 8 27 9 28 10 29 2 30 3 31 1 32 24 33
REMARK H PARENT 24 34
REMARK Flexibility Score: inf
ROOT
ATOM      1  C   UNL     1      45.319  27.424   3.270  1.00  0.00     0.014 C 
ATOM      2  C   UNL     1      44.225  26.854   4.183  1.00  0.00     0.014 C 
ATOM      3  C   UNL     1      44.563  28.496   2.424  1.00  0.00     0.012 C 
ATOM      4  C   UNL     1      46.012  26.300   2.472  1.00  0.00     0.014 C 
ATOM      5  C   UNL     1      43.405  28.053   4.616  1.00  0.00     0.009 C 
ATOM      6  C   UNL     1      43.910  27.964   1.090  1.00  0.00     0.000 C 
ATOM      7  C   UNL     1      43.540  29.087   3.479  1.00  0.00     0.018 C 
ATOM      8  C   UNL     1      45.232  25.769   1.269  1.00  0.00     0.008 C 
ATOM      9  C   UNL     1      43.478  29.134   0.162  1.00  0.00     0.005 C 
ATOM     10  C   UNL     1      44.655  26.824   0.268  1.00  0.00    -0.024 C 
ATOM     11  C   UNL     1      44.611  29.674  -0.705  1.00  0.00     0.005 C 
ATOM     12  C   UNL     1      45.760  27.393  -0.800  1.00  0.00    -0.024 C 
ATOM     13  C   UNL     1      43.529  26.025  -0.491  1.00  0.00     0.012 C 
ATOM     14  C   UNL     1      45.139  28.573  -1.648  1.00  0.00     0.002 C 
ATOM     15  C   UNL     1      46.201  26.286  -1.811  1.00  0.00     0.008 C 
ATOM     16  C   UNL     1      47.044  27.859  -0.054  1.00  0.00     0.012 C 
ATOM     17  C   UNL     1      45.933  29.123  -2.923  1.00  0.00    -0.026 C 
ATOM     18  C   UNL     1      47.099  26.789  -2.947  1.00  0.00     0.005 C 
ATOM     19  C   UNL     1      44.948  30.004  -3.776  1.00  0.00     0.010 C 
ATOM     20  C   UNL     1      47.125  30.061  -2.530  1.00  0.00     0.012 C 
ATOM     21  C   UNL     1      46.494  27.932  -3.810  1.00  0.00     0.003 C 
ATOM     22  C   UNL     1      45.352  30.119  -5.244  1.00  0.00     0.033 C 
ATOM     23  C   UNL     1      45.603  27.503  -5.059  1.00  0.00    -0.006 C 
ATOM     24  C   UNL     1      45.381  28.765  -5.983  1.00  0.00     0.120 C 
ATOM     25  C   UNL     1      44.242  26.857  -4.674  1.00  0.00     0.014 C 
ATOM     26  C   UNL     1      46.355  26.445  -5.918  1.00  0.00     0.014 C 
ENDROOT
BRANCH   1  27
ATOM     27  C   UNL     1      46.390  28.065   4.158  1.00  0.00     0.048 C 
ATOM     28  O   UNL     1      46.972  27.374   5.039  1.00  0.00    -0.550 OA
ATOM     29  O   UNL     1      46.741  29.405   4.024  1.00  0.00    -0.550 OA
ENDBRANCH   1  27
BRANCH   7  30
ATOM     30  C   UNL     1      42.179  29.615   3.010  1.00  0.00    -0.077 C 
ATOM     31  C   UNL     1      40.981  29.494   3.924  1.00  0.00     0.039 C 
ATOM     32  C   UNL     1      41.982  30.123   1.779  1.00  0.00     0.008 C 
ENDBRANCH   7  30
BRANCH  24  33
ATOM     33  O   UNL     1      44.207  28.645  -6.751  1.00  0.00    -0.393 OA
ATOM     34  H   UNL     1      44.477  28.387  -7.672  1.00  0.00     0.210 HD
ENDBRANCH  24  33
TORSDOF 3
ENDMDL
