MODEL 1
REMARK VINA RESULT:    -6.063      0.000      0.000
REMARK INTER + INTRA:         -10.842
REMARK INTER:                  -9.253
REMARK INTRA:                  -1.588
REMARK UNBOUND:                -1.588
REMARK SMILES CC(=O)CCC=C(C)CCC=C(C)CCC=C(C)C
REMARK SMILES IDX 10 1 11 2 12 3 13 4 14 5 15 6 16 7 18 8 17 9 19 10 9 11 7 12
REMARK SMILES IDX 6 13 8 14 5 15 4 16 2 17 3 18 1 19
REMARK H PARENT
REMARK Flexibility Score: inf
ROOT
ATOM      1  C   UNL     1     -10.487 -18.502  32.137  1.00  0.00     0.032 C 
ENDROOT
BRANCH   1   2
ATOM      2  C   UNL     1     -11.039 -18.775  30.761  1.00  0.00    -0.028 C 
ATOM      3  C   UNL     1     -12.291 -19.223  30.513  1.00  0.00    -0.077 C 
ATOM      4  C   UNL     1     -13.256 -19.551  31.630  1.00  0.00     0.039 C 
BRANCH   3   5
ATOM      5  C   UNL     1     -12.732 -19.419  29.080  1.00  0.00     0.034 C 
BRANCH   5   6
ATOM      6  C   UNL     1     -12.116 -18.350  28.169  1.00  0.00     0.032 C 
BRANCH   6   7
ATOM      7  C   UNL     1     -13.002 -17.131  28.100  1.00  0.00    -0.028 C 
ATOM      8  C   UNL     1     -11.239 -15.602  29.010  1.00  0.00     0.039 C 
ATOM      9  C   UNL     1     -12.614 -15.885  28.452  1.00  0.00    -0.080 C 
ATOM     10  C   UNL     1     -13.599 -14.755  28.292  1.00  0.00     0.039 C 
ENDBRANCH   6   7
ENDBRANCH   5   6
ENDBRANCH   3   5
ENDBRANCH   1   2
BRANCH   1  11
ATOM     11  C   UNL     1      -9.928 -17.076  32.226  1.00  0.00     0.034 C 
BRANCH  11  12
ATOM     12  C   UNL     1     -10.867 -16.181  33.005  1.00  0.00    -0.077 C 
ATOM     13  C   UNL     1     -10.367 -15.417  34.002  1.00  0.00    -0.028 C 
ATOM     14  C   UNL     1     -12.330 -16.148  32.632  1.00  0.00     0.039 C 
BRANCH  13  15
ATOM     15  C   UNL     1     -11.195 -14.522  34.893  1.00  0.00     0.035 C 
BRANCH  15  16
ATOM     16  C   UNL     1     -10.362 -13.382  35.498  1.00  0.00     0.079 C 
BRANCH  16  17
ATOM     17  C   UNL     1     -11.209 -12.438  36.312  1.00  0.00     0.130 C 
ATOM     18  O   UNL     1     -10.738 -11.380  36.702  1.00  0.00    -0.300 OA
ATOM     19  C   UNL     1     -12.614 -12.805  36.679  1.00  0.00     0.087 C 
ENDBRANCH  16  17
ENDBRANCH  15  16
ENDBRANCH  13  15
ENDBRANCH  11  12
ENDBRANCH   1  11
TORSDOF 9
ENDMDL
MODEL 2
REMARK VINA RESULT:    -5.888      2.608      4.185
REMARK INTER + INTRA:         -10.574
REMARK INTER:                  -8.999
REMARK INTRA:                  -1.575
REMARK UNBOUND:                -1.588
REMARK SMILES CC(=O)CCC=C(C)CCC=C(C)CCC=C(C)C
REMARK SMILES IDX 10 1 11 2 12 3 13 4 14 5 15 6 16 7 18 8 17 9 19 10 9 11 7 12
REMARK SMILES IDX 6 13 8 14 5 15 4 16 2 17 3 18 1 19
REMARK H PARENT
REMARK Flexibility Score: inf
ROOT
ATOM      1  C   UNL     1      -9.905 -15.071  30.817  1.00  0.00     0.032 C 
ENDROOT
BRANCH   1   2
ATOM      2  C   UNL     1     -10.033 -16.081  29.705  1.00  0.00    -0.028 C 
ATOM      3  C   UNL     1     -11.056 -16.122  28.821  1.00  0.00    -0.077 C 
ATOM      4  C   UNL     1     -12.222 -15.164  28.907  1.00  0.00     0.039 C 
BRANCH   3   5
ATOM      5  C   UNL     1     -11.042 -17.166  27.727  1.00  0.00     0.034 C 
BRANCH   5   6
ATOM      6  C   UNL     1     -12.255 -18.096  27.845  1.00  0.00     0.032 C 
BRANCH   6   7
ATOM      7  C   UNL     1     -12.261 -18.800  29.178  1.00  0.00    -0.028 C 
ATOM      8  C   UNL     1     -14.148 -20.321  28.547  1.00  0.00     0.039 C 
ATOM      9  C   UNL     1     -13.090 -19.818  29.500  1.00  0.00    -0.080 C 
ATOM     10  C   UNL     1     -12.954 -20.452  30.862  1.00  0.00     0.039 C 
ENDBRANCH   6   7
ENDBRANCH   5   6
ENDBRANCH   3   5
ENDBRANCH   1   2
BRANCH   1  11
ATOM     11  C   UNL     1      -9.881 -15.766  32.183  1.00  0.00     0.034 C 
BRANCH  11  12
ATOM     12  C   UNL     1     -10.989 -16.790  32.282  1.00  0.00    -0.077 C 
ATOM     13  C   UNL     1     -12.274 -16.377  32.193  1.00  0.00    -0.028 C 
ATOM     14  C   UNL     1     -10.631 -18.248  32.453  1.00  0.00     0.039 C 
BRANCH  13  15
ATOM     15  C   UNL     1     -13.476 -17.282  32.327  1.00  0.00     0.035 C 
BRANCH  15  16
ATOM     16  C   UNL     1     -14.682 -16.550  32.935  1.00  0.00     0.079 C 
BRANCH  16  17
ATOM     17  C   UNL     1     -14.551 -15.053  32.814  1.00  0.00     0.130 C 
ATOM     18  O   UNL     1     -14.116 -14.403  33.753  1.00  0.00    -0.300 OA
ATOM     19  C   UNL     1     -14.984 -14.353  31.562  1.00  0.00     0.087 C 
ENDBRANCH  16  17
ENDBRANCH  15  16
ENDBRANCH  13  15
ENDBRANCH  11  12
ENDBRANCH   1  11
TORSDOF 9
ENDMDL
MODEL 3
REMARK VINA RESULT:    -5.822      2.916      6.836
REMARK INTER + INTRA:         -10.473
REMARK INTER:                  -9.238
REMARK INTRA:                  -1.235
REMARK UNBOUND:                -1.588
REMARK SMILES CC(=O)CCC=C(C)CCC=C(C)CCC=C(C)C
REMARK SMILES IDX 10 1 11 2 12 3 13 4 14 5 15 6 16 7 18 8 17 9 19 10 9 11 7 12
REMARK SMILES IDX 6 13 8 14 5 15 4 16 2 17 3 18 1 19
REMARK H PARENT
REMARK Flexibility Score: inf
ROOT
ATOM      1  C   UNL     1     -13.220 -18.849  31.992  1.00  0.00     0.032 C 
ENDROOT
BRANCH   1   2
ATOM      2  C   UNL     1     -12.027 -17.962  32.244  1.00  0.00    -0.028 C 
ATOM      3  C   UNL     1     -12.050 -16.610  32.181  1.00  0.00    -0.077 C 
ATOM      4  C   UNL     1     -13.297 -15.853  31.788  1.00  0.00     0.039 C 
BRANCH   3   5
ATOM      5  C   UNL     1     -10.789 -15.838  32.496  1.00  0.00     0.034 C 
BRANCH   5   6
ATOM      6  C   UNL     1     -10.435 -15.953  33.983  1.00  0.00     0.032 C 
BRANCH   6   7
ATOM      7  C   UNL     1      -9.879 -14.652  34.503  1.00  0.00    -0.028 C 
ATOM      8  C   UNL     1     -12.065 -13.924  35.485  1.00  0.00     0.039 C 
ATOM      9  C   UNL     1     -10.592 -13.741  35.201  1.00  0.00    -0.080 C 
ATOM     10  C   UNL     1      -9.889 -12.500  35.691  1.00  0.00     0.039 C 
ENDBRANCH   6   7
ENDBRANCH   5   6
ENDBRANCH   3   5
ENDBRANCH   1   2
BRANCH   1  11
ATOM     11  C   UNL     1     -12.877 -19.947  30.978  1.00  0.00     0.034 C 
BRANCH  11  12
ATOM     12  C   UNL     1     -12.899 -19.400  29.568  1.00  0.00    -0.077 C 
ATOM     13  C   UNL     1     -11.916 -18.558  29.175  1.00  0.00    -0.028 C 
ATOM     14  C   UNL     1     -14.005 -19.827  28.631  1.00  0.00     0.039 C 
BRANCH  13  15
ATOM     15  C   UNL     1     -11.844 -17.898  27.819  1.00  0.00     0.035 C 
BRANCH  15  16
ATOM     16  C   UNL     1     -11.910 -16.367  27.920  1.00  0.00     0.079 C 
BRANCH  16  17
ATOM     17  C   UNL     1     -13.245 -15.831  27.468  1.00  0.00     0.130 C 
ATOM     18  O   UNL     1     -13.778 -16.290  26.468  1.00  0.00    -0.300 OA
ATOM     19  C   UNL     1     -13.905 -14.713  28.215  1.00  0.00     0.087 C 
ENDBRANCH  16  17
ENDBRANCH  15  16
ENDBRANCH  13  15
ENDBRANCH  11  12
ENDBRANCH   1  11
TORSDOF 9
ENDMDL
MODEL 4
REMARK VINA RESULT:    -5.719      3.115      3.796
REMARK INTER + INTRA:         -10.317
REMARK INTER:                  -8.976
REMARK INTRA:                  -1.341
REMARK UNBOUND:                -1.588
REMARK SMILES CC(=O)CCC=C(C)CCC=C(C)CCC=C(C)C
REMARK SMILES IDX 10 1 11 2 12 3 13 4 14 5 15 6 16 7 18 8 17 9 19 10 9 11 7 12
REMARK SMILES IDX 6 13 8 14 5 15 4 16 2 17 3 18 1 19
REMARK H PARENT
REMARK Flexibility Score: inf
ROOT
ATOM      1  C   UNL     1     -12.671 -20.374  31.053  1.00  0.00     0.032 C 
ENDROOT
BRANCH   1   2
ATOM      2  C   UNL     1     -12.868 -19.185  30.148  1.00  0.00    -0.028 C 
ATOM      3  C   UNL     1     -13.495 -19.229  28.949  1.00  0.00    -0.077 C 
ATOM      4  C   UNL     1     -14.018 -20.524  28.372  1.00  0.00     0.039 C 
BRANCH   3   5
ATOM      5  C   UNL     1     -13.661 -17.951  28.158  1.00  0.00     0.034 C 
BRANCH   5   6
ATOM      6  C   UNL     1     -12.343 -17.553  27.483  1.00  0.00     0.032 C 
BRANCH   6   7
ATOM      7  C   UNL     1     -11.732 -16.357  28.168  1.00  0.00    -0.028 C 
ATOM      8  C   UNL     1      -9.875 -17.691  29.192  1.00  0.00     0.039 C 
ATOM      9  C   UNL     1     -10.609 -16.398  28.919  1.00  0.00    -0.080 C 
ATOM     10  C   UNL     1     -10.093 -15.111  29.511  1.00  0.00     0.039 C 
ENDBRANCH   6   7
ENDBRANCH   5   6
ENDBRANCH   3   5
ENDBRANCH   1   2
BRANCH   1  11
ATOM     11  C   UNL     1     -11.809 -19.999  32.264  1.00  0.00     0.034 C 
BRANCH  11  12
ATOM     12  C   UNL     1     -11.672 -18.497  32.379  1.00  0.00    -0.077 C 
ATOM     13  C   UNL     1     -12.779 -17.728  32.270  1.00  0.00    -0.028 C 
ATOM     14  C   UNL     1     -10.308 -17.900  32.634  1.00  0.00     0.039 C 
BRANCH  13  15
ATOM     15  C   UNL     1     -12.781 -16.218  32.311  1.00  0.00     0.035 C 
BRANCH  15  16
ATOM     16  C   UNL     1     -13.574 -15.611  31.145  1.00  0.00     0.079 C 
BRANCH  16  17
ATOM     17  C   UNL     1     -14.754 -14.806  31.627  1.00  0.00     0.130 C 
ATOM     18  O   UNL     1     -15.249 -13.957  30.899  1.00  0.00    -0.300 OA
ATOM     19  C   UNL     1     -15.301 -15.013  33.006  1.00  0.00     0.087 C 
ENDBRANCH  16  17
ENDBRANCH  15  16
ENDBRANCH  13  15
ENDBRANCH  11  12
ENDBRANCH   1  11
TORSDOF 9
ENDMDL
MODEL 5
REMARK VINA RESULT:    -5.708      2.717      3.445
REMARK INTER + INTRA:         -10.299
REMARK INTER:                  -9.270
REMARK INTRA:                  -1.029
REMARK UNBOUND:                -1.588
REMARK SMILES CC(=O)CCC=C(C)CCC=C(C)CCC=C(C)C
REMARK SMILES IDX 10 1 11 2 12 3 13 4 14 5 15 6 16 7 18 8 17 9 19 10 9 11 7 12
REMARK SMILES IDX 6 13 8 14 5 15 4 16 2 17 3 18 1 19
REMARK H PARENT
REMARK Flexibility Score: inf
ROOT
ATOM      1  C   UNL     1     -10.423 -18.584  32.127  1.00  0.00     0.032 C 
ENDROOT
BRANCH   1   2
ATOM      2  C   UNL     1     -11.221 -18.877  30.881  1.00  0.00    -0.028 C 
ATOM      3  C   UNL     1     -12.191 -19.816  30.796  1.00  0.00    -0.077 C 
ATOM      4  C   UNL     1     -12.532 -20.717  31.960  1.00  0.00     0.039 C 
BRANCH   3   5
ATOM      5  C   UNL     1     -12.943 -19.980  29.494  1.00  0.00     0.034 C 
BRANCH   5   6
ATOM      6  C   UNL     1     -13.259 -18.615  28.871  1.00  0.00     0.032 C 
BRANCH   6   7
ATOM      7  C   UNL     1     -12.237 -18.257  27.822  1.00  0.00    -0.028 C 
ATOM      8  C   UNL     1     -13.589 -16.348  26.927  1.00  0.00     0.039 C 
ATOM      9  C   UNL     1     -12.360 -17.225  26.957  1.00  0.00    -0.080 C 
ATOM     10  C   UNL     1     -11.236 -16.964  25.987  1.00  0.00     0.039 C 
ENDBRANCH   6   7
ENDBRANCH   5   6
ENDBRANCH   3   5
ENDBRANCH   1   2
BRANCH   1  11
ATOM     11  C   UNL     1     -10.612 -17.127  32.564  1.00  0.00     0.034 C 
BRANCH  11  12
ATOM     12  C   UNL     1     -11.389 -16.352  31.522  1.00  0.00    -0.077 C 
ATOM     13  C   UNL     1     -12.722 -16.188  31.686  1.00  0.00    -0.028 C 
ATOM     14  C   UNL     1     -10.653 -15.765  30.341  1.00  0.00     0.039 C 
BRANCH  13  15
ATOM     15  C   UNL     1     -13.626 -15.486  30.701  1.00  0.00     0.035 C 
BRANCH  15  16
ATOM     16  C   UNL     1     -14.735 -14.689  31.404  1.00  0.00     0.079 C 
BRANCH  16  17
ATOM     17  C   UNL     1     -14.898 -15.103  32.844  1.00  0.00     0.130 C 
ATOM     18  O   UNL     1     -15.607 -16.058  33.125  1.00  0.00    -0.300 OA
ATOM     19  C   UNL     1     -14.226 -14.329  33.936  1.00  0.00     0.087 C 
ENDBRANCH  16  17
ENDBRANCH  15  16
ENDBRANCH  13  15
ENDBRANCH  11  12
ENDBRANCH   1  11
TORSDOF 9
ENDMDL
MODEL 6
REMARK VINA RESULT:    -5.687      3.204      7.503
REMARK INTER + INTRA:         -10.268
REMARK INTER:                  -9.197
REMARK INTRA:                  -1.070
REMARK UNBOUND:                -1.588
REMARK SMILES CC(=O)CCC=C(C)CCC=C(C)CCC=C(C)C
REMARK SMILES IDX 10 1 11 2 12 3 13 4 14 5 15 6 16 7 18 8 17 9 19 10 9 11 7 12
REMARK SMILES IDX 6 13 8 14 5 15 4 16 2 17 3 18 1 19
REMARK H PARENT
REMARK Flexibility Score: inf
ROOT
ATOM      1  C   UNL     1     -13.156 -16.134  32.247  1.00  0.00     0.032 C 
ENDROOT
BRANCH   1   2
ATOM      2  C   UNL     1     -12.150 -15.876  33.340  1.00  0.00    -0.028 C 
ATOM      3  C   UNL     1     -10.811 -15.819  33.151  1.00  0.00    -0.077 C 
ATOM      4  C   UNL     1     -10.186 -16.072  31.799  1.00  0.00     0.039 C 
BRANCH   3   5
ATOM      5  C   UNL     1      -9.915 -15.513  34.330  1.00  0.00     0.034 C 
BRANCH   5   6
ATOM      6  C   UNL     1      -9.875 -14.006  34.608  1.00  0.00     0.032 C 
BRANCH   6   7
ATOM      7  C   UNL     1     -10.899 -13.627  35.648  1.00  0.00    -0.028 C 
ATOM      8  C   UNL     1     -10.262 -11.204  35.625  1.00  0.00     0.039 C 
ATOM      9  C   UNL     1     -11.102 -12.368  36.097  1.00  0.00    -0.080 C 
ATOM     10  C   UNL     1     -12.191 -12.135  37.113  1.00  0.00     0.039 C 
ENDBRANCH   6   7
ENDBRANCH   5   6
ENDBRANCH   3   5
ENDBRANCH   1   2
BRANCH   1  11
ATOM     11  C   UNL     1     -13.634 -17.591  32.281  1.00  0.00     0.034 C 
BRANCH  11  12
ATOM     12  C   UNL     1     -13.013 -18.384  31.152  1.00  0.00    -0.077 C 
ATOM     13  C   UNL     1     -12.627 -17.736  30.030  1.00  0.00    -0.028 C 
ATOM     14  C   UNL     1     -12.820 -19.873  31.319  1.00  0.00     0.039 C 
BRANCH  13  15
ATOM     15  C   UNL     1     -12.045 -18.408  28.809  1.00  0.00     0.035 C 
BRANCH  15  16
ATOM     16  C   UNL     1     -11.176 -17.449  27.983  1.00  0.00     0.079 C 
BRANCH  16  17
ATOM     17  C   UNL     1     -11.812 -17.114  26.658  1.00  0.00     0.130 C 
ATOM     18  O   UNL     1     -11.225 -17.377  25.618  1.00  0.00    -0.300 OA
ATOM     19  C   UNL     1     -13.142 -16.426  26.608  1.00  0.00     0.087 C 
ENDBRANCH  16  17
ENDBRANCH  15  16
ENDBRANCH  13  15
ENDBRANCH  11  12
ENDBRANCH   1  11
TORSDOF 9
ENDMDL
MODEL 7
REMARK VINA RESULT:    -5.681      3.459      6.168
REMARK INTER + INTRA:         -10.258
REMARK INTER:                  -9.030
REMARK INTRA:                  -1.228
REMARK UNBOUND:                -1.588
REMARK SMILES CC(=O)CCC=C(C)CCC=C(C)CCC=C(C)C
REMARK SMILES IDX 10 1 11 2 12 3 13 4 14 5 15 6 16 7 18 8 17 9 19 10 9 11 7 12
REMARK SMILES IDX 6 13 8 14 5 15 4 16 2 17 3 18 1 19
REMARK H PARENT
REMARK Flexibility Score: inf
ROOT
ATOM      1  C   UNL     1     -15.397 -14.439  31.971  1.00  0.00     0.032 C 
ENDROOT
BRANCH   1   2
ATOM      2  C   UNL     1     -14.687 -14.427  30.641  1.00  0.00    -0.028 C 
ATOM      3  C   UNL     1     -15.168 -13.839  29.521  1.00  0.00    -0.077 C 
ATOM      4  C   UNL     1     -16.523 -13.171  29.492  1.00  0.00     0.039 C 
BRANCH   3   5
ATOM      5  C   UNL     1     -14.334 -13.866  28.260  1.00  0.00     0.034 C 
BRANCH   5   6
ATOM      6  C   UNL     1     -13.682 -15.240  28.067  1.00  0.00     0.032 C 
BRANCH   6   7
ATOM      7  C   UNL     1     -12.386 -15.329  28.834  1.00  0.00    -0.028 C 
ATOM      8  C   UNL     1     -11.421 -17.071  27.316  1.00  0.00     0.039 C 
ATOM      9  C   UNL     1     -11.351 -16.129  28.494  1.00  0.00    -0.080 C 
ATOM     10  C   UNL     1     -10.101 -16.082  29.336  1.00  0.00     0.039 C 
ENDBRANCH   6   7
ENDBRANCH   5   6
ENDBRANCH   3   5
ENDBRANCH   1   2
BRANCH   1  11
ATOM     11  C   UNL     1     -14.411 -14.721  33.111  1.00  0.00     0.034 C 
BRANCH  11  12
ATOM     12  C   UNL     1     -13.489 -15.865  32.750  1.00  0.00    -0.077 C 
ATOM     13  C   UNL     1     -14.026 -17.037  32.341  1.00  0.00    -0.028 C 
ATOM     14  C   UNL     1     -11.994 -15.659  32.832  1.00  0.00     0.039 C 
BRANCH  13  15
ATOM     15  C   UNL     1     -13.228 -18.273  32.002  1.00  0.00     0.035 C 
BRANCH  15  16
ATOM     16  C   UNL     1     -13.083 -18.467  30.486  1.00  0.00     0.079 C 
BRANCH  16  17
ATOM     17  C   UNL     1     -13.200 -19.918  30.091  1.00  0.00     0.130 C 
ATOM     18  O   UNL     1     -12.865 -20.791  30.879  1.00  0.00    -0.300 OA
ATOM     19  C   UNL     1     -13.689 -20.295  28.727  1.00  0.00     0.087 C 
ENDBRANCH  16  17
ENDBRANCH  15  16
ENDBRANCH  13  15
ENDBRANCH  11  12
ENDBRANCH   1  11
TORSDOF 9
ENDMDL
MODEL 8
REMARK VINA RESULT:    -5.658      2.891      5.920
REMARK INTER + INTRA:         -10.223
REMARK INTER:                  -8.226
REMARK INTRA:                  -1.997
REMARK UNBOUND:                -1.588
REMARK SMILES CC(=O)CCC=C(C)CCC=C(C)CCC=C(C)C
REMARK SMILES IDX 10 1 11 2 12 3 13 4 14 5 15 6 16 7 18 8 17 9 19 10 9 11 7 12
REMARK SMILES IDX 6 13 8 14 5 15 4 16 2 17 3 18 1 19
REMARK H PARENT
REMARK Flexibility Score: inf
ROOT
ATOM      1  C   UNL     1     -11.752 -20.095  31.353  1.00  0.00     0.032 C 
ENDROOT
BRANCH   1   2
ATOM      2  C   UNL     1     -11.360 -18.810  32.038  1.00  0.00    -0.028 C 
ATOM      3  C   UNL     1     -10.538 -17.877  31.504  1.00  0.00    -0.077 C 
ATOM      4  C   UNL     1      -9.877 -18.074  30.160  1.00  0.00     0.039 C 
BRANCH   3   5
ATOM      5  C   UNL     1     -10.258 -16.612  32.284  1.00  0.00     0.034 C 
BRANCH   5   6
ATOM      6  C   UNL     1     -11.425 -16.279  33.221  1.00  0.00     0.032 C 
BRANCH   6   7
ATOM      7  C   UNL     1     -12.450 -15.427  32.517  1.00  0.00    -0.028 C 
ATOM      8  C   UNL     1     -14.269 -17.132  32.760  1.00  0.00     0.039 C 
ATOM      9  C   UNL     1     -13.739 -15.786  32.324  1.00  0.00    -0.080 C 
ATOM     10  C   UNL     1     -14.661 -14.811  31.636  1.00  0.00     0.039 C 
ENDBRANCH   6   7
ENDBRANCH   5   6
ENDBRANCH   3   5
ENDBRANCH   1   2
BRANCH   1  11
ATOM     11  C   UNL     1     -13.249 -20.101  31.023  1.00  0.00     0.034 C 
BRANCH  11  12
ATOM     12  C   UNL     1     -13.482 -19.694  29.585  1.00  0.00    -0.077 C 
ATOM     13  C   UNL     1     -13.202 -18.426  29.209  1.00  0.00    -0.028 C 
ATOM     14  C   UNL     1     -13.998 -20.721  28.604  1.00  0.00     0.039 C 
BRANCH  13  15
ATOM     15  C   UNL     1     -13.436 -17.871  27.824  1.00  0.00     0.035 C 
BRANCH  15  16
ATOM     16  C   UNL     1     -12.363 -16.848  27.424  1.00  0.00     0.079 C 
BRANCH  16  17
ATOM     17  C   UNL     1     -12.414 -15.614  28.289  1.00  0.00     0.130 C 
ATOM     18  O   UNL     1     -11.476 -15.349  29.025  1.00  0.00    -0.300 OA
ATOM     19  C   UNL     1     -13.624 -14.731  28.278  1.00  0.00     0.087 C 
ENDBRANCH  16  17
ENDBRANCH  15  16
ENDBRANCH  13  15
ENDBRANCH  11  12
ENDBRANCH   1  11
TORSDOF 9
ENDMDL
MODEL 9
REMARK VINA RESULT:    -5.608      1.121      3.128
REMARK INTER + INTRA:         -10.148
REMARK INTER:                  -8.908
REMARK INTRA:                  -1.240
REMARK UNBOUND:                -1.588
REMARK SMILES CC(=O)CCC=C(C)CCC=C(C)CCC=C(C)C
REMARK SMILES IDX 10 1 11 2 12 3 13 4 14 5 15 6 16 7 18 8 17 9 19 10 9 11 7 12
REMARK SMILES IDX 6 13 8 14 5 15 4 16 2 17 3 18 1 19
REMARK H PARENT
REMARK Flexibility Score: inf
ROOT
ATOM      1  C   UNL     1     -13.169 -15.652  31.538  1.00  0.00     0.032 C 
ENDROOT
BRANCH   1   2
ATOM      2  C   UNL     1     -13.246 -16.107  30.102  1.00  0.00    -0.028 C 
ATOM      3  C   UNL     1     -12.210 -16.077  29.232  1.00  0.00    -0.077 C 
ATOM      4  C   UNL     1     -10.861 -15.516  29.619  1.00  0.00     0.039 C 
BRANCH   3   5
ATOM      5  C   UNL     1     -12.413 -16.602  27.828  1.00  0.00     0.034 C 
BRANCH   5   6
ATOM      6  C   UNL     1     -12.157 -18.112  27.768  1.00  0.00     0.032 C 
BRANCH   6   7
ATOM      7  C   UNL     1     -12.125 -18.704  29.154  1.00  0.00    -0.028 C 
ATOM      8  C   UNL     1     -14.011 -20.288  28.695  1.00  0.00     0.039 C 
ATOM      9  C   UNL     1     -12.935 -19.700  29.578  1.00  0.00    -0.080 C 
ATOM     10  C   UNL     1     -12.760 -20.219  30.983  1.00  0.00     0.039 C 
ENDBRANCH   6   7
ENDBRANCH   5   6
ENDBRANCH   3   5
ENDBRANCH   1   2
BRANCH   1  11
ATOM     11  C   UNL     1     -12.680 -16.789  32.443  1.00  0.00     0.034 C 
BRANCH  11  12
ATOM     12  C   UNL     1     -11.332 -16.454  33.042  1.00  0.00    -0.077 C 
ATOM     13  C   UNL     1     -11.179 -15.281  33.697  1.00  0.00    -0.028 C 
ATOM     14  C   UNL     1     -10.201 -17.448  32.912  1.00  0.00     0.039 C 
BRANCH  13  15
ATOM     15  C   UNL     1      -9.879 -14.796  34.295  1.00  0.00     0.035 C 
BRANCH  15  16
ATOM     16  C   UNL     1     -10.051 -14.336  35.750  1.00  0.00     0.079 C 
BRANCH  16  17
ATOM     17  C   UNL     1     -10.567 -12.922  35.835  1.00  0.00     0.130 C 
ATOM     18  O   UNL     1      -9.900 -12.003  35.382  1.00  0.00    -0.300 OA
ATOM     19  C   UNL     1     -11.875 -12.631  36.504  1.00  0.00     0.087 C 
ENDBRANCH  16  17
ENDBRANCH  15  16
ENDBRANCH  13  15
ENDBRANCH  11  12
ENDBRANCH   1  11
TORSDOF 9
ENDMDL
