MODEL 1
REMARK VINA RESULT:    -4.120      0.000      0.000
REMARK INTER + INTRA:          -6.880
REMARK INTER:                  -6.288
REMARK INTRA:                  -0.592
REMARK UNBOUND:                -0.592
REMARK SMILES CCCCCCCCCCC(=O)[O-]
REMARK SMILES IDX 7 1 8 2 9 3 10 4 11 5 12 6 13 7 6 8 5 9 4 10 3 11 2 12 1 13
REMARK H PARENT
REMARK Flexibility Score: inf
ROOT
ATOM      1  C   UNL     1      58.269  -5.405  82.528  1.00  0.00     0.000 C 
ENDROOT
BRANCH   1   2
ATOM      2  C   UNL     1      58.829  -6.515  83.425  1.00  0.00     0.000 C 
BRANCH   2   3
ATOM      3  C   UNL     1      60.349  -6.375  83.592  1.00  0.00     0.006 C 
BRANCH   3   4
ATOM      4  C   UNL     1      61.116  -7.511  82.903  1.00  0.00     0.053 C 
BRANCH   4   5
ATOM      5  C   UNL     1      61.088  -7.379  81.412  1.00  0.00     0.041 C 
ATOM      6  O   UNL     1      61.642  -6.396  80.853  1.00  0.00    -0.550 OA
ATOM      7  O   UNL     1      60.420  -8.321  80.641  1.00  0.00    -0.550 OA
ENDBRANCH   4   5
ENDBRANCH   3   4
ENDBRANCH   2   3
ENDBRANCH   1   2
BRANCH   1   8
ATOM      8  C   UNL     1      59.261  -4.242  82.405  1.00  0.00     0.000 C 
BRANCH   8   9
ATOM      9  C   UNL     1      58.608  -3.029  81.733  1.00  0.00    -0.000 C 
BRANCH   9  10
ATOM     10  C   UNL     1      58.005  -2.079  82.774  1.00  0.00    -0.000 C 
BRANCH  10  11
ATOM     11  C   UNL     1      56.479  -2.224  82.833  1.00  0.00    -0.000 C 
BRANCH  11  12
ATOM     12  C   UNL     1      55.838  -1.319  83.896  1.00  0.00    -0.003 C 
ATOM     13  C   UNL     1      56.696  -0.098  84.227  1.00  0.00     0.004 C 
ENDBRANCH  11  12
ENDBRANCH  10  11
ENDBRANCH   9  10
ENDBRANCH   8   9
ENDBRANCH   1   8
TORSDOF 9
ENDMDL
MODEL 2
REMARK VINA RESULT:    -4.114      2.826      6.580
REMARK INTER + INTRA:          -6.871
REMARK INTER:                  -6.013
REMARK INTRA:                  -0.858
REMARK UNBOUND:                -0.592
REMARK SMILES CCCCCCCCCCC(=O)[O-]
REMARK SMILES IDX 7 1 8 2 9 3 10 4 11 5 12 6 13 7 6 8 5 9 4 10 3 11 2 12 1 13
REMARK H PARENT
REMARK Flexibility Score: inf
ROOT
ATOM      1  C   UNL     1      61.349  -7.258  82.292  1.00  0.00     0.000 C 
ENDROOT
BRANCH   1   2
ATOM      2  C   UNL     1      59.840  -7.165  82.543  1.00  0.00     0.000 C 
BRANCH   2   3
ATOM      3  C   UNL     1      59.495  -5.919  83.372  1.00  0.00     0.006 C 
BRANCH   3   4
ATOM      4  C   UNL     1      58.761  -4.856  82.545  1.00  0.00     0.053 C 
BRANCH   4   5
ATOM      5  C   UNL     1      59.645  -3.690  82.227  1.00  0.00     0.041 C 
ATOM      6  O   UNL     1      60.269  -3.647  81.134  1.00  0.00    -0.550 OA
ATOM      7  O   UNL     1      59.808  -2.666  83.152  1.00  0.00    -0.550 OA
ENDBRANCH   4   5
ENDBRANCH   3   4
ENDBRANCH   2   3
ENDBRANCH   1   2
BRANCH   1   8
ATOM      8  C   UNL     1      61.703  -6.794  80.874  1.00  0.00     0.000 C 
BRANCH   8   9
ATOM      9  C   UNL     1      62.059  -7.984  79.976  1.00  0.00    -0.000 C 
BRANCH   9  10
ATOM     10  C   UNL     1      60.809  -8.791  79.608  1.00  0.00    -0.000 C 
BRANCH  10  11
ATOM     11  C   UNL     1      60.984 -10.273  79.969  1.00  0.00    -0.000 C 
BRANCH  11  12
ATOM     12  C   UNL     1      60.259 -10.655  81.268  1.00  0.00    -0.003 C 
ATOM     13  C   UNL     1      61.218 -11.115  82.367  1.00  0.00     0.004 C 
ENDBRANCH  11  12
ENDBRANCH  10  11
ENDBRANCH   9  10
ENDBRANCH   8   9
ENDBRANCH   1   8
TORSDOF 9
ENDMDL
MODEL 3
REMARK VINA RESULT:    -4.099      0.934      1.364
REMARK INTER + INTRA:          -6.848
REMARK INTER:                  -6.263
REMARK INTRA:                  -0.585
REMARK UNBOUND:                -0.592
REMARK SMILES CCCCCCCCCCC(=O)[O-]
REMARK SMILES IDX 7 1 8 2 9 3 10 4 11 5 12 6 13 7 6 8 5 9 4 10 3 11 2 12 1 13
REMARK H PARENT
REMARK Flexibility Score: inf
ROOT
ATOM      1  C   UNL     1      58.908  -6.611  82.549  1.00  0.00     0.000 C 
ENDROOT
BRANCH   1   2
ATOM      2  C   UNL     1      60.296  -6.386  83.160  1.00  0.00     0.000 C 
BRANCH   2   3
ATOM      3  C   UNL     1      61.266  -7.503  82.748  1.00  0.00     0.006 C 
BRANCH   3   4
ATOM      4  C   UNL     1      60.725  -8.342  81.584  1.00  0.00     0.053 C 
BRANCH   4   5
ATOM      5  C   UNL     1      61.467  -8.073  80.311  1.00  0.00     0.041 C 
ATOM      6  O   UNL     1      62.015  -6.955  80.122  1.00  0.00    -0.550 OA
ATOM      7  O   UNL     1      61.525  -9.043  79.319  1.00  0.00    -0.550 OA
ENDBRANCH   4   5
ENDBRANCH   3   4
ENDBRANCH   2   3
ENDBRANCH   1   2
BRANCH   1   8
ATOM      8  C   UNL     1      58.084  -5.317  82.561  1.00  0.00     0.000 C 
BRANCH   8   9
ATOM      9  C   UNL     1      58.977  -4.093  82.330  1.00  0.00    -0.000 C 
BRANCH   9  10
ATOM     10  C   UNL     1      58.141  -2.861  81.964  1.00  0.00    -0.000 C 
BRANCH  10  11
ATOM     11  C   UNL     1      56.701  -3.002  82.475  1.00  0.00    -0.000 C 
BRANCH  11  12
ATOM     12  C   UNL     1      56.176  -1.715  83.131  1.00  0.00    -0.003 C 
ATOM     13  C   UNL     1      57.300  -0.778  83.575  1.00  0.00     0.004 C 
ENDBRANCH  11  12
ENDBRANCH  10  11
ENDBRANCH   9  10
ENDBRANCH   8   9
ENDBRANCH   1   8
TORSDOF 9
ENDMDL
MODEL 4
REMARK VINA RESULT:    -4.063     11.182     12.104
REMARK INTER + INTRA:          -6.793
REMARK INTER:                  -6.407
REMARK INTRA:                  -0.386
REMARK UNBOUND:                -0.592
REMARK SMILES CCCCCCCCCCC(=O)[O-]
REMARK SMILES IDX 7 1 8 2 9 3 10 4 11 5 12 6 13 7 6 8 5 9 4 10 3 11 2 12 1 13
REMARK H PARENT
REMARK Flexibility Score: inf
ROOT
ATOM      1  C   UNL     1      53.032  -2.180  73.056  1.00  0.00     0.000 C 
ENDROOT
BRANCH   1   2
ATOM      2  C   UNL     1      53.819  -3.328  72.412  1.00  0.00     0.000 C 
BRANCH   2   3
ATOM      3  C   UNL     1      54.285  -4.338  73.471  1.00  0.00     0.006 C 
BRANCH   3   4
ATOM      4  C   UNL     1      55.657  -4.937  73.138  1.00  0.00     0.053 C 
BRANCH   4   5
ATOM      5  C   UNL     1      55.623  -6.433  73.122  1.00  0.00     0.041 C 
ATOM      6  O   UNL     1      56.628  -7.086  72.735  1.00  0.00    -0.550 OA
ATOM      7  O   UNL     1      54.470  -7.109  73.501  1.00  0.00    -0.550 OA
ENDBRANCH   4   5
ENDBRANCH   3   4
ENDBRANCH   2   3
ENDBRANCH   1   2
BRANCH   1   8
ATOM      8  C   UNL     1      52.705  -1.091  72.027  1.00  0.00     0.000 C 
BRANCH   8   9
ATOM      9  C   UNL     1      51.216  -0.727  72.064  1.00  0.00    -0.000 C 
BRANCH   9  10
ATOM     10  C   UNL     1      50.340  -1.985  72.053  1.00  0.00    -0.000 C 
BRANCH  10  11
ATOM     11  C   UNL     1      48.891  -1.650  72.433  1.00  0.00    -0.000 C 
BRANCH  11  12
ATOM     12  C   UNL     1      48.381  -0.370  71.754  1.00  0.00    -0.003 C 
ATOM     13  C   UNL     1      47.948   0.699  72.757  1.00  0.00     0.004 C 
ENDBRANCH  11  12
ENDBRANCH  10  11
ENDBRANCH   9  10
ENDBRANCH   8   9
ENDBRANCH   1   8
TORSDOF 9
ENDMDL
MODEL 5
REMARK VINA RESULT:    -4.049     12.387     13.878
REMARK INTER + INTRA:          -6.773
REMARK INTER:                  -5.522
REMARK INTRA:                  -1.250
REMARK UNBOUND:                -0.592
REMARK SMILES CCCCCCCCCCC(=O)[O-]
REMARK SMILES IDX 7 1 8 2 9 3 10 4 11 5 12 6 13 7 6 8 5 9 4 10 3 11 2 12 1 13
REMARK H PARENT
REMARK Flexibility Score: inf
ROOT
ATOM      1  C   UNL     1      48.243  -0.573  71.690  1.00  0.00     0.000 C 
ENDROOT
BRANCH   1   2
ATOM      2  C   UNL     1      49.407  -1.569  71.731  1.00  0.00     0.000 C 
BRANCH   2   3
ATOM      3  C   UNL     1      50.659  -0.929  72.348  1.00  0.00     0.006 C 
BRANCH   3   4
ATOM      4  C   UNL     1      51.623  -1.974  72.923  1.00  0.00     0.053 C 
BRANCH   4   5
ATOM      5  C   UNL     1      52.971  -1.904  72.276  1.00  0.00     0.041 C 
ATOM      6  O   UNL     1      53.325  -0.864  71.661  1.00  0.00    -0.550 OA
ATOM      7  O   UNL     1      53.824  -3.000  72.321  1.00  0.00    -0.550 OA
ENDBRANCH   4   5
ENDBRANCH   3   4
ENDBRANCH   2   3
ENDBRANCH   1   2
BRANCH   1   8
ATOM      8  C   UNL     1      48.563   0.684  72.509  1.00  0.00     0.000 C 
BRANCH   8   9
ATOM      9  C   UNL     1      47.508   0.916  73.597  1.00  0.00    -0.000 C 
BRANCH   9  10
ATOM     10  C   UNL     1      48.057   0.557  74.983  1.00  0.00    -0.000 C 
BRANCH  10  11
ATOM     11  C   UNL     1      47.581  -0.835  75.421  1.00  0.00    -0.000 C 
BRANCH  11  12
ATOM     12  C   UNL     1      48.705  -1.881  75.391  1.00  0.00    -0.003 C 
ATOM     13  C   UNL     1      48.247  -3.224  74.822  1.00  0.00     0.004 C 
ENDBRANCH  11  12
ENDBRANCH  10  11
ENDBRANCH   9  10
ENDBRANCH   8   9
ENDBRANCH   1   8
TORSDOF 9
ENDMDL
MODEL 6
REMARK VINA RESULT:    -4.020      2.492      3.628
REMARK INTER + INTRA:          -6.727
REMARK INTER:                  -5.674
REMARK INTRA:                  -1.053
REMARK UNBOUND:                -0.592
REMARK SMILES CCCCCCCCCCC(=O)[O-]
REMARK SMILES IDX 7 1 8 2 9 3 10 4 11 5 12 6 13 7 6 8 5 9 4 10 3 11 2 12 1 13
REMARK H PARENT
REMARK Flexibility Score: inf
ROOT
ATOM      1  C   UNL     1      61.043  -7.195  83.053  1.00  0.00     0.000 C 
ENDROOT
BRANCH   1   2
ATOM      2  C   UNL     1      61.335  -6.747  81.616  1.00  0.00     0.000 C 
BRANCH   2   3
ATOM      3  C   UNL     1      61.753  -7.939  80.742  1.00  0.00     0.006 C 
BRANCH   3   4
ATOM      4  C   UNL     1      60.951  -9.205  81.065  1.00  0.00     0.053 C 
BRANCH   4   5
ATOM      5  C   UNL     1      59.731  -9.326  80.204  1.00  0.00     0.041 C 
ATOM      6  O   UNL     1      58.595  -9.054  80.674  1.00  0.00    -0.550 OA
ATOM      7  O   UNL     1      59.843  -9.773  78.894  1.00  0.00    -0.550 OA
ENDBRANCH   4   5
ENDBRANCH   3   4
ENDBRANCH   2   3
ENDBRANCH   1   2
BRANCH   1   8
ATOM      8  C   UNL     1      59.808  -6.478  83.613  1.00  0.00     0.000 C 
BRANCH   8   9
ATOM      9  C   UNL     1      58.853  -6.064  82.487  1.00  0.00    -0.000 C 
BRANCH   9  10
ATOM     10  C   UNL     1      58.352  -4.629  82.690  1.00  0.00    -0.000 C 
BRANCH  10  11
ATOM     11  C   UNL     1      59.517  -3.630  82.669  1.00  0.00    -0.000 C 
BRANCH  11  12
ATOM     12  C   UNL     1      59.858  -3.148  81.250  1.00  0.00    -0.003 C 
ATOM     13  C   UNL     1      61.362  -3.135  80.977  1.00  0.00     0.004 C 
ENDBRANCH  11  12
ENDBRANCH  10  11
ENDBRANCH   9  10
ENDBRANCH   8   9
ENDBRANCH   1   8
TORSDOF 9
ENDMDL
MODEL 7
REMARK VINA RESULT:    -4.012      2.928      6.815
REMARK INTER + INTRA:          -6.715
REMARK INTER:                  -6.027
REMARK INTRA:                  -0.688
REMARK UNBOUND:                -0.592
REMARK SMILES CCCCCCCCCCC(=O)[O-]
REMARK SMILES IDX 7 1 8 2 9 3 10 4 11 5 12 6 13 7 6 8 5 9 4 10 3 11 2 12 1 13
REMARK H PARENT
REMARK Flexibility Score: inf
ROOT
ATOM      1  C   UNL     1      60.389  -7.489  82.318  1.00  0.00     0.000 C 
ENDROOT
BRANCH   1   2
ATOM      2  C   UNL     1      59.906  -6.464  83.351  1.00  0.00     0.000 C 
BRANCH   2   3
ATOM      3  C   UNL     1      58.769  -5.603  82.784  1.00  0.00     0.006 C 
BRANCH   3   4
ATOM      4  C   UNL     1      59.246  -4.202  82.381  1.00  0.00     0.053 C 
BRANCH   4   5
ATOM      5  C   UNL     1      58.099  -3.280  82.106  1.00  0.00     0.041 C 
ATOM      6  O   UNL     1      58.256  -2.033  82.184  1.00  0.00    -0.550 OA
ATOM      7  O   UNL     1      56.847  -3.797  81.797  1.00  0.00    -0.550 OA
ENDBRANCH   4   5
ENDBRANCH   3   4
ENDBRANCH   2   3
ENDBRANCH   1   2
BRANCH   1   8
ATOM      8  C   UNL     1      61.646  -6.991  81.593  1.00  0.00     0.000 C 
BRANCH   8   9
ATOM      9  C   UNL     1      61.805  -7.677  80.231  1.00  0.00    -0.000 C 
BRANCH   9  10
ATOM     10  C   UNL     1      60.639  -8.635  79.957  1.00  0.00    -0.000 C 
BRANCH  10  11
ATOM     11  C   UNL     1      61.145  -9.970  79.393  1.00  0.00    -0.000 C 
BRANCH  11  12
ATOM     12  C   UNL     1      60.779 -11.166  80.286  1.00  0.00    -0.003 C 
ATOM     13  C   UNL     1      61.367 -11.055  81.693  1.00  0.00     0.004 C 
ENDBRANCH  11  12
ENDBRANCH  10  11
ENDBRANCH   9  10
ENDBRANCH   8   9
ENDBRANCH   1   8
TORSDOF 9
ENDMDL
MODEL 8
REMARK VINA RESULT:    -4.010      1.371      2.470
REMARK INTER + INTRA:          -6.712
REMARK INTER:                  -6.177
REMARK INTRA:                  -0.536
REMARK UNBOUND:                -0.592
REMARK SMILES CCCCCCCCCCC(=O)[O-]
REMARK SMILES IDX 7 1 8 2 9 3 10 4 11 5 12 6 13 7 6 8 5 9 4 10 3 11 2 12 1 13
REMARK H PARENT
REMARK Flexibility Score: inf
ROOT
ATOM      1  C   UNL     1      57.807  -3.538  81.951  1.00  0.00     0.000 C 
ENDROOT
BRANCH   1   2
ATOM      2  C   UNL     1      59.273  -3.405  82.380  1.00  0.00     0.000 C 
BRANCH   2   3
ATOM      3  C   UNL     1      60.053  -4.695  82.085  1.00  0.00     0.006 C 
BRANCH   3   4
ATOM      4  C   UNL     1      59.548  -5.881  82.916  1.00  0.00     0.053 C 
BRANCH   4   5
ATOM      5  C   UNL     1      60.102  -7.182  82.423  1.00  0.00     0.041 C 
ATOM      6  O   UNL     1      59.325  -8.106  82.064  1.00  0.00    -0.550 OA
ATOM      7  O   UNL     1      61.475  -7.389  82.391  1.00  0.00    -0.550 OA
ENDBRANCH   4   5
ENDBRANCH   3   4
ENDBRANCH   2   3
ENDBRANCH   1   2
BRANCH   1   8
ATOM      8  C   UNL     1      56.945  -2.438  82.582  1.00  0.00     0.000 C 
BRANCH   8   9
ATOM      9  C   UNL     1      57.783  -1.193  82.896  1.00  0.00    -0.000 C 
BRANCH   9  10
ATOM     10  C   UNL     1      57.294  -0.507  84.176  1.00  0.00    -0.000 C 
BRANCH  10  11
ATOM     11  C   UNL     1      55.821  -0.840  84.451  1.00  0.00    -0.000 C 
BRANCH  11  12
ATOM     12  C   UNL     1      54.914   0.400  84.400  1.00  0.00    -0.003 C 
ATOM     13  C   UNL     1      53.845   0.305  83.311  1.00  0.00     0.004 C 
ENDBRANCH  11  12
ENDBRANCH  10  11
ENDBRANCH   9  10
ENDBRANCH   8   9
ENDBRANCH   1   8
TORSDOF 9
ENDMDL
MODEL 9
REMARK VINA RESULT:    -3.946      3.271      6.854
REMARK INTER + INTRA:          -6.614
REMARK INTER:                  -6.131
REMARK INTRA:                  -0.483
REMARK UNBOUND:                -0.592
REMARK SMILES CCCCCCCCCCC(=O)[O-]
REMARK SMILES IDX 7 1 8 2 9 3 10 4 11 5 12 6 13 7 6 8 5 9 4 10 3 11 2 12 1 13
REMARK H PARENT
REMARK Flexibility Score: inf
ROOT
ATOM      1  C   UNL     1      58.915  -5.591  82.852  1.00  0.00     0.000 C 
ENDROOT
BRANCH   1   2
ATOM      2  C   UNL     1      59.547  -4.291  82.338  1.00  0.00     0.000 C 
BRANCH   2   3
ATOM      3  C   UNL     1      58.467  -3.280  81.925  1.00  0.00     0.006 C 
BRANCH   3   4
ATOM      4  C   UNL     1      57.053  -3.862  82.039  1.00  0.00     0.053 C 
BRANCH   4   5
ATOM      5  C   UNL     1      56.040  -2.806  82.359  1.00  0.00     0.041 C 
ATOM      6  O   UNL     1      54.863  -2.905  81.923  1.00  0.00    -0.550 OA
ATOM      7  O   UNL     1      56.404  -1.695  83.109  1.00  0.00    -0.550 OA
ENDBRANCH   4   5
ENDBRANCH   3   4
ENDBRANCH   2   3
ENDBRANCH   1   2
BRANCH   1   8
ATOM      8  C   UNL     1      59.907  -6.384  83.712  1.00  0.00     0.000 C 
BRANCH   8   9
ATOM      9  C   UNL     1      60.921  -7.131  82.836  1.00  0.00    -0.000 C 
BRANCH   9  10
ATOM     10  C   UNL     1      60.212  -7.982  81.776  1.00  0.00    -0.000 C 
BRANCH  10  11
ATOM     11  C   UNL     1      61.137  -8.256  80.582  1.00  0.00    -0.000 C 
BRANCH  11  12
ATOM     12  C   UNL     1      61.525  -9.738  80.462  1.00  0.00    -0.003 C 
ATOM     13  C   UNL     1      61.068 -10.568  81.662  1.00  0.00     0.004 C 
ENDBRANCH  11  12
ENDBRANCH  10  11
ENDBRANCH   9  10
ENDBRANCH   8   9
ENDBRANCH   1   8
TORSDOF 9
ENDMDL
