MODEL 1
REMARK VINA RESULT:     3.323      0.000      0.000
REMARK INTER + INTRA:           4.259
REMARK INTER:                   4.684
REMARK INTRA:                  -0.425
REMARK UNBOUND:                -0.425
REMARK SMILES CCCCCCCCC(=O)[O-]
REMARK SMILES IDX 6 1 7 2 8 3 9 4 10 5 11 6 5 7 4 8 3 9 2 10 1 11
REMARK H PARENT
REMARK Flexibility Score: inf
ROOT
ATOM      1  C   UNL     1      15.147   6.471   8.849  1.00  0.00     0.000 C 
ENDROOT
BRANCH   1   2
ATOM      2  C   UNL     1      16.085   6.364   7.633  1.00  0.00     0.006 C 
BRANCH   2   3
ATOM      3  C   UNL     1      15.801   5.162   6.718  1.00  0.00     0.053 C 
BRANCH   3   4
ATOM      4  C   UNL     1      17.062   4.522   6.225  1.00  0.00     0.041 C 
ATOM      5  O   UNL     1      18.111   5.205   6.095  1.00  0.00    -0.550 OA
ATOM      6  O   UNL     1      17.069   3.177   5.877  1.00  0.00    -0.550 OA
ENDBRANCH   3   4
ENDBRANCH   2   3
ENDBRANCH   1   2
BRANCH   1   7
ATOM      7  C   UNL     1      15.829   7.097  10.074  1.00  0.00     0.000 C 
BRANCH   7   8
ATOM      8  C   UNL     1      17.351   6.898  10.017  1.00  0.00    -0.000 C 
BRANCH   8   9
ATOM      9  C   UNL     1      18.125   8.225  10.042  1.00  0.00    -0.000 C 
BRANCH   9  10
ATOM     10  C   UNL     1      17.261   9.421   9.617  1.00  0.00    -0.003 C 
ATOM     11  C   UNL     1      18.109  10.502   8.954  1.00  0.00     0.004 C 
ENDBRANCH   9  10
ENDBRANCH   8   9
ENDBRANCH   7   8
ENDBRANCH   1   7
TORSDOF 7
ENDMDL
MODEL 2
REMARK VINA RESULT:     4.981      2.895      5.104
REMARK INTER + INTRA:           6.594
REMARK INTER:                   5.622
REMARK INTRA:                   0.973
REMARK UNBOUND:                -0.425
REMARK SMILES CCCCCCCCC(=O)[O-]
REMARK SMILES IDX 6 1 7 2 8 3 9 4 10 5 11 6 5 7 4 8 3 9 2 10 1 11
REMARK H PARENT
REMARK Flexibility Score: inf
ROOT
ATOM      1  C   UNL     1      15.694   7.151   9.593  1.00  0.00     0.000 C 
ENDROOT
BRANCH   1   2
ATOM      2  C   UNL     1      17.187   6.789   9.694  1.00  0.00     0.006 C 
BRANCH   2   3
ATOM      3  C   UNL     1      18.125   7.999   9.832  1.00  0.00     0.053 C 
BRANCH   3   4
ATOM      4  C   UNL     1      17.405   9.294   9.616  1.00  0.00     0.041 C 
ATOM      5  O   UNL     1      16.154   9.353   9.735  1.00  0.00    -0.550 OA
ATOM      6  O   UNL     1      18.116  10.431   9.249  1.00  0.00    -0.550 OA
ENDBRANCH   3   4
ENDBRANCH   2   3
ENDBRANCH   1   2
BRANCH   1   7
ATOM      7  C   UNL     1      14.910   6.198   8.678  1.00  0.00     0.000 C 
BRANCH   7   8
ATOM      8  C   UNL     1      15.396   6.308   7.225  1.00  0.00    -0.000 C 
BRANCH   8   9
ATOM      9  C   UNL     1      15.743   4.943   6.611  1.00  0.00    -0.000 C 
BRANCH   9  10
ATOM     10  C   UNL     1      17.131   4.925   5.956  1.00  0.00    -0.003 C 
ATOM     11  C   UNL     1      18.125   4.130   6.798  1.00  0.00     0.004 C 
ENDBRANCH   9  10
ENDBRANCH   8   9
ENDBRANCH   7   8
ENDBRANCH   1   7
TORSDOF 7
ENDMDL
