MODEL 1
REMARK VINA RESULT:    -6.425      0.000      0.000
REMARK INTER + INTRA:          -7.320
REMARK INTER:                  -7.176
REMARK INTRA:                  -0.144
REMARK UNBOUND:                -0.144
REMARK SMILES C=C(C)[C@H]1CC[C@@]2(C(=O)[O-])CC[C@@]3(C)[C@@H](CC[C@H]4[C@@]5(C)CCC(=O)C(C)(C)[C@@H]5CC[C@@]43C)[C@H]12
REMARK SMILES IDX 7 1 6 2 33 3 11 4 5 5 15 6 4 7 12 8 16 9 13 10 17 11 31 12
REMARK SMILES IDX 14 13 18 14 30 15 32 16 19 17 29 18 21 19 20 20 28 21 22 22
REMARK SMILES IDX 25 23 23 24 26 25 27 26 24 27 8 28 9 29 10 30 2 31 3 32 1 33
REMARK H PARENT
REMARK Flexibility Score: inf
ROOT
ATOM      1  C   UNL     1      19.038  33.043  31.014  1.00  0.00     0.014 C 
ATOM      2  C   UNL     1      17.553  32.702  31.158  1.00  0.00     0.014 C 
ATOM      3  C   UNL     1      19.659  31.635  30.887  1.00  0.00     0.012 C 
ATOM      4  C   UNL     1      19.670  33.722  32.251  1.00  0.00     0.014 C 
ATOM      5  C   UNL     1      17.329  31.529  30.185  1.00  0.00     0.009 C 
ATOM      6  C   UNL     1      21.175  31.726  30.585  1.00  0.00     0.000 C 
ATOM      7  C   UNL     1      18.715  30.880  29.934  1.00  0.00     0.018 C 
ATOM      8  C   UNL     1      21.219  33.804  32.105  1.00  0.00     0.008 C 
ATOM      9  C   UNL     1      21.805  30.378  30.187  1.00  0.00     0.005 C 
ATOM     10  C   UNL     1      21.930  32.428  31.789  1.00  0.00    -0.024 C 
ATOM     11  C   UNL     1      23.313  30.489  29.917  1.00  0.00     0.005 C 
ATOM     12  C   UNL     1      23.481  32.634  31.387  1.00  0.00    -0.024 C 
ATOM     13  C   UNL     1      21.812  31.528  33.087  1.00  0.00     0.012 C 
ATOM     14  C   UNL     1      24.084  31.203  31.062  1.00  0.00     0.002 C 
ATOM     15  C   UNL     1      24.282  33.335  32.567  1.00  0.00     0.008 C 
ATOM     16  C   UNL     1      23.632  33.566  30.129  1.00  0.00     0.012 C 
ATOM     17  C   UNL     1      25.672  31.093  30.924  1.00  0.00    -0.025 C 
ATOM     18  C   UNL     1      25.619  32.665  32.950  1.00  0.00     0.006 C 
ATOM     19  C   UNL     1      26.173  31.130  29.435  1.00  0.00     0.015 C 
ATOM     20  C   UNL     1      26.070  29.699  31.520  1.00  0.00     0.012 C 
ATOM     21  C   UNL     1      26.389  32.277  31.682  1.00  0.00     0.008 C 
ATOM     22  C   UNL     1      27.658  31.555  29.266  1.00  0.00     0.077 C 
ATOM     23  C   UNL     1      27.955  32.100  31.815  1.00  0.00     0.027 C 
ATOM     24  C   UNL     1      28.444  31.391  30.545  1.00  0.00     0.138 C 
ATOM     25  C   UNL     1      28.644  33.483  31.829  1.00  0.00     0.020 C 
ATOM     26  C   UNL     1      28.361  31.344  33.124  1.00  0.00     0.020 C 
ATOM     27  O   UNL     1      29.343  30.565  30.584  1.00  0.00    -0.299 OA
ENDROOT
BRANCH   1  28
ATOM     28  C   UNL     1      19.195  33.951  29.787  1.00  0.00     0.048 C 
ATOM     29  O   UNL     1      20.253  33.916  29.106  1.00  0.00    -0.550 OA
ATOM     30  O   UNL     1      18.231  34.890  29.448  1.00  0.00    -0.550 OA
ENDBRANCH   1  28
BRANCH   7  31
ATOM     31  C   UNL     1      18.691  29.370  30.158  1.00  0.00    -0.077 C 
ATOM     32  C   UNL     1      18.996  28.405  29.035  1.00  0.00     0.039 C 
ATOM     33  C   UNL     1      18.411  28.877  31.375  1.00  0.00     0.008 C 
ENDBRANCH   7  31
TORSDOF 2
ENDMDL
MODEL 2
REMARK VINA RESULT:    -6.409      2.065      8.164
REMARK INTER + INTRA:          -7.302
REMARK INTER:                  -7.560
REMARK INTRA:                   0.258
REMARK UNBOUND:                -0.144
REMARK SMILES C=C(C)[C@H]1CC[C@@]2(C(=O)[O-])CC[C@@]3(C)[C@@H](CC[C@H]4[C@@]5(C)CCC(=O)C(C)(C)[C@@H]5CC[C@@]43C)[C@H]12
REMARK SMILES IDX 7 1 6 2 33 3 11 4 5 5 15 6 4 7 12 8 16 9 13 10 17 11 31 12
REMARK SMILES IDX 14 13 18 14 30 15 32 16 19 17 29 18 21 19 20 20 28 21 22 22
REMARK SMILES IDX 25 23 23 24 26 25 27 26 24 27 8 28 9 29 10 30 2 31 3 32 1 33
REMARK H PARENT
REMARK Flexibility Score: inf
ROOT
ATOM      1  C   UNL     1      25.241  30.369  30.858  1.00  0.00     0.014 C 
ATOM      2  C   UNL     1      26.729  30.626  31.110  1.00  0.00     0.014 C 
ATOM      3  C   UNL     1      24.667  31.798  30.958  1.00  0.00     0.012 C 
ATOM      4  C   UNL     1      24.542  29.507  31.935  1.00  0.00     0.014 C 
ATOM      5  C   UNL     1      27.025  31.942  30.365  1.00  0.00     0.009 C 
ATOM      6  C   UNL     1      23.162  31.814  30.593  1.00  0.00     0.000 C 
ATOM      7  C   UNL     1      25.669  32.673  30.185  1.00  0.00     0.018 C 
ATOM      8  C   UNL     1      22.998  29.507  31.724  1.00  0.00     0.008 C 
ATOM      9  C   UNL     1      22.587  33.232  30.415  1.00  0.00     0.005 C 
ATOM     10  C   UNL     1      22.339  30.941  31.630  1.00  0.00    -0.024 C 
ATOM     11  C   UNL     1      21.089  33.223  30.079  1.00  0.00     0.005 C 
ATOM     12  C   UNL     1      20.800  30.863  31.145  1.00  0.00    -0.024 C 
ATOM     13  C   UNL     1      22.432  31.597  33.068  1.00  0.00     0.012 C 
ATOM     14  C   UNL     1      20.252  32.349  31.054  1.00  0.00     0.002 C 
ATOM     15  C   UNL     1      19.933  29.996  32.156  1.00  0.00     0.008 C 
ATOM     16  C   UNL     1      20.674  30.169  29.739  1.00  0.00     0.012 C 
ATOM     17  C   UNL     1      18.675  32.537  30.883  1.00  0.00    -0.025 C 
ATOM     18  C   UNL     1      18.602  30.637  32.604  1.00  0.00     0.006 C 
ATOM     19  C   UNL     1      18.233  32.777  29.395  1.00  0.00     0.015 C 
ATOM     20  C   UNL     1      18.294  33.819  31.700  1.00  0.00     0.012 C 
ATOM     21  C   UNL     1      17.894  31.265  31.398  1.00  0.00     0.008 C 
ATOM     22  C   UNL     1      16.744  32.439  29.103  1.00  0.00     0.077 C 
ATOM     23  C   UNL     1      16.331  31.472  31.506  1.00  0.00     0.027 C 
ATOM     24  C   UNL     1      15.913  32.407  30.364  1.00  0.00     0.138 C 
ATOM     25  C   UNL     1      15.602  30.132  31.254  1.00  0.00     0.020 C 
ATOM     26  C   UNL     1      15.894  32.003  32.912  1.00  0.00     0.020 C 
ATOM     27  O   UNL     1      15.037  33.245  30.515  1.00  0.00    -0.299 OA
ENDROOT
BRANCH   1  28
ATOM     28  C   UNL     1      25.107  29.693  29.487  1.00  0.00     0.048 C 
ATOM     29  O   UNL     1      24.065  29.048  29.200  1.00  0.00    -0.550 OA
ATOM     30  O   UNL     1      26.149  29.693  28.569  1.00  0.00    -0.550 OA
ENDBRANCH   1  28
BRANCH   7  31
ATOM     31  C   UNL     1      25.728  34.120  30.669  1.00  0.00    -0.077 C 
ATOM     32  C   UNL     1      26.059  34.454  32.106  1.00  0.00     0.039 C 
ATOM     33  C   UNL     1      25.498  35.125  29.809  1.00  0.00     0.008 C 
ENDBRANCH   7  31
TORSDOF 2
ENDMDL
MODEL 3
REMARK VINA RESULT:    -6.356      2.219      4.161
REMARK INTER + INTRA:          -7.243
REMARK INTER:                  -7.333
REMARK INTRA:                   0.090
REMARK UNBOUND:                -0.144
REMARK SMILES C=C(C)[C@H]1CC[C@@]2(C(=O)[O-])CC[C@@]3(C)[C@@H](CC[C@H]4[C@@]5(C)CCC(=O)C(C)(C)[C@@H]5CC[C@@]43C)[C@H]12
REMARK SMILES IDX 7 1 6 2 33 3 11 4 5 5 15 6 4 7 12 8 16 9 13 10 17 11 31 12
REMARK SMILES IDX 14 13 18 14 30 15 32 16 19 17 29 18 21 19 20 20 28 21 22 22
REMARK SMILES IDX 25 23 23 24 26 25 27 26 24 27 8 28 9 29 10 30 2 31 3 32 1 33
REMARK H PARENT
REMARK Flexibility Score: inf
ROOT
ATOM      1  C   UNL     1      17.569  29.203  30.562  1.00  0.00     0.014 C 
ATOM      2  C   UNL     1      16.156  29.140  29.977  1.00  0.00     0.014 C 
ATOM      3  C   UNL     1      18.008  30.621  30.139  1.00  0.00     0.012 C 
ATOM      4  C   UNL     1      18.571  28.200  29.944  1.00  0.00     0.014 C 
ATOM      5  C   UNL     1      15.575  30.547  30.220  1.00  0.00     0.009 C 
ATOM      6  C   UNL     1      19.386  30.977  30.750  1.00  0.00     0.000 C 
ATOM      7  C   UNL     1      16.778  31.505  30.414  1.00  0.00     0.018 C 
ATOM      8  C   UNL     1      20.022  28.503  30.423  1.00  0.00     0.008 C 
ATOM      9  C   UNL     1      19.764  32.461  30.590  1.00  0.00     0.005 C 
ATOM     10  C   UNL     1      20.499  29.993  30.196  1.00  0.00    -0.024 C 
ATOM     11  C   UNL     1      21.145  32.784  31.180  1.00  0.00     0.005 C 
ATOM     12  C   UNL     1      21.893  30.299  30.953  1.00  0.00    -0.024 C 
ATOM     13  C   UNL     1      20.663  30.202  28.634  1.00  0.00     0.012 C 
ATOM     14  C   UNL     1      22.259  31.819  30.687  1.00  0.00     0.002 C 
ATOM     15  C   UNL     1      23.043  29.335  30.429  1.00  0.00     0.008 C 
ATOM     16  C   UNL     1      21.773  30.050  32.502  1.00  0.00     0.012 C 
ATOM     17  C   UNL     1      23.732  32.295  31.077  1.00  0.00    -0.025 C 
ATOM     18  C   UNL     1      24.371  30.030  30.058  1.00  0.00     0.006 C 
ATOM     19  C   UNL     1      23.809  33.005  32.476  1.00  0.00     0.015 C 
ATOM     20  C   UNL     1      24.157  33.345  29.993  1.00  0.00     0.012 C 
ATOM     21  C   UNL     1      24.729  31.072  31.124  1.00  0.00     0.008 C 
ATOM     22  C   UNL     1      25.222  33.003  33.123  1.00  0.00     0.077 C 
ATOM     23  C   UNL     1      26.250  31.487  31.245  1.00  0.00     0.027 C 
ATOM     24  C   UNL     1      26.310  32.756  32.105  1.00  0.00     0.138 C 
ATOM     25  C   UNL     1      27.033  30.403  32.020  1.00  0.00     0.020 C 
ATOM     26  C   UNL     1      26.932  31.671  29.848  1.00  0.00     0.020 C 
ATOM     27  O   UNL     1      27.112  33.647  31.869  1.00  0.00    -0.299 OA
ENDROOT
BRANCH   1  28
ATOM     28  C   UNL     1      17.463  28.963  32.074  1.00  0.00     0.048 C 
ATOM     29  O   UNL     1      16.535  28.249  32.535  1.00  0.00    -0.550 OA
ATOM     30  O   UNL     1      18.315  29.588  32.973  1.00  0.00    -0.550 OA
ENDBRANCH   1  28
BRANCH   7  31
ATOM     31  C   UNL     1      16.687  32.732  29.511  1.00  0.00    -0.077 C 
ATOM     32  C   UNL     1      17.591  32.894  28.310  1.00  0.00     0.039 C 
ATOM     33  C   UNL     1      15.777  33.687  29.767  1.00  0.00     0.008 C 
ENDBRANCH   7  31
TORSDOF 2
ENDMDL
MODEL 4
REMARK VINA RESULT:    -5.983      1.268      1.659
REMARK INTER + INTRA:          -6.827
REMARK INTER:                  -6.945
REMARK INTRA:                   0.118
REMARK UNBOUND:                -0.144
REMARK SMILES C=C(C)[C@H]1CC[C@@]2(C(=O)[O-])CC[C@@]3(C)[C@@H](CC[C@H]4[C@@]5(C)CCC(=O)C(C)(C)[C@@H]5CC[C@@]43C)[C@H]12
REMARK SMILES IDX 7 1 6 2 33 3 11 4 5 5 15 6 4 7 12 8 16 9 13 10 17 11 31 12
REMARK SMILES IDX 14 13 18 14 30 15 32 16 19 17 29 18 21 19 20 20 28 21 22 22
REMARK SMILES IDX 25 23 23 24 26 25 27 26 24 27 8 28 9 29 10 30 2 31 3 32 1 33
REMARK H PARENT
REMARK Flexibility Score: inf
ROOT
ATOM      1  C   UNL     1      17.587  32.976  30.828  1.00  0.00     0.014 C 
ATOM      2  C   UNL     1      16.108  32.647  31.051  1.00  0.00     0.014 C 
ATOM      3  C   UNL     1      18.231  31.580  30.968  1.00  0.00     0.012 C 
ATOM      4  C   UNL     1      18.216  33.892  31.903  1.00  0.00     0.014 C 
ATOM      5  C   UNL     1      15.898  31.304  30.325  1.00  0.00     0.009 C 
ATOM      6  C   UNL     1      19.743  31.635  30.638  1.00  0.00     0.000 C 
ATOM      7  C   UNL     1      17.293  30.641  30.189  1.00  0.00     0.018 C 
ATOM      8  C   UNL     1      19.762  33.968  31.728  1.00  0.00     0.008 C 
ATOM      9  C   UNL     1      20.393  30.245  30.500  1.00  0.00     0.005 C 
ATOM     10  C   UNL     1      20.495  32.568  31.676  1.00  0.00    -0.024 C 
ATOM     11  C   UNL     1      21.896  30.325  30.198  1.00  0.00     0.005 C 
ATOM     12  C   UNL     1      22.039  32.716  31.225  1.00  0.00    -0.024 C 
ATOM     13  C   UNL     1      20.402  31.934  33.124  1.00  0.00     0.012 C 
ATOM     14  C   UNL     1      22.664  31.259  31.175  1.00  0.00     0.002 C 
ATOM     15  C   UNL     1      22.837  33.644  32.239  1.00  0.00     0.008 C 
ATOM     16  C   UNL     1      22.163  33.390  29.809  1.00  0.00     0.012 C 
ATOM     17  C   UNL     1      24.252  31.149  31.044  1.00  0.00    -0.025 C 
ATOM     18  C   UNL     1      24.188  33.081  32.729  1.00  0.00     0.006 C 
ATOM     19  C   UNL     1      24.741  30.905  29.571  1.00  0.00     0.015 C 
ATOM     20  C   UNL     1      24.679  29.903  31.894  1.00  0.00     0.012 C 
ATOM     21  C   UNL     1      24.955  32.468  31.551  1.00  0.00     0.008 C 
ATOM     22  C   UNL     1      26.217  31.313  29.306  1.00  0.00     0.077 C 
ATOM     23  C   UNL     1      26.524  32.344  31.699  1.00  0.00     0.027 C 
ATOM     24  C   UNL     1      27.015  31.411  30.585  1.00  0.00     0.138 C 
ATOM     25  C   UNL     1      27.189  33.715  31.438  1.00  0.00     0.020 C 
ATOM     26  C   UNL     1      26.953  31.861  33.125  1.00  0.00     0.020 C 
ATOM     27  O   UNL     1      27.930  30.622  30.773  1.00  0.00    -0.299 OA
ENDROOT
BRANCH   1  28
ATOM     28  C   UNL     1      17.718  33.633  29.447  1.00  0.00     0.048 C 
ATOM     29  O   UNL     1      18.173  34.802  29.345  1.00  0.00    -0.550 OA
ATOM     30  O   UNL     1      17.263  33.006  28.295  1.00  0.00    -0.550 OA
ENDBRANCH   1  28
BRANCH   7  31
ATOM     31  C   UNL     1      17.297  29.202  30.700  1.00  0.00    -0.077 C 
ATOM     32  C   UNL     1      17.217  28.894  32.178  1.00  0.00     0.039 C 
ATOM     33  C   UNL     1      17.355  28.181  29.830  1.00  0.00     0.008 C 
ENDBRANCH   7  31
TORSDOF 2
ENDMDL
MODEL 5
REMARK VINA RESULT:    -5.437      1.582      2.400
REMARK INTER + INTRA:          -6.217
REMARK INTER:                  -5.976
REMARK INTRA:                  -0.241
REMARK UNBOUND:                -0.144
REMARK SMILES C=C(C)[C@H]1CC[C@@]2(C(=O)[O-])CC[C@@]3(C)[C@@H](CC[C@H]4[C@@]5(C)CCC(=O)C(C)(C)[C@@H]5CC[C@@]43C)[C@H]12
REMARK SMILES IDX 7 1 6 2 33 3 11 4 5 5 15 6 4 7 12 8 16 9 13 10 17 11 31 12
REMARK SMILES IDX 14 13 18 14 30 15 32 16 19 17 29 18 21 19 20 20 28 21 22 22
REMARK SMILES IDX 25 23 23 24 26 25 27 26 24 27 8 28 9 29 10 30 2 31 3 32 1 33
REMARK H PARENT
REMARK Flexibility Score: inf
ROOT
ATOM      1  C   UNL     1      21.295  32.886  31.107  1.00  0.00     0.014 C 
ATOM      2  C   UNL     1      19.853  32.397  31.261  1.00  0.00     0.014 C 
ATOM      3  C   UNL     1      22.051  31.550  30.948  1.00  0.00     0.012 C 
ATOM      4  C   UNL     1      21.871  33.605  32.349  1.00  0.00     0.014 C 
ATOM      5  C   UNL     1      19.735  31.223  30.270  1.00  0.00     0.009 C 
ATOM      6  C   UNL     1      23.547  31.797  30.631  1.00  0.00     0.000 C 
ATOM      7  C   UNL     1      21.175  30.720  29.993  1.00  0.00     0.018 C 
ATOM      8  C   UNL     1      23.402  33.844  32.188  1.00  0.00     0.008 C 
ATOM      9  C   UNL     1      24.303  30.526  30.202  1.00  0.00     0.005 C 
ATOM     10  C   UNL     1      24.244  32.551  31.840  1.00  0.00    -0.024 C 
ATOM     11  C   UNL     1      25.789  30.791  29.918  1.00  0.00     0.005 C 
ATOM     12  C   UNL     1      25.761  32.917  31.424  1.00  0.00    -0.024 C 
ATOM     13  C   UNL     1      24.232  31.623  33.122  1.00  0.00     0.012 C 
ATOM     14  C   UNL     1      26.499  31.560  31.067  1.00  0.00     0.002 C 
ATOM     15  C   UNL     1      26.503  33.676  32.608  1.00  0.00     0.008 C 
ATOM     16  C   UNL     1      25.802  33.881  30.181  1.00  0.00     0.012 C 
ATOM     17  C   UNL     1      28.088  31.611  30.910  1.00  0.00    -0.025 C 
ATOM     18  C   UNL     1      27.905  33.136  32.964  1.00  0.00     0.006 C 
ATOM     19  C   UNL     1      28.564  31.722  29.417  1.00  0.00     0.015 C 
ATOM     20  C   UNL     1      28.631  30.254  31.477  1.00  0.00     0.012 C 
ATOM     21  C   UNL     1      28.694  32.848  31.681  1.00  0.00     0.008 C 
ATOM     22  C   UNL     1      29.997  32.297  29.238  1.00  0.00     0.077 C 
ATOM     23  C   UNL     1      30.270  32.825  31.793  1.00  0.00     0.027 C 
ATOM     24  C   UNL     1      30.811  32.190  30.506  1.00  0.00     0.138 C 
ATOM     25  C   UNL     1      30.819  34.271  31.824  1.00  0.00     0.020 C 
ATOM     26  C   UNL     1      30.767  32.093  33.084  1.00  0.00     0.020 C 
ATOM     27  O   UNL     1      31.790  31.458  30.520  1.00  0.00    -0.299 OA
ENDROOT
BRANCH   1  28
ATOM     28  C   UNL     1      21.345  33.826  29.895  1.00  0.00     0.048 C 
ATOM     29  O   UNL     1      22.288  33.738  29.066  1.00  0.00    -0.550 OA
ATOM     30  O   UNL     1      20.418  34.846  29.724  1.00  0.00    -0.550 OA
ENDBRANCH   1  28
BRANCH   7  31
ATOM     31  C   UNL     1      21.305  29.212  30.190  1.00  0.00    -0.077 C 
ATOM     32  C   UNL     1      21.413  28.272  29.010  1.00  0.00     0.039 C 
ATOM     33  C   UNL     1      21.341  28.698  31.430  1.00  0.00     0.008 C 
ENDBRANCH   7  31
TORSDOF 2
ENDMDL
MODEL 6
REMARK VINA RESULT:    -5.329      2.842      5.195
REMARK INTER + INTRA:          -6.096
REMARK INTER:                  -5.721
REMARK INTRA:                  -0.375
REMARK UNBOUND:                -0.144
REMARK SMILES C=C(C)[C@H]1CC[C@@]2(C(=O)[O-])CC[C@@]3(C)[C@@H](CC[C@H]4[C@@]5(C)CCC(=O)C(C)(C)[C@@H]5CC[C@@]43C)[C@H]12
REMARK SMILES IDX 7 1 6 2 33 3 11 4 5 5 15 6 4 7 12 8 16 9 13 10 17 11 31 12
REMARK SMILES IDX 14 13 18 14 30 15 32 16 19 17 29 18 21 19 20 20 28 21 22 22
REMARK SMILES IDX 25 23 23 24 26 25 27 26 24 27 8 28 9 29 10 30 2 31 3 32 1 33
REMARK H PARENT
REMARK Flexibility Score: inf
ROOT
ATOM      1  C   UNL     1      16.058  29.029  30.221  1.00  0.00     0.014 C 
ATOM      2  C   UNL     1      14.607  29.493  30.060  1.00  0.00     0.014 C 
ATOM      3  C   UNL     1      16.778  30.373  30.462  1.00  0.00     0.012 C 
ATOM      4  C   UNL     1      16.676  28.386  28.958  1.00  0.00     0.014 C 
ATOM      5  C   UNL     1      14.441  30.612  31.106  1.00  0.00     0.009 C 
ATOM      6  C   UNL     1      18.272  30.143  30.799  1.00  0.00     0.000 C 
ATOM      7  C   UNL     1      15.863  31.133  31.439  1.00  0.00     0.018 C 
ATOM      8  C   UNL     1      18.209  28.175  29.140  1.00  0.00     0.008 C 
ATOM      9  C   UNL     1      18.989  31.409  31.306  1.00  0.00     0.005 C 
ATOM     10  C   UNL     1      19.012  29.467  29.570  1.00  0.00    -0.024 C 
ATOM     11  C   UNL     1      20.475  31.164  31.609  1.00  0.00     0.005 C 
ATOM     12  C   UNL     1      20.528  29.115  30.000  1.00  0.00    -0.024 C 
ATOM     13  C   UNL     1      19.004  30.458  28.335  1.00  0.00     0.012 C 
ATOM     14  C   UNL     1      21.227  30.470  30.439  1.00  0.00     0.002 C 
ATOM     15  C   UNL     1      21.312  28.434  28.796  1.00  0.00     0.008 C 
ATOM     16  C   UNL     1      20.566  28.092  31.194  1.00  0.00     0.012 C 
ATOM     17  C   UNL     1      22.813  30.446  30.628  1.00  0.00    -0.025 C 
ATOM     18  C   UNL     1      22.708  29.023  28.498  1.00  0.00     0.006 C 
ATOM     19  C   UNL     1      23.261  30.272  32.124  1.00  0.00     0.015 C 
ATOM     20  C   UNL     1      23.335  31.842  30.141  1.00  0.00     0.012 C 
ATOM     21  C   UNL     1      23.463  29.264  29.810  1.00  0.00     0.008 C 
ATOM     22  C   UNL     1      24.703  29.722  32.305  1.00  0.00     0.077 C 
ATOM     23  C   UNL     1      25.041  29.328  29.733  1.00  0.00     0.027 C 
ATOM     24  C   UNL     1      25.540  29.910  31.061  1.00  0.00     0.138 C 
ATOM     25  C   UNL     1      25.624  27.898  29.642  1.00  0.00     0.020 C 
ATOM     26  C   UNL     1      25.546  30.135  28.491  1.00  0.00     0.020 C 
ATOM     27  O   UNL     1      26.501  30.664  31.105  1.00  0.00    -0.299 OA
ENDROOT
BRANCH   1  28
ATOM     28  C   UNL     1      16.105  28.031  31.386  1.00  0.00     0.048 C 
ATOM     29  O   UNL     1      15.481  26.941  31.308  1.00  0.00    -0.550 OA
ATOM     30  O   UNL     1      16.750  28.332  32.578  1.00  0.00    -0.550 OA
ENDBRANCH   1  28
BRANCH   7  31
ATOM     31  C   UNL     1      15.961  32.652  31.319  1.00  0.00    -0.077 C 
ATOM     32  C   UNL     1      16.152  33.525  32.539  1.00  0.00     0.039 C 
ATOM     33  C   UNL     1      15.894  33.236  30.111  1.00  0.00     0.008 C 
ENDBRANCH   7  31
TORSDOF 2
ENDMDL
MODEL 7
REMARK VINA RESULT:    -5.122      2.783      8.567
REMARK INTER + INTRA:          -5.865
REMARK INTER:                  -5.925
REMARK INTRA:                   0.060
REMARK UNBOUND:                -0.144
REMARK SMILES C=C(C)[C@H]1CC[C@@]2(C(=O)[O-])CC[C@@]3(C)[C@@H](CC[C@H]4[C@@]5(C)CCC(=O)C(C)(C)[C@@H]5CC[C@@]43C)[C@H]12
REMARK SMILES IDX 7 1 6 2 33 3 11 4 5 5 15 6 4 7 12 8 16 9 13 10 17 11 31 12
REMARK SMILES IDX 14 13 18 14 30 15 32 16 19 17 29 18 21 19 20 20 28 21 22 22
REMARK SMILES IDX 25 23 23 24 26 25 27 26 24 27 8 28 9 29 10 30 2 31 3 32 1 33
REMARK H PARENT
REMARK Flexibility Score: inf
ROOT
ATOM      1  C   UNL     1      23.615  27.627  28.822  1.00  0.00     0.014 C 
ATOM      2  C   UNL     1      25.094  27.277  29.002  1.00  0.00     0.014 C 
ATOM      3  C   UNL     1      23.504  28.911  29.672  1.00  0.00     0.012 C 
ATOM      4  C   UNL     1      22.628  26.591  29.408  1.00  0.00     0.014 C 
ATOM      5  C   UNL     1      25.820  28.636  28.971  1.00  0.00     0.009 C 
ATOM      6  C   UNL     1      22.098  29.546  29.530  1.00  0.00     0.000 C 
ATOM      7  C   UNL     1      24.766  29.718  29.322  1.00  0.00     0.018 C 
ATOM      8  C   UNL     1      21.172  27.146  29.395  1.00  0.00     0.008 C 
ATOM      9  C   UNL     1      21.998  30.959  30.134  1.00  0.00     0.005 C 
ATOM     10  C   UNL     1      20.993  28.556  30.089  1.00  0.00    -0.024 C 
ATOM     11  C   UNL     1      20.589  31.557  30.004  1.00  0.00     0.005 C 
ATOM     12  C   UNL     1      19.533  29.184  29.801  1.00  0.00    -0.024 C 
ATOM     13  C   UNL     1      21.206  28.346  31.644  1.00  0.00     0.012 C 
ATOM     14  C   UNL     1      19.473  30.601  30.511  1.00  0.00     0.002 C 
ATOM     15  C   UNL     1      18.388  28.225  30.346  1.00  0.00     0.008 C 
ATOM     16  C   UNL     1      19.274  29.357  28.259  1.00  0.00     0.012 C 
ATOM     17  C   UNL     1      18.042  31.300  30.629  1.00  0.00    -0.025 C 
ATOM     18  C   UNL     1      17.296  28.912  31.193  1.00  0.00     0.006 C 
ATOM     19  C   UNL     1      17.775  32.369  29.508  1.00  0.00     0.015 C 
ATOM     20  C   UNL     1      18.030  32.050  32.006  1.00  0.00     0.012 C 
ATOM     21  C   UNL     1      16.882  30.234  30.536  1.00  0.00     0.008 C 
ATOM     22  C   UNL     1      16.273  32.674  29.254  1.00  0.00     0.077 C 
ATOM     23  C   UNL     1      15.454  30.805  30.904  1.00  0.00     0.027 C 
ATOM     24  C   UNL     1      15.406  32.260  30.420  1.00  0.00     0.138 C 
ATOM     25  C   UNL     1      14.363  30.051  30.109  1.00  0.00     0.020 C 
ATOM     26  C   UNL     1      15.128  30.663  32.428  1.00  0.00     0.020 C 
ATOM     27  O   UNL     1      14.823  33.124  31.058  1.00  0.00    -0.299 OA
ENDROOT
BRANCH   1  28
ATOM     28  C   UNL     1      23.353  27.800  27.320  1.00  0.00     0.048 C 
ATOM     29  O   UNL     1      22.592  27.000  26.716  1.00  0.00    -0.550 OA
ATOM     30  O   UNL     1      24.007  28.771  26.573  1.00  0.00    -0.550 OA
ENDBRANCH   1  28
BRANCH   7  31
ATOM     31  C   UNL     1      25.241  30.639  30.444  1.00  0.00    -0.077 C 
ATOM     32  C   UNL     1      25.606  32.081  30.174  1.00  0.00     0.039 C 
ATOM     33  C   UNL     1      25.323  30.176  31.701  1.00  0.00     0.008 C 
ENDBRANCH   7  31
TORSDOF 2
ENDMDL
MODEL 8
REMARK VINA RESULT:    -5.006      1.755      2.632
REMARK INTER + INTRA:          -5.736
REMARK INTER:                  -5.639
REMARK INTRA:                  -0.097
REMARK UNBOUND:                -0.144
REMARK SMILES C=C(C)[C@H]1CC[C@@]2(C(=O)[O-])CC[C@@]3(C)[C@@H](CC[C@H]4[C@@]5(C)CCC(=O)C(C)(C)[C@@H]5CC[C@@]43C)[C@H]12
REMARK SMILES IDX 7 1 6 2 33 3 11 4 5 5 15 6 4 7 12 8 16 9 13 10 17 11 31 12
REMARK SMILES IDX 14 13 18 14 30 15 32 16 19 17 29 18 21 19 20 20 28 21 22 22
REMARK SMILES IDX 25 23 23 24 26 25 27 26 24 27 8 28 9 29 10 30 2 31 3 32 1 33
REMARK H PARENT
REMARK Flexibility Score: inf
ROOT
ATOM      1  C   UNL     1      18.277  29.626  30.671  1.00  0.00     0.014 C 
ATOM      2  C   UNL     1      17.064  28.701  30.540  1.00  0.00     0.014 C 
ATOM      3  C   UNL     1      19.412  28.705  30.174  1.00  0.00     0.012 C 
ATOM      4  C   UNL     1      18.617  30.047  32.119  1.00  0.00     0.014 C 
ATOM      5  C   UNL     1      17.305  27.929  29.229  1.00  0.00     0.009 C 
ATOM      6  C   UNL     1      20.749  29.480  30.081  1.00  0.00     0.000 C 
ATOM      7  C   UNL     1      18.827  28.001  28.936  1.00  0.00     0.018 C 
ATOM      8  C   UNL     1      19.993  30.776  32.174  1.00  0.00     0.008 C 
ATOM      9  C   UNL     1      21.860  28.704  29.348  1.00  0.00     0.005 C 
ATOM     10  C   UNL     1      21.192  29.980  31.518  1.00  0.00    -0.024 C 
ATOM     11  C   UNL     1      23.183  29.481  29.290  1.00  0.00     0.005 C 
ATOM     12  C   UNL     1      22.512  30.900  31.370  1.00  0.00    -0.024 C 
ATOM     13  C   UNL     1      21.491  28.732  32.446  1.00  0.00     0.012 C 
ATOM     14  C   UNL     1      23.634  30.018  30.677  1.00  0.00     0.002 C 
ATOM     15  C   UNL     1      22.996  31.426  32.790  1.00  0.00     0.008 C 
ATOM     16  C   UNL     1      22.230  32.176  30.494  1.00  0.00     0.012 C 
ATOM     17  C   UNL     1      25.123  30.594  30.683  1.00  0.00    -0.025 C 
ATOM     18  C   UNL     1      24.501  31.250  33.083  1.00  0.00     0.006 C 
ATOM     19  C   UNL     1      25.519  31.316  29.344  1.00  0.00     0.015 C 
ATOM     20  C   UNL     1      26.073  29.358  30.849  1.00  0.00     0.012 C 
ATOM     21  C   UNL     1      25.321  31.641  31.848  1.00  0.00     0.008 C 
ATOM     22  C   UNL     1      26.696  32.321  29.478  1.00  0.00     0.077 C 
ATOM     23  C   UNL     1      26.827  32.060  32.085  1.00  0.00     0.027 C 
ATOM     24  C   UNL     1      27.521  32.066  30.717  1.00  0.00     0.138 C 
ATOM     25  C   UNL     1      26.894  33.514  32.608  1.00  0.00     0.020 C 
ATOM     26  C   UNL     1      27.547  31.139  33.125  1.00  0.00     0.020 C 
ATOM     27  O   UNL     1      28.680  31.699  30.589  1.00  0.00    -0.299 OA
ENDROOT
BRANCH   1  28
ATOM     28  C   UNL     1      18.011  30.873  29.817  1.00  0.00     0.048 C 
ATOM     29  O   UNL     1      17.023  31.611  30.068  1.00  0.00    -0.550 OA
ATOM     30  O   UNL     1      18.785  31.173  28.704  1.00  0.00    -0.550 OA
ENDBRANCH   1  28
BRANCH   7  31
ATOM     31  C   UNL     1      19.426  26.623  28.669  1.00  0.00    -0.077 C 
ATOM     32  C   UNL     1      20.244  25.905  29.719  1.00  0.00     0.039 C 
ATOM     33  C   UNL     1      19.216  26.018  27.489  1.00  0.00     0.008 C 
ENDBRANCH   7  31
TORSDOF 2
ENDMDL
MODEL 9
REMARK VINA RESULT:    -4.911      3.492      6.023
REMARK INTER + INTRA:          -5.629
REMARK INTER:                  -5.825
REMARK INTRA:                   0.196
REMARK UNBOUND:                -0.144
REMARK SMILES C=C(C)[C@H]1CC[C@@]2(C(=O)[O-])CC[C@@]3(C)[C@@H](CC[C@H]4[C@@]5(C)CCC(=O)C(C)(C)[C@@H]5CC[C@@]43C)[C@H]12
REMARK SMILES IDX 7 1 6 2 33 3 11 4 5 5 15 6 4 7 12 8 16 9 13 10 17 11 31 12
REMARK SMILES IDX 14 13 18 14 30 15 32 16 19 17 29 18 21 19 20 20 28 21 22 22
REMARK SMILES IDX 25 23 23 24 26 25 27 26 24 27 8 28 9 29 10 30 2 31 3 32 1 33
REMARK H PARENT
REMARK Flexibility Score: inf
ROOT
ATOM      1  C   UNL     1      16.313  26.835  28.701  1.00  0.00     0.014 C 
ATOM      2  C   UNL     1      14.824  26.788  28.349  1.00  0.00     0.014 C 
ATOM      3  C   UNL     1      16.364  28.072  29.624  1.00  0.00     0.012 C 
ATOM      4  C   UNL     1      17.253  27.106  27.504  1.00  0.00     0.014 C 
ATOM      5  C   UNL     1      14.104  27.164  29.658  1.00  0.00     0.009 C 
ATOM      6  C   UNL     1      17.777  28.246  30.234  1.00  0.00     0.000 C 
ATOM      7  C   UNL     1      15.131  27.928  30.534  1.00  0.00     0.018 C 
ATOM      8  C   UNL     1      18.707  27.379  27.995  1.00  0.00     0.008 C 
ATOM      9  C   UNL     1      17.835  29.295  31.361  1.00  0.00     0.005 C 
ATOM     10  C   UNL     1      18.838  28.515  29.086  1.00  0.00    -0.024 C 
ATOM     11  C   UNL     1      19.250  29.468  31.932  1.00  0.00     0.005 C 
ATOM     12  C   UNL     1      20.316  28.554  29.737  1.00  0.00    -0.024 C 
ATOM     13  C   UNL     1      18.512  29.891  28.374  1.00  0.00     0.012 C 
ATOM     14  C   UNL     1      20.325  29.700  30.833  1.00  0.00     0.002 C 
ATOM     15  C   UNL     1      21.416  28.822  28.622  1.00  0.00     0.008 C 
ATOM     16  C   UNL     1      20.686  27.180  30.408  1.00  0.00     0.012 C 
ATOM     17  C   UNL     1      21.745  30.142  31.416  1.00  0.00    -0.025 C 
ATOM     18  C   UNL     1      22.445  29.923  28.959  1.00  0.00     0.006 C 
ATOM     19  C   UNL     1      22.094  29.465  32.790  1.00  0.00     0.015 C 
ATOM     20  C   UNL     1      21.658  31.688  31.662  1.00  0.00     0.012 C 
ATOM     21  C   UNL     1      22.907  29.776  30.413  1.00  0.00     0.008 C 
ATOM     22  C   UNL     1      23.611  29.430  33.125  1.00  0.00     0.077 C 
ATOM     23  C   UNL     1      24.306  30.410  30.792  1.00  0.00     0.027 C 
ATOM     24  C   UNL     1      24.391  30.446  32.323  1.00  0.00     0.138 C 
ATOM     25  C   UNL     1      25.450  29.484  30.319  1.00  0.00     0.020 C 
ATOM     26  C   UNL     1      24.521  31.817  30.141  1.00  0.00     0.020 C 
ATOM     27  O   UNL     1      24.927  31.375  32.909  1.00  0.00    -0.299 OA
ENDROOT
BRANCH   1  28
ATOM     28  C   UNL     1      16.683  25.500  29.359  1.00  0.00     0.048 C 
ATOM     29  O   UNL     1      17.845  25.033  29.232  1.00  0.00    -0.550 OA
ATOM     30  O   UNL     1      15.740  24.730  30.028  1.00  0.00    -0.550 OA
ENDBRANCH   1  28
BRANCH   7  31
ATOM     31  C   UNL     1      14.578  29.258  31.039  1.00  0.00    -0.077 C 
ATOM     32  C   UNL     1      14.522  30.476  30.144  1.00  0.00     0.039 C 
ATOM     33  C   UNL     1      14.114  29.358  32.295  1.00  0.00     0.008 C 
ENDBRANCH   7  31
TORSDOF 2
ENDMDL
