MODEL 1
REMARK VINA RESULT:    -7.274      0.000      0.000
REMARK INTER + INTRA:          -8.484
REMARK INTER:                  -8.549
REMARK INTRA:                   0.065
REMARK UNBOUND:                 0.065
REMARK SMILES O=c1c(O)c(-c2ccc(O)cc2)oc2cc(O)cc(O)c12
REMARK SMILES IDX 5 1 3 2 2 3 1 4 21 5 19 6 18 7 16 8 15 9 14 10 13 11 6 12
REMARK SMILES IDX 7 13 8 14 9 15 12 16 11 17 10 18 4 20 20 22 17 24
REMARK H PARENT 10 19 4 21 20 23 17 25
REMARK Flexibility Score: inf
ROOT
ATOM      1  C   UNL     1       2.366   4.601 -22.103  1.00  0.00     0.180 A 
ATOM      2  C   UNL     1       2.768   5.100 -20.849  1.00  0.00     0.208 A 
ATOM      3  C   UNL     1       2.260   4.500 -19.686  1.00  0.00     0.238 A 
ATOM      4  O   UNL     1       2.603   4.945 -18.557  1.00  0.00    -0.285 OA
ATOM      5  C   UNL     1       1.380   3.404 -19.796  1.00  0.00     0.111 A 
ATOM      6  C   UNL     1       0.827   2.740 -18.673  1.00  0.00     0.134 A 
ATOM      7  C   UNL     1      -0.035   1.650 -18.865  1.00  0.00     0.093 A 
ATOM      8  C   UNL     1      -0.353   1.210 -20.152  1.00  0.00     0.123 A 
ATOM      9  C   UNL     1       0.189   1.863 -21.265  1.00  0.00     0.094 A 
ATOM     10  C   UNL     1       1.048   2.953 -21.095  1.00  0.00     0.146 A 
ATOM     11  O   UNL     1       1.546   3.557 -22.168  1.00  0.00    -0.452 OA
ENDROOT
BRANCH   1  12
ATOM     12  C   UNL     1       2.842   5.193 -23.374  1.00  0.00     0.021 A 
ATOM     13  C   UNL     1       3.230   4.348 -24.428  1.00  0.00     0.016 A 
ATOM     14  C   UNL     1       3.662   4.885 -25.645  1.00  0.00     0.047 A 
ATOM     15  C   UNL     1       3.697   6.273 -25.828  1.00  0.00     0.115 A 
ATOM     16  C   UNL     1       2.861   6.586 -23.574  1.00  0.00     0.016 A 
ATOM     17  C   UNL     1       3.293   7.120 -24.792  1.00  0.00     0.047 A 
BRANCH  15  18
ATOM     18  O   UNL     1       4.125   6.819 -27.036  1.00  0.00    -0.508 OA
ATOM     19  H   UNL     1       5.108   6.979 -27.226  1.00  0.00     0.293 HD
ENDBRANCH  15  18
ENDBRANCH   1  12
BRANCH   2  20
ATOM     20  O   UNL     1       3.679   6.156 -20.767  1.00  0.00    -0.502 OA
ATOM     21  H   UNL     1       4.287   6.408 -21.537  1.00  0.00     0.293 HD
ENDBRANCH   2  20
BRANCH   6  22
ATOM     22  O   UNL     1       1.125   3.153 -17.375  1.00  0.00    -0.507 OA
ATOM     23  H   UNL     1       0.668   3.951 -16.951  1.00  0.00     0.293 HD
ENDBRANCH   6  22
BRANCH   8  24
ATOM     24  O   UNL     1      -1.211   0.125 -20.315  1.00  0.00    -0.508 OA
ATOM     25  H   UNL     1      -0.939  -0.812 -20.041  1.00  0.00     0.293 HD
ENDBRANCH   8  24
TORSDOF 5
ENDMDL
MODEL 2
REMARK VINA RESULT:    -6.808      1.763      3.341
REMARK INTER + INTRA:          -7.937
REMARK INTER:                  -7.647
REMARK INTRA:                  -0.290
REMARK UNBOUND:                 0.065
REMARK SMILES O=c1c(O)c(-c2ccc(O)cc2)oc2cc(O)cc(O)c12
REMARK SMILES IDX 5 1 3 2 2 3 1 4 21 5 19 6 18 7 16 8 15 9 14 10 13 11 6 12
REMARK SMILES IDX 7 13 8 14 9 15 12 16 11 17 10 18 4 20 20 22 17 24
REMARK H PARENT 10 19 4 21 20 23 17 25
REMARK Flexibility Score: inf
ROOT
ATOM      1  C   UNL     1       1.075   3.737 -23.303  1.00  0.00     0.180 A 
ATOM      2  C   UNL     1       0.003   3.043 -23.896  1.00  0.00     0.208 A 
ATOM      3  C   UNL     1      -0.696   2.094 -23.135  1.00  0.00     0.238 A 
ATOM      4  O   UNL     1      -1.650   1.458 -23.659  1.00  0.00    -0.285 OA
ATOM      5  C   UNL     1      -0.327   1.871 -21.792  1.00  0.00     0.111 A 
ATOM      6  C   UNL     1      -0.983   0.935 -20.955  1.00  0.00     0.134 A 
ATOM      7  C   UNL     1      -0.561   0.776 -19.626  1.00  0.00     0.093 A 
ATOM      8  C   UNL     1       0.497   1.533 -19.119  1.00  0.00     0.123 A 
ATOM      9  C   UNL     1       1.150   2.457 -19.942  1.00  0.00     0.094 A 
ATOM     10  C   UNL     1       0.746   2.629 -21.269  1.00  0.00     0.146 A 
ATOM     11  O   UNL     1       1.385   3.511 -22.030  1.00  0.00    -0.452 OA
ENDROOT
BRANCH   1  12
ATOM     12  C   UNL     1       1.872   4.739 -24.047  1.00  0.00     0.021 A 
ATOM     13  C   UNL     1       3.001   4.323 -24.773  1.00  0.00     0.016 A 
ATOM     14  C   UNL     1       3.755   5.248 -25.501  1.00  0.00     0.047 A 
ATOM     15  C   UNL     1       3.382   6.598 -25.525  1.00  0.00     0.115 A 
ATOM     16  C   UNL     1       1.492   6.093 -24.092  1.00  0.00     0.016 A 
ATOM     17  C   UNL     1       2.247   7.016 -24.822  1.00  0.00     0.047 A 
BRANCH  15  18
ATOM     18  O   UNL     1       4.125   7.529 -26.247  1.00  0.00    -0.508 OA
ATOM     19  H   UNL     1       4.324   8.451 -25.875  1.00  0.00     0.293 HD
ENDBRANCH  15  18
ENDBRANCH   1  12
BRANCH   2  20
ATOM     20  O   UNL     1      -0.374   3.319 -25.214  1.00  0.00    -0.502 OA
ATOM     21  H   UNL     1      -0.970   2.700 -25.748  1.00  0.00     0.293 HD
ENDBRANCH   2  20
BRANCH   6  22
ATOM     22  O   UNL     1      -2.044   0.164 -21.431  1.00  0.00    -0.507 OA
ATOM     23  H   UNL     1      -2.932   0.580 -21.685  1.00  0.00     0.293 HD
ENDBRANCH   6  22
BRANCH   8  24
ATOM     24  O   UNL     1       0.896   1.357 -17.795  1.00  0.00    -0.508 OA
ATOM     25  H   UNL     1       0.547   0.588 -17.234  1.00  0.00     0.293 HD
ENDBRANCH   8  24
TORSDOF 5
ENDMDL
MODEL 3
REMARK VINA RESULT:    -6.708      1.393      3.251
REMARK INTER + INTRA:          -7.820
REMARK INTER:                  -7.634
REMARK INTRA:                  -0.186
REMARK UNBOUND:                 0.065
REMARK SMILES O=c1c(O)c(-c2ccc(O)cc2)oc2cc(O)cc(O)c12
REMARK SMILES IDX 5 1 3 2 2 3 1 4 21 5 19 6 18 7 16 8 15 9 14 10 13 11 6 12
REMARK SMILES IDX 7 13 8 14 9 15 12 16 11 17 10 18 4 20 20 22 17 24
REMARK H PARENT 10 19 4 21 20 23 17 25
REMARK Flexibility Score: inf
ROOT
ATOM      1  C   UNL     1       1.943   3.838 -22.821  1.00  0.00     0.180 A 
ATOM      2  C   UNL     1       1.160   2.670 -22.741  1.00  0.00     0.208 A 
ATOM      3  C   UNL     1       0.749   2.213 -21.480  1.00  0.00     0.238 A 
ATOM      4  O   UNL     1       0.058   1.162 -21.394  1.00  0.00    -0.285 OA
ATOM      5  C   UNL     1       1.109   2.939 -20.325  1.00  0.00     0.111 A 
ATOM      6  C   UNL     1       0.732   2.549 -19.017  1.00  0.00     0.134 A 
ATOM      7  C   UNL     1       1.122   3.330 -17.919  1.00  0.00     0.093 A 
ATOM      8  C   UNL     1       1.877   4.490 -18.101  1.00  0.00     0.123 A 
ATOM      9  C   UNL     1       2.253   4.880 -19.391  1.00  0.00     0.094 A 
ATOM     10  C   UNL     1       1.877   4.114 -20.499  1.00  0.00     0.146 A 
ATOM     11  O   UNL     1       2.250   4.505 -21.712  1.00  0.00    -0.452 OA
ENDROOT
BRANCH   1  12
ATOM     12  C   UNL     1       2.431   4.372 -24.113  1.00  0.00     0.021 A 
ATOM     13  C   UNL     1       1.980   5.626 -24.557  1.00  0.00     0.016 A 
ATOM     14  C   UNL     1       2.444   6.160 -25.763  1.00  0.00     0.047 A 
ATOM     15  C   UNL     1       3.377   5.453 -26.533  1.00  0.00     0.115 A 
ATOM     16  C   UNL     1       3.383   3.677 -24.881  1.00  0.00     0.016 A 
ATOM     17  C   UNL     1       3.847   4.214 -26.086  1.00  0.00     0.047 A 
BRANCH  15  18
ATOM     18  O   UNL     1       3.847   5.974 -27.735  1.00  0.00    -0.508 OA
ATOM     19  H   UNL     1       4.399   5.415 -28.375  1.00  0.00     0.293 HD
ENDBRANCH  15  18
ENDBRANCH   1  12
BRANCH   2  20
ATOM     20  O   UNL     1       0.776   1.997 -23.904  1.00  0.00    -0.502 OA
ATOM     21  H   UNL     1       0.712   2.460 -24.802  1.00  0.00     0.293 HD
ENDBRANCH   2  20
BRANCH   6  22
ATOM     22  O   UNL     1      -0.023   1.396 -18.800  1.00  0.00    -0.507 OA
ATOM     23  H   UNL     1      -0.289   1.100 -17.869  1.00  0.00     0.293 HD
ENDBRANCH   6  22
BRANCH   8  24
ATOM     24  O   UNL     1       2.250   5.249 -16.994  1.00  0.00    -0.508 OA
ATOM     25  H   UNL     1       1.580   5.511 -16.281  1.00  0.00     0.293 HD
ENDBRANCH   8  24
TORSDOF 5
ENDMDL
MODEL 4
REMARK VINA RESULT:    -6.484      2.515      7.180
REMARK INTER + INTRA:          -7.556
REMARK INTER:                  -7.290
REMARK INTRA:                  -0.266
REMARK UNBOUND:                 0.065
REMARK SMILES O=c1c(O)c(-c2ccc(O)cc2)oc2cc(O)cc(O)c12
REMARK SMILES IDX 5 1 3 2 2 3 1 4 21 5 19 6 18 7 16 8 15 9 14 10 13 11 6 12
REMARK SMILES IDX 7 13 8 14 9 15 12 16 11 17 10 18 4 20 20 22 17 24
REMARK H PARENT 10 19 4 21 20 23 17 25
REMARK Flexibility Score: inf
ROOT
ATOM      1  C   UNL     1       0.793   2.900 -22.769  1.00  0.00     0.180 A 
ATOM      2  C   UNL     1      -0.488   2.991 -23.347  1.00  0.00     0.208 A 
ATOM      3  C   UNL     1      -0.607   3.468 -24.661  1.00  0.00     0.238 A 
ATOM      4  O   UNL     1      -1.749   3.564 -25.186  1.00  0.00    -0.285 OA
ATOM      5  C   UNL     1       0.553   3.825 -25.380  1.00  0.00     0.111 A 
ATOM      6  C   UNL     1       0.520   4.310 -26.710  1.00  0.00     0.134 A 
ATOM      7  C   UNL     1       1.719   4.636 -27.361  1.00  0.00     0.093 A 
ATOM      8  C   UNL     1       2.947   4.486 -26.712  1.00  0.00     0.123 A 
ATOM      9  C   UNL     1       2.985   4.008 -25.397  1.00  0.00     0.094 A 
ATOM     10  C   UNL     1       1.801   3.679 -24.730  1.00  0.00     0.146 A 
ATOM     11  O   UNL     1       1.865   3.232 -23.482  1.00  0.00    -0.452 OA
ENDROOT
BRANCH   1  12
ATOM     12  C   UNL     1       0.998   2.425 -21.381  1.00  0.00     0.021 A 
ATOM     13  C   UNL     1       1.127   3.361 -20.342  1.00  0.00     0.016 A 
ATOM     14  C   UNL     1       1.298   2.935 -19.021  1.00  0.00     0.047 A 
ATOM     15  C   UNL     1       1.328   1.567 -18.721  1.00  0.00     0.115 A 
ATOM     16  C   UNL     1       1.009   1.053 -21.069  1.00  0.00     0.016 A 
ATOM     17  C   UNL     1       1.180   0.629 -19.748  1.00  0.00     0.047 A 
BRANCH  15  18
ATOM     18  O   UNL     1       1.499   1.131 -17.410  1.00  0.00    -0.508 OA
ATOM     19  H   UNL     1       2.005   1.685 -16.729  1.00  0.00     0.293 HD
ENDBRANCH  15  18
ENDBRANCH   1  12
BRANCH   2  20
ATOM     20  O   UNL     1      -1.617   2.584 -22.630  1.00  0.00    -0.502 OA
ATOM     21  H   UNL     1      -1.560   1.946 -21.846  1.00  0.00     0.293 HD
ENDBRANCH   2  20
BRANCH   6  22
ATOM     22  O   UNL     1      -0.689   4.471 -27.387  1.00  0.00    -0.507 OA
ATOM     23  H   UNL     1      -1.235   3.677 -27.698  1.00  0.00     0.293 HD
ENDBRANCH   6  22
BRANCH   8  24
ATOM     24  O   UNL     1       4.124   4.815 -27.381  1.00  0.00    -0.508 OA
ATOM     25  H   UNL     1       4.821   4.115 -27.602  1.00  0.00     0.293 HD
ENDBRANCH   8  24
TORSDOF 5
ENDMDL
MODEL 5
REMARK VINA RESULT:    -6.463      4.534      6.971
REMARK INTER + INTRA:          -7.532
REMARK INTER:                  -7.281
REMARK INTRA:                  -0.251
REMARK UNBOUND:                 0.065
REMARK SMILES O=c1c(O)c(-c2ccc(O)cc2)oc2cc(O)cc(O)c12
REMARK SMILES IDX 5 1 3 2 2 3 1 4 21 5 19 6 18 7 16 8 15 9 14 10 13 11 6 12
REMARK SMILES IDX 7 13 8 14 9 15 12 16 11 17 10 18 4 20 20 22 17 24
REMARK H PARENT 10 19 4 21 20 23 17 25
REMARK Flexibility Score: inf
ROOT
ATOM      1  C   UNL     1      -1.185   1.317 -20.482  1.00  0.00     0.180 A 
ATOM      2  C   UNL     1      -1.145   1.835 -21.791  1.00  0.00     0.208 A 
ATOM      3  C   UNL     1      -2.248   1.634 -22.635  1.00  0.00     0.238 A 
ATOM      4  O   UNL     1      -2.219   2.084 -23.813  1.00  0.00    -0.285 OA
ATOM      5  C   UNL     1      -3.377   0.941 -22.152  1.00  0.00     0.111 A 
ATOM      6  C   UNL     1      -4.532   0.701 -22.937  1.00  0.00     0.134 A 
ATOM      7  C   UNL     1      -5.619   0.010 -22.380  1.00  0.00     0.093 A 
ATOM      8  C   UNL     1      -5.576  -0.442 -21.059  1.00  0.00     0.123 A 
ATOM      9  C   UNL     1      -4.437  -0.209 -20.280  1.00  0.00     0.094 A 
ATOM     10  C   UNL     1      -3.342   0.476 -20.817  1.00  0.00     0.146 A 
ATOM     11  O   UNL     1      -2.273   0.681 -20.057  1.00  0.00    -0.452 OA
ENDROOT
BRANCH   1  12
ATOM     12  C   UNL     1      -0.054   1.470 -19.540  1.00  0.00     0.021 A 
ATOM     13  C   UNL     1       0.844   0.404 -19.358  1.00  0.00     0.016 A 
ATOM     14  C   UNL     1       1.932   0.535 -18.490  1.00  0.00     0.047 A 
ATOM     15  C   UNL     1       2.146   1.738 -17.805  1.00  0.00     0.115 A 
ATOM     16  C   UNL     1       0.180   2.682 -18.864  1.00  0.00     0.016 A 
ATOM     17  C   UNL     1       1.270   2.810 -17.998  1.00  0.00     0.047 A 
BRANCH  15  18
ATOM     18  O   UNL     1       3.227   1.880 -16.939  1.00  0.00    -0.508 OA
ATOM     19  H   UNL     1       4.165   1.611 -17.214  1.00  0.00     0.293 HD
ENDBRANCH  15  18
ENDBRANCH   1  12
BRANCH   2  20
ATOM     20  O   UNL     1      -0.034   2.561 -22.229  1.00  0.00    -0.502 OA
ATOM     21  H   UNL     1       0.915   2.289 -22.004  1.00  0.00     0.293 HD
ENDBRANCH   2  20
BRANCH   6  22
ATOM     22  O   UNL     1      -4.607   1.140 -24.258  1.00  0.00    -0.507 OA
ATOM     23  H   UNL     1      -3.791   1.475 -24.756  1.00  0.00     0.293 HD
ENDBRANCH   6  22
BRANCH   8  24
ATOM     24  O   UNL     1      -6.669  -1.125 -20.530  1.00  0.00    -0.508 OA
ATOM     25  H   UNL     1      -7.194  -0.757 -19.745  1.00  0.00     0.293 HD
ENDBRANCH   8  24
TORSDOF 5
ENDMDL
MODEL 6
REMARK VINA RESULT:    -6.441      1.306      1.554
REMARK INTER + INTRA:          -7.506
REMARK INTER:                  -7.238
REMARK INTRA:                  -0.268
REMARK UNBOUND:                 0.065
REMARK SMILES O=c1c(O)c(-c2ccc(O)cc2)oc2cc(O)cc(O)c12
REMARK SMILES IDX 5 1 3 2 2 3 1 4 21 5 19 6 18 7 16 8 15 9 14 10 13 11 6 12
REMARK SMILES IDX 7 13 8 14 9 15 12 16 11 17 10 18 4 20 20 22 17 24
REMARK H PARENT 10 19 4 21 20 23 17 25
REMARK Flexibility Score: inf
ROOT
ATOM      1  C   UNL     1       1.737   3.767 -22.977  1.00  0.00     0.180 A 
ATOM      2  C   UNL     1       2.060   4.103 -21.648  1.00  0.00     0.208 A 
ATOM      3  C   UNL     1       1.427   3.416 -20.601  1.00  0.00     0.238 A 
ATOM      4  O   UNL     1       1.699   3.715 -19.407  1.00  0.00    -0.285 OA
ATOM      5  C   UNL     1       0.500   2.395 -20.899  1.00  0.00     0.111 A 
ATOM      6  C   UNL     1      -0.178   1.651 -19.902  1.00  0.00     0.134 A 
ATOM      7  C   UNL     1      -1.080   0.645 -20.280  1.00  0.00     0.093 A 
ATOM      8  C   UNL     1      -1.314   0.366 -21.628  1.00  0.00     0.123 A 
ATOM      9  C   UNL     1      -0.647   1.098 -22.617  1.00  0.00     0.094 A 
ATOM     10  C   UNL     1       0.253   2.107 -22.261  1.00  0.00     0.146 A 
ATOM     11  O   UNL     1       0.870   2.789 -23.219  1.00  0.00    -0.452 OA
ENDROOT
BRANCH   1  12
ATOM     12  C   UNL     1       2.349   4.460 -24.134  1.00  0.00     0.021 A 
ATOM     13  C   UNL     1       3.356   3.816 -24.872  1.00  0.00     0.016 A 
ATOM     14  C   UNL     1       3.932   4.442 -25.982  1.00  0.00     0.047 A 
ATOM     15  C   UNL     1       3.496   5.714 -26.377  1.00  0.00     0.115 A 
ATOM     16  C   UNL     1       1.902   5.728 -24.550  1.00  0.00     0.016 A 
ATOM     17  C   UNL     1       2.479   6.352 -25.661  1.00  0.00     0.047 A 
BRANCH  15  18
ATOM     18  O   UNL     1       4.061   6.347 -27.481  1.00  0.00    -0.508 OA
ATOM     19  H   UNL     1       3.489   6.698 -28.241  1.00  0.00     0.293 HD
ENDBRANCH  15  18
ENDBRANCH   1  12
BRANCH   2  20
ATOM     20  O   UNL     1       3.019   5.085 -21.380  1.00  0.00    -0.502 OA
ATOM     21  H   UNL     1       3.799   5.263 -21.999  1.00  0.00     0.293 HD
ENDBRANCH   2  20
BRANCH   6  22
ATOM     22  O   UNL     1       0.034   1.904 -18.547  1.00  0.00    -0.507 OA
ATOM     23  H   UNL     1      -0.232   2.783 -18.121  1.00  0.00     0.293 HD
ENDBRANCH   6  22
BRANCH   8  24
ATOM     24  O   UNL     1      -2.213  -0.640 -21.976  1.00  0.00    -0.508 OA
ATOM     25  H   UNL     1      -2.521  -0.768 -22.933  1.00  0.00     0.293 HD
ENDBRANCH   8  24
TORSDOF 5
ENDMDL
MODEL 7
REMARK VINA RESULT:    -6.394      4.667      7.497
REMARK INTER + INTRA:          -7.451
REMARK INTER:                  -7.221
REMARK INTRA:                  -0.229
REMARK UNBOUND:                 0.065
REMARK SMILES O=c1c(O)c(-c2ccc(O)cc2)oc2cc(O)cc(O)c12
REMARK SMILES IDX 5 1 3 2 2 3 1 4 21 5 19 6 18 7 16 8 15 9 14 10 13 11 6 12
REMARK SMILES IDX 7 13 8 14 9 15 12 16 11 17 10 18 4 20 20 22 17 24
REMARK H PARENT 10 19 4 21 20 23 17 25
REMARK Flexibility Score: inf
ROOT
ATOM      1  C   UNL     1      -1.333   0.961 -20.945  1.00  0.00     0.180 A 
ATOM      2  C   UNL     1      -2.241  -0.116 -20.941  1.00  0.00     0.208 A 
ATOM      3  C   UNL     1      -3.232  -0.171 -21.932  1.00  0.00     0.238 A 
ATOM      4  O   UNL     1      -4.058  -1.125 -21.932  1.00  0.00    -0.285 OA
ATOM      5  C   UNL     1      -3.286   0.834 -22.920  1.00  0.00     0.111 A 
ATOM      6  C   UNL     1      -4.251   0.849 -23.957  1.00  0.00     0.134 A 
ATOM      7  C   UNL     1      -4.234   1.880 -24.908  1.00  0.00     0.093 A 
ATOM      8  C   UNL     1      -3.273   2.892 -24.845  1.00  0.00     0.123 A 
ATOM      9  C   UNL     1      -2.319   2.883 -23.822  1.00  0.00     0.094 A 
ATOM     10  C   UNL     1      -2.320   1.866 -22.863  1.00  0.00     0.146 A 
ATOM     11  O   UNL     1      -1.405   1.883 -21.901  1.00  0.00    -0.452 OA
ENDROOT
BRANCH   1  12
ATOM     12  C   UNL     1      -0.272   1.100 -19.921  1.00  0.00     0.021 A 
ATOM     13  C   UNL     1       0.876   0.294 -20.001  1.00  0.00     0.016 A 
ATOM     14  C   UNL     1       1.900   0.424 -19.058  1.00  0.00     0.047 A 
ATOM     15  C   UNL     1       1.796   1.373 -18.033  1.00  0.00     0.115 A 
ATOM     16  C   UNL     1      -0.359   2.066 -18.901  1.00  0.00     0.016 A 
ATOM     17  C   UNL     1       0.667   2.194 -17.960  1.00  0.00     0.047 A 
BRANCH  15  18
ATOM     18  O   UNL     1       2.810   1.512 -17.088  1.00  0.00    -0.508 OA
ATOM     19  H   UNL     1       2.743   1.083 -16.172  1.00  0.00     0.293 HD
ENDBRANCH  15  18
ENDBRANCH   1  12
BRANCH   2  20
ATOM     20  O   UNL     1      -2.134  -1.125 -19.980  1.00  0.00    -0.502 OA
ATOM     21  H   UNL     1      -1.281  -1.651 -19.839  1.00  0.00     0.293 HD
ENDBRANCH   2  20
BRANCH   6  22
ATOM     22  O   UNL     1      -5.223  -0.148 -24.049  1.00  0.00    -0.507 OA
ATOM     23  H   UNL     1      -6.200   0.073 -24.194  1.00  0.00     0.293 HD
ENDBRANCH   6  22
BRANCH   8  24
ATOM     24  O   UNL     1      -3.277   3.904 -25.802  1.00  0.00    -0.508 OA
ATOM     25  H   UNL     1      -3.137   3.704 -26.785  1.00  0.00     0.293 HD
ENDBRANCH   8  24
TORSDOF 5
ENDMDL
MODEL 8
REMARK VINA RESULT:    -6.265      3.717      7.369
REMARK INTER + INTRA:          -7.299
REMARK INTER:                  -7.002
REMARK INTRA:                  -0.297
REMARK UNBOUND:                 0.065
REMARK SMILES O=c1c(O)c(-c2ccc(O)cc2)oc2cc(O)cc(O)c12
REMARK SMILES IDX 5 1 3 2 2 3 1 4 21 5 19 6 18 7 16 8 15 9 14 10 13 11 6 12
REMARK SMILES IDX 7 13 8 14 9 15 12 16 11 17 10 18 4 20 20 22 17 24
REMARK H PARENT 10 19 4 21 20 23 17 25
REMARK Flexibility Score: inf
ROOT
ATOM      1  C   UNL     1      -1.065   1.728 -21.587  1.00  0.00     0.180 A 
ATOM      2  C   UNL     1      -2.331   1.123 -21.705  1.00  0.00     0.208 A 
ATOM      3  C   UNL     1      -3.076   1.331 -22.876  1.00  0.00     0.238 A 
ATOM      4  O   UNL     1      -4.216   0.804 -22.989  1.00  0.00    -0.285 OA
ATOM      5  C   UNL     1      -2.537   2.119 -23.914  1.00  0.00     0.111 A 
ATOM      6  C   UNL     1      -3.221   2.374 -25.128  1.00  0.00     0.134 A 
ATOM      7  C   UNL     1      -2.613   3.162 -26.116  1.00  0.00     0.093 A 
ATOM      8  C   UNL     1      -1.338   3.697 -25.917  1.00  0.00     0.123 A 
ATOM      9  C   UNL     1      -0.658   3.450 -24.720  1.00  0.00     0.094 A 
ATOM     10  C   UNL     1      -1.248   2.669 -23.721  1.00  0.00     0.146 A 
ATOM     11  O   UNL     1      -0.582   2.453 -22.592  1.00  0.00    -0.452 OA
ENDROOT
BRANCH   1  12
ATOM     12  C   UNL     1      -0.228   1.572 -20.376  1.00  0.00     0.021 A 
ATOM     13  C   UNL     1       0.786   0.600 -20.357  1.00  0.00     0.016 A 
ATOM     14  C   UNL     1       1.603   0.450 -19.232  1.00  0.00     0.047 A 
ATOM     15  C   UNL     1       1.426   1.281 -18.118  1.00  0.00     0.115 A 
ATOM     16  C   UNL     1      -0.386   2.417 -19.261  1.00  0.00     0.016 A 
ATOM     17  C   UNL     1       0.433   2.265 -18.138  1.00  0.00     0.047 A 
BRANCH  15  18
ATOM     18  O   UNL     1       2.234   1.141 -16.992  1.00  0.00    -0.508 OA
ATOM     19  H   UNL     1       1.878   0.740 -16.132  1.00  0.00     0.293 HD
ENDBRANCH  15  18
ENDBRANCH   1  12
BRANCH   2  20
ATOM     20  O   UNL     1      -2.822   0.306 -20.683  1.00  0.00    -0.502 OA
ATOM     21  H   UNL     1      -2.307  -0.493 -20.334  1.00  0.00     0.293 HD
ENDBRANCH   2  20
BRANCH   6  22
ATOM     22  O   UNL     1      -4.494   1.854 -25.358  1.00  0.00    -0.507 OA
ATOM     23  H   UNL     1      -5.288   2.452 -25.550  1.00  0.00     0.293 HD
ENDBRANCH   6  22
BRANCH   8  24
ATOM     24  O   UNL     1      -0.756   4.476 -26.916  1.00  0.00    -0.508 OA
ATOM     25  H   UNL     1      -1.171   4.554 -27.837  1.00  0.00     0.293 HD
ENDBRANCH   8  24
TORSDOF 5
ENDMDL
MODEL 9
REMARK VINA RESULT:    -6.195      3.195      6.543
REMARK INTER + INTRA:          -7.216
REMARK INTER:                  -7.075
REMARK INTRA:                  -0.142
REMARK UNBOUND:                 0.065
REMARK SMILES O=c1c(O)c(-c2ccc(O)cc2)oc2cc(O)cc(O)c12
REMARK SMILES IDX 5 1 3 2 2 3 1 4 21 5 19 6 18 7 16 8 15 9 14 10 13 11 6 12
REMARK SMILES IDX 7 13 8 14 9 15 12 16 11 17 10 18 4 20 20 22 17 24
REMARK H PARENT 10 19 4 21 20 23 17 25
REMARK Flexibility Score: inf
ROOT
ATOM      1  C   UNL     1       0.700   2.937 -22.299  1.00  0.00     0.180 A 
ATOM      2  C   UNL     1       1.612   3.712 -23.042  1.00  0.00     0.208 A 
ATOM      3  C   UNL     1       1.258   4.120 -24.337  1.00  0.00     0.238 A 
ATOM      4  O   UNL     1       2.071   4.805 -25.016  1.00  0.00    -0.285 OA
ATOM      5  C   UNL     1      -0.005   3.768 -24.858  1.00  0.00     0.111 A 
ATOM      6  C   UNL     1      -0.440   4.144 -26.152  1.00  0.00     0.134 A 
ATOM      7  C   UNL     1      -1.715   3.761 -26.595  1.00  0.00     0.093 A 
ATOM      8  C   UNL     1      -2.561   3.015 -25.772  1.00  0.00     0.123 A 
ATOM      9  C   UNL     1      -2.136   2.639 -24.493  1.00  0.00     0.094 A 
ATOM     10  C   UNL     1      -0.868   3.009 -24.034  1.00  0.00     0.146 A 
ATOM     11  O   UNL     1      -0.487   2.636 -22.818  1.00  0.00    -0.452 OA
ENDROOT
BRANCH   1  12
ATOM     12  C   UNL     1       1.008   2.452 -20.935  1.00  0.00     0.021 A 
ATOM     13  C   UNL     1       1.123   3.375 -19.882  1.00  0.00     0.016 A 
ATOM     14  C   UNL     1       1.392   2.937 -18.582  1.00  0.00     0.047 A 
ATOM     15  C   UNL     1       1.533   1.569 -18.315  1.00  0.00     0.115 A 
ATOM     16  C   UNL     1       1.131   1.078 -20.655  1.00  0.00     0.016 A 
ATOM     17  C   UNL     1       1.399   0.643 -19.354  1.00  0.00     0.047 A 
BRANCH  15  18
ATOM     18  O   UNL     1       1.801   1.121 -17.024  1.00  0.00    -0.508 OA
ATOM     19  H   UNL     1       1.087   0.672 -16.461  1.00  0.00     0.293 HD
ENDBRANCH  15  18
ENDBRANCH   1  12
BRANCH   2  20
ATOM     20  O   UNL     1       2.836   4.089 -22.484  1.00  0.00    -0.502 OA
ATOM     21  H   UNL     1       3.015   4.045 -21.489  1.00  0.00     0.293 HD
ENDBRANCH   2  20
BRANCH   6  22
ATOM     22  O   UNL     1       0.380   4.891 -26.998  1.00  0.00    -0.507 OA
ATOM     23  H   UNL     1       1.379   4.960 -26.847  1.00  0.00     0.293 HD
ENDBRANCH   6  22
BRANCH   8  24
ATOM     24  O   UNL     1      -3.823   2.648 -26.236  1.00  0.00    -0.508 OA
ATOM     25  H   UNL     1      -4.614   3.278 -26.173  1.00  0.00     0.293 HD
ENDBRANCH   8  24
TORSDOF 5
ENDMDL
