MODEL 1
REMARK VINA RESULT:     4.854      0.000      0.000
REMARK INTER + INTRA:           6.450
REMARK INTER:                   5.848
REMARK INTRA:                   0.602
REMARK UNBOUND:                 0.602
REMARK SMILES O=c1c(O)c(-c2ccc(O)cc2O)oc2cc(O)cc(O)c12
REMARK SMILES IDX 5 1 3 2 2 3 1 4 22 5 20 6 19 7 17 8 16 9 15 10 14 11 6 12
REMARK SMILES IDX 8 13 7 14 9 15 11 16 12 17 10 18 13 20 4 22 21 24 18 26
REMARK H PARENT 10 19 13 21 4 23 21 25 18 27
REMARK Flexibility Score: inf
ROOT
ATOM      1  C   UNL     1       0.053  28.056  32.611  1.00  0.00     0.184 A 
ATOM      2  C   UNL     1       0.167  26.657  32.658  1.00  0.00     0.208 A 
ATOM      3  C   UNL     1       0.158  25.932  31.455  1.00  0.00     0.238 A 
ATOM      4  O   UNL     1       0.317  24.684  31.500  1.00  0.00    -0.285 OA
ATOM      5  C   UNL     1       0.014  26.615  30.222  1.00  0.00     0.111 A 
ATOM      6  C   UNL     1      -0.049  25.978  28.946  1.00  0.00     0.134 A 
ATOM      7  C   UNL     1      -0.063  26.760  27.785  1.00  0.00     0.093 A 
ATOM      8  C   UNL     1      -0.082  28.155  27.856  1.00  0.00     0.123 A 
ATOM      9  C   UNL     1      -0.081  28.784  29.098  1.00  0.00     0.094 A 
ATOM     10  C   UNL     1      -0.030  28.032  30.274  1.00  0.00     0.146 A 
ATOM     11  O   UNL     1      -0.019  28.673  31.436  1.00  0.00    -0.451 OA
ENDROOT
BRANCH   1  12
ATOM     12  C   UNL     1       0.031  28.880  33.841  1.00  0.00     0.063 A 
ATOM     13  C   UNL     1       0.012  29.044  36.270  1.00  0.00     0.047 A 
ATOM     14  C   UNL     1       0.060  28.269  35.108  1.00  0.00     0.020 A 
ATOM     15  C   UNL     1      -0.075  30.437  36.183  1.00  0.00     0.119 A 
ATOM     16  C   UNL     1      -0.118  31.053  34.930  1.00  0.00     0.093 A 
ATOM     17  C   UNL     1      -0.068  30.284  33.758  1.00  0.00     0.130 A 
BRANCH  15  18
ATOM     18  O   UNL     1      -0.124  31.219  37.336  1.00  0.00    -0.508 OA
ATOM     19  H   UNL     1      -1.000  31.422  37.801  1.00  0.00     0.293 HD
ENDBRANCH  15  18
BRANCH  17  20
ATOM     20  O   UNL     1      -0.105  30.913  32.513  1.00  0.00    -0.507 OA
ATOM     21  H   UNL     1      -0.040  31.920  32.424  1.00  0.00     0.293 HD
ENDBRANCH  17  20
ENDBRANCH   1  12
BRANCH   2  22
ATOM     22  O   UNL     1       0.321  26.007  33.885  1.00  0.00    -0.502 OA
ATOM     23  H   UNL     1      -0.437  25.919  34.553  1.00  0.00     0.293 HD
ENDBRANCH   2  22
BRANCH   6  24
ATOM     24  O   UNL     1      -0.125  24.593  28.767  1.00  0.00    -0.507 OA
ATOM     25  H   UNL     1       0.302  23.912  29.375  1.00  0.00     0.293 HD
ENDBRANCH   6  24
BRANCH   8  26
ATOM     26  O   UNL     1      -0.113  28.926  26.696  1.00  0.00    -0.508 OA
ATOM     27  H   UNL     1      -0.830  29.626  26.543  1.00  0.00     0.293 HD
ENDBRANCH   8  26
TORSDOF 6
ENDMDL
