MODEL 1
REMARK VINA RESULT:    -5.261      0.000      0.000
REMARK INTER + INTRA:          -5.415
REMARK INTER:                  -5.415
REMARK INTRA:                   0.000
REMARK UNBOUND:                 0.000
REMARK SMILES Cc1cccc(O)c1C
REMARK SMILES IDX 1 1 2 2 8 3 6 4 5 5 4 6 3 7 9 8 7 9
REMARK H PARENT 7 10
REMARK Flexibility Score: inf
ROOT
ATOM      1  C   UNL     1      13.181  21.500  17.695  1.00  0.00     0.045 C 
ATOM      2  C   UNL     1      11.755  21.341  18.154  1.00  0.00    -0.045 A 
ATOM      3  C   UNL     1      10.788  20.636  17.385  1.00  0.00    -0.006 A 
ATOM      4  C   UNL     1       9.463  20.526  17.879  1.00  0.00     0.118 A 
ATOM      5  C   UNL     1       9.122  21.107  19.104  1.00  0.00     0.046 A 
ATOM      6  C   UNL     1      10.073  21.796  19.851  1.00  0.00     0.004 A 
ATOM      7  C   UNL     1      11.379  21.914  19.382  1.00  0.00     0.004 A 
ATOM      8  C   UNL     1      11.135  20.001  16.058  1.00  0.00     0.048 C 
ENDROOT
BRANCH   4   9
ATOM      9  O   UNL     1       8.461  19.849  17.179  1.00  0.00    -0.508 OA
ATOM     10  H   UNL     1       8.602  19.428  16.269  1.00  0.00     0.293 HD
ENDBRANCH   4   9
TORSDOF 1
ENDMDL
MODEL 2
REMARK VINA RESULT:    -5.239      1.435      2.931
REMARK INTER + INTRA:          -5.392
REMARK INTER:                  -5.392
REMARK INTRA:                   0.000
REMARK UNBOUND:                 0.000
REMARK SMILES Cc1cccc(O)c1C
REMARK SMILES IDX 1 1 2 2 8 3 6 4 5 5 4 6 3 7 9 8 7 9
REMARK H PARENT 7 10
REMARK Flexibility Score: inf
ROOT
ATOM      1  C   UNL     1      10.183  21.252  19.650  1.00  0.00     0.045 C 
ATOM      2  C   UNL     1      11.063  21.147  18.431  1.00  0.00    -0.045 A 
ATOM      3  C   UNL     1      10.688  20.379  17.293  1.00  0.00    -0.006 A 
ATOM      4  C   UNL     1      11.566  20.324  16.180  1.00  0.00     0.118 A 
ATOM      5  C   UNL     1      12.779  21.017  16.211  1.00  0.00     0.046 A 
ATOM      6  C   UNL     1      13.140  21.766  17.327  1.00  0.00     0.004 A 
ATOM      7  C   UNL     1      12.291  21.831  18.430  1.00  0.00     0.004 A 
ATOM      8  C   UNL     1       9.381  19.622  17.239  1.00  0.00     0.048 C 
ENDROOT
BRANCH   4   9
ATOM      9  O   UNL     1      11.264  19.591  15.029  1.00  0.00    -0.508 OA
ATOM     10  H   UNL     1      10.624  19.913  14.314  1.00  0.00     0.293 HD
ENDBRANCH   4   9
TORSDOF 1
ENDMDL
MODEL 3
REMARK VINA RESULT:    -5.112      9.303     10.563
REMARK INTER + INTRA:          -5.262
REMARK INTER:                  -5.262
REMARK INTRA:                   0.000
REMARK UNBOUND:                 0.000
REMARK SMILES Cc1cccc(O)c1C
REMARK SMILES IDX 1 1 2 2 8 3 6 4 5 5 4 6 3 7 9 8 7 9
REMARK H PARENT 7 10
REMARK Flexibility Score: inf
ROOT
ATOM      1  C   UNL     1       7.705  25.156   6.903  1.00  0.00     0.045 C 
ATOM      2  C   UNL     1       8.281  23.978   7.645  1.00  0.00    -0.045 A 
ATOM      3  C   UNL     1       7.464  23.077   8.384  1.00  0.00    -0.006 A 
ATOM      4  C   UNL     1       8.075  21.990   9.059  1.00  0.00     0.118 A 
ATOM      5  C   UNL     1       9.460  21.815   8.995  1.00  0.00     0.046 A 
ATOM      6  C   UNL     1      10.253  22.700   8.271  1.00  0.00     0.004 A 
ATOM      7  C   UNL     1       9.671  23.774   7.601  1.00  0.00     0.004 A 
ATOM      8  C   UNL     1       5.964  23.248   8.466  1.00  0.00     0.048 C 
ENDROOT
BRANCH   4   9
ATOM      9  O   UNL     1       7.336  21.066   9.802  1.00  0.00    -0.508 OA
ATOM     10  H   UNL     1       6.326  21.077   9.863  1.00  0.00     0.293 HD
ENDBRANCH   4   9
TORSDOF 1
ENDMDL
MODEL 4
REMARK VINA RESULT:    -5.014      1.831      2.878
REMARK INTER + INTRA:          -5.161
REMARK INTER:                  -5.161
REMARK INTRA:                   0.000
REMARK UNBOUND:                 0.000
REMARK SMILES Cc1cccc(O)c1C
REMARK SMILES IDX 1 1 2 2 8 3 6 4 5 5 4 6 3 7 9 8 7 9
REMARK H PARENT 7 10
REMARK Flexibility Score: inf
ROOT
ATOM      1  C   UNL     1       8.874  19.442  17.044  1.00  0.00     0.045 C 
ATOM      2  C   UNL     1       9.819  20.330  17.810  1.00  0.00    -0.045 A 
ATOM      3  C   UNL     1      11.123  20.638  17.329  1.00  0.00    -0.006 A 
ATOM      4  C   UNL     1      11.960  21.482  18.102  1.00  0.00     0.118 A 
ATOM      5  C   UNL     1      11.504  21.997  19.319  1.00  0.00     0.046 A 
ATOM      6  C   UNL     1      10.228  21.691  19.784  1.00  0.00     0.004 A 
ATOM      7  C   UNL     1       9.392  20.864  19.038  1.00  0.00     0.004 A 
ATOM      8  C   UNL     1      11.637  20.092  16.016  1.00  0.00     0.048 C 
ENDROOT
BRANCH   4   9
ATOM      9  O   UNL     1      13.251  21.828  17.693  1.00  0.00    -0.508 OA
ATOM     10  H   UNL     1      13.726  21.388  16.915  1.00  0.00     0.293 HD
ENDBRANCH   4   9
TORSDOF 1
ENDMDL
MODEL 5
REMARK VINA RESULT:    -5.003      9.222     10.618
REMARK INTER + INTRA:          -5.149
REMARK INTER:                  -5.149
REMARK INTRA:                   0.000
REMARK UNBOUND:                 0.000
REMARK SMILES Cc1cccc(O)c1C
REMARK SMILES IDX 1 1 2 2 8 3 6 4 5 5 4 6 3 7 9 8 7 9
REMARK H PARENT 7 10
REMARK Flexibility Score: inf
ROOT
ATOM      1  C   UNL     1      10.685  22.886   7.824  1.00  0.00     0.045 C 
ATOM      2  C   UNL     1       9.268  23.391   7.893  1.00  0.00    -0.045 A 
ATOM      3  C   UNL     1       8.259  22.714   8.635  1.00  0.00    -0.006 A 
ATOM      4  C   UNL     1       6.945  23.247   8.656  1.00  0.00     0.118 A 
ATOM      5  C   UNL     1       6.654  24.419   7.954  1.00  0.00     0.046 A 
ATOM      6  C   UNL     1       7.644  25.077   7.230  1.00  0.00     0.004 A 
ATOM      7  C   UNL     1       8.941  24.568   7.197  1.00  0.00     0.004 A 
ATOM      8  C   UNL     1       8.553  21.444   9.402  1.00  0.00     0.048 C 
ENDROOT
BRANCH   4   9
ATOM      9  O   UNL     1       5.906  22.636   9.362  1.00  0.00    -0.508 OA
ATOM     10  H   UNL     1       5.831  22.653  10.372  1.00  0.00     0.293 HD
ENDBRANCH   4   9
TORSDOF 1
ENDMDL
MODEL 6
REMARK VINA RESULT:    -4.908      9.200     10.242
REMARK INTER + INTRA:          -5.052
REMARK INTER:                  -5.052
REMARK INTRA:                   0.000
REMARK UNBOUND:                 0.000
REMARK SMILES Cc1cccc(O)c1C
REMARK SMILES IDX 1 1 2 2 8 3 6 4 5 5 4 6 3 7 9 8 7 9
REMARK H PARENT 7 10
REMARK Flexibility Score: inf
ROOT
ATOM      1  C   UNL     1       8.491  24.875   6.926  1.00  0.00     0.045 C 
ATOM      2  C   UNL     1       8.138  23.753   7.866  1.00  0.00    -0.045 A 
ATOM      3  C   UNL     1       9.098  22.791   8.289  1.00  0.00    -0.006 A 
ATOM      4  C   UNL     1       8.695  21.761   9.177  1.00  0.00     0.118 A 
ATOM      5  C   UNL     1       7.372  21.698   9.623  1.00  0.00     0.046 A 
ATOM      6  C   UNL     1       6.438  22.641   9.205  1.00  0.00     0.004 A 
ATOM      7  C   UNL     1       6.815  23.661   8.334  1.00  0.00     0.004 A 
ATOM      8  C   UNL     1      10.534  22.840   7.819  1.00  0.00     0.048 C 
ENDROOT
BRANCH   4   9
ATOM      9  O   UNL     1       9.582  20.782   9.633  1.00  0.00    -0.508 OA
ATOM     10  H   UNL     1      10.492  20.993  10.024  1.00  0.00     0.293 HD
ENDBRANCH   4   9
TORSDOF 1
ENDMDL
MODEL 7
REMARK VINA RESULT:    -4.890      2.863      3.794
REMARK INTER + INTRA:          -5.033
REMARK INTER:                  -5.033
REMARK INTRA:                   0.000
REMARK UNBOUND:                 0.000
REMARK SMILES Cc1cccc(O)c1C
REMARK SMILES IDX 1 1 2 2 8 3 6 4 5 5 4 6 3 7 9 8 7 9
REMARK H PARENT 7 10
REMARK Flexibility Score: inf
ROOT
ATOM      1  C   UNL     1      15.142  18.817  18.212  1.00  0.00     0.045 C 
ATOM      2  C   UNL     1      14.075  19.506  17.402  1.00  0.00    -0.045 A 
ATOM      3  C   UNL     1      13.723  19.073  16.093  1.00  0.00    -0.006 A 
ATOM      4  C   UNL     1      12.708  19.769  15.387  1.00  0.00     0.118 A 
ATOM      5  C   UNL     1      12.069  20.863  15.977  1.00  0.00     0.046 A 
ATOM      6  C   UNL     1      12.418  21.281  17.258  1.00  0.00     0.004 A 
ATOM      7  C   UNL     1      13.413  20.610  17.966  1.00  0.00     0.004 A 
ATOM      8  C   UNL     1      14.401  17.892  15.436  1.00  0.00     0.048 C 
ENDROOT
BRANCH   4   9
ATOM      9  O   UNL     1      12.311  19.400  14.099  1.00  0.00    -0.508 OA
ATOM     10  H   UNL     1      11.507  19.796  13.628  1.00  0.00     0.293 HD
ENDBRANCH   4   9
TORSDOF 1
ENDMDL
MODEL 8
REMARK VINA RESULT:    -4.884      9.474     10.454
REMARK INTER + INTRA:          -5.027
REMARK INTER:                  -5.027
REMARK INTRA:                   0.000
REMARK UNBOUND:                 0.000
REMARK SMILES Cc1cccc(O)c1C
REMARK SMILES IDX 1 1 2 2 8 3 6 4 5 5 4 6 3 7 9 8 7 9
REMARK H PARENT 7 10
REMARK Flexibility Score: inf
ROOT
ATOM      1  C   UNL     1      10.648  22.927   7.874  1.00  0.00     0.045 C 
ATOM      2  C   UNL     1       9.208  22.853   8.311  1.00  0.00    -0.045 A 
ATOM      3  C   UNL     1       8.227  23.771   7.841  1.00  0.00    -0.006 A 
ATOM      4  C   UNL     1       6.890  23.642   8.295  1.00  0.00     0.118 A 
ATOM      5  C   UNL     1       6.550  22.625   9.191  1.00  0.00     0.046 A 
ATOM      6  C   UNL     1       7.514  21.731   9.647  1.00  0.00     0.004 A 
ATOM      7  C   UNL     1       8.833  21.842   9.213  1.00  0.00     0.004 A 
ATOM      8  C   UNL     1       8.574  24.878   6.871  1.00  0.00     0.048 C 
ENDROOT
BRANCH   4   9
ATOM      9  O   UNL     1       5.875  24.506   7.876  1.00  0.00    -0.508 OA
ATOM     10  H   UNL     1       5.832  25.484   8.135  1.00  0.00     0.293 HD
ENDBRANCH   4   9
TORSDOF 1
ENDMDL
MODEL 9
REMARK VINA RESULT:    -4.840      3.119      4.181
REMARK INTER + INTRA:          -4.982
REMARK INTER:                  -4.982
REMARK INTRA:                   0.000
REMARK UNBOUND:                 0.000
REMARK SMILES Cc1cccc(O)c1C
REMARK SMILES IDX 1 1 2 2 8 3 6 4 5 5 4 6 3 7 9 8 7 9
REMARK H PARENT 7 10
REMARK Flexibility Score: inf
ROOT
ATOM      1  C   UNL     1      11.146  20.490  19.406  1.00  0.00     0.045 C 
ATOM      2  C   UNL     1      12.337  19.789  18.806  1.00  0.00    -0.045 A 
ATOM      3  C   UNL     1      12.753  20.019  17.464  1.00  0.00    -0.006 A 
ATOM      4  C   UNL     1      13.884  19.325  16.965  1.00  0.00     0.118 A 
ATOM      5  C   UNL     1      14.574  18.428  17.786  1.00  0.00     0.046 A 
ATOM      6  C   UNL     1      14.162  18.208  19.097  1.00  0.00     0.004 A 
ATOM      7  C   UNL     1      13.053  18.881  19.605  1.00  0.00     0.004 A 
ATOM      8  C   UNL     1      12.021  20.984  16.559  1.00  0.00     0.048 C 
ENDROOT
BRANCH   4   9
ATOM      9  O   UNL     1      14.349  19.500  15.659  1.00  0.00    -0.508 OA
ATOM     10  H   UNL     1      15.331  19.517  15.414  1.00  0.00     0.293 HD
ENDBRANCH   4   9
TORSDOF 1
ENDMDL
