MODEL 1
REMARK VINA RESULT:    -4.271      0.000      0.000
REMARK INTER + INTRA:          -5.051
REMARK INTER:                  -5.020
REMARK INTRA:                  -0.031
REMARK UNBOUND:                -0.031
REMARK SMILES CCCCC(=O)[O-]
REMARK SMILES IDX 4 1 5 2 6 3 7 4 3 5 2 6 1 7
REMARK H PARENT
REMARK Flexibility Score: inf
ROOT
ATOM      1  C   UNL     1    -142.496 103.446  34.510  1.00  0.00     0.053 C 
ENDROOT
BRANCH   1   2
ATOM      2  C   UNL     1    -143.266 102.543  33.596  1.00  0.00     0.041 C 
ATOM      3  O   UNL     1    -143.267 102.748  32.353  1.00  0.00    -0.550 OA
ATOM      4  O   UNL     1    -144.007 101.492  34.121  1.00  0.00    -0.550 OA
ENDBRANCH   1   2
BRANCH   1   5
ATOM      5  C   UNL     1    -142.466 104.889  33.988  1.00  0.00     0.006 C 
BRANCH   5   6
ATOM      6  C   UNL     1    -141.871 105.865  35.013  1.00  0.00    -0.003 C 
ATOM      7  C   UNL     1    -142.438 105.613  36.407  1.00  0.00     0.004 C 
ENDBRANCH   5   6
ENDBRANCH   1   5
TORSDOF 3
ENDMDL
MODEL 2
REMARK VINA RESULT:    -4.219      0.573      1.209
REMARK INTER + INTRA:          -4.990
REMARK INTER:                  -4.958
REMARK INTRA:                  -0.033
REMARK UNBOUND:                -0.031
REMARK SMILES CCCCC(=O)[O-]
REMARK SMILES IDX 4 1 5 2 6 3 7 4 3 5 2 6 1 7
REMARK H PARENT
REMARK Flexibility Score: inf
ROOT
ATOM      1  C   UNL     1    -142.746 103.550  34.704  1.00  0.00     0.053 C 
ENDROOT
BRANCH   1   2
ATOM      2  C   UNL     1    -142.944 102.450  33.706  1.00  0.00     0.041 C 
ATOM      3  O   UNL     1    -142.622 101.267  33.994  1.00  0.00    -0.550 OA
ATOM      4  O   UNL     1    -143.455 102.737  32.448  1.00  0.00    -0.550 OA
ENDBRANCH   1   2
BRANCH   1   5
ATOM      5  C   UNL     1    -142.386 104.876  34.022  1.00  0.00     0.006 C 
BRANCH   5   6
ATOM      6  C   UNL     1    -141.963 105.953  35.031  1.00  0.00    -0.003 C 
ATOM      7  C   UNL     1    -142.368 105.566  36.451  1.00  0.00     0.004 C 
ENDBRANCH   5   6
ENDBRANCH   1   5
TORSDOF 3
ENDMDL
MODEL 3
REMARK VINA RESULT:    -3.761     19.708     20.781
REMARK INTER + INTRA:          -4.451
REMARK INTER:                  -4.409
REMARK INTRA:                  -0.043
REMARK UNBOUND:                -0.031
REMARK SMILES CCCCC(=O)[O-]
REMARK SMILES IDX 4 1 5 2 6 3 7 4 3 5 2 6 1 7
REMARK H PARENT
REMARK Flexibility Score: inf
ROOT
ATOM      1  C   UNL     1    -129.740 116.079  43.666  1.00  0.00     0.053 C 
ENDROOT
BRANCH   1   2
ATOM      2  C   UNL     1    -129.711 114.713  44.279  1.00  0.00     0.041 C 
ATOM      3  O   UNL     1    -130.176 114.526  45.435  1.00  0.00    -0.550 OA
ATOM      4  O   UNL     1    -129.141 113.653  43.587  1.00  0.00    -0.550 OA
ENDBRANCH   1   2
BRANCH   1   5
ATOM      5  C   UNL     1    -129.782 117.180  44.734  1.00  0.00     0.006 C 
BRANCH   5   6
ATOM      6  C   UNL     1    -129.036 118.447  44.293  1.00  0.00    -0.003 C 
ATOM      7  C   UNL     1    -128.625 118.361  42.826  1.00  0.00     0.004 C 
ENDBRANCH   5   6
ENDBRANCH   1   5
TORSDOF 3
ENDMDL
MODEL 4
REMARK VINA RESULT:    -3.745     19.154     20.190
REMARK INTER + INTRA:          -4.433
REMARK INTER:                  -4.415
REMARK INTRA:                  -0.018
REMARK UNBOUND:                -0.031
REMARK SMILES CCCCC(=O)[O-]
REMARK SMILES IDX 4 1 5 2 6 3 7 4 3 5 2 6 1 7
REMARK H PARENT
REMARK Flexibility Score: inf
ROOT
ATOM      1  C   UNL     1    -129.701 115.180  44.397  1.00  0.00     0.053 C 
ENDROOT
BRANCH   1   2
ATOM      2  C   UNL     1    -129.647 114.006  43.468  1.00  0.00     0.041 C 
ATOM      3  O   UNL     1    -130.338 113.998  42.415  1.00  0.00    -0.550 OA
ATOM      4  O   UNL     1    -128.858 112.908  43.781  1.00  0.00    -0.550 OA
ENDBRANCH   1   2
BRANCH   1   5
ATOM      5  C   UNL     1    -129.745 116.508  43.631  1.00  0.00     0.006 C 
BRANCH   5   6
ATOM      6  C   UNL     1    -129.442 117.712  44.536  1.00  0.00    -0.003 C 
ATOM      7  C   UNL     1    -128.712 118.809  43.766  1.00  0.00     0.004 C 
ENDBRANCH   5   6
ENDBRANCH   1   5
TORSDOF 3
ENDMDL
MODEL 5
REMARK VINA RESULT:    -3.744     19.357     20.470
REMARK INTER + INTRA:          -4.432
REMARK INTER:                  -4.389
REMARK INTRA:                  -0.043
REMARK UNBOUND:                -0.031
REMARK SMILES CCCCC(=O)[O-]
REMARK SMILES IDX 4 1 5 2 6 3 7 4 3 5 2 6 1 7
REMARK H PARENT
REMARK Flexibility Score: inf
ROOT
ATOM      1  C   UNL     1    -129.728 115.631  44.751  1.00  0.00     0.053 C 
ENDROOT
BRANCH   1   2
ATOM      2  C   UNL     1    -129.709 115.148  43.333  1.00  0.00     0.041 C 
ATOM      3  O   UNL     1    -129.335 115.915  42.407  1.00  0.00    -0.550 OA
ATOM      4  O   UNL     1    -130.133 113.861  43.032  1.00  0.00    -0.550 OA
ENDBRANCH   1   2
BRANCH   1   5
ATOM      5  C   UNL     1    -129.734 117.163  44.829  1.00  0.00     0.006 C 
BRANCH   5   6
ATOM      6  C   UNL     1    -130.503 117.681  46.053  1.00  0.00    -0.003 C 
ATOM      7  C   UNL     1    -130.884 116.536  46.988  1.00  0.00     0.004 C 
ENDBRANCH   5   6
ENDBRANCH   1   5
TORSDOF 3
ENDMDL
MODEL 6
REMARK VINA RESULT:    -3.715      2.755      4.003
REMARK INTER + INTRA:          -4.397
REMARK INTER:                  -4.376
REMARK INTRA:                  -0.020
REMARK UNBOUND:                -0.031
REMARK SMILES CCCCC(=O)[O-]
REMARK SMILES IDX 4 1 5 2 6 3 7 4 3 5 2 6 1 7
REMARK H PARENT
REMARK Flexibility Score: inf
ROOT
ATOM      1  C   UNL     1    -142.113 104.485  34.483  1.00  0.00     0.053 C 
ENDROOT
BRANCH   1   2
ATOM      2  C   UNL     1    -142.139 105.551  35.535  1.00  0.00     0.041 C 
ATOM      3  O   UNL     1    -141.793 106.729  35.253  1.00  0.00    -0.550 OA
ATOM      4  O   UNL     1    -142.514 105.236  36.834  1.00  0.00    -0.550 OA
ENDBRANCH   1   2
BRANCH   1   5
ATOM      5  C   UNL     1    -143.003 103.293  34.861  1.00  0.00     0.006 C 
BRANCH   5   6
ATOM      6  C   UNL     1    -142.757 102.075  33.959  1.00  0.00    -0.003 C 
ATOM      7  C   UNL     1    -143.515 102.205  32.640  1.00  0.00     0.004 C 
ENDBRANCH   5   6
ENDBRANCH   1   5
TORSDOF 3
ENDMDL
MODEL 7
REMARK VINA RESULT:    -3.572     19.663     20.786
REMARK INTER + INTRA:          -4.229
REMARK INTER:                  -4.200
REMARK INTRA:                  -0.029
REMARK UNBOUND:                -0.031
REMARK SMILES CCCCC(=O)[O-]
REMARK SMILES IDX 4 1 5 2 6 3 7 4 3 5 2 6 1 7
REMARK H PARENT
REMARK Flexibility Score: inf
ROOT
ATOM      1  C   UNL     1    -129.735 116.084  43.844  1.00  0.00     0.053 C 
ENDROOT
BRANCH   1   2
ATOM      2  C   UNL     1    -129.725 117.301  44.717  1.00  0.00     0.041 C 
ATOM      3  O   UNL     1    -129.113 118.340  44.351  1.00  0.00    -0.550 OA
ATOM      4  O   UNL     1    -130.364 117.278  45.949  1.00  0.00    -0.550 OA
ENDBRANCH   1   2
BRANCH   1   5
ATOM      5  C   UNL     1    -129.487 114.804  44.652  1.00  0.00     0.006 C 
BRANCH   5   6
ATOM      6  C   UNL     1    -129.338 113.568  43.753  1.00  0.00    -0.003 C 
ATOM      7  C   UNL     1    -130.134 113.729  42.461  1.00  0.00     0.004 C 
ENDBRANCH   5   6
ENDBRANCH   1   5
TORSDOF 3
ENDMDL
MODEL 8
REMARK VINA RESULT:    -3.570      2.260      3.845
REMARK INTER + INTRA:          -4.227
REMARK INTER:                  -4.185
REMARK INTRA:                  -0.041
REMARK UNBOUND:                -0.031
REMARK SMILES CCCCC(=O)[O-]
REMARK SMILES IDX 4 1 5 2 6 3 7 4 3 5 2 6 1 7
REMARK H PARENT
REMARK Flexibility Score: inf
ROOT
ATOM      1  C   UNL     1    -142.788 102.702  33.818  1.00  0.00     0.053 C 
ENDROOT
BRANCH   1   2
ATOM      2  C   UNL     1    -142.625 104.154  34.148  1.00  0.00     0.041 C 
ATOM      3  O   UNL     1    -142.484 105.002  33.228  1.00  0.00    -0.550 OA
ATOM      4  O   UNL     1    -142.597 104.566  35.474  1.00  0.00    -0.550 OA
ENDBRANCH   1   2
BRANCH   1   5
ATOM      5  C   UNL     1    -143.639 101.974  34.866  1.00  0.00     0.006 C 
BRANCH   5   6
ATOM      6  C   UNL     1    -143.435 100.452  34.826  1.00  0.00    -0.003 C 
ATOM      7  C   UNL     1    -142.274 100.077  33.909  1.00  0.00     0.004 C 
ENDBRANCH   5   6
ENDBRANCH   1   5
TORSDOF 3
ENDMDL
MODEL 9
REMARK VINA RESULT:    -3.543     13.703     14.357
REMARK INTER + INTRA:          -4.196
REMARK INTER:                  -4.165
REMARK INTRA:                  -0.030
REMARK UNBOUND:                -0.031
REMARK SMILES CCCCC(=O)[O-]
REMARK SMILES IDX 4 1 5 2 6 3 7 4 3 5 2 6 1 7
REMARK H PARENT
REMARK Flexibility Score: inf
ROOT
ATOM      1  C   UNL     1    -129.815 106.388  38.898  1.00  0.00     0.053 C 
ENDROOT
BRANCH   1   2
ATOM      2  C   UNL     1    -129.359 105.715  40.156  1.00  0.00     0.041 C 
ATOM      3  O   UNL     1    -129.346 104.458  40.234  1.00  0.00    -0.550 OA
ATOM      4  O   UNL     1    -128.977 106.476  41.252  1.00  0.00    -0.550 OA
ENDBRANCH   1   2
BRANCH   1   5
ATOM      5  C   UNL     1    -130.134 107.871  39.131  1.00  0.00     0.006 C 
BRANCH   5   6
ATOM      6  C   UNL     1    -131.572 108.227  38.729  1.00  0.00    -0.003 C 
ATOM      7  C   UNL     1    -131.919 109.656  39.137  1.00  0.00     0.004 C 
ENDBRANCH   5   6
ENDBRANCH   1   5
TORSDOF 3
ENDMDL
