MODEL 1
REMARK VINA RESULT:    -5.925      0.000      0.000
REMARK INTER + INTRA:          -9.118
REMARK INTER:                  -8.003
REMARK INTRA:                  -1.115
REMARK UNBOUND:                -1.115
REMARK SMILES CC(=O)CCC=C(C)CCC=C(C)C
REMARK SMILES IDX 7 1 6 2 8 3 9 4 10 5 11 6 13 7 12 8 14 9 5 10 4 11 2 12 3 13
REMARK SMILES IDX 1 14
REMARK H PARENT
REMARK Flexibility Score: inf
ROOT
ATOM      1  C   UNL     1     -13.383 -33.716  31.083  1.00  0.00    -0.077 C 
ATOM      2  C   UNL     1     -13.744 -34.888  31.652  1.00  0.00    -0.028 C 
ATOM      3  C   UNL     1     -14.372 -32.578  31.097  1.00  0.00     0.039 C 
ENDROOT
BRANCH   1   4
ATOM      4  C   UNL     1     -12.019 -33.496  30.450  1.00  0.00     0.034 C 
BRANCH   4   5
ATOM      5  C   UNL     1     -12.115 -32.708  29.136  1.00  0.00     0.032 C 
BRANCH   5   6
ATOM      6  C   UNL     1     -11.457 -33.439  27.990  1.00  0.00    -0.028 C 
ATOM      7  C   UNL     1     -11.307 -34.573  25.816  1.00  0.00     0.039 C 
ATOM      8  C   UNL     1     -12.110 -33.908  26.905  1.00  0.00    -0.080 C 
ATOM      9  C   UNL     1     -13.611 -33.802  26.763  1.00  0.00     0.039 C 
ENDBRANCH   5   6
ENDBRANCH   4   5
ENDBRANCH   1   4
BRANCH   2  10
ATOM     10  C   UNL     1     -12.865 -36.116  31.676  1.00  0.00     0.035 C 
BRANCH  10  11
ATOM     11  C   UNL     1     -13.462 -37.242  30.819  1.00  0.00     0.079 C 
BRANCH  11  12
ATOM     12  C   UNL     1     -13.278 -37.057  29.330  1.00  0.00     0.130 C 
ATOM     13  O   UNL     1     -12.196 -36.657  28.926  1.00  0.00    -0.300 OA
ATOM     14  C   UNL     1     -14.362 -37.339  28.327  1.00  0.00     0.087 C 
ENDBRANCH  11  12
ENDBRANCH  10  11
ENDBRANCH   2  10
TORSDOF 6
ENDMDL
MODEL 2
REMARK VINA RESULT:    -5.878      2.116      4.286
REMARK INTER + INTRA:          -9.054
REMARK INTER:                  -7.853
REMARK INTRA:                  -1.201
REMARK UNBOUND:                -1.115
REMARK SMILES CC(=O)CCC=C(C)CCC=C(C)C
REMARK SMILES IDX 7 1 6 2 8 3 9 4 10 5 11 6 13 7 12 8 14 9 5 10 4 11 2 12 3 13
REMARK SMILES IDX 1 14
REMARK H PARENT
REMARK Flexibility Score: inf
ROOT
ATOM      1  C   UNL     1     -13.561 -32.989  28.443  1.00  0.00    -0.077 C 
ATOM      2  C   UNL     1     -14.011 -32.781  29.701  1.00  0.00    -0.028 C 
ATOM      3  C   UNL     1     -14.470 -32.644  27.291  1.00  0.00     0.039 C 
ENDROOT
BRANCH   1   4
ATOM      4  C   UNL     1     -12.174 -33.535  28.147  1.00  0.00     0.034 C 
BRANCH   4   5
ATOM      5  C   UNL     1     -12.205 -35.034  27.815  1.00  0.00     0.032 C 
BRANCH   5   6
ATOM      6  C   UNL     1     -12.191 -35.889  29.060  1.00  0.00    -0.028 C 
ATOM      7  C   UNL     1     -12.968 -37.606  30.634  1.00  0.00     0.039 C 
ATOM      8  C   UNL     1     -13.146 -36.789  29.381  1.00  0.00    -0.080 C 
ATOM      9  C   UNL     1     -14.384 -36.982  28.536  1.00  0.00     0.039 C 
ENDBRANCH   5   6
ENDBRANCH   4   5
ENDBRANCH   1   4
BRANCH   2  10
ATOM     10  C   UNL     1     -13.218 -33.114  30.943  1.00  0.00     0.035 C 
BRANCH  10  11
ATOM     11  C   UNL     1     -13.998 -34.072  31.857  1.00  0.00     0.079 C 
BRANCH  11  12
ATOM     12  C   UNL     1     -14.924 -33.384  32.835  1.00  0.00     0.130 C 
ATOM     13  O   UNL     1     -15.799 -34.049  33.369  1.00  0.00    -0.300 OA
ATOM     14  C   UNL     1     -14.819 -31.923  33.176  1.00  0.00     0.087 C 
ENDBRANCH  11  12
ENDBRANCH  10  11
ENDBRANCH   2  10
TORSDOF 6
ENDMDL
MODEL 3
REMARK VINA RESULT:    -5.868      2.380      5.120
REMARK INTER + INTRA:          -9.041
REMARK INTER:                  -7.758
REMARK INTRA:                  -1.283
REMARK UNBOUND:                -1.115
REMARK SMILES CC(=O)CCC=C(C)CCC=C(C)C
REMARK SMILES IDX 7 1 6 2 8 3 9 4 10 5 11 6 13 7 12 8 14 9 5 10 4 11 2 12 3 13
REMARK SMILES IDX 1 14
REMARK H PARENT
REMARK Flexibility Score: inf
ROOT
ATOM      1  C   UNL     1     -12.091 -33.977  26.908  1.00  0.00    -0.077 C 
ATOM      2  C   UNL     1     -13.432 -33.868  26.777  1.00  0.00    -0.028 C 
ATOM      3  C   UNL     1     -11.299 -34.515  25.744  1.00  0.00     0.039 C 
ENDROOT
BRANCH   1   4
ATOM      4  C   UNL     1     -11.352 -33.561  28.169  1.00  0.00     0.034 C 
BRANCH   4   5
ATOM      5  C   UNL     1     -10.933 -34.771  29.016  1.00  0.00     0.032 C 
BRANCH   5   6
ATOM      6  C   UNL     1     -11.887 -35.015  30.162  1.00  0.00    -0.028 C 
ATOM      7  C   UNL     1     -13.667 -36.143  31.423  1.00  0.00     0.039 C 
ATOM      8  C   UNL     1     -12.822 -35.990  30.186  1.00  0.00    -0.080 C 
ATOM      9  C   UNL     1     -13.052 -36.910  29.009  1.00  0.00     0.039 C 
ENDBRANCH   5   6
ENDBRANCH   4   5
ENDBRANCH   1   4
BRANCH   2  10
ATOM     10  C   UNL     1     -14.346 -33.378  27.876  1.00  0.00     0.035 C 
BRANCH  10  11
ATOM     11  C   UNL     1     -14.691 -31.893  27.688  1.00  0.00     0.079 C 
BRANCH  11  12
ATOM     12  C   UNL     1     -15.023 -31.163  28.971  1.00  0.00     0.130 C 
ATOM     13  O   UNL     1     -15.527 -30.053  28.891  1.00  0.00    -0.300 OA
ATOM     14  C   UNL     1     -14.760 -31.740  30.334  1.00  0.00     0.087 C 
ENDBRANCH  11  12
ENDBRANCH  10  11
ENDBRANCH   2  10
TORSDOF 6
ENDMDL
MODEL 4
REMARK VINA RESULT:    -5.807      1.419      2.150
REMARK INTER + INTRA:          -8.958
REMARK INTER:                  -7.589
REMARK INTRA:                  -1.368
REMARK UNBOUND:                -1.115
REMARK SMILES CC(=O)CCC=C(C)CCC=C(C)C
REMARK SMILES IDX 7 1 6 2 8 3 9 4 10 5 11 6 13 7 12 8 14 9 5 10 4 11 2 12 3 13
REMARK SMILES IDX 1 14
REMARK H PARENT
REMARK Flexibility Score: inf
ROOT
ATOM      1  C   UNL     1     -11.270 -33.755  31.562  1.00  0.00    -0.077 C 
ATOM      2  C   UNL     1     -12.513 -33.991  32.039  1.00  0.00    -0.028 C 
ATOM      3  C   UNL     1     -10.285 -33.042  32.452  1.00  0.00     0.039 C 
ENDROOT
BRANCH   1   4
ATOM      4  C   UNL     1     -10.824 -34.197  30.178  1.00  0.00     0.034 C 
BRANCH   4   5
ATOM      5  C   UNL     1     -11.061 -33.107  29.122  1.00  0.00     0.032 C 
BRANCH   5   6
ATOM      6  C   UNL     1     -12.019 -33.561  28.047  1.00  0.00    -0.028 C 
ATOM      7  C   UNL     1     -14.087 -33.585  26.722  1.00  0.00     0.039 C 
ATOM      8  C   UNL     1     -13.265 -33.068  27.874  1.00  0.00    -0.080 C 
ATOM      9  C   UNL     1     -13.856 -32.035  28.805  1.00  0.00     0.039 C 
ENDBRANCH   5   6
ENDBRANCH   4   5
ENDBRANCH   1   4
BRANCH   2  10
ATOM     10  C   UNL     1     -13.605 -34.664  31.241  1.00  0.00     0.035 C 
BRANCH  10  11
ATOM     11  C   UNL     1     -13.752 -36.141  31.638  1.00  0.00     0.079 C 
BRANCH  11  12
ATOM     12  C   UNL     1     -13.161 -37.115  30.644  1.00  0.00     0.130 C 
ATOM     13  O   UNL     1     -12.560 -38.088  31.075  1.00  0.00    -0.300 OA
ATOM     14  C   UNL     1     -13.278 -36.940  29.155  1.00  0.00     0.087 C 
ENDBRANCH  11  12
ENDBRANCH  10  11
ENDBRANCH   2  10
TORSDOF 6
ENDMDL
MODEL 5
REMARK VINA RESULT:    -5.774      1.308      2.263
REMARK INTER + INTRA:          -8.914
REMARK INTER:                  -8.145
REMARK INTRA:                  -0.769
REMARK UNBOUND:                -1.115
REMARK SMILES CC(=O)CCC=C(C)CCC=C(C)C
REMARK SMILES IDX 7 1 6 2 8 3 9 4 10 5 11 6 13 7 12 8 14 9 5 10 4 11 2 12 3 13
REMARK SMILES IDX 1 14
REMARK H PARENT
REMARK Flexibility Score: inf
ROOT
ATOM      1  C   UNL     1     -14.485 -31.971  29.889  1.00  0.00    -0.077 C 
ATOM      2  C   UNL     1     -14.286 -32.641  31.046  1.00  0.00    -0.028 C 
ATOM      3  C   UNL     1     -15.578 -30.935  29.840  1.00  0.00     0.039 C 
ENDROOT
BRANCH   1   4
ATOM      4  C   UNL     1     -13.640 -32.207  28.648  1.00  0.00     0.034 C 
BRANCH   4   5
ATOM      5  C   UNL     1     -14.067 -33.474  27.893  1.00  0.00     0.032 C 
BRANCH   5   6
ATOM      6  C   UNL     1     -13.158 -33.768  26.723  1.00  0.00    -0.028 C 
ATOM      7  C   UNL     1     -11.166 -34.613  25.562  1.00  0.00     0.039 C 
ATOM      8  C   UNL     1     -11.936 -34.334  26.826  1.00  0.00    -0.080 C 
ATOM      9  C   UNL     1     -11.320 -34.675  28.163  1.00  0.00     0.039 C 
ENDBRANCH   5   6
ENDBRANCH   4   5
ENDBRANCH   1   4
BRANCH   2  10
ATOM     10  C   UNL     1     -13.250 -33.727  31.221  1.00  0.00     0.035 C 
BRANCH  10  11
ATOM     11  C   UNL     1     -13.877 -35.003  31.802  1.00  0.00     0.079 C 
BRANCH  11  12
ATOM     12  C   UNL     1     -13.318 -36.288  31.232  1.00  0.00     0.130 C 
ATOM     13  O   UNL     1     -12.433 -36.858  31.851  1.00  0.00    -0.300 OA
ATOM     14  C   UNL     1     -13.800 -36.891  29.942  1.00  0.00     0.087 C 
ENDBRANCH  11  12
ENDBRANCH  10  11
ENDBRANCH   2  10
TORSDOF 6
ENDMDL
MODEL 6
REMARK VINA RESULT:    -5.751      2.046      5.044
REMARK INTER + INTRA:          -8.882
REMARK INTER:                  -7.885
REMARK INTRA:                  -0.997
REMARK UNBOUND:                -1.115
REMARK SMILES CC(=O)CCC=C(C)CCC=C(C)C
REMARK SMILES IDX 7 1 6 2 8 3 9 4 10 5 11 6 13 7 12 8 14 9 5 10 4 11 2 12 3 13
REMARK SMILES IDX 1 14
REMARK H PARENT
REMARK Flexibility Score: inf
ROOT
ATOM      1  C   UNL     1     -13.376 -36.126  28.769  1.00  0.00    -0.077 C 
ATOM      2  C   UNL     1     -13.542 -35.088  27.920  1.00  0.00    -0.028 C 
ATOM      3  C   UNL     1     -14.367 -37.261  28.716  1.00  0.00     0.039 C 
ENDROOT
BRANCH   1   4
ATOM      4  C   UNL     1     -12.224 -36.203  29.757  1.00  0.00     0.034 C 
BRANCH   4   5
ATOM      5  C   UNL     1     -12.716 -36.307  31.208  1.00  0.00     0.032 C 
BRANCH   5   6
ATOM      6  C   UNL     1     -13.683 -35.201  31.558  1.00  0.00    -0.028 C 
ATOM      7  C   UNL     1     -14.399 -32.950  32.230  1.00  0.00     0.039 C 
ATOM      8  C   UNL     1     -13.319 -33.966  31.967  1.00  0.00    -0.080 C 
ATOM      9  C   UNL     1     -11.872 -33.587  32.183  1.00  0.00     0.039 C 
ENDBRANCH   5   6
ENDBRANCH   4   5
ENDBRANCH   1   4
BRANCH   2  10
ATOM     10  C   UNL     1     -12.644 -33.873  27.892  1.00  0.00     0.035 C 
BRANCH  10  11
ATOM     11  C   UNL     1     -13.242 -32.723  28.716  1.00  0.00     0.079 C 
BRANCH  11  12
ATOM     12  C   UNL     1     -14.376 -31.991  28.033  1.00  0.00     0.130 C 
ATOM     13  O   UNL     1     -14.668 -32.313  26.891  1.00  0.00    -0.300 OA
ATOM     14  C   UNL     1     -15.155 -30.887  28.693  1.00  0.00     0.087 C 
ENDBRANCH  11  12
ENDBRANCH  10  11
ENDBRANCH   2  10
TORSDOF 6
ENDMDL
MODEL 7
REMARK VINA RESULT:    -5.731      1.391      3.690
REMARK INTER + INTRA:          -8.856
REMARK INTER:                  -7.477
REMARK INTRA:                  -1.379
REMARK UNBOUND:                -1.115
REMARK SMILES CC(=O)CCC=C(C)CCC=C(C)C
REMARK SMILES IDX 7 1 6 2 8 3 9 4 10 5 11 6 13 7 12 8 14 9 5 10 4 11 2 12 3 13
REMARK SMILES IDX 1 14
REMARK H PARENT
REMARK Flexibility Score: inf
ROOT
ATOM      1  C   UNL     1     -13.638 -34.378  27.659  1.00  0.00    -0.077 C 
ATOM      2  C   UNL     1     -14.168 -35.586  27.956  1.00  0.00    -0.028 C 
ATOM      3  C   UNL     1     -14.499 -33.375  26.935  1.00  0.00     0.039 C 
ENDROOT
BRANCH   1   4
ATOM      4  C   UNL     1     -12.221 -33.987  28.043  1.00  0.00     0.034 C 
BRANCH   4   5
ATOM      5  C   UNL     1     -12.197 -32.867  29.094  1.00  0.00     0.032 C 
BRANCH   5   6
ATOM      6  C   UNL     1     -12.778 -33.318  30.413  1.00  0.00    -0.028 C 
ATOM      7  C   UNL     1     -14.419 -33.455  32.236  1.00  0.00     0.039 C 
ATOM      8  C   UNL     1     -13.942 -32.870  30.931  1.00  0.00    -0.080 C 
ATOM      9  C   UNL     1     -14.762 -31.797  30.253  1.00  0.00     0.039 C 
ENDBRANCH   5   6
ENDBRANCH   4   5
ENDBRANCH   1   4
BRANCH   2  10
ATOM     10  C   UNL     1     -13.404 -36.692  28.646  1.00  0.00     0.035 C 
BRANCH  10  11
ATOM     11  C   UNL     1     -13.842 -36.836  30.111  1.00  0.00     0.079 C 
BRANCH  11  12
ATOM     12  C   UNL     1     -12.733 -37.244  31.056  1.00  0.00     0.130 C 
ATOM     13  O   UNL     1     -12.619 -38.428  31.337  1.00  0.00    -0.300 OA
ATOM     14  C   UNL     1     -11.771 -36.262  31.663  1.00  0.00     0.087 C 
ENDBRANCH  11  12
ENDBRANCH  10  11
ENDBRANCH   2  10
TORSDOF 6
ENDMDL
MODEL 8
REMARK VINA RESULT:    -5.635      2.062      4.079
REMARK INTER + INTRA:          -8.725
REMARK INTER:                  -7.190
REMARK INTRA:                  -1.535
REMARK UNBOUND:                -1.115
REMARK SMILES CC(=O)CCC=C(C)CCC=C(C)C
REMARK SMILES IDX 7 1 6 2 8 3 9 4 10 5 11 6 13 7 12 8 14 9 5 10 4 11 2 12 3 13
REMARK SMILES IDX 1 14
REMARK H PARENT
REMARK Flexibility Score: inf
ROOT
ATOM      1  C   UNL     1     -13.295 -36.445  30.471  1.00  0.00    -0.077 C 
ATOM      2  C   UNL     1     -13.579 -36.558  29.154  1.00  0.00    -0.028 C 
ATOM      3  C   UNL     1     -12.572 -37.580  31.148  1.00  0.00     0.039 C 
ENDROOT
BRANCH   1   4
ATOM      4  C   UNL     1     -13.657 -35.214  31.286  1.00  0.00     0.034 C 
BRANCH   4   5
ATOM      5  C   UNL     1     -12.418 -34.544  31.899  1.00  0.00     0.032 C 
BRANCH   5   6
ATOM      6  C   UNL     1     -11.790 -33.548  30.953  1.00  0.00    -0.028 C 
ATOM      7  C   UNL     1     -10.213 -32.711  29.267  1.00  0.00     0.039 C 
ATOM      8  C   UNL     1     -10.692 -33.789  30.204  1.00  0.00    -0.080 C 
ATOM      9  C   UNL     1      -9.930 -35.091  30.294  1.00  0.00     0.039 C 
ENDBRANCH   5   6
ENDBRANCH   4   5
ENDBRANCH   1   4
BRANCH   2  10
ATOM     10  C   UNL     1     -14.328 -35.511  28.363  1.00  0.00     0.035 C 
BRANCH  10  11
ATOM     11  C   UNL     1     -13.367 -34.465  27.778  1.00  0.00     0.079 C 
BRANCH  11  12
ATOM     12  C   UNL     1     -13.988 -33.105  27.550  1.00  0.00     0.130 C 
ATOM     13  O   UNL     1     -14.593 -32.914  26.506  1.00  0.00    -0.300 OA
ATOM     14  C   UNL     1     -13.894 -31.983  28.546  1.00  0.00     0.087 C 
ENDBRANCH  11  12
ENDBRANCH  10  11
ENDBRANCH   2  10
TORSDOF 6
ENDMDL
MODEL 9
REMARK VINA RESULT:    -5.558      1.714      4.331
REMARK INTER + INTRA:          -8.622
REMARK INTER:                  -7.150
REMARK INTRA:                  -1.472
REMARK UNBOUND:                -1.115
REMARK SMILES CC(=O)CCC=C(C)CCC=C(C)C
REMARK SMILES IDX 7 1 6 2 8 3 9 4 10 5 11 6 13 7 12 8 14 9 5 10 4 11 2 12 3 13
REMARK SMILES IDX 1 14
REMARK H PARENT
REMARK Flexibility Score: inf
ROOT
ATOM      1  C   UNL     1     -10.925 -34.074  30.877  1.00  0.00    -0.077 C 
ATOM      2  C   UNL     1     -10.532 -33.692  29.641  1.00  0.00    -0.028 C 
ATOM      3  C   UNL     1     -10.032 -35.004  31.657  1.00  0.00     0.039 C 
ENDROOT
BRANCH   1   4
ATOM      4  C   UNL     1     -12.215 -33.587  31.515  1.00  0.00     0.034 C 
BRANCH   4   5
ATOM      5  C   UNL     1     -13.191 -34.740  31.792  1.00  0.00     0.032 C 
BRANCH   5   6
ATOM      6  C   UNL     1     -13.666 -35.396  30.517  1.00  0.00    -0.028 C 
ATOM      7  C   UNL     1     -14.049 -37.220  28.917  1.00  0.00     0.039 C 
ATOM      8  C   UNL     1     -13.470 -36.696  30.205  1.00  0.00    -0.080 C 
ATOM      9  C   UNL     1     -12.679 -37.625  31.098  1.00  0.00     0.039 C 
ENDBRANCH   5   6
ENDBRANCH   4   5
ENDBRANCH   1   4
BRANCH   2  10
ATOM     10  C   UNL     1     -11.347 -32.794  28.740  1.00  0.00     0.035 C 
BRANCH  10  11
ATOM     11  C   UNL     1     -12.187 -33.615  27.751  1.00  0.00     0.079 C 
BRANCH  11  12
ATOM     12  C   UNL     1     -13.647 -33.223  27.696  1.00  0.00     0.130 C 
ATOM     13  O   UNL     1     -14.415 -33.935  27.068  1.00  0.00    -0.300 OA
ATOM     14  C   UNL     1     -14.193 -31.998  28.376  1.00  0.00     0.087 C 
ENDBRANCH  11  12
ENDBRANCH  10  11
ENDBRANCH   2  10
TORSDOF 6
ENDMDL
