MODEL 1
REMARK VINA RESULT:    -7.232      0.000      0.000
REMARK INTER + INTRA:         -13.667
REMARK INTER:                 -11.882
REMARK INTRA:                  -1.785
REMARK UNBOUND:                -1.785
REMARK SMILES COc1ccc([C@H]2CC(=O)c3c(O)cc(O[C@H]4O[C@H](CO[C@@H]5O[C@H](C)[C@H](O)[C@H](O)[C@@H]5O)[C@@H](O)[C@@H](O)[C@H]4O)cc3O2)cc1O
REMARK SMILES IDX 19 1 32 2 34 3 36 4 17 5 18 6 20 7 21 8 22 9 25 10 24 11
REMARK SMILES IDX 26 12 23 13 28 14 30 15 27 16 29 18 31 20 33 22 35 24 16 26
REMARK SMILES IDX 15 27 14 28 38 29 12 30 39 31 11 32 40 33 9 34 7 35 10 36
REMARK SMILES IDX 8 37 13 38 6 40 41 41 5 42 42 43 4 44 3 45 43 46 2 48 1 49
REMARK SMILES IDX 37 50
REMARK H PARENT 27 17 29 19 31 21 33 23 35 25 13 39 43 47 37 51
REMARK Flexibility Score: inf
ROOT
ATOM      1  C   UNL     1      18.576  25.981  39.699  1.00  0.00     0.180 C 
ATOM      2  C   UNL     1      19.967  26.582  39.327  1.00  0.00     0.177 C 
ATOM      3  C   UNL     1      20.459  27.672  40.273  1.00  0.00     0.180 C 
ATOM      4  C   UNL     1      20.370  27.150  41.705  1.00  0.00     0.214 C 
ATOM      5  C   UNL     1      18.975  26.529  42.057  1.00  0.00     0.339 C 
ATOM      6  O   UNL     1      18.094  26.460  40.962  1.00  0.00    -0.332 OA
ENDROOT
BRANCH   1   7
ATOM      7  C   UNL     1      18.418  24.447  39.593  1.00  0.00     0.198 C 
BRANCH   7   8
ATOM      8  O   UNL     1      17.457  24.092  38.620  1.00  0.00    -0.347 OA
BRANCH   8   9
ATOM      9  C   UNL     1      16.289  24.907  38.681  1.00  0.00     0.281 C 
ATOM     10  C   UNL     1      13.566  25.024  41.164  1.00  0.00     0.041 C 
ATOM     11  C   UNL     1      14.498  25.583  40.072  1.00  0.00     0.150 C 
ATOM     12  C   UNL     1      13.740  25.934  38.754  1.00  0.00     0.174 C 
ATOM     13  O   UNL     1      15.555  24.631  39.871  1.00  0.00    -0.344 OA
ATOM     14  C   UNL     1      13.906  24.787  37.743  1.00  0.00     0.179 C 
ATOM     15  C   UNL     1      15.407  24.611  37.426  1.00  0.00     0.202 C 
BRANCH  12  16
ATOM     16  O   UNL     1      12.383  26.204  38.977  1.00  0.00    -0.388 OA
ATOM     17  H   UNL     1      12.323  26.864  39.721  1.00  0.00     0.211 HD
ENDBRANCH  12  16
BRANCH  14  18
ATOM     18  O   UNL     1      13.379  23.593  38.261  1.00  0.00    -0.387 OA
ATOM     19  H   UNL     1      12.416  23.575  38.033  1.00  0.00     0.211 HD
ENDBRANCH  14  18
BRANCH  15  20
ATOM     20  O   UNL     1      15.665  23.321  36.937  1.00  0.00    -0.385 OA
ATOM     21  H   UNL     1      16.295  22.892  37.566  1.00  0.00     0.211 HD
ENDBRANCH  15  20
ENDBRANCH   8   9
ENDBRANCH   7   8
ENDBRANCH   1   7
BRANCH   2  22
ATOM     22  O   UNL     1      20.021  27.048  37.989  1.00  0.00    -0.387 OA
ATOM     23  H   UNL     1      20.646  26.461  37.487  1.00  0.00     0.211 HD
ENDBRANCH   2  22
BRANCH   3  24
ATOM     24  O   UNL     1      19.692  28.854  40.121  1.00  0.00    -0.387 OA
ATOM     25  H   UNL     1      20.287  29.538  39.717  1.00  0.00     0.211 HD
ENDBRANCH   3  24
BRANCH   5  26
ATOM     26  O   UNL     1      18.260  27.302  43.006  1.00  0.00    -0.462 OA
BRANCH  26  27
ATOM     27  C   UNL     1      17.417  26.900  44.041  1.00  0.00     0.130 A 
ATOM     28  C   UNL     1      17.391  27.499  45.322  1.00  0.00     0.093 A 
ATOM     29  C   UNL     1      16.556  25.830  43.760  1.00  0.00     0.094 A 
ATOM     30  C   UNL     1      16.355  27.165  46.210  1.00  0.00     0.133 A 
ATOM     31  C   UNL     1      15.577  25.466  44.663  1.00  0.00     0.138 A 
ATOM     32  C   UNL     1      15.434  26.160  45.861  1.00  0.00     0.102 A 
ATOM     33  O   UNL     1      14.682  24.425  44.360  1.00  0.00    -0.484 OA
ATOM     34  C   UNL     1      14.259  25.798  46.647  1.00  0.00     0.174 C 
ATOM     35  C   UNL     1      14.029  23.631  45.368  1.00  0.00     0.211 C 
ATOM     36  O   UNL     1      13.292  26.600  46.695  1.00  0.00    -0.294 OA
ATOM     37  C   UNL     1      14.015  24.318  46.775  1.00  0.00     0.131 C 
BRANCH  30  38
ATOM     38  O   UNL     1      16.275  27.795  47.461  1.00  0.00    -0.507 OA
ATOM     39  H   UNL     1      17.061  27.811  48.107  1.00  0.00     0.293 HD
ENDBRANCH  30  38
BRANCH  35  40
ATOM     40  C   UNL     1      14.701  22.287  45.405  1.00  0.00    -0.003 A 
ATOM     41  C   UNL     1      15.770  22.002  44.548  1.00  0.00     0.057 A 
ATOM     42  C   UNL     1      14.342  21.350  46.386  1.00  0.00     0.011 A 
ATOM     43  C   UNL     1      16.427  20.761  44.616  1.00  0.00     0.158 A 
ATOM     44  C   UNL     1      15.021  20.121  46.473  1.00  0.00     0.051 A 
ATOM     45  C   UNL     1      16.042  19.809  45.573  1.00  0.00     0.160 A 
BRANCH  43  46
ATOM     46  O   UNL     1      17.489  20.470  43.763  1.00  0.00    -0.504 OA
ATOM     47  H   UNL     1      17.666  19.529  43.429  1.00  0.00     0.293 HD
ENDBRANCH  43  46
BRANCH  45  48
ATOM     48  O   UNL     1      16.666  18.547  45.574  1.00  0.00    -0.493 OA
ATOM     49  C   UNL     1      16.478  17.562  44.562  1.00  0.00     0.278 C 
ENDBRANCH  45  48
ENDBRANCH  35  40
ENDBRANCH  26  27
ENDBRANCH   5  26
BRANCH   4  50
ATOM     50  O   UNL     1      20.820  28.133  42.613  1.00  0.00    -0.384 OA
ATOM     51  H   UNL     1      21.625  28.533  42.209  1.00  0.00     0.211 HD
ENDBRANCH   4  50
TORSDOF 15
ENDMDL
MODEL 2
REMARK VINA RESULT:    -7.200      5.990     11.356
REMARK INTER + INTRA:         -13.615
REMARK INTER:                 -11.704
REMARK INTRA:                  -1.911
REMARK UNBOUND:                -1.785
REMARK SMILES COc1ccc([C@H]2CC(=O)c3c(O)cc(O[C@H]4O[C@H](CO[C@@H]5O[C@H](C)[C@H](O)[C@H](O)[C@@H]5O)[C@@H](O)[C@@H](O)[C@H]4O)cc3O2)cc1O
REMARK SMILES IDX 19 1 32 2 34 3 36 4 17 5 18 6 20 7 21 8 22 9 25 10 24 11
REMARK SMILES IDX 26 12 23 13 28 14 30 15 27 16 29 18 31 20 33 22 35 24 16 26
REMARK SMILES IDX 15 27 14 28 38 29 12 30 39 31 11 32 40 33 9 34 7 35 10 36
REMARK SMILES IDX 8 37 13 38 6 40 41 41 5 42 42 43 4 44 3 45 43 46 2 48 1 49
REMARK SMILES IDX 37 50
REMARK H PARENT 27 17 29 19 31 21 33 23 35 25 13 39 43 47 37 51
REMARK Flexibility Score: inf
ROOT
ATOM      1  C   UNL     1      19.103  27.938  54.198  1.00  0.00     0.180 C 
ATOM      2  C   UNL     1      19.166  29.343  54.873  1.00  0.00     0.177 C 
ATOM      3  C   UNL     1      18.381  30.429  54.145  1.00  0.00     0.180 C 
ATOM      4  C   UNL     1      16.963  29.921  53.896  1.00  0.00     0.214 C 
ATOM      5  C   UNL     1      16.917  28.500  53.238  1.00  0.00     0.339 C 
ATOM      6  O   UNL     1      18.181  27.899  53.100  1.00  0.00    -0.332 OA
ENDROOT
BRANCH   1   7
ATOM      7  C   UNL     1      18.911  26.716  55.125  1.00  0.00     0.198 C 
BRANCH   7   8
ATOM      8  O   UNL     1      17.807  25.931  54.724  1.00  0.00    -0.347 OA
BRANCH   8   9
ATOM      9  C   UNL     1      18.125  24.544  54.635  1.00  0.00     0.281 C 
ATOM     10  C   UNL     1      19.004  22.463  51.722  1.00  0.00     0.041 C 
ATOM     11  C   UNL     1      18.995  22.869  53.207  1.00  0.00     0.150 C 
ATOM     12  C   UNL     1      18.230  21.848  54.106  1.00  0.00     0.174 C 
ATOM     13  O   UNL     1      18.458  24.199  53.293  1.00  0.00    -0.344 OA
ATOM     14  C   UNL     1      16.805  22.362  54.373  1.00  0.00     0.179 C 
ATOM     15  C   UNL     1      16.890  23.715  55.112  1.00  0.00     0.202 C 
BRANCH  12  16
ATOM     16  O   UNL     1      18.196  20.565  53.543  1.00  0.00    -0.388 OA
ATOM     17  H   UNL     1      18.554  20.631  52.616  1.00  0.00     0.211 HD
ENDBRANCH  12  16
BRANCH  14  18
ATOM     18  O   UNL     1      16.103  22.514  53.166  1.00  0.00    -0.387 OA
ATOM     19  H   UNL     1      16.320  21.731  52.601  1.00  0.00     0.211 HD
ENDBRANCH  14  18
BRANCH  15  20
ATOM     20  O   UNL     1      15.708  24.452  54.938  1.00  0.00    -0.385 OA
ATOM     21  H   UNL     1      14.957  23.860  55.183  1.00  0.00     0.211 HD
ENDBRANCH  15  20
ENDBRANCH   8   9
ENDBRANCH   7   8
ENDBRANCH   1   7
BRANCH   2  22
ATOM     22  O   UNL     1      20.495  29.781  55.100  1.00  0.00    -0.387 OA
ATOM     23  H   UNL     1      20.955  29.828  54.221  1.00  0.00     0.211 HD
ENDBRANCH   2  22
BRANCH   3  24
ATOM     24  O   UNL     1      19.012  30.774  52.924  1.00  0.00    -0.387 OA
ATOM     25  H   UNL     1      19.628  31.528  53.118  1.00  0.00     0.211 HD
ENDBRANCH   3  24
BRANCH   5  26
ATOM     26  O   UNL     1      16.419  28.531  51.911  1.00  0.00    -0.462 OA
BRANCH  26  27
ATOM     27  C   UNL     1      15.894  27.508  51.124  1.00  0.00     0.130 A 
ATOM     28  C   UNL     1      15.659  26.192  51.586  1.00  0.00     0.093 A 
ATOM     29  C   UNL     1      15.592  27.839  49.796  1.00  0.00     0.094 A 
ATOM     30  C   UNL     1      14.925  25.307  50.779  1.00  0.00     0.133 A 
ATOM     31  C   UNL     1      14.921  26.943  48.987  1.00  0.00     0.138 A 
ATOM     32  C   UNL     1      14.537  25.701  49.484  1.00  0.00     0.102 A 
ATOM     33  O   UNL     1      14.575  27.293  47.671  1.00  0.00    -0.484 OA
ATOM     34  C   UNL     1      13.685  24.916  48.596  1.00  0.00     0.174 C 
ATOM     35  C   UNL     1      14.394  26.325  46.621  1.00  0.00     0.211 C 
ATOM     36  O   UNL     1      12.465  24.800  48.874  1.00  0.00    -0.294 OA
ATOM     37  C   UNL     1      14.137  24.878  47.160  1.00  0.00     0.131 C 
BRANCH  30  38
ATOM     38  O   UNL     1      14.627  24.017  51.245  1.00  0.00    -0.507 OA
ATOM     39  H   UNL     1      15.011  23.658  52.116  1.00  0.00     0.293 HD
ENDBRANCH  30  38
BRANCH  35  40
ATOM     40  C   UNL     1      15.598  26.385  45.723  1.00  0.00    -0.003 A 
ATOM     41  C   UNL     1      16.570  27.377  45.901  1.00  0.00     0.057 A 
ATOM     42  C   UNL     1      15.820  25.371  44.778  1.00  0.00     0.011 A 
ATOM     43  C   UNL     1      17.717  27.403  45.090  1.00  0.00     0.158 A 
ATOM     44  C   UNL     1      16.984  25.383  43.988  1.00  0.00     0.051 A 
ATOM     45  C   UNL     1      17.920  26.410  44.118  1.00  0.00     0.160 A 
BRANCH  43  46
ATOM     46  O   UNL     1      18.686  28.390  45.260  1.00  0.00    -0.504 OA
ATOM     47  H   UNL     1      18.572  29.142  45.930  1.00  0.00     0.293 HD
ENDBRANCH  43  46
BRANCH  45  48
ATOM     48  O   UNL     1      19.040  26.499  43.270  1.00  0.00    -0.493 OA
ATOM     49  C   UNL     1      18.966  26.771  41.874  1.00  0.00     0.278 C 
ENDBRANCH  45  48
ENDBRANCH  35  40
ENDBRANCH  26  27
ENDBRANCH   5  26
BRANCH   4  50
ATOM     50  O   UNL     1      16.203  30.903  53.224  1.00  0.00    -0.384 OA
ATOM     51  H   UNL     1      16.343  31.745  53.717  1.00  0.00     0.211 HD
ENDBRANCH   4  50
TORSDOF 15
ENDMDL
MODEL 3
REMARK VINA RESULT:    -7.041      3.651     10.191
REMARK INTER + INTRA:         -13.355
REMARK INTER:                 -11.408
REMARK INTRA:                  -1.947
REMARK UNBOUND:                -1.785
REMARK SMILES COc1ccc([C@H]2CC(=O)c3c(O)cc(O[C@H]4O[C@H](CO[C@@H]5O[C@H](C)[C@H](O)[C@H](O)[C@@H]5O)[C@@H](O)[C@@H](O)[C@H]4O)cc3O2)cc1O
REMARK SMILES IDX 19 1 32 2 34 3 36 4 17 5 18 6 20 7 21 8 22 9 25 10 24 11
REMARK SMILES IDX 26 12 23 13 28 14 30 15 27 16 29 18 31 20 33 22 35 24 16 26
REMARK SMILES IDX 15 27 14 28 38 29 12 30 39 31 11 32 40 33 9 34 7 35 10 36
REMARK SMILES IDX 8 37 13 38 6 40 41 41 5 42 42 43 4 44 3 45 43 46 2 48 1 49
REMARK SMILES IDX 37 50
REMARK H PARENT 27 17 29 19 31 21 33 23 35 25 13 39 43 47 37 51
REMARK Flexibility Score: inf
ROOT
ATOM      1  C   UNL     1      15.056  20.207  47.775  1.00  0.00     0.180 C 
ATOM      2  C   UNL     1      13.531  20.371  48.059  1.00  0.00     0.177 C 
ATOM      3  C   UNL     1      12.675  20.584  46.815  1.00  0.00     0.180 C 
ATOM      4  C   UNL     1      13.006  19.489  45.803  1.00  0.00     0.214 C 
ATOM      5  C   UNL     1      14.542  19.322  45.546  1.00  0.00     0.339 C 
ATOM      6  O   UNL     1      15.346  20.128  46.372  1.00  0.00    -0.332 OA
ENDROOT
BRANCH   1   7
ATOM      7  C   UNL     1      15.807  19.105  48.557  1.00  0.00     0.198 C 
BRANCH   7   8
ATOM      8  O   UNL     1      15.665  19.273  49.953  1.00  0.00    -0.347 OA
BRANCH   8   9
ATOM      9  C   UNL     1      16.423  20.371  50.453  1.00  0.00     0.281 C 
ATOM     10  C   UNL     1      19.989  21.213  50.044  1.00  0.00     0.041 C 
ATOM     11  C   UNL     1      18.495  21.502  50.279  1.00  0.00     0.150 C 
ATOM     12  C   UNL     1      18.203  22.045  51.713  1.00  0.00     0.174 C 
ATOM     13  O   UNL     1      17.765  20.302  49.978  1.00  0.00    -0.344 OA
ATOM     14  C   UNL     1      17.708  20.896  52.608  1.00  0.00     0.179 C 
ATOM     15  C   UNL     1      16.402  20.324  52.014  1.00  0.00     0.202 C 
BRANCH  12  16
ATOM     16  O   UNL     1      19.321  22.669  52.282  1.00  0.00    -0.388 OA
ATOM     17  H   UNL     1      20.135  22.265  51.874  1.00  0.00     0.211 HD
ENDBRANCH  12  16
BRANCH  14  18
ATOM     18  O   UNL     1      18.680  19.887  52.697  1.00  0.00    -0.387 OA
ATOM     19  H   UNL     1      19.502  20.234  52.268  1.00  0.00     0.211 HD
ENDBRANCH  14  18
BRANCH  15  20
ATOM     20  O   UNL     1      16.184  19.012  52.463  1.00  0.00    -0.385 OA
ATOM     21  H   UNL     1      16.003  19.062  53.432  1.00  0.00     0.211 HD
ENDBRANCH  15  20
ENDBRANCH   8   9
ENDBRANCH   7   8
ENDBRANCH   1   7
BRANCH   2  22
ATOM     22  O   UNL     1      13.258  21.387  49.010  1.00  0.00    -0.387 OA
ATOM     23  H   UNL     1      12.484  21.914  48.678  1.00  0.00     0.211 HD
ENDBRANCH   2  22
BRANCH   3  24
ATOM     24  O   UNL     1      12.906  21.867  46.259  1.00  0.00    -0.387 OA
ATOM     25  H   UNL     1      13.582  21.756  45.541  1.00  0.00     0.211 HD
ENDBRANCH   3  24
BRANCH   5  26
ATOM     26  O   UNL     1      14.919  19.714  44.236  1.00  0.00    -0.462 OA
BRANCH  26  27
ATOM     27  C   UNL     1      15.802  20.706  43.814  1.00  0.00     0.130 A 
ATOM     28  C   UNL     1      17.140  20.465  43.425  1.00  0.00     0.093 A 
ATOM     29  C   UNL     1      15.299  22.014  43.789  1.00  0.00     0.094 A 
ATOM     30  C   UNL     1      17.868  21.497  42.809  1.00  0.00     0.133 A 
ATOM     31  C   UNL     1      16.043  23.038  43.236  1.00  0.00     0.138 A 
ATOM     32  C   UNL     1      17.300  22.780  42.697  1.00  0.00     0.102 A 
ATOM     33  O   UNL     1      15.519  24.340  43.165  1.00  0.00    -0.484 OA
ATOM     34  C   UNL     1      17.910  23.900  41.987  1.00  0.00     0.174 C 
ATOM     35  C   UNL     1      16.344  25.520  43.134  1.00  0.00     0.211 C 
ATOM     36  O   UNL     1      17.962  23.866  40.732  1.00  0.00    -0.294 OA
ATOM     37  C   UNL     1      17.819  25.224  42.700  1.00  0.00     0.131 C 
BRANCH  30  38
ATOM     38  O   UNL     1      19.175  21.260  42.359  1.00  0.00    -0.507 OA
ATOM     39  H   UNL     1      19.627  21.864  41.676  1.00  0.00     0.293 HD
ENDBRANCH  30  38
BRANCH  35  40
ATOM     40  C   UNL     1      16.276  26.169  44.488  1.00  0.00    -0.003 A 
ATOM     41  C   UNL     1      17.069  27.284  44.783  1.00  0.00     0.057 A 
ATOM     42  C   UNL     1      15.326  25.737  45.426  1.00  0.00     0.011 A 
ATOM     43  C   UNL     1      16.970  27.917  46.034  1.00  0.00     0.158 A 
ATOM     44  C   UNL     1      15.207  26.392  46.666  1.00  0.00     0.051 A 
ATOM     45  C   UNL     1      16.045  27.461  46.987  1.00  0.00     0.160 A 
BRANCH  43  46
ATOM     46  O   UNL     1      17.759  29.026  46.335  1.00  0.00    -0.504 OA
ATOM     47  H   UNL     1      17.353  29.913  46.609  1.00  0.00     0.293 HD
ENDBRANCH  43  46
BRANCH  45  48
ATOM     48  O   UNL     1      16.015  28.066  48.258  1.00  0.00    -0.493 OA
ATOM     49  C   UNL     1      15.379  27.498  49.398  1.00  0.00     0.278 C 
ENDBRANCH  45  48
ENDBRANCH  35  40
ENDBRANCH  26  27
ENDBRANCH   5  26
BRANCH   4  50
ATOM     50  O   UNL     1      12.229  19.652  44.636  1.00  0.00    -0.384 OA
ATOM     51  H   UNL     1      11.845  18.768  44.434  1.00  0.00     0.211 HD
ENDBRANCH   4  50
TORSDOF 15
ENDMDL
MODEL 4
REMARK VINA RESULT:    -6.999      3.689      9.996
REMARK INTER + INTRA:         -13.285
REMARK INTER:                 -11.592
REMARK INTRA:                  -1.693
REMARK UNBOUND:                -1.785
REMARK SMILES COc1ccc([C@H]2CC(=O)c3c(O)cc(O[C@H]4O[C@H](CO[C@@H]5O[C@H](C)[C@H](O)[C@H](O)[C@@H]5O)[C@@H](O)[C@@H](O)[C@H]4O)cc3O2)cc1O
REMARK SMILES IDX 19 1 32 2 34 3 36 4 17 5 18 6 20 7 21 8 22 9 25 10 24 11
REMARK SMILES IDX 26 12 23 13 28 14 30 15 27 16 29 18 31 20 33 22 35 24 16 26
REMARK SMILES IDX 15 27 14 28 38 29 12 30 39 31 11 32 40 33 9 34 7 35 10 36
REMARK SMILES IDX 8 37 13 38 6 40 41 41 5 42 42 43 4 44 3 45 43 46 2 48 1 49
REMARK SMILES IDX 37 50
REMARK H PARENT 27 17 29 19 31 21 33 23 35 25 13 39 43 47 37 51
REMARK Flexibility Score: inf
ROOT
ATOM      1  C   UNL     1      15.379  20.397  47.049  1.00  0.00     0.180 C 
ATOM      2  C   UNL     1      13.900  20.270  47.531  1.00  0.00     0.177 C 
ATOM      3  C   UNL     1      12.859  20.458  46.432  1.00  0.00     0.180 C 
ATOM      4  C   UNL     1      13.215  19.543  45.263  1.00  0.00     0.214 C 
ATOM      5  C   UNL     1      14.708  19.665  44.806  1.00  0.00     0.339 C 
ATOM      6  O   UNL     1      15.483  20.508  45.623  1.00  0.00    -0.332 OA
ENDROOT
BRANCH   1   7
ATOM      7  C   UNL     1      16.391  19.365  47.598  1.00  0.00     0.198 C 
BRANCH   7   8
ATOM      8  O   UNL     1      16.343  19.290  49.007  1.00  0.00    -0.347 OA
BRANCH   8   9
ATOM      9  C   UNL     1      16.998  20.388  49.638  1.00  0.00     0.281 C 
ATOM     10  C   UNL     1      20.586  21.111  50.082  1.00  0.00     0.041 C 
ATOM     11  C   UNL     1      19.091  21.452  49.934  1.00  0.00     0.150 C 
ATOM     12  C   UNL     1      18.482  22.065  51.233  1.00  0.00     0.174 C 
ATOM     13  O   UNL     1      18.412  20.260  49.508  1.00  0.00    -0.344 OA
ATOM     14  C   UNL     1      17.740  20.971  52.021  1.00  0.00     0.179 C 
ATOM     15  C   UNL     1      16.597  20.410  51.147  1.00  0.00     0.202 C 
BRANCH  12  16
ATOM     16  O   UNL     1      19.450  22.682  52.036  1.00  0.00    -0.388 OA
ATOM     17  H   UNL     1      19.444  23.656  51.824  1.00  0.00     0.211 HD
ENDBRANCH  12  16
BRANCH  14  18
ATOM     18  O   UNL     1      18.623  19.940  52.381  1.00  0.00    -0.387 OA
ATOM     19  H   UNL     1      19.410  20.364  52.806  1.00  0.00     0.211 HD
ENDBRANCH  14  18
BRANCH  15  20
ATOM     20  O   UNL     1      16.227  19.126  51.576  1.00  0.00    -0.385 OA
ATOM     21  H   UNL     1      15.907  18.635  50.781  1.00  0.00     0.211 HD
ENDBRANCH  15  20
ENDBRANCH   8   9
ENDBRANCH   7   8
ENDBRANCH   1   7
BRANCH   2  22
ATOM     22  O   UNL     1      13.606  21.125  48.623  1.00  0.00    -0.387 OA
ATOM     23  H   UNL     1      14.277  21.858  48.625  1.00  0.00     0.211 HD
ENDBRANCH   2  22
BRANCH   3  24
ATOM     24  O   UNL     1      12.810  21.811  46.013  1.00  0.00    -0.387 OA
ATOM     25  H   UNL     1      12.215  21.849  45.219  1.00  0.00     0.211 HD
ENDBRANCH   3  24
BRANCH   5  26
ATOM     26  O   UNL     1      14.837  20.244  43.519  1.00  0.00    -0.462 OA
BRANCH  26  27
ATOM     27  C   UNL     1      15.037  21.572  43.146  1.00  0.00     0.130 A 
ATOM     28  C   UNL     1      14.005  22.536  43.059  1.00  0.00     0.093 A 
ATOM     29  C   UNL     1      16.355  21.941  42.844  1.00  0.00     0.094 A 
ATOM     30  C   UNL     1      14.348  23.888  42.892  1.00  0.00     0.133 A 
ATOM     31  C   UNL     1      16.677  23.265  42.622  1.00  0.00     0.138 A 
ATOM     32  C   UNL     1      15.695  24.248  42.697  1.00  0.00     0.102 A 
ATOM     33  O   UNL     1      18.007  23.640  42.367  1.00  0.00    -0.484 OA
ATOM     34  C   UNL     1      16.186  25.620  42.619  1.00  0.00     0.174 C 
ATOM     35  C   UNL     1      18.362  24.816  41.615  1.00  0.00     0.211 C 
ATOM     36  O   UNL     1      16.202  26.319  43.663  1.00  0.00    -0.294 OA
ATOM     37  C   UNL     1      17.203  25.865  41.535  1.00  0.00     0.131 C 
BRANCH  30  38
ATOM     38  O   UNL     1      13.343  24.867  42.867  1.00  0.00    -0.507 OA
ATOM     39  H   UNL     1      13.095  25.362  42.012  1.00  0.00     0.293 HD
ENDBRANCH  30  38
BRANCH  35  40
ATOM     40  C   UNL     1      18.817  24.375  40.252  1.00  0.00    -0.003 A 
ATOM     41  C   UNL     1      19.612  23.232  40.102  1.00  0.00     0.057 A 
ATOM     42  C   UNL     1      18.344  25.035  39.107  1.00  0.00     0.011 A 
ATOM     43  C   UNL     1      19.997  22.796  38.823  1.00  0.00     0.158 A 
ATOM     44  C   UNL     1      18.707  24.577  37.827  1.00  0.00     0.051 A 
ATOM     45  C   UNL     1      19.555  23.479  37.679  1.00  0.00     0.160 A 
BRANCH  43  46
ATOM     46  O   UNL     1      20.792  21.661  38.668  1.00  0.00    -0.504 OA
ATOM     47  H   UNL     1      21.728  21.712  38.282  1.00  0.00     0.293 HD
ENDBRANCH  43  46
BRANCH  45  48
ATOM     48  O   UNL     1      20.014  23.066  36.414  1.00  0.00    -0.493 OA
ATOM     49  C   UNL     1      20.461  23.956  35.396  1.00  0.00     0.278 C 
ENDBRANCH  45  48
ENDBRANCH  35  40
ENDBRANCH  26  27
ENDBRANCH   5  26
BRANCH   4  50
ATOM     50  O   UNL     1      12.269  19.688  44.224  1.00  0.00    -0.384 OA
ATOM     51  H   UNL     1      11.938  18.782  44.025  1.00  0.00     0.211 HD
ENDBRANCH   4  50
TORSDOF 15
ENDMDL
MODEL 5
REMARK VINA RESULT:    -6.882      3.445      9.972
REMARK INTER + INTRA:         -13.092
REMARK INTER:                 -11.725
REMARK INTRA:                  -1.367
REMARK UNBOUND:                -1.785
REMARK SMILES COc1ccc([C@H]2CC(=O)c3c(O)cc(O[C@H]4O[C@H](CO[C@@H]5O[C@H](C)[C@H](O)[C@H](O)[C@@H]5O)[C@@H](O)[C@@H](O)[C@H]4O)cc3O2)cc1O
REMARK SMILES IDX 19 1 32 2 34 3 36 4 17 5 18 6 20 7 21 8 22 9 25 10 24 11
REMARK SMILES IDX 26 12 23 13 28 14 30 15 27 16 29 18 31 20 33 22 35 24 16 26
REMARK SMILES IDX 15 27 14 28 38 29 12 30 39 31 11 32 40 33 9 34 7 35 10 36
REMARK SMILES IDX 8 37 13 38 6 40 41 41 5 42 42 43 4 44 3 45 43 46 2 48 1 49
REMARK SMILES IDX 37 50
REMARK H PARENT 27 17 29 19 31 21 33 23 35 25 13 39 43 47 37 51
REMARK Flexibility Score: inf
ROOT
ATOM      1  C   UNL     1      14.911  19.799  47.107  1.00  0.00     0.180 C 
ATOM      2  C   UNL     1      14.279  18.768  46.120  1.00  0.00     0.177 C 
ATOM      3  C   UNL     1      13.618  19.390  44.895  1.00  0.00     0.180 C 
ATOM      4  C   UNL     1      14.609  20.351  44.242  1.00  0.00     0.214 C 
ATOM      5  C   UNL     1      15.251  21.365  45.250  1.00  0.00     0.339 C 
ATOM      6  O   UNL     1      14.889  21.136  46.590  1.00  0.00    -0.332 OA
ENDROOT
BRANCH   1   7
ATOM      7  C   UNL     1      16.299  19.456  47.694  1.00  0.00     0.198 C 
BRANCH   7   8
ATOM      8  O   UNL     1      16.254  19.347  49.102  1.00  0.00    -0.347 OA
BRANCH   8   9
ATOM      9  C   UNL     1      16.911  20.429  49.757  1.00  0.00     0.281 C 
ATOM     10  C   UNL     1      20.500  21.178  50.145  1.00  0.00     0.041 C 
ATOM     11  C   UNL     1      18.999  21.506  50.044  1.00  0.00     0.150 C 
ATOM     12  C   UNL     1      18.413  22.064  51.379  1.00  0.00     0.174 C 
ATOM     13  O   UNL     1      18.323  20.322  49.590  1.00  0.00    -0.344 OA
ATOM     14  C   UNL     1      17.702  20.933  52.143  1.00  0.00     0.179 C 
ATOM     15  C   UNL     1      16.546  20.391  51.275  1.00  0.00     0.202 C 
BRANCH  12  16
ATOM     16  O   UNL     1      19.393  22.663  52.181  1.00  0.00    -0.388 OA
ATOM     17  H   UNL     1      19.004  22.794  53.089  1.00  0.00     0.211 HD
ENDBRANCH  12  16
BRANCH  14  18
ATOM     18  O   UNL     1      18.605  19.901  52.444  1.00  0.00    -0.387 OA
ATOM     19  H   UNL     1      18.145  19.282  53.065  1.00  0.00     0.211 HD
ENDBRANCH  14  18
BRANCH  15  20
ATOM     20  O   UNL     1      16.200  19.088  51.665  1.00  0.00    -0.385 OA
ATOM     21  H   UNL     1      15.484  19.166  52.340  1.00  0.00     0.211 HD
ENDBRANCH  15  20
ENDBRANCH   8   9
ENDBRANCH   7   8
ENDBRANCH   1   7
BRANCH   2  22
ATOM     22  O   UNL     1      13.373  17.884  46.759  1.00  0.00    -0.387 OA
ATOM     23  H   UNL     1      13.526  17.946  47.738  1.00  0.00     0.211 HD
ENDBRANCH   2  22
BRANCH   3  24
ATOM     24  O   UNL     1      12.426  20.067  45.256  1.00  0.00    -0.387 OA
ATOM     25  H   UNL     1      12.378  20.889  44.702  1.00  0.00     0.211 HD
ENDBRANCH   3  24
BRANCH   5  26
ATOM     26  O   UNL     1      14.833  22.699  45.019  1.00  0.00    -0.462 OA
BRANCH  26  27
ATOM     27  C   UNL     1      15.565  23.812  44.607  1.00  0.00     0.130 A 
ATOM     28  C   UNL     1      15.569  25.054  45.283  1.00  0.00     0.093 A 
ATOM     29  C   UNL     1      16.332  23.655  43.444  1.00  0.00     0.094 A 
ATOM     30  C   UNL     1      16.508  26.030  44.911  1.00  0.00     0.133 A 
ATOM     31  C   UNL     1      17.212  24.643  43.049  1.00  0.00     0.138 A 
ATOM     32  C   UNL     1      17.346  25.805  43.802  1.00  0.00     0.102 A 
ATOM     33  O   UNL     1      18.017  24.465  41.911  1.00  0.00    -0.484 OA
ATOM     34  C   UNL     1      18.427  26.691  43.384  1.00  0.00     0.174 C 
ATOM     35  C   UNL     1      18.523  25.560  41.126  1.00  0.00     0.211 C 
ATOM     36  O   UNL     1      19.464  26.759  44.092  1.00  0.00    -0.294 OA
ATOM     37  C   UNL     1      18.516  26.922  41.898  1.00  0.00     0.131 C 
BRANCH  30  38
ATOM     38  O   UNL     1      16.571  27.245  45.610  1.00  0.00    -0.507 OA
ATOM     39  H   UNL     1      15.853  27.960  45.512  1.00  0.00     0.293 HD
ENDBRANCH  30  38
BRANCH  35  40
ATOM     40  C   UNL     1      17.721  25.630  39.857  1.00  0.00    -0.003 A 
ATOM     41  C   UNL     1      18.333  25.973  38.645  1.00  0.00     0.057 A 
ATOM     42  C   UNL     1      16.375  25.231  39.854  1.00  0.00     0.011 A 
ATOM     43  C   UNL     1      17.591  25.992  37.452  1.00  0.00     0.158 A 
ATOM     44  C   UNL     1      15.642  25.222  38.653  1.00  0.00     0.051 A 
ATOM     45  C   UNL     1      16.234  25.629  37.456  1.00  0.00     0.160 A 
BRANCH  43  46
ATOM     46  O   UNL     1      18.194  26.336  36.244  1.00  0.00    -0.504 OA
ATOM     47  H   UNL     1      17.690  26.302  35.365  1.00  0.00     0.293 HD
ENDBRANCH  43  46
BRANCH  45  48
ATOM     48  O   UNL     1      15.495  25.727  36.263  1.00  0.00    -0.493 OA
ATOM     49  C   UNL     1      14.484  26.702  36.027  1.00  0.00     0.278 C 
ENDBRANCH  45  48
ENDBRANCH  35  40
ENDBRANCH  26  27
ENDBRANCH   5  26
BRANCH   4  50
ATOM     50  O   UNL     1      14.031  20.947  43.099  1.00  0.00    -0.384 OA
ATOM     51  H   UNL     1      14.781  21.266  42.546  1.00  0.00     0.211 HD
ENDBRANCH   4  50
TORSDOF 15
ENDMDL
MODEL 6
REMARK VINA RESULT:    -6.832      2.702      5.021
REMARK INTER + INTRA:         -13.011
REMARK INTER:                 -10.189
REMARK INTRA:                  -2.822
REMARK UNBOUND:                -1.785
REMARK SMILES COc1ccc([C@H]2CC(=O)c3c(O)cc(O[C@H]4O[C@H](CO[C@@H]5O[C@H](C)[C@H](O)[C@H](O)[C@@H]5O)[C@@H](O)[C@@H](O)[C@H]4O)cc3O2)cc1O
REMARK SMILES IDX 19 1 32 2 34 3 36 4 17 5 18 6 20 7 21 8 22 9 25 10 24 11
REMARK SMILES IDX 26 12 23 13 28 14 30 15 27 16 29 18 31 20 33 22 35 24 16 26
REMARK SMILES IDX 15 27 14 28 38 29 12 30 39 31 11 32 40 33 9 34 7 35 10 36
REMARK SMILES IDX 8 37 13 38 6 40 41 41 5 42 42 43 4 44 3 45 43 46 2 48 1 49
REMARK SMILES IDX 37 50
REMARK H PARENT 27 17 29 19 31 21 33 23 35 25 13 39 43 47 37 51
REMARK Flexibility Score: inf
ROOT
ATOM      1  C   UNL     1      17.495  24.488  41.871  1.00  0.00     0.180 C 
ATOM      2  C   UNL     1      18.787  25.269  41.475  1.00  0.00     0.177 C 
ATOM      3  C   UNL     1      18.885  26.671  42.066  1.00  0.00     0.180 C 
ATOM      4  C   UNL     1      18.648  26.581  43.572  1.00  0.00     0.214 C 
ATOM      5  C   UNL     1      17.360  25.776  43.954  1.00  0.00     0.339 C 
ATOM      6  O   UNL     1      16.715  25.184  42.853  1.00  0.00    -0.332 OA
ENDROOT
BRANCH   1   7
ATOM      7  C   UNL     1      17.657  22.998  42.248  1.00  0.00     0.198 C 
BRANCH   7   8
ATOM      8  O   UNL     1      16.416  22.410  42.581  1.00  0.00    -0.347 OA
BRANCH   8   9
ATOM      9  C   UNL     1      16.473  21.661  43.792  1.00  0.00     0.281 C 
ATOM     10  C   UNL     1      16.369  18.021  44.372  1.00  0.00     0.041 C 
ATOM     11  C   UNL     1      16.735  19.484  44.684  1.00  0.00     0.150 C 
ATOM     12  C   UNL     1      16.013  20.028  45.956  1.00  0.00     0.174 C 
ATOM     13  O   UNL     1      16.458  20.263  43.509  1.00  0.00    -0.344 OA
ATOM     14  C   UNL     1      14.780  20.848  45.538  1.00  0.00     0.179 C 
ATOM     15  C   UNL     1      15.242  22.043  44.674  1.00  0.00     0.202 C 
BRANCH  12  16
ATOM     16  O   UNL     1      15.649  19.004  46.840  1.00  0.00    -0.388 OA
ATOM     17  H   UNL     1      14.817  18.582  46.490  1.00  0.00     0.211 HD
ENDBRANCH  12  16
BRANCH  14  18
ATOM     18  O   UNL     1      13.880  20.050  44.816  1.00  0.00    -0.387 OA
ATOM     19  H   UNL     1      14.226  19.980  43.892  1.00  0.00     0.211 HD
ENDBRANCH  14  18
BRANCH  15  20
ATOM     20  O   UNL     1      14.190  22.513  43.873  1.00  0.00    -0.385 OA
ATOM     21  H   UNL     1      14.302  22.109  42.979  1.00  0.00     0.211 HD
ENDBRANCH  15  20
ENDBRANCH   8   9
ENDBRANCH   7   8
ENDBRANCH   1   7
BRANCH   2  22
ATOM     22  O   UNL     1      18.983  25.324  40.072  1.00  0.00    -0.387 OA
ATOM     23  H   UNL     1      18.620  24.487  39.680  1.00  0.00     0.211 HD
ENDBRANCH   2  22
BRANCH   3  24
ATOM     24  O   UNL     1      17.942  27.539  41.461  1.00  0.00    -0.387 OA
ATOM     25  H   UNL     1      17.813  28.305  42.079  1.00  0.00     0.211 HD
ENDBRANCH   3  24
BRANCH   5  26
ATOM     26  O   UNL     1      16.354  26.598  44.523  1.00  0.00    -0.462 OA
BRANCH  26  27
ATOM     27  C   UNL     1      15.845  26.628  45.820  1.00  0.00     0.130 A 
ATOM     28  C   UNL     1      16.297  27.510  46.829  1.00  0.00     0.093 A 
ATOM     29  C   UNL     1      14.825  25.712  46.108  1.00  0.00     0.094 A 
ATOM     30  C   UNL     1      15.568  27.607  48.026  1.00  0.00     0.133 A 
ATOM     31  C   UNL     1      14.149  25.773  47.311  1.00  0.00     0.138 A 
ATOM     32  C   UNL     1      14.475  26.748  48.249  1.00  0.00     0.102 A 
ATOM     33  O   UNL     1      13.093  24.886  47.580  1.00  0.00    -0.484 OA
ATOM     34  C   UNL     1      13.580  26.822  49.399  1.00  0.00     0.174 C 
ATOM     35  C   UNL     1      12.710  24.500  48.913  1.00  0.00     0.211 C 
ATOM     36  O   UNL     1      12.776  27.785  49.479  1.00  0.00    -0.294 OA
ATOM     37  C   UNL     1      13.223  25.493  50.009  1.00  0.00     0.131 C 
BRANCH  30  38
ATOM     38  O   UNL     1      15.962  28.521  49.015  1.00  0.00    -0.507 OA
ATOM     39  H   UNL     1      15.570  29.459  49.068  1.00  0.00     0.293 HD
ENDBRANCH  30  38
BRANCH  35  40
ATOM     40  C   UNL     1      13.202  23.099  49.148  1.00  0.00    -0.003 A 
ATOM     41  C   UNL     1      12.715  22.035  48.380  1.00  0.00     0.057 A 
ATOM     42  C   UNL     1      14.245  22.865  50.057  1.00  0.00     0.011 A 
ATOM     43  C   UNL     1      13.210  20.734  48.570  1.00  0.00     0.158 A 
ATOM     44  C   UNL     1      14.760  21.566  50.224  1.00  0.00     0.051 A 
ATOM     45  C   UNL     1      14.228  20.494  49.507  1.00  0.00     0.160 A 
BRANCH  43  46
ATOM     46  O   UNL     1      12.726  19.670  47.811  1.00  0.00    -0.504 OA
ATOM     47  H   UNL     1      11.991  19.060  48.151  1.00  0.00     0.293 HD
ENDBRANCH  43  46
BRANCH  45  48
ATOM     48  O   UNL     1      14.655  19.171  49.731  1.00  0.00    -0.493 OA
ATOM     49  C   UNL     1      15.214  18.709  50.957  1.00  0.00     0.278 C 
ENDBRANCH  45  48
ENDBRANCH  35  40
ENDBRANCH  26  27
ENDBRANCH   5  26
BRANCH   4  50
ATOM     50  O   UNL     1      18.734  27.864  44.157  1.00  0.00    -0.384 OA
ATOM     51  H   UNL     1      17.861  28.294  44.007  1.00  0.00     0.211 HD
ENDBRANCH   4  50
TORSDOF 15
ENDMDL
MODEL 7
REMARK VINA RESULT:    -6.771      4.402     10.589
REMARK INTER + INTRA:         -12.911
REMARK INTER:                 -11.169
REMARK INTRA:                  -1.742
REMARK UNBOUND:                -1.785
REMARK SMILES COc1ccc([C@H]2CC(=O)c3c(O)cc(O[C@H]4O[C@H](CO[C@@H]5O[C@H](C)[C@H](O)[C@H](O)[C@@H]5O)[C@@H](O)[C@@H](O)[C@H]4O)cc3O2)cc1O
REMARK SMILES IDX 19 1 32 2 34 3 36 4 17 5 18 6 20 7 21 8 22 9 25 10 24 11
REMARK SMILES IDX 26 12 23 13 28 14 30 15 27 16 29 18 31 20 33 22 35 24 16 26
REMARK SMILES IDX 15 27 14 28 38 29 12 30 39 31 11 32 40 33 9 34 7 35 10 36
REMARK SMILES IDX 8 37 13 38 6 40 41 41 5 42 42 43 4 44 3 45 43 46 2 48 1 49
REMARK SMILES IDX 37 50
REMARK H PARENT 27 17 29 19 31 21 33 23 35 25 13 39 43 47 37 51
REMARK Flexibility Score: inf
ROOT
ATOM      1  C   UNL     1      14.745  27.385  50.699  1.00  0.00     0.180 C 
ATOM      2  C   UNL     1      14.927  28.769  50.003  1.00  0.00     0.177 C 
ATOM      3  C   UNL     1      14.252  28.885  48.640  1.00  0.00     0.180 C 
ATOM      4  C   UNL     1      12.797  28.444  48.778  1.00  0.00     0.214 C 
ATOM      5  C   UNL     1      12.630  27.063  49.499  1.00  0.00     0.339 C 
ATOM      6  O   UNL     1      13.835  26.531  49.991  1.00  0.00    -0.332 OA
ENDROOT
BRANCH   1   7
ATOM      7  C   UNL     1      14.431  27.391  52.213  1.00  0.00     0.198 C 
BRANCH   7   8
ATOM      8  O   UNL     1      15.431  26.721  52.952  1.00  0.00    -0.347 OA
BRANCH   8   9
ATOM      9  C   UNL     1      16.211  27.608  53.749  1.00  0.00     0.281 C 
ATOM     10  C   UNL     1      17.745  30.858  52.924  1.00  0.00     0.041 C 
ATOM     11  C   UNL     1      17.128  29.789  53.844  1.00  0.00     0.150 C 
ATOM     12  C   UNL     1      18.155  29.203  54.862  1.00  0.00     0.174 C 
ATOM     13  O   UNL     1      16.535  28.782  53.007  1.00  0.00    -0.344 OA
ATOM     14  C   UNL     1      18.694  27.861  54.336  1.00  0.00     0.179 C 
ATOM     15  C   UNL     1      17.517  26.872  54.186  1.00  0.00     0.202 C 
BRANCH  12  16
ATOM     16  O   UNL     1      19.207  30.089  55.125  1.00  0.00    -0.388 OA
ATOM     17  H   UNL     1      19.802  30.101  54.325  1.00  0.00     0.211 HD
ENDBRANCH  12  16
BRANCH  14  18
ATOM     18  O   UNL     1      19.336  28.039  53.100  1.00  0.00    -0.387 OA
ATOM     19  H   UNL     1      19.380  27.152  52.663  1.00  0.00     0.211 HD
ENDBRANCH  14  18
BRANCH  15  20
ATOM     20  O   UNL     1      17.836  25.854  53.274  1.00  0.00    -0.385 OA
ATOM     21  H   UNL     1      18.650  26.138  52.793  1.00  0.00     0.211 HD
ENDBRANCH  15  20
ENDBRANCH   8   9
ENDBRANCH   7   8
ENDBRANCH   1   7
BRANCH   2  22
ATOM     22  O   UNL     1      16.287  29.154  49.900  1.00  0.00    -0.387 OA
ATOM     23  H   UNL     1      16.557  29.556  50.768  1.00  0.00     0.211 HD
ENDBRANCH   2  22
BRANCH   3  24
ATOM     24  O   UNL     1      14.927  28.095  47.676  1.00  0.00    -0.387 OA
ATOM     25  H   UNL     1      15.087  27.206  48.089  1.00  0.00     0.211 HD
ENDBRANCH   3  24
BRANCH   5  26
ATOM     26  O   UNL     1      12.153  26.051  48.629  1.00  0.00    -0.462 OA
BRANCH  26  27
ATOM     27  C   UNL     1      12.847  25.062  47.934  1.00  0.00     0.130 A 
ATOM     28  C   UNL     1      13.262  23.835  48.502  1.00  0.00     0.093 A 
ATOM     29  C   UNL     1      13.140  25.336  46.591  1.00  0.00     0.094 A 
ATOM     30  C   UNL     1      13.755  22.825  47.659  1.00  0.00     0.133 A 
ATOM     31  C   UNL     1      13.680  24.359  45.780  1.00  0.00     0.138 A 
ATOM     32  C   UNL     1      13.939  23.089  46.288  1.00  0.00     0.102 A 
ATOM     33  O   UNL     1      13.927  24.618  44.421  1.00  0.00    -0.484 OA
ATOM     34  C   UNL     1      14.342  22.097  45.297  1.00  0.00     0.174 C 
ATOM     35  C   UNL     1      14.934  23.927  43.658  1.00  0.00     0.211 C 
ATOM     36  O   UNL     1      13.521  21.204  44.965  1.00  0.00    -0.294 OA
ATOM     37  C   UNL     1      15.374  22.573  44.309  1.00  0.00     0.131 C 
BRANCH  30  38
ATOM     38  O   UNL     1      14.112  21.578  48.194  1.00  0.00    -0.507 OA
ATOM     39  H   UNL     1      13.427  20.961  48.624  1.00  0.00     0.293 HD
ENDBRANCH  30  38
BRANCH  35  40
ATOM     40  C   UNL     1      16.095  24.864  43.470  1.00  0.00    -0.003 A 
ATOM     41  C   UNL     1      16.653  25.535  44.564  1.00  0.00     0.057 A 
ATOM     42  C   UNL     1      16.708  24.978  42.212  1.00  0.00     0.011 A 
ATOM     43  C   UNL     1      17.767  26.374  44.392  1.00  0.00     0.158 A 
ATOM     44  C   UNL     1      17.842  25.794  42.049  1.00  0.00     0.051 A 
ATOM     45  C   UNL     1      18.357  26.517  43.126  1.00  0.00     0.160 A 
BRANCH  43  46
ATOM     46  O   UNL     1      18.325  27.047  45.477  1.00  0.00    -0.504 OA
ATOM     47  H   UNL     1      18.074  28.004  45.700  1.00  0.00     0.293 HD
ENDBRANCH  43  46
BRANCH  45  48
ATOM     48  O   UNL     1      19.426  27.419  42.966  1.00  0.00    -0.493 OA
ATOM     49  C   UNL     1      20.443  27.285  41.978  1.00  0.00     0.278 C 
ENDBRANCH  45  48
ENDBRANCH  35  40
ENDBRANCH  26  27
ENDBRANCH   5  26
BRANCH   4  50
ATOM     50  O   UNL     1      12.137  28.540  47.534  1.00  0.00    -0.384 OA
ATOM     51  H   UNL     1      11.976  27.615  47.235  1.00  0.00     0.211 HD
ENDBRANCH   4  50
TORSDOF 15
ENDMDL
MODEL 8
REMARK VINA RESULT:    -6.755      3.598      6.845
REMARK INTER + INTRA:         -12.884
REMARK INTER:                 -10.800
REMARK INTRA:                  -2.085
REMARK UNBOUND:                -1.785
REMARK SMILES COc1ccc([C@H]2CC(=O)c3c(O)cc(O[C@H]4O[C@H](CO[C@@H]5O[C@H](C)[C@H](O)[C@H](O)[C@@H]5O)[C@@H](O)[C@@H](O)[C@H]4O)cc3O2)cc1O
REMARK SMILES IDX 19 1 32 2 34 3 36 4 17 5 18 6 20 7 21 8 22 9 25 10 24 11
REMARK SMILES IDX 26 12 23 13 28 14 30 15 27 16 29 18 31 20 33 22 35 24 16 26
REMARK SMILES IDX 15 27 14 28 38 29 12 30 39 31 11 32 40 33 9 34 7 35 10 36
REMARK SMILES IDX 8 37 13 38 6 40 41 41 5 42 42 43 4 44 3 45 43 46 2 48 1 49
REMARK SMILES IDX 37 50
REMARK H PARENT 27 17 29 19 31 21 33 23 35 25 13 39 43 47 37 51
REMARK Flexibility Score: inf
ROOT
ATOM      1  C   UNL     1      15.759  22.576  44.328  1.00  0.00     0.180 C 
ATOM      2  C   UNL     1      15.512  21.069  44.647  1.00  0.00     0.177 C 
ATOM      3  C   UNL     1      14.399  20.810  45.656  1.00  0.00     0.180 C 
ATOM      4  C   UNL     1      13.149  21.563  45.206  1.00  0.00     0.214 C 
ATOM      5  C   UNL     1      13.417  23.069  44.869  1.00  0.00     0.339 C 
ATOM      6  O   UNL     1      14.775  23.430  44.929  1.00  0.00    -0.332 OA
ENDROOT
BRANCH   1   7
ATOM      7  C   UNL     1      15.990  22.957  42.848  1.00  0.00     0.198 C 
BRANCH   7   8
ATOM      8  O   UNL     1      15.945  24.356  42.660  1.00  0.00    -0.347 OA
BRANCH   8   9
ATOM      9  C   UNL     1      17.125  25.010  43.121  1.00  0.00     0.281 C 
ATOM     10  C   UNL     1      17.556  28.180  44.953  1.00  0.00     0.041 C 
ATOM     11  C   UNL     1      17.930  26.756  44.502  1.00  0.00     0.150 C 
ATOM     12  C   UNL     1      19.218  26.720  43.622  1.00  0.00     0.174 C 
ATOM     13  O   UNL     1      16.786  26.194  43.838  1.00  0.00    -0.344 OA
ATOM     14  C   UNL     1      18.827  26.654  42.136  1.00  0.00     0.179 C 
ATOM     15  C   UNL     1      18.015  25.365  41.887  1.00  0.00     0.202 C 
BRANCH  12  16
ATOM     16  O   UNL     1      20.058  27.815  43.865  1.00  0.00    -0.388 OA
ATOM     17  H   UNL     1      19.807  28.538  43.226  1.00  0.00     0.211 HD
ENDBRANCH  12  16
BRANCH  14  18
ATOM     18  O   UNL     1      18.068  27.780  41.777  1.00  0.00    -0.387 OA
ATOM     19  H   UNL     1      17.173  27.455  41.505  1.00  0.00     0.211 HD
ENDBRANCH  14  18
BRANCH  15  20
ATOM     20  O   UNL     1      17.227  25.487  40.732  1.00  0.00    -0.385 OA
ATOM     21  H   UNL     1      16.327  25.146  40.956  1.00  0.00     0.211 HD
ENDBRANCH  15  20
ENDBRANCH   8   9
ENDBRANCH   7   8
ENDBRANCH   1   7
BRANCH   2  22
ATOM     22  O   UNL     1      16.693  20.396  45.051  1.00  0.00    -0.387 OA
ATOM     23  H   UNL     1      17.255  21.042  45.554  1.00  0.00     0.211 HD
ENDBRANCH   2  22
BRANCH   3  24
ATOM     24  O   UNL     1      14.792  21.219  46.955  1.00  0.00    -0.387 OA
ATOM     25  H   UNL     1      14.240  20.707  47.602  1.00  0.00     0.211 HD
ENDBRANCH   3  24
BRANCH   5  26
ATOM     26  O   UNL     1      12.800  23.951  45.792  1.00  0.00    -0.462 OA
BRANCH  26  27
ATOM     27  C   UNL     1      13.361  24.729  46.803  1.00  0.00     0.130 A 
ATOM     28  C   UNL     1      13.766  26.074  46.637  1.00  0.00     0.093 A 
ATOM     29  C   UNL     1      13.520  24.108  48.049  1.00  0.00     0.094 A 
ATOM     30  C   UNL     1      14.109  26.828  47.772  1.00  0.00     0.133 A 
ATOM     31  C   UNL     1      13.915  24.840  49.151  1.00  0.00     0.138 A 
ATOM     32  C   UNL     1      14.158  26.206  49.035  1.00  0.00     0.102 A 
ATOM     33  O   UNL     1      14.027  24.227  50.411  1.00  0.00    -0.484 OA
ATOM     34  C   UNL     1      14.396  26.901  50.296  1.00  0.00     0.174 C 
ATOM     35  C   UNL     1      14.906  24.708  51.444  1.00  0.00     0.211 C 
ATOM     36  O   UNL     1      13.496  27.650  50.754  1.00  0.00    -0.294 OA
ATOM     37  C   UNL     1      15.339  26.198  51.236  1.00  0.00     0.131 C 
BRANCH  30  38
ATOM     38  O   UNL     1      14.454  28.181  47.637  1.00  0.00    -0.507 OA
ATOM     39  H   UNL     1      13.787  28.875  47.306  1.00  0.00     0.293 HD
ENDBRANCH  30  38
BRANCH  35  40
ATOM     40  C   UNL     1      16.089  23.783  51.513  1.00  0.00    -0.003 A 
ATOM     41  C   UNL     1      17.281  24.196  52.119  1.00  0.00     0.057 A 
ATOM     42  C   UNL     1      15.967  22.454  51.079  1.00  0.00     0.011 A 
ATOM     43  C   UNL     1      18.370  23.314  52.223  1.00  0.00     0.158 A 
ATOM     44  C   UNL     1      17.049  21.564  51.212  1.00  0.00     0.051 A 
ATOM     45  C   UNL     1      18.261  21.995  51.754  1.00  0.00     0.160 A 
BRANCH  43  46
ATOM     46  O   UNL     1      19.561  23.721  52.822  1.00  0.00    -0.504 OA
ATOM     47  H   UNL     1      20.067  24.541  52.506  1.00  0.00     0.293 HD
ENDBRANCH  43  46
BRANCH  45  48
ATOM     48  O   UNL     1      19.388  21.154  51.803  1.00  0.00    -0.493 OA
ATOM     49  C   UNL     1      20.220  20.866  50.684  1.00  0.00     0.278 C 
ENDBRANCH  45  48
ENDBRANCH  35  40
ENDBRANCH  26  27
ENDBRANCH   5  26
BRANCH   4  50
ATOM     50  O   UNL     1      12.093  21.345  46.118  1.00  0.00    -0.384 OA
ATOM     51  H   UNL     1      12.302  21.883  46.916  1.00  0.00     0.211 HD
ENDBRANCH   4  50
TORSDOF 15
ENDMDL
MODEL 9
REMARK VINA RESULT:    -6.642      2.418      9.188
REMARK INTER + INTRA:         -12.698
REMARK INTER:                 -10.706
REMARK INTRA:                  -1.992
REMARK UNBOUND:                -1.785
REMARK SMILES COc1ccc([C@H]2CC(=O)c3c(O)cc(O[C@H]4O[C@H](CO[C@@H]5O[C@H](C)[C@H](O)[C@H](O)[C@@H]5O)[C@@H](O)[C@@H](O)[C@H]4O)cc3O2)cc1O
REMARK SMILES IDX 19 1 32 2 34 3 36 4 17 5 18 6 20 7 21 8 22 9 25 10 24 11
REMARK SMILES IDX 26 12 23 13 28 14 30 15 27 16 29 18 31 20 33 22 35 24 16 26
REMARK SMILES IDX 15 27 14 28 38 29 12 30 39 31 11 32 40 33 9 34 7 35 10 36
REMARK SMILES IDX 8 37 13 38 6 40 41 41 5 42 42 43 4 44 3 45 43 46 2 48 1 49
REMARK SMILES IDX 37 50
REMARK H PARENT 27 17 29 19 31 21 33 23 35 25 13 39 43 47 37 51
REMARK Flexibility Score: inf
ROOT
ATOM      1  C   UNL     1      13.035  22.726  46.967  1.00  0.00     0.180 C 
ATOM      2  C   UNL     1      13.143  21.181  46.779  1.00  0.00     0.177 C 
ATOM      3  C   UNL     1      13.695  20.746  45.426  1.00  0.00     0.180 C 
ATOM      4  C   UNL     1      14.999  21.497  45.167  1.00  0.00     0.214 C 
ATOM      5  C   UNL     1      14.880  23.044  45.382  1.00  0.00     0.339 C 
ATOM      6  O   UNL     1      13.631  23.452  45.883  1.00  0.00    -0.332 OA
ENDROOT
BRANCH   1   7
ATOM      7  C   UNL     1      13.480  23.305  48.330  1.00  0.00     0.198 C 
BRANCH   7   8
ATOM      8  O   UNL     1      12.983  24.613  48.525  1.00  0.00    -0.347 OA
BRANCH   8   9
ATOM      9  C   UNL     1      14.002  25.537  48.896  1.00  0.00     0.281 C 
ATOM     10  C   UNL     1      13.938  28.359  51.268  1.00  0.00     0.041 C 
ATOM     11  C   UNL     1      14.582  27.220  50.456  1.00  0.00     0.150 C 
ATOM     12  C   UNL     1      15.577  27.740  49.373  1.00  0.00     0.174 C 
ATOM     13  O   UNL     1      13.522  26.424  49.904  1.00  0.00    -0.344 OA
ATOM     14  C   UNL     1      14.876  27.776  48.004  1.00  0.00     0.179 C 
ATOM     15  C   UNL     1      14.431  26.345  47.630  1.00  0.00     0.202 C 
BRANCH  12  16
ATOM     16  O   UNL     1      16.102  28.998  49.693  1.00  0.00    -0.388 OA
ATOM     17  H   UNL     1      15.505  29.688  49.292  1.00  0.00     0.211 HD
ENDBRANCH  12  16
BRANCH  14  18
ATOM     18  O   UNL     1      13.765  28.633  48.042  1.00  0.00    -0.387 OA
ATOM     19  H   UNL     1      13.104  28.227  48.658  1.00  0.00     0.211 HD
ENDBRANCH  14  18
BRANCH  15  20
ATOM     20  O   UNL     1      13.388  26.377  46.692  1.00  0.00    -0.385 OA
ATOM     21  H   UNL     1      13.796  26.276  45.798  1.00  0.00     0.211 HD
ENDBRANCH  15  20
ENDBRANCH   8   9
ENDBRANCH   7   8
ENDBRANCH   1   7
BRANCH   2  22
ATOM     22  O   UNL     1      11.920  20.513  47.037  1.00  0.00    -0.387 OA
ATOM     23  H   UNL     1      11.598  20.125  46.180  1.00  0.00     0.211 HD
ENDBRANCH   2  22
BRANCH   3  24
ATOM     24  O   UNL     1      12.756  21.000  44.395  1.00  0.00    -0.387 OA
ATOM     25  H   UNL     1      11.858  20.785  44.759  1.00  0.00     0.211 HD
ENDBRANCH   3  24
BRANCH   5  26
ATOM     26  O   UNL     1      15.004  23.772  44.172  1.00  0.00    -0.462 OA
BRANCH  26  27
ATOM     27  C   UNL     1      15.929  24.744  43.798  1.00  0.00     0.130 A 
ATOM     28  C   UNL     1      16.064  25.999  44.438  1.00  0.00     0.093 A 
ATOM     29  C   UNL     1      16.760  24.427  42.715  1.00  0.00     0.094 A 
ATOM     30  C   UNL     1      17.170  26.808  44.126  1.00  0.00     0.133 A 
ATOM     31  C   UNL     1      17.811  25.256  42.374  1.00  0.00     0.138 A 
ATOM     32  C   UNL     1      18.056  26.415  43.104  1.00  0.00     0.102 A 
ATOM     33  O   UNL     1      18.674  24.913  41.319  1.00  0.00    -0.484 OA
ATOM     34  C   UNL     1      19.292  27.112  42.762  1.00  0.00     0.174 C 
ATOM     35  C   UNL     1      19.407  25.888  40.553  1.00  0.00     0.211 C 
ATOM     36  O   UNL     1      20.262  27.053  43.559  1.00  0.00    -0.294 OA
ATOM     37  C   UNL     1      19.541  27.266  41.285  1.00  0.00     0.131 C 
BRANCH  30  38
ATOM     38  O   UNL     1      17.357  28.027  44.794  1.00  0.00    -0.507 OA
ATOM     39  H   UNL     1      18.282  28.361  45.055  1.00  0.00     0.293 HD
ENDBRANCH  30  38
BRANCH  35  40
ATOM     40  C   UNL     1      18.736  26.024  39.215  1.00  0.00    -0.003 A 
ATOM     41  C   UNL     1      19.390  26.661  38.154  1.00  0.00     0.057 A 
ATOM     42  C   UNL     1      17.498  25.405  38.984  1.00  0.00     0.011 A 
ATOM     43  C   UNL     1      18.779  26.747  36.891  1.00  0.00     0.158 A 
ATOM     44  C   UNL     1      16.904  25.466  37.710  1.00  0.00     0.051 A 
ATOM     45  C   UNL     1      17.523  26.160  36.670  1.00  0.00     0.160 A 
BRANCH  43  46
ATOM     46  O   UNL     1      19.424  27.383  35.831  1.00  0.00    -0.504 OA
ATOM     47  H   UNL     1      18.941  27.605  34.967  1.00  0.00     0.293 HD
ENDBRANCH  43  46
BRANCH  45  48
ATOM     48  O   UNL     1      16.901  26.323  35.418  1.00  0.00    -0.493 OA
ATOM     49  C   UNL     1      15.880  27.279  35.151  1.00  0.00     0.278 C 
ENDBRANCH  45  48
ENDBRANCH  35  40
ENDBRANCH  26  27
ENDBRANCH   5  26
BRANCH   4  50
ATOM     50  O   UNL     1      15.542  21.117  43.921  1.00  0.00    -0.384 OA
ATOM     51  H   UNL     1      15.784  21.953  43.459  1.00  0.00     0.211 HD
ENDBRANCH   4  50
TORSDOF 15
ENDMDL
