MODEL 1
REMARK VINA RESULT:    -7.426      0.000      0.000
REMARK INTER + INTRA:          -9.248
REMARK INTER:                  -8.945
REMARK INTRA:                  -0.302
REMARK UNBOUND:                -0.302
REMARK SMILES O=c1c(O)c(-c2ccc(O)c(O)c2)oc2cc(O)cc(O)c12
REMARK SMILES IDX 5 1 3 2 2 3 1 4 22 5 20 6 19 7 17 8 16 9 15 10 14 11 6 12
REMARK SMILES IDX 7 13 8 14 9 15 13 16 11 17 10 18 12 20 4 22 21 24 18 26
REMARK H PARENT 10 19 12 21 4 23 21 25 18 27
REMARK Flexibility Score: inf
ROOT
ATOM      1  C   UNL     1      13.498  36.013  55.456  1.00  0.00     0.180 A 
ATOM      2  C   UNL     1      14.171  35.923  56.687  1.00  0.00     0.208 A 
ATOM      3  C   UNL     1      15.562  35.733  56.688  1.00  0.00     0.238 A 
ATOM      4  O   UNL     1      16.153  35.598  57.792  1.00  0.00    -0.285 OA
ATOM      5  C   UNL     1      16.264  35.653  55.462  1.00  0.00     0.111 A 
ATOM      6  C   UNL     1      17.679  35.501  55.346  1.00  0.00     0.134 A 
ATOM      7  C   UNL     1      18.251  35.303  54.084  1.00  0.00     0.093 A 
ATOM      8  C   UNL     1      17.467  35.315  52.927  1.00  0.00     0.123 A 
ATOM      9  C   UNL     1      16.093  35.521  53.026  1.00  0.00     0.094 A 
ATOM     10  C   UNL     1      15.489  35.686  54.274  1.00  0.00     0.146 A 
ATOM     11  O   UNL     1      14.174  35.869  54.323  1.00  0.00    -0.452 OA
ENDROOT
BRANCH   1  12
ATOM     12  C   UNL     1      12.036  36.238  55.373  1.00  0.00     0.025 A 
ATOM     13  C   UNL     1      11.505  37.514  55.115  1.00  0.00     0.016 A 
ATOM     14  C   UNL     1      10.124  37.697  55.017  1.00  0.00     0.051 A 
ATOM     15  C   UNL     1       9.253  36.609  55.161  1.00  0.00     0.157 A 
ATOM     16  C   UNL     1      11.160  35.147  55.496  1.00  0.00     0.062 A 
ATOM     17  C   UNL     1       9.776  35.327  55.399  1.00  0.00     0.158 A 
BRANCH  15  18
ATOM     18  O   UNL     1       7.875  36.796  55.065  1.00  0.00    -0.504 OA
ATOM     19  H   UNL     1       7.476  37.700  54.840  1.00  0.00     0.293 HD
ENDBRANCH  15  18
BRANCH  17  20
ATOM     20  O   UNL     1       8.938  34.222  55.541  1.00  0.00    -0.504 OA
ATOM     21  H   UNL     1       8.132  34.078  54.943  1.00  0.00     0.293 HD
ENDBRANCH  17  20
ENDBRANCH   1  12
BRANCH   2  22
ATOM     22  O   UNL     1      13.456  35.982  57.885  1.00  0.00    -0.502 OA
ATOM     23  H   UNL     1      13.893  35.836  58.788  1.00  0.00     0.293 HD
ENDBRANCH   2  22
BRANCH   6  24
ATOM     24  O   UNL     1      18.562  35.567  56.428  1.00  0.00    -0.507 OA
ATOM     25  H   UNL     1      18.803  36.412  56.923  1.00  0.00     0.293 HD
ENDBRANCH   6  24
BRANCH   8  26
ATOM     26  O   UNL     1      18.046  35.132  51.674  1.00  0.00    -0.508 OA
ATOM     27  H   UNL     1      17.641  34.504  50.989  1.00  0.00     0.293 HD
ENDBRANCH   8  26
TORSDOF 6
ENDMDL
MODEL 2
REMARK VINA RESULT:    -7.264      3.149      5.482
REMARK INTER + INTRA:          -9.052
REMARK INTER:                  -9.084
REMARK INTRA:                   0.032
REMARK UNBOUND:                -0.302
REMARK SMILES O=c1c(O)c(-c2ccc(O)c(O)c2)oc2cc(O)cc(O)c12
REMARK SMILES IDX 5 1 3 2 2 3 1 4 22 5 20 6 19 7 17 8 16 9 15 10 14 11 6 12
REMARK SMILES IDX 7 13 8 14 9 15 13 16 11 17 10 18 12 20 4 22 21 24 18 26
REMARK H PARENT 10 19 12 21 4 23 21 25 18 27
REMARK Flexibility Score: inf
ROOT
ATOM      1  C   UNL     1      16.105  35.559  56.621  1.00  0.00     0.180 A 
ATOM      2  C   UNL     1      17.411  35.613  56.102  1.00  0.00     0.208 A 
ATOM      3  C   UNL     1      17.602  35.435  54.723  1.00  0.00     0.238 A 
ATOM      4  O   UNL     1      18.777  35.430  54.270  1.00  0.00    -0.285 OA
ATOM      5  C   UNL     1      16.486  35.223  53.877  1.00  0.00     0.111 A 
ATOM      6  C   UNL     1      16.559  35.070  52.460  1.00  0.00     0.134 A 
ATOM      7  C   UNL     1      15.406  34.735  51.741  1.00  0.00     0.093 A 
ATOM      8  C   UNL     1      14.170  34.611  52.379  1.00  0.00     0.123 A 
ATOM      9  C   UNL     1      14.078  34.816  53.754  1.00  0.00     0.094 A 
ATOM     10  C   UNL     1      15.217  35.116  54.504  1.00  0.00     0.146 A 
ATOM     11  O   UNL     1      15.087  35.293  55.813  1.00  0.00    -0.452 OA
ENDROOT
BRANCH   1  12
ATOM     12  C   UNL     1      15.821  35.762  58.061  1.00  0.00     0.025 A 
ATOM     13  C   UNL     1      15.052  34.840  58.792  1.00  0.00     0.016 A 
ATOM     14  C   UNL     1      14.818  35.040  60.155  1.00  0.00     0.051 A 
ATOM     15  C   UNL     1      15.358  36.154  60.810  1.00  0.00     0.157 A 
ATOM     16  C   UNL     1      16.378  36.867  58.726  1.00  0.00     0.062 A 
ATOM     17  C   UNL     1      16.145  37.071  60.091  1.00  0.00     0.158 A 
BRANCH  15  18
ATOM     18  O   UNL     1      15.120  36.353  62.169  1.00  0.00    -0.504 OA
ATOM     19  H   UNL     1      15.589  35.799  62.876  1.00  0.00     0.293 HD
ENDBRANCH  15  18
BRANCH  17  20
ATOM     20  O   UNL     1      16.703  38.186  60.714  1.00  0.00    -0.504 OA
ATOM     21  H   UNL     1      16.140  38.849  61.234  1.00  0.00     0.293 HD
ENDBRANCH  17  20
ENDBRANCH   1  12
BRANCH   2  22
ATOM     22  O   UNL     1      18.500  35.801  56.956  1.00  0.00    -0.502 OA
ATOM     23  H   UNL     1      18.726  36.702  57.361  1.00  0.00     0.293 HD
ENDBRANCH   2  22
BRANCH   6  24
ATOM     24  O   UNL     1      17.726  35.264  51.714  1.00  0.00    -0.507 OA
ATOM     25  H   UNL     1      17.756  35.366  50.711  1.00  0.00     0.293 HD
ENDBRANCH   6  24
BRANCH   8  26
ATOM     26  O   UNL     1      13.024  34.292  51.654  1.00  0.00    -0.508 OA
ATOM     27  H   UNL     1      12.428  33.515  51.918  1.00  0.00     0.293 HD
ENDBRANCH   8  26
TORSDOF 6
ENDMDL
MODEL 3
REMARK VINA RESULT:    -7.183      1.428      1.974
REMARK INTER + INTRA:          -8.955
REMARK INTER:                  -8.713
REMARK INTRA:                  -0.242
REMARK UNBOUND:                -0.302
REMARK SMILES O=c1c(O)c(-c2ccc(O)c(O)c2)oc2cc(O)cc(O)c12
REMARK SMILES IDX 5 1 3 2 2 3 1 4 22 5 20 6 19 7 17 8 16 9 15 10 14 11 6 12
REMARK SMILES IDX 7 13 8 14 9 15 13 16 11 17 10 18 12 20 4 22 21 24 18 26
REMARK H PARENT 10 19 12 21 4 23 21 25 18 27
REMARK Flexibility Score: inf
ROOT
ATOM      1  C   UNL     1      13.312  35.889  54.994  1.00  0.00     0.180 A 
ATOM      2  C   UNL     1      14.366  36.409  55.766  1.00  0.00     0.208 A 
ATOM      3  C   UNL     1      15.686  36.230  55.322  1.00  0.00     0.238 A 
ATOM      4  O   UNL     1      16.628  36.650  56.045  1.00  0.00    -0.285 OA
ATOM      5  C   UNL     1      15.935  35.549  54.106  1.00  0.00     0.111 A 
ATOM      6  C   UNL     1      17.230  35.346  53.542  1.00  0.00     0.134 A 
ATOM      7  C   UNL     1      17.369  34.546  52.402  1.00  0.00     0.093 A 
ATOM      8  C   UNL     1      16.252  33.995  51.768  1.00  0.00     0.123 A 
ATOM      9  C   UNL     1      14.979  34.237  52.278  1.00  0.00     0.094 A 
ATOM     10  C   UNL     1      14.812  35.002  53.435  1.00  0.00     0.146 A 
ATOM     11  O   UNL     1      13.581  35.199  53.893  1.00  0.00    -0.452 OA
ENDROOT
BRANCH   1  12
ATOM     12  C   UNL     1      11.893  36.059  55.383  1.00  0.00     0.025 A 
ATOM     13  C   UNL     1      11.337  35.343  56.458  1.00  0.00     0.016 A 
ATOM     14  C   UNL     1      10.003  35.538  56.821  1.00  0.00     0.051 A 
ATOM     15  C   UNL     1       9.207  36.459  56.127  1.00  0.00     0.157 A 
ATOM     16  C   UNL     1      11.098  36.996  54.703  1.00  0.00     0.062 A 
ATOM     17  C   UNL     1       9.760  37.194  55.064  1.00  0.00     0.158 A 
BRANCH  15  18
ATOM     18  O   UNL     1       7.875  36.649  56.491  1.00  0.00    -0.504 OA
ATOM     19  H   UNL     1       7.213  37.094  55.866  1.00  0.00     0.293 HD
ENDBRANCH  15  18
BRANCH  17  20
ATOM     20  O   UNL     1       8.998  38.123  54.357  1.00  0.00    -0.504 OA
ATOM     21  H   UNL     1       8.948  39.097  54.632  1.00  0.00     0.293 HD
ENDBRANCH  17  20
ENDBRANCH   1  12
BRANCH   2  22
ATOM     22  O   UNL     1      14.099  37.058  56.974  1.00  0.00    -0.502 OA
ATOM     23  H   UNL     1      13.179  37.407  57.213  1.00  0.00     0.293 HD
ENDBRANCH   2  22
BRANCH   6  24
ATOM     24  O   UNL     1      18.400  35.927  54.043  1.00  0.00    -0.507 OA
ATOM     25  H   UNL     1      19.235  35.417  54.288  1.00  0.00     0.293 HD
ENDBRANCH   6  24
BRANCH   8  26
ATOM     26  O   UNL     1      16.398  33.213  50.625  1.00  0.00    -0.508 OA
ATOM     27  H   UNL     1      16.469  32.203  50.679  1.00  0.00     0.293 HD
ENDBRANCH   8  26
TORSDOF 6
ENDMDL
MODEL 4
REMARK VINA RESULT:    -7.098      1.326      2.931
REMARK INTER + INTRA:          -8.852
REMARK INTER:                  -8.568
REMARK INTRA:                  -0.284
REMARK UNBOUND:                -0.302
REMARK SMILES O=c1c(O)c(-c2ccc(O)c(O)c2)oc2cc(O)cc(O)c12
REMARK SMILES IDX 5 1 3 2 2 3 1 4 22 5 20 6 19 7 17 8 16 9 15 10 14 11 6 12
REMARK SMILES IDX 7 13 8 14 9 15 13 16 11 17 10 18 12 20 4 22 21 24 18 26
REMARK H PARENT 10 19 12 21 4 23 21 25 18 27
REMARK Flexibility Score: inf
ROOT
ATOM      1  C   UNL     1      13.562  35.736  55.199  1.00  0.00     0.180 A 
ATOM      2  C   UNL     1      14.256  35.381  54.029  1.00  0.00     0.208 A 
ATOM      3  C   UNL     1      15.659  35.324  54.062  1.00  0.00     0.238 A 
ATOM      4  O   UNL     1      16.278  35.059  52.998  1.00  0.00    -0.285 OA
ATOM      5  C   UNL     1      16.348  35.605  55.266  1.00  0.00     0.111 A 
ATOM      6  C   UNL     1      17.765  35.539  55.423  1.00  0.00     0.134 A 
ATOM      7  C   UNL     1      18.347  35.964  56.623  1.00  0.00     0.093 A 
ATOM      8  C   UNL     1      17.560  36.392  57.694  1.00  0.00     0.123 A 
ATOM      9  C   UNL     1      16.172  36.405  57.570  1.00  0.00     0.094 A 
ATOM     10  C   UNL     1      15.564  36.020  56.373  1.00  0.00     0.146 A 
ATOM     11  O   UNL     1      14.239  36.057  56.294  1.00  0.00    -0.452 OA
ENDROOT
BRANCH   1  12
ATOM     12  C   UNL     1      12.082  35.793  55.250  1.00  0.00     0.025 A 
ATOM     13  C   UNL     1      11.373  36.881  54.712  1.00  0.00     0.016 A 
ATOM     14  C   UNL     1       9.977  36.901  54.750  1.00  0.00     0.051 A 
ATOM     15  C   UNL     1       9.268  35.832  55.313  1.00  0.00     0.157 A 
ATOM     16  C   UNL     1      11.368  34.714  55.795  1.00  0.00     0.062 A 
ATOM     17  C   UNL     1       9.968  34.731  55.835  1.00  0.00     0.158 A 
BRANCH  15  18
ATOM     18  O   UNL     1       7.875  35.857  55.351  1.00  0.00    -0.504 OA
ATOM     19  H   UNL     1       7.318  35.190  54.830  1.00  0.00     0.293 HD
ENDBRANCH  15  18
BRANCH  17  20
ATOM     20  O   UNL     1       9.294  33.647  56.396  1.00  0.00    -0.504 OA
ATOM     21  H   UNL     1       8.341  33.415  56.138  1.00  0.00     0.293 HD
ENDBRANCH  17  20
ENDBRANCH   1  12
BRANCH   2  22
ATOM     22  O   UNL     1      13.558  35.129  52.846  1.00  0.00    -0.502 OA
ATOM     23  H   UNL     1      12.770  34.494  52.803  1.00  0.00     0.293 HD
ENDBRANCH   2  22
BRANCH   6  24
ATOM     24  O   UNL     1      18.636  35.040  54.449  1.00  0.00    -0.507 OA
ATOM     25  H   UNL     1      18.580  34.117  54.047  1.00  0.00     0.293 HD
ENDBRANCH   6  24
BRANCH   8  26
ATOM     26  O   UNL     1      18.146  36.800  58.890  1.00  0.00    -0.508 OA
ATOM     27  H   UNL     1      17.982  37.724  59.274  1.00  0.00     0.293 HD
ENDBRANCH   8  26
TORSDOF 6
ENDMDL
MODEL 5
REMARK VINA RESULT:    -7.000      3.418      5.524
REMARK INTER + INTRA:          -8.734
REMARK INTER:                  -8.733
REMARK INTRA:                  -0.001
REMARK UNBOUND:                -0.302
REMARK SMILES O=c1c(O)c(-c2ccc(O)c(O)c2)oc2cc(O)cc(O)c12
REMARK SMILES IDX 5 1 3 2 2 3 1 4 22 5 20 6 19 7 17 8 16 9 15 10 14 11 6 12
REMARK SMILES IDX 7 13 8 14 9 15 13 16 11 17 10 18 12 20 4 22 21 24 18 26
REMARK H PARENT 10 19 12 21 4 23 21 25 18 27
REMARK Flexibility Score: inf
ROOT
ATOM      1  C   UNL     1      15.447  35.280  58.780  1.00  0.00     0.180 A 
ATOM      2  C   UNL     1      16.796  35.498  58.452  1.00  0.00     0.208 A 
ATOM      3  C   UNL     1      17.149  35.665  57.103  1.00  0.00     0.238 A 
ATOM      4  O   UNL     1      18.366  35.806  56.810  1.00  0.00    -0.285 OA
ATOM      5  C   UNL     1      16.149  35.629  56.102  1.00  0.00     0.111 A 
ATOM      6  C   UNL     1      16.389  35.826  54.709  1.00  0.00     0.134 A 
ATOM      7  C   UNL     1      15.345  35.639  53.796  1.00  0.00     0.093 A 
ATOM      8  C   UNL     1      14.054  35.326  54.230  1.00  0.00     0.123 A 
ATOM      9  C   UNL     1      13.798  35.190  55.593  1.00  0.00     0.094 A 
ATOM     10  C   UNL     1      14.827  35.335  56.526  1.00  0.00     0.146 A 
ATOM     11  O   UNL     1      14.542  35.186  57.814  1.00  0.00    -0.452 OA
ENDROOT
BRANCH   1  12
ATOM     12  C   UNL     1      14.993  35.120  60.181  1.00  0.00     0.025 A 
ATOM     13  C   UNL     1      15.391  36.018  61.186  1.00  0.00     0.016 A 
ATOM     14  C   UNL     1      14.930  35.861  62.496  1.00  0.00     0.051 A 
ATOM     15  C   UNL     1      14.057  34.814  62.818  1.00  0.00     0.157 A 
ATOM     16  C   UNL     1      14.101  34.084  60.504  1.00  0.00     0.062 A 
ATOM     17  C   UNL     1      13.638  33.923  61.815  1.00  0.00     0.158 A 
BRANCH  15  18
ATOM     18  O   UNL     1      13.602  34.658  64.127  1.00  0.00    -0.504 OA
ATOM     19  H   UNL     1      12.638  34.417  64.328  1.00  0.00     0.293 HD
ENDBRANCH  15  18
BRANCH  17  20
ATOM     20  O   UNL     1      12.764  32.875  62.101  1.00  0.00    -0.504 OA
ATOM     21  H   UNL     1      12.692  32.473  63.029  1.00  0.00     0.293 HD
ENDBRANCH  17  20
ENDBRANCH   1  12
BRANCH   2  22
ATOM     22  O   UNL     1      17.771  35.508  59.452  1.00  0.00    -0.502 OA
ATOM     23  H   UNL     1      17.757  36.170  60.219  1.00  0.00     0.293 HD
ENDBRANCH   2  22
BRANCH   6  24
ATOM     24  O   UNL     1      17.618  36.231  54.178  1.00  0.00    -0.507 OA
ATOM     25  H   UNL     1      18.491  35.746  54.316  1.00  0.00     0.293 HD
ENDBRANCH   6  24
BRANCH   8  26
ATOM     26  O   UNL     1      13.018  35.156  53.316  1.00  0.00    -0.508 OA
ATOM     27  H   UNL     1      12.434  35.933  53.026  1.00  0.00     0.293 HD
ENDBRANCH   8  26
TORSDOF 6
ENDMDL
MODEL 6
REMARK VINA RESULT:    -6.880      3.430      6.691
REMARK INTER + INTRA:          -8.590
REMARK INTER:                  -8.627
REMARK INTRA:                   0.037
REMARK UNBOUND:                -0.302
REMARK SMILES O=c1c(O)c(-c2ccc(O)c(O)c2)oc2cc(O)cc(O)c12
REMARK SMILES IDX 5 1 3 2 2 3 1 4 22 5 20 6 19 7 17 8 16 9 15 10 14 11 6 12
REMARK SMILES IDX 7 13 8 14 9 15 13 16 11 17 10 18 12 20 4 22 21 24 18 26
REMARK H PARENT 10 19 12 21 4 23 21 25 18 27
REMARK Flexibility Score: inf
ROOT
ATOM      1  C   UNL     1      15.622  35.644  57.450  1.00  0.00     0.180 A 
ATOM      2  C   UNL     1      16.242  36.599  58.275  1.00  0.00     0.208 A 
ATOM      3  C   UNL     1      15.950  36.602  59.649  1.00  0.00     0.238 A 
ATOM      4  O   UNL     1      16.466  37.494  60.374  1.00  0.00    -0.285 OA
ATOM      5  C   UNL     1      15.058  35.641  60.183  1.00  0.00     0.111 A 
ATOM      6  C   UNL     1      14.723  35.527  61.565  1.00  0.00     0.134 A 
ATOM      7  C   UNL     1      13.730  34.624  61.962  1.00  0.00     0.093 A 
ATOM      8  C   UNL     1      13.107  33.785  61.036  1.00  0.00     0.123 A 
ATOM      9  C   UNL     1      13.470  33.848  59.692  1.00  0.00     0.094 A 
ATOM     10  C   UNL     1      14.432  34.764  59.260  1.00  0.00     0.146 A 
ATOM     11  O   UNL     1      14.741  34.798  57.970  1.00  0.00    -0.452 OA
ENDROOT
BRANCH   1  12
ATOM     12  C   UNL     1      15.898  35.561  55.997  1.00  0.00     0.025 A 
ATOM     13  C   UNL     1      14.855  35.540  55.054  1.00  0.00     0.016 A 
ATOM     14  C   UNL     1      15.140  35.486  53.688  1.00  0.00     0.051 A 
ATOM     15  C   UNL     1      16.468  35.466  53.242  1.00  0.00     0.157 A 
ATOM     16  C   UNL     1      17.227  35.562  55.545  1.00  0.00     0.062 A 
ATOM     17  C   UNL     1      17.516  35.507  54.176  1.00  0.00     0.158 A 
BRANCH  15  18
ATOM     18  O   UNL     1      16.748  35.410  51.877  1.00  0.00    -0.504 OA
ATOM     19  H   UNL     1      17.514  35.934  51.471  1.00  0.00     0.293 HD
ENDBRANCH  15  18
BRANCH  17  20
ATOM     20  O   UNL     1      18.849  35.496  53.766  1.00  0.00    -0.504 OA
ATOM     21  H   UNL     1      19.118  35.686  52.807  1.00  0.00     0.293 HD
ENDBRANCH  17  20
ENDBRANCH   1  12
BRANCH   2  22
ATOM     22  O   UNL     1      17.101  37.552  57.725  1.00  0.00    -0.502 OA
ATOM     23  H   UNL     1      17.220  38.475  58.126  1.00  0.00     0.293 HD
ENDBRANCH   2  22
BRANCH   6  24
ATOM     24  O   UNL     1      15.350  36.252  62.584  1.00  0.00    -0.507 OA
ATOM     25  H   UNL     1      15.795  35.842  63.390  1.00  0.00     0.293 HD
ENDBRANCH   6  24
BRANCH   8  26
ATOM     26  O   UNL     1      12.130  32.878  61.441  1.00  0.00    -0.508 OA
ATOM     27  H   UNL     1      12.288  31.877  61.406  1.00  0.00     0.293 HD
ENDBRANCH   8  26
TORSDOF 6
ENDMDL
MODEL 7
REMARK VINA RESULT:    -6.850      2.990      5.663
REMARK INTER + INTRA:          -8.554
REMARK INTER:                  -8.277
REMARK INTRA:                  -0.277
REMARK UNBOUND:                -0.302
REMARK SMILES O=c1c(O)c(-c2ccc(O)c(O)c2)oc2cc(O)cc(O)c12
REMARK SMILES IDX 5 1 3 2 2 3 1 4 22 5 20 6 19 7 17 8 16 9 15 10 14 11 6 12
REMARK SMILES IDX 7 13 8 14 9 15 13 16 11 17 10 18 12 20 4 22 21 24 18 26
REMARK H PARENT 10 19 12 21 4 23 21 25 18 27
REMARK Flexibility Score: inf
ROOT
ATOM      1  C   UNL     1      15.711  36.881  56.900  1.00  0.00     0.180 A 
ATOM      2  C   UNL     1      14.490  36.185  56.874  1.00  0.00     0.208 A 
ATOM      3  C   UNL     1      14.212  35.340  55.788  1.00  0.00     0.238 A 
ATOM      4  O   UNL     1      13.094  34.760  55.744  1.00  0.00    -0.285 OA
ATOM      5  C   UNL     1      15.163  35.188  54.751  1.00  0.00     0.111 A 
ATOM      6  C   UNL     1      15.003  34.328  53.623  1.00  0.00     0.134 A 
ATOM      7  C   UNL     1      15.950  34.357  52.593  1.00  0.00     0.093 A 
ATOM      8  C   UNL     1      17.086  35.166  52.680  1.00  0.00     0.123 A 
ATOM      9  C   UNL     1      17.280  35.965  53.805  1.00  0.00     0.094 A 
ATOM     10  C   UNL     1      16.335  35.985  54.832  1.00  0.00     0.146 A 
ATOM     11  O   UNL     1      16.554  36.769  55.881  1.00  0.00    -0.452 OA
ENDROOT
BRANCH   1  12
ATOM     12  C   UNL     1      16.087  37.771  58.023  1.00  0.00     0.025 A 
ATOM     13  C   UNL     1      16.491  37.252  59.265  1.00  0.00     0.016 A 
ATOM     14  C   UNL     1      16.864  38.110  60.302  1.00  0.00     0.051 A 
ATOM     15  C   UNL     1      16.852  39.498  60.111  1.00  0.00     0.157 A 
ATOM     16  C   UNL     1      16.096  39.162  57.829  1.00  0.00     0.062 A 
ATOM     17  C   UNL     1      16.468  40.026  58.866  1.00  0.00     0.158 A 
BRANCH  15  18
ATOM     18  O   UNL     1      17.222  40.352  61.148  1.00  0.00    -0.504 OA
ATOM     19  H   UNL     1      17.048  41.349  61.103  1.00  0.00     0.293 HD
ENDBRANCH  15  18
BRANCH  17  20
ATOM     20  O   UNL     1      16.452  41.401  58.641  1.00  0.00    -0.504 OA
ATOM     21  H   UNL     1      17.191  42.010  58.974  1.00  0.00     0.293 HD
ENDBRANCH  17  20
ENDBRANCH   1  12
BRANCH   2  22
ATOM     22  O   UNL     1      13.556  36.365  57.897  1.00  0.00    -0.502 OA
ATOM     23  H   UNL     1      12.777  35.733  58.042  1.00  0.00     0.293 HD
ENDBRANCH   2  22
BRANCH   6  24
ATOM     24  O   UNL     1      13.954  33.414  53.482  1.00  0.00    -0.507 OA
ATOM     25  H   UNL     1      12.999  33.663  53.277  1.00  0.00     0.293 HD
ENDBRANCH   6  24
BRANCH   8  26
ATOM     26  O   UNL     1      18.031  35.177  51.658  1.00  0.00    -0.508 OA
ATOM     27  H   UNL     1      18.176  35.996  51.077  1.00  0.00     0.293 HD
ENDBRANCH   8  26
TORSDOF 6
ENDMDL
MODEL 8
REMARK VINA RESULT:    -6.769      3.867      6.644
REMARK INTER + INTRA:          -8.456
REMARK INTER:                  -8.237
REMARK INTRA:                  -0.219
REMARK UNBOUND:                -0.302
REMARK SMILES O=c1c(O)c(-c2ccc(O)c(O)c2)oc2cc(O)cc(O)c12
REMARK SMILES IDX 5 1 3 2 2 3 1 4 22 5 20 6 19 7 17 8 16 9 15 10 14 11 6 12
REMARK SMILES IDX 7 13 8 14 9 15 13 16 11 17 10 18 12 20 4 22 21 24 18 26
REMARK H PARENT 10 19 12 21 4 23 21 25 18 27
REMARK Flexibility Score: inf
ROOT
ATOM      1  C   UNL     1      16.116  37.950  57.723  1.00  0.00     0.180 A 
ATOM      2  C   UNL     1      17.124  37.123  57.199  1.00  0.00     0.208 A 
ATOM      3  C   UNL     1      16.810  36.255  56.141  1.00  0.00     0.238 A 
ATOM      4  O   UNL     1      17.702  35.477  55.711  1.00  0.00    -0.285 OA
ATOM      5  C   UNL     1      15.497  36.237  55.610  1.00  0.00     0.111 A 
ATOM      6  C   UNL     1      15.078  35.426  54.513  1.00  0.00     0.134 A 
ATOM      7  C   UNL     1      13.725  35.393  54.156  1.00  0.00     0.093 A 
ATOM      8  C   UNL     1      12.786  36.191  54.815  1.00  0.00     0.123 A 
ATOM      9  C   UNL     1      13.197  37.030  55.849  1.00  0.00     0.094 A 
ATOM     10  C   UNL     1      14.534  37.057  56.251  1.00  0.00     0.146 A 
ATOM     11  O   UNL     1      14.880  37.863  57.248  1.00  0.00    -0.452 OA
ENDROOT
BRANCH   1  12
ATOM     12  C   UNL     1      16.377  38.910  58.821  1.00  0.00     0.025 A 
ATOM     13  C   UNL     1      16.634  38.470  60.132  1.00  0.00     0.016 A 
ATOM     14  C   UNL     1      16.901  39.393  61.146  1.00  0.00     0.051 A 
ATOM     15  C   UNL     1      16.928  40.765  60.866  1.00  0.00     0.157 A 
ATOM     16  C   UNL     1      16.425  40.285  58.540  1.00  0.00     0.062 A 
ATOM     17  C   UNL     1      16.692  41.212  59.555  1.00  0.00     0.158 A 
BRANCH  15  18
ATOM     18  O   UNL     1      17.193  41.683  61.881  1.00  0.00    -0.504 OA
ATOM     19  H   UNL     1      17.158  41.419  62.858  1.00  0.00     0.293 HD
ENDBRANCH  15  18
BRANCH  17  20
ATOM     20  O   UNL     1      16.719  42.570  59.240  1.00  0.00    -0.504 OA
ATOM     21  H   UNL     1      17.574  43.114  59.275  1.00  0.00     0.293 HD
ENDBRANCH  17  20
ENDBRANCH   1  12
BRANCH   2  22
ATOM     22  O   UNL     1      18.407  37.140  57.752  1.00  0.00    -0.502 OA
ATOM     23  H   UNL     1      18.599  36.820  58.693  1.00  0.00     0.293 HD
ENDBRANCH   2  22
BRANCH   6  24
ATOM     24  O   UNL     1      15.949  34.663  53.728  1.00  0.00    -0.507 OA
ATOM     25  H   UNL     1      15.774  33.715  53.432  1.00  0.00     0.293 HD
ENDBRANCH   6  24
BRANCH   8  26
ATOM     26  O   UNL     1      11.444  36.163  54.444  1.00  0.00    -0.508 OA
ATOM     27  H   UNL     1      10.742  35.717  55.024  1.00  0.00     0.293 HD
ENDBRANCH   8  26
TORSDOF 6
ENDMDL
MODEL 9
REMARK VINA RESULT:    -6.729      2.883      6.670
REMARK INTER + INTRA:          -8.408
REMARK INTER:                  -8.164
REMARK INTRA:                  -0.244
REMARK UNBOUND:                -0.302
REMARK SMILES O=c1c(O)c(-c2ccc(O)c(O)c2)oc2cc(O)cc(O)c12
REMARK SMILES IDX 5 1 3 2 2 3 1 4 22 5 20 6 19 7 17 8 16 9 15 10 14 11 6 12
REMARK SMILES IDX 7 13 8 14 9 15 13 16 11 17 10 18 12 20 4 22 21 24 18 26
REMARK H PARENT 10 19 12 21 4 23 21 25 18 27
REMARK Flexibility Score: inf
ROOT
ATOM      1  C   UNL     1      13.470  35.524  56.350  1.00  0.00     0.180 A 
ATOM      2  C   UNL     1      12.321  36.333  56.289  1.00  0.00     0.208 A 
ATOM      3  C   UNL     1      11.436  36.339  57.379  1.00  0.00     0.238 A 
ATOM      4  O   UNL     1      10.382  37.023  57.297  1.00  0.00    -0.285 OA
ATOM      5  C   UNL     1      11.718  35.552  58.521  1.00  0.00     0.111 A 
ATOM      6  C   UNL     1      10.912  35.514  59.698  1.00  0.00     0.134 A 
ATOM      7  C   UNL     1      11.217  34.601  60.715  1.00  0.00     0.093 A 
ATOM      8  C   UNL     1      12.337  33.770  60.625  1.00  0.00     0.123 A 
ATOM      9  C   UNL     1      13.163  33.843  59.506  1.00  0.00     0.094 A 
ATOM     10  C   UNL     1      12.864  34.718  58.460  1.00  0.00     0.146 A 
ATOM     11  O   UNL     1      13.672  34.747  57.407  1.00  0.00    -0.452 OA
ENDROOT
BRANCH   1  12
ATOM     12  C   UNL     1      14.462  35.482  55.251  1.00  0.00     0.025 A 
ATOM     13  C   UNL     1      15.729  36.077  55.386  1.00  0.00     0.016 A 
ATOM     14  C   UNL     1      16.658  36.004  54.345  1.00  0.00     0.051 A 
ATOM     15  C   UNL     1      16.342  35.326  53.161  1.00  0.00     0.157 A 
ATOM     16  C   UNL     1      14.157  34.787  54.070  1.00  0.00     0.062 A 
ATOM     17  C   UNL     1      15.085  34.712  53.024  1.00  0.00     0.158 A 
BRANCH  15  18
ATOM     18  O   UNL     1      17.270  35.257  52.123  1.00  0.00    -0.504 OA
ATOM     19  H   UNL     1      17.001  35.416  51.159  1.00  0.00     0.293 HD
ENDBRANCH  15  18
BRANCH  17  20
ATOM     20  O   UNL     1      14.741  34.024  51.862  1.00  0.00    -0.504 OA
ATOM     21  H   UNL     1      14.608  34.498  50.976  1.00  0.00     0.293 HD
ENDBRANCH  17  20
ENDBRANCH   1  12
BRANCH   2  22
ATOM     22  O   UNL     1      12.050  37.085  55.143  1.00  0.00    -0.502 OA
ATOM     23  H   UNL     1      11.224  36.934  54.576  1.00  0.00     0.293 HD
ENDBRANCH   2  22
BRANCH   6  24
ATOM     24  O   UNL     1       9.826  36.365  59.929  1.00  0.00    -0.507 OA
ATOM     25  H   UNL     1       9.029  36.137  60.503  1.00  0.00     0.293 HD
ENDBRANCH   6  24
BRANCH   8  26
ATOM     26  O   UNL     1      12.641  32.875  61.648  1.00  0.00    -0.508 OA
ATOM     27  H   UNL     1      12.038  32.089  61.862  1.00  0.00     0.293 HD
ENDBRANCH   8  26
TORSDOF 6
ENDMDL
