MODEL 1
REMARK VINA RESULT:    -5.241      0.000      0.000
REMARK INTER + INTRA:          -7.985
REMARK INTER:                  -7.080
REMARK INTRA:                  -0.905
REMARK UNBOUND:                -0.905
REMARK SMILES O=c1c(-c2ccc(O)cc2)coc2c([C@@H]3O[C@H](CO)[C@@H](O)[C@@H](O)[C@H]3O)c(O)ccc12
REMARK SMILES IDX 3 1 11 2 12 3 13 4 30 5 2 6 1 7 29 8 28 9 26 10 14 11 4 12
REMARK SMILES IDX 5 13 6 14 7 15 10 16 9 17 8 18 15 20 24 21 16 22 22 23 17 24
REMARK SMILES IDX 20 25 25 26 23 28 18 30 19 31 21 33 27 35
REMARK H PARENT 8 19 25 27 23 29 19 32 21 34 27 36
REMARK Flexibility Score: inf
ROOT
ATOM      1  C   UNL     1     171.338 167.302 162.021  1.00  0.00     0.065 A 
ATOM      2  C   UNL     1     172.354 168.105 161.481  1.00  0.00     0.208 A 
ATOM      3  O   UNL     1     172.414 169.403 161.751  1.00  0.00    -0.463 OA
ATOM      4  C   UNL     1     171.537 170.025 162.534  1.00  0.00     0.147 A 
ATOM      5  C   UNL     1     170.479 169.292 163.121  1.00  0.00     0.066 A 
ATOM      6  C   UNL     1     170.391 167.911 162.863  1.00  0.00     0.200 A 
ATOM      7  O   UNL     1     169.478 167.221 163.397  1.00  0.00    -0.288 OA
ATOM      8  C   UNL     1     169.549 169.950 163.940  1.00  0.00     0.020 A 
ATOM      9  C   UNL     1     169.657 171.322 164.161  1.00  0.00     0.047 A 
ATOM     10  C   UNL     1     170.696 172.059 163.583  1.00  0.00     0.125 A 
ATOM     11  C   UNL     1     171.662 171.413 162.776  1.00  0.00     0.069 A 
ENDROOT
BRANCH   1  12
ATOM     12  C   UNL     1     171.290 165.854 161.699  1.00  0.00    -0.011 A 
ATOM     13  C   UNL     1     172.402 165.033 161.956  1.00  0.00     0.013 A 
ATOM     14  C   UNL     1     172.361 163.670 161.646  1.00  0.00     0.047 A 
ATOM     15  C   UNL     1     171.212 163.112 161.071  1.00  0.00     0.115 A 
ATOM     16  C   UNL     1     170.142 165.287 161.116  1.00  0.00     0.013 A 
ATOM     17  C   UNL     1     170.105 163.924 160.806  1.00  0.00     0.047 A 
BRANCH  15  18
ATOM     18  O   UNL     1     171.160 161.755 160.758  1.00  0.00    -0.508 OA
ATOM     19  H   UNL     1     171.450 161.410 159.851  1.00  0.00     0.293 HD
ENDBRANCH  15  18
ENDBRANCH   1  12
BRANCH  11  20
ATOM     20  C   UNL     1     172.783 172.211 162.124  1.00  0.00     0.188 C 
ATOM     21  C   UNL     1     172.263 172.940 160.860  1.00  0.00     0.179 C 
ATOM     22  O   UNL     1     173.298 173.140 163.065  1.00  0.00    -0.362 OA
ATOM     23  C   UNL     1     173.392 173.779 160.235  1.00  0.00     0.177 C 
ATOM     24  C   UNL     1     174.433 173.817 162.548  1.00  0.00     0.176 C 
ATOM     25  C   UNL     1     174.032 174.669 161.317  1.00  0.00     0.177 C 
BRANCH  21  26
ATOM     26  O   UNL     1     171.792 172.012 159.914  1.00  0.00    -0.387 OA
ATOM     27  H   UNL     1     170.988 172.411 159.489  1.00  0.00     0.211 HD
ENDBRANCH  21  26
BRANCH  23  28
ATOM     28  O   UNL     1     174.368 172.938 159.668  1.00  0.00    -0.387 OA
ATOM     29  H   UNL     1     173.917 172.083 159.438  1.00  0.00     0.211 HD
ENDBRANCH  23  28
BRANCH  24  30
ATOM     30  C   UNL     1     175.012 174.704 163.656  1.00  0.00     0.191 C 
BRANCH  30  31
ATOM     31  O   UNL     1     174.198 175.831 163.831  1.00  0.00    -0.394 OA
ATOM     32  H   UNL     1     173.266 175.526 163.678  1.00  0.00     0.210 HD
ENDBRANCH  30  31
ENDBRANCH  24  30
BRANCH  25  33
ATOM     33  O   UNL     1     175.124 175.385 160.792  1.00  0.00    -0.388 OA
ATOM     34  H   UNL     1     175.906 174.773 160.764  1.00  0.00     0.211 HD
ENDBRANCH  25  33
ENDBRANCH  11  20
BRANCH  10  35
ATOM     35  O   UNL     1     170.768 173.434 163.806  1.00  0.00    -0.507 OA
ATOM     36  H   UNL     1     170.994 173.815 164.718  1.00  0.00     0.293 HD
ENDBRANCH  10  35
TORSDOF 9
ENDMDL
MODEL 2
REMARK VINA RESULT:    -5.092      2.012      8.331
REMARK INTER + INTRA:          -7.783
REMARK INTER:                  -6.576
REMARK INTRA:                  -1.207
REMARK UNBOUND:                -0.905
REMARK SMILES O=c1c(-c2ccc(O)cc2)coc2c([C@@H]3O[C@H](CO)[C@@H](O)[C@@H](O)[C@H]3O)c(O)ccc12
REMARK SMILES IDX 3 1 11 2 12 3 13 4 30 5 2 6 1 7 29 8 28 9 26 10 14 11 4 12
REMARK SMILES IDX 5 13 6 14 7 15 10 16 9 17 8 18 15 20 24 21 16 22 22 23 17 24
REMARK SMILES IDX 20 25 25 26 23 28 18 30 19 31 21 33 27 35
REMARK H PARENT 8 19 25 27 23 29 19 32 21 34 27 36
REMARK Flexibility Score: inf
ROOT
ATOM      1  C   UNL     1     174.306 171.891 161.825  1.00  0.00     0.065 A 
ATOM      2  C   UNL     1     174.375 170.680 161.120  1.00  0.00     0.208 A 
ATOM      3  O   UNL     1     173.464 169.732 161.302  1.00  0.00    -0.463 OA
ATOM      4  C   UNL     1     172.443 169.855 162.147  1.00  0.00     0.147 A 
ATOM      5  C   UNL     1     172.297 171.044 162.900  1.00  0.00     0.066 A 
ATOM      6  C   UNL     1     173.241 172.073 162.725  1.00  0.00     0.200 A 
ATOM      7  O   UNL     1     173.121 173.160 163.357  1.00  0.00    -0.288 OA
ATOM      8  C   UNL     1     171.226 171.170 163.798  1.00  0.00     0.020 A 
ATOM      9  C   UNL     1     170.319 170.124 163.958  1.00  0.00     0.047 A 
ATOM     10  C   UNL     1     170.455 168.942 163.222  1.00  0.00     0.125 A 
ATOM     11  C   UNL     1     171.511 168.802 162.291  1.00  0.00     0.069 A 
ENDROOT
BRANCH   1  12
ATOM     12  C   UNL     1     175.340 172.933 161.608  1.00  0.00    -0.011 A 
ATOM     13  C   UNL     1     176.472 172.994 162.440  1.00  0.00     0.013 A 
ATOM     14  C   UNL     1     177.444 173.980 162.242  1.00  0.00     0.047 A 
ATOM     15  C   UNL     1     177.293 174.921 161.215  1.00  0.00     0.115 A 
ATOM     16  C   UNL     1     175.194 173.886 160.583  1.00  0.00     0.013 A 
ATOM     17  C   UNL     1     176.166 174.871 160.389  1.00  0.00     0.047 A 
BRANCH  15  18
ATOM     18  O   UNL     1     178.255 175.907 161.009  1.00  0.00    -0.508 OA
ATOM     19  H   UNL     1     179.199 175.675 160.725  1.00  0.00     0.293 HD
ENDBRANCH  15  18
ENDBRANCH   1  12
BRANCH  11  20
ATOM     20  C   UNL     1     171.680 167.510 161.503  1.00  0.00     0.188 C 
ATOM     21  C   UNL     1     172.345 166.422 162.384  1.00  0.00     0.179 C 
ATOM     22  O   UNL     1     170.409 167.077 161.044  1.00  0.00    -0.362 OA
ATOM     23  C   UNL     1     172.471 165.108 161.592  1.00  0.00     0.177 C 
ATOM     24  C   UNL     1     170.528 165.948 160.192  1.00  0.00     0.176 C 
ATOM     25  C   UNL     1     171.105 164.744 160.980  1.00  0.00     0.177 C 
BRANCH  21  26
ATOM     26  O   UNL     1     173.622 166.839 162.801  1.00  0.00    -0.387 OA
ATOM     27  H   UNL     1     173.489 167.509 163.522  1.00  0.00     0.211 HD
ENDBRANCH  21  26
BRANCH  23  28
ATOM     28  O   UNL     1     173.432 165.242 160.573  1.00  0.00    -0.387 OA
ATOM     29  H   UNL     1     173.117 165.966 159.970  1.00  0.00     0.211 HD
ENDBRANCH  23  28
BRANCH  24  30
ATOM     30  C   UNL     1     169.140 165.617 159.634  1.00  0.00     0.191 C 
BRANCH  30  31
ATOM     31  O   UNL     1     168.495 164.708 160.483  1.00  0.00    -0.394 OA
ATOM     32  H   UNL     1     169.121 164.540 161.234  1.00  0.00     0.210 HD
ENDBRANCH  30  31
ENDBRANCH  24  30
BRANCH  25  33
ATOM     33  O   UNL     1     171.209 163.591 160.179  1.00  0.00    -0.388 OA
ATOM     34  H   UNL     1     170.300 163.361 159.854  1.00  0.00     0.211 HD
ENDBRANCH  25  33
ENDBRANCH  11  20
BRANCH  10  35
ATOM     35  O   UNL     1     169.544 167.903 163.418  1.00  0.00    -0.507 OA
ATOM     36  H   UNL     1     169.440 167.151 162.746  1.00  0.00     0.293 HD
ENDBRANCH  10  35
TORSDOF 9
ENDMDL
MODEL 3
REMARK VINA RESULT:    -5.032      4.219      7.499
REMARK INTER + INTRA:          -7.702
REMARK INTER:                  -6.499
REMARK INTRA:                  -1.202
REMARK UNBOUND:                -0.905
REMARK SMILES O=c1c(-c2ccc(O)cc2)coc2c([C@@H]3O[C@H](CO)[C@@H](O)[C@@H](O)[C@H]3O)c(O)ccc12
REMARK SMILES IDX 3 1 11 2 12 3 13 4 30 5 2 6 1 7 29 8 28 9 26 10 14 11 4 12
REMARK SMILES IDX 5 13 6 14 7 15 10 16 9 17 8 18 15 20 24 21 16 22 22 23 17 24
REMARK SMILES IDX 20 25 25 26 23 28 18 30 19 31 21 33 27 35
REMARK H PARENT 8 19 25 27 23 29 19 32 21 34 27 36
REMARK Flexibility Score: inf
ROOT
ATOM      1  C   UNL     1     166.768 173.298 161.838  1.00  0.00     0.065 A 
ATOM      2  C   UNL     1     168.026 173.656 161.333  1.00  0.00     0.208 A 
ATOM      3  O   UNL     1     169.102 172.925 161.600  1.00  0.00    -0.463 OA
ATOM      4  C   UNL     1     169.067 171.826 162.348  1.00  0.00     0.147 A 
ATOM      5  C   UNL     1     167.839 171.391 162.899  1.00  0.00     0.066 A 
ATOM      6  C   UNL     1     166.677 172.138 162.628  1.00  0.00     0.200 A 
ATOM      7  O   UNL     1     165.559 171.760 163.076  1.00  0.00    -0.288 OA
ATOM      8  C   UNL     1     167.805 170.237 163.695  1.00  0.00     0.020 A 
ATOM      9  C   UNL     1     168.977 169.530 163.956  1.00  0.00     0.047 A 
ATOM     10  C   UNL     1     170.199 169.952 163.421  1.00  0.00     0.125 A 
ATOM     11  C   UNL     1     170.254 171.097 162.592  1.00  0.00     0.069 A 
ENDROOT
BRANCH   1  12
ATOM     12  C   UNL     1     165.581 174.135 161.529  1.00  0.00    -0.011 A 
ATOM     13  C   UNL     1     164.837 173.906 160.358  1.00  0.00     0.013 A 
ATOM     14  C   UNL     1     163.723 174.699 160.063  1.00  0.00     0.047 A 
ATOM     15  C   UNL     1     163.345 175.733 160.928  1.00  0.00     0.115 A 
ATOM     16  C   UNL     1     165.197 175.179 162.391  1.00  0.00     0.013 A 
ATOM     17  C   UNL     1     164.085 175.971 162.090  1.00  0.00     0.047 A 
BRANCH  15  18
ATOM     18  O   UNL     1     162.237 176.529 160.643  1.00  0.00    -0.508 OA
ATOM     19  H   UNL     1     161.387 176.470 161.192  1.00  0.00     0.293 HD
ENDBRANCH  15  18
ENDBRANCH   1  12
BRANCH  11  20
ATOM     20  C   UNL     1     171.584 171.577 162.025  1.00  0.00     0.188 C 
ATOM     21  C   UNL     1     172.411 172.297 163.119  1.00  0.00     0.179 C 
ATOM     22  O   UNL     1     172.295 170.463 161.508  1.00  0.00    -0.362 OA
ATOM     23  C   UNL     1     173.770 172.738 162.547  1.00  0.00     0.177 C 
ATOM     24  C   UNL     1     173.483 170.875 160.848  1.00  0.00     0.176 C 
ATOM     25  C   UNL     1     174.451 171.540 161.860  1.00  0.00     0.177 C 
BRANCH  21  26
ATOM     26  O   UNL     1     171.719 173.424 163.599  1.00  0.00    -0.387 OA
ATOM     27  H   UNL     1     172.177 173.715 164.430  1.00  0.00     0.211 HD
ENDBRANCH  21  26
BRANCH  23  28
ATOM     28  O   UNL     1     173.594 173.784 161.623  1.00  0.00    -0.387 OA
ATOM     29  H   UNL     1     173.797 174.631 162.100  1.00  0.00     0.211 HD
ENDBRANCH  23  28
BRANCH  24  30
ATOM     30  C   UNL     1     174.130 169.643 160.207  1.00  0.00     0.191 C 
BRANCH  30  31
ATOM     31  O   UNL     1     175.065 169.087 161.090  1.00  0.00    -0.394 OA
ATOM     32  H   UNL     1     174.555 168.820 161.899  1.00  0.00     0.210 HD
ENDBRANCH  30  31
ENDBRANCH  24  30
BRANCH  25  33
ATOM     33  O   UNL     1     175.659 171.935 161.252  1.00  0.00    -0.388 OA
ATOM     34  H   UNL     1     176.374 171.323 161.568  1.00  0.00     0.211 HD
ENDBRANCH  25  33
ENDBRANCH  11  20
BRANCH  10  35
ATOM     35  O   UNL     1     171.360 169.237 163.715  1.00  0.00    -0.507 OA
ATOM     36  H   UNL     1     171.334 168.248 163.942  1.00  0.00     0.293 HD
ENDBRANCH  10  35
TORSDOF 9
ENDMDL
MODEL 4
REMARK VINA RESULT:    -4.998      2.636      5.060
REMARK INTER + INTRA:          -7.655
REMARK INTER:                  -6.953
REMARK INTRA:                  -0.702
REMARK UNBOUND:                -0.905
REMARK SMILES O=c1c(-c2ccc(O)cc2)coc2c([C@@H]3O[C@H](CO)[C@@H](O)[C@@H](O)[C@H]3O)c(O)ccc12
REMARK SMILES IDX 3 1 11 2 12 3 13 4 30 5 2 6 1 7 29 8 28 9 26 10 14 11 4 12
REMARK SMILES IDX 5 13 6 14 7 15 10 16 9 17 8 18 15 20 24 21 16 22 22 23 17 24
REMARK SMILES IDX 20 25 25 26 23 28 18 30 19 31 21 33 27 35
REMARK H PARENT 8 19 25 27 23 29 19 32 21 34 27 36
REMARK Flexibility Score: inf
ROOT
ATOM      1  C   UNL     1     171.895 166.545 161.954  1.00  0.00     0.065 A 
ATOM      2  C   UNL     1     170.529 166.854 162.038  1.00  0.00     0.208 A 
ATOM      3  O   UNL     1     170.117 168.115 162.093  1.00  0.00    -0.463 OA
ATOM      4  C   UNL     1     170.948 169.154 162.074  1.00  0.00     0.147 A 
ATOM      5  C   UNL     1     172.343 168.934 161.992  1.00  0.00     0.066 A 
ATOM      6  C   UNL     1     172.813 167.609 161.923  1.00  0.00     0.200 A 
ATOM      7  O   UNL     1     174.050 167.379 161.816  1.00  0.00    -0.288 OA
ATOM      8  C   UNL     1     173.219 170.030 161.981  1.00  0.00     0.020 A 
ATOM      9  C   UNL     1     172.719 171.328 162.068  1.00  0.00     0.047 A 
ATOM     10  C   UNL     1     171.341 171.558 162.153  1.00  0.00     0.125 A 
ATOM     11  C   UNL     1     170.437 170.471 162.138  1.00  0.00     0.069 A 
ENDROOT
BRANCH   1  12
ATOM     12  C   UNL     1     172.331 165.127 161.900  1.00  0.00    -0.011 A 
ATOM     13  C   UNL     1     171.642 164.205 161.092  1.00  0.00     0.013 A 
ATOM     14  C   UNL     1     172.046 162.867 161.045  1.00  0.00     0.047 A 
ATOM     15  C   UNL     1     173.138 162.433 161.809  1.00  0.00     0.115 A 
ATOM     16  C   UNL     1     173.422 164.682 162.668  1.00  0.00     0.013 A 
ATOM     17  C   UNL     1     173.822 163.344 162.620  1.00  0.00     0.047 A 
BRANCH  15  18
ATOM     18  O   UNL     1     173.549 161.102 161.770  1.00  0.00    -0.508 OA
ATOM     19  H   UNL     1     174.456 160.818 162.121  1.00  0.00     0.293 HD
ENDBRANCH  15  18
ENDBRANCH   1  12
BRANCH  11  20
ATOM     20  C   UNL     1     168.938 170.711 162.255  1.00  0.00     0.188 C 
ATOM     21  C   UNL     1     168.579 171.210 163.677  1.00  0.00     0.179 C 
ATOM     22  O   UNL     1     168.543 171.659 161.275  1.00  0.00    -0.362 OA
ATOM     23  C   UNL     1     167.068 171.493 163.770  1.00  0.00     0.177 C 
ATOM     24  C   UNL     1     167.132 171.819 161.255  1.00  0.00     0.176 C 
ATOM     25  C   UNL     1     166.643 172.404 162.604  1.00  0.00     0.177 C 
BRANCH  21  26
ATOM     26  O   UNL     1     168.935 170.250 164.641  1.00  0.00    -0.387 OA
ATOM     27  H   UNL     1     168.369 170.416 165.440  1.00  0.00     0.211 HD
ENDBRANCH  21  26
BRANCH  23  28
ATOM     28  O   UNL     1     166.344 170.288 163.727  1.00  0.00    -0.387 OA
ATOM     29  H   UNL     1     165.389 170.527 163.590  1.00  0.00     0.211 HD
ENDBRANCH  23  28
BRANCH  24  30
ATOM     30  C   UNL     1     166.769 172.751 160.095  1.00  0.00     0.191 C 
BRANCH  30  31
ATOM     31  O   UNL     1     166.748 174.078 160.544  1.00  0.00    -0.394 OA
ATOM     32  H   UNL     1     167.541 174.519 160.140  1.00  0.00     0.210 HD
ENDBRANCH  30  31
ENDBRANCH  24  30
BRANCH  25  33
ATOM     33  O   UNL     1     165.250 172.610 162.615  1.00  0.00    -0.388 OA
ATOM     34  H   UNL     1     164.813 171.738 162.801  1.00  0.00     0.211 HD
ENDBRANCH  25  33
ENDBRANCH  11  20
BRANCH  10  35
ATOM     35  O   UNL     1     170.871 172.867 162.259  1.00  0.00    -0.507 OA
ATOM     36  H   UNL     1     171.412 173.593 162.715  1.00  0.00     0.293 HD
ENDBRANCH  10  35
TORSDOF 9
ENDMDL
MODEL 5
REMARK VINA RESULT:    -4.983      4.510      6.803
REMARK INTER + INTRA:          -7.636
REMARK INTER:                  -6.622
REMARK INTRA:                  -1.014
REMARK UNBOUND:                -0.905
REMARK SMILES O=c1c(-c2ccc(O)cc2)coc2c([C@@H]3O[C@H](CO)[C@@H](O)[C@@H](O)[C@H]3O)c(O)ccc12
REMARK SMILES IDX 3 1 11 2 12 3 13 4 30 5 2 6 1 7 29 8 28 9 26 10 14 11 4 12
REMARK SMILES IDX 5 13 6 14 7 15 10 16 9 17 8 18 15 20 24 21 16 22 22 23 17 24
REMARK SMILES IDX 20 25 25 26 23 28 18 30 19 31 21 33 27 35
REMARK H PARENT 8 19 25 27 23 29 19 32 21 34 27 36
REMARK Flexibility Score: inf
ROOT
ATOM      1  C   UNL     1     166.087 170.709 161.162  1.00  0.00     0.065 A 
ATOM      2  C   UNL     1     167.064 170.318 160.235  1.00  0.00     0.208 A 
ATOM      3  O   UNL     1     168.321 170.116 160.613  1.00  0.00    -0.463 OA
ATOM      4  C   UNL     1     168.737 170.266 161.868  1.00  0.00     0.147 A 
ATOM      5  C   UNL     1     167.817 170.659 162.868  1.00  0.00     0.066 A 
ATOM      6  C   UNL     1     166.475 170.873 162.503  1.00  0.00     0.200 A 
ATOM      7  O   UNL     1     165.621 171.192 163.378  1.00  0.00    -0.288 OA
ATOM      8  C   UNL     1     168.258 170.825 164.190  1.00  0.00     0.020 A 
ATOM      9  C   UNL     1     169.599 170.620 164.513  1.00  0.00     0.047 A 
ATOM     10  C   UNL     1     170.518 170.235 163.531  1.00  0.00     0.125 A 
ATOM     11  C   UNL     1     170.092 170.035 162.197  1.00  0.00     0.069 A 
ENDROOT
BRANCH   1  12
ATOM     12  C   UNL     1     164.690 170.935 160.713  1.00  0.00    -0.011 A 
ATOM     13  C   UNL     1     163.734 169.910 160.830  1.00  0.00     0.013 A 
ATOM     14  C   UNL     1     162.419 170.118 160.401  1.00  0.00     0.047 A 
ATOM     15  C   UNL     1     162.046 171.348 159.844  1.00  0.00     0.115 A 
ATOM     16  C   UNL     1     164.308 172.165 160.148  1.00  0.00     0.013 A 
ATOM     17  C   UNL     1     162.994 172.369 159.718  1.00  0.00     0.047 A 
BRANCH  15  18
ATOM     18  O   UNL     1     160.739 171.566 159.413  1.00  0.00    -0.508 OA
ATOM     19  H   UNL     1     160.054 172.019 160.007  1.00  0.00     0.293 HD
ENDBRANCH  15  18
ENDBRANCH   1  12
BRANCH  11  20
ATOM     20  C   UNL     1     171.091 169.639 161.118  1.00  0.00     0.188 C 
ATOM     21  C   UNL     1     171.875 170.881 160.625  1.00  0.00     0.179 C 
ATOM     22  O   UNL     1     171.976 168.660 161.643  1.00  0.00    -0.362 OA
ATOM     23  C   UNL     1     172.913 170.462 159.567  1.00  0.00     0.177 C 
ATOM     24  C   UNL     1     172.843 168.161 160.636  1.00  0.00     0.176 C 
ATOM     25  C   UNL     1     173.760 169.296 160.111  1.00  0.00     0.177 C 
BRANCH  21  26
ATOM     26  O   UNL     1     170.999 171.829 160.069  1.00  0.00    -0.387 OA
ATOM     27  H   UNL     1     170.512 172.254 160.824  1.00  0.00     0.211 HD
ENDBRANCH  21  26
BRANCH  23  28
ATOM     28  O   UNL     1     172.268 170.073 158.379  1.00  0.00    -0.387 OA
ATOM     29  H   UNL     1     171.300 170.257 158.500  1.00  0.00     0.211 HD
ENDBRANCH  23  28
BRANCH  24  30
ATOM     30  C   UNL     1     173.677 167.025 161.237  1.00  0.00     0.191 C 
BRANCH  30  31
ATOM     31  O   UNL     1     173.863 167.250 162.607  1.00  0.00    -0.394 OA
ATOM     32  H   UNL     1     173.150 166.738 163.070  1.00  0.00     0.210 HD
ENDBRANCH  30  31
ENDBRANCH  24  30
BRANCH  25  33
ATOM     33  O   UNL     1     174.661 168.836 159.132  1.00  0.00    -0.388 OA
ATOM     34  H   UNL     1     174.405 169.246 158.264  1.00  0.00     0.211 HD
ENDBRANCH  25  33
ENDBRANCH  11  20
BRANCH  10  35
ATOM     35  O   UNL     1     171.858 170.057 163.879  1.00  0.00    -0.507 OA
ATOM     36  H   UNL     1     172.540 169.713 163.213  1.00  0.00     0.293 HD
ENDBRANCH  10  35
TORSDOF 9
ENDMDL
MODEL 6
REMARK VINA RESULT:    -4.979      4.438      7.618
REMARK INTER + INTRA:          -7.631
REMARK INTER:                  -6.534
REMARK INTRA:                  -1.096
REMARK UNBOUND:                -0.905
REMARK SMILES O=c1c(-c2ccc(O)cc2)coc2c([C@@H]3O[C@H](CO)[C@@H](O)[C@@H](O)[C@H]3O)c(O)ccc12
REMARK SMILES IDX 3 1 11 2 12 3 13 4 30 5 2 6 1 7 29 8 28 9 26 10 14 11 4 12
REMARK SMILES IDX 5 13 6 14 7 15 10 16 9 17 8 18 15 20 24 21 16 22 22 23 17 24
REMARK SMILES IDX 20 25 25 26 23 28 18 30 19 31 21 33 27 35
REMARK H PARENT 8 19 25 27 23 29 19 32 21 34 27 36
REMARK Flexibility Score: inf
ROOT
ATOM      1  C   UNL     1     171.908 172.634 162.560  1.00  0.00     0.065 A 
ATOM      2  C   UNL     1     171.117 173.473 161.761  1.00  0.00     0.208 A 
ATOM      3  O   UNL     1     169.793 173.382 161.779  1.00  0.00    -0.463 OA
ATOM      4  C   UNL     1     169.133 172.509 162.536  1.00  0.00     0.147 A 
ATOM      5  C   UNL     1     169.851 171.624 163.373  1.00  0.00     0.066 A 
ATOM      6  C   UNL     1     171.257 171.700 163.385  1.00  0.00     0.200 A 
ATOM      7  O   UNL     1     171.928 170.946 164.145  1.00  0.00    -0.288 OA
ATOM      8  C   UNL     1     169.155 170.698 164.165  1.00  0.00     0.020 A 
ATOM      9  C   UNL     1     167.764 170.639 164.115  1.00  0.00     0.047 A 
ATOM     10  C   UNL     1     167.042 171.507 163.288  1.00  0.00     0.125 A 
ATOM     11  C   UNL     1     167.719 172.467 162.502  1.00  0.00     0.069 A 
ENDROOT
BRANCH   1  12
ATOM     12  C   UNL     1     173.387 172.751 162.518  1.00  0.00    -0.011 A 
ATOM     13  C   UNL     1     174.024 173.880 163.063  1.00  0.00     0.013 A 
ATOM     14  C   UNL     1     175.417 173.996 163.018  1.00  0.00     0.047 A 
ATOM     15  C   UNL     1     176.188 172.991 162.422  1.00  0.00     0.115 A 
ATOM     16  C   UNL     1     174.169 171.749 161.916  1.00  0.00     0.013 A 
ATOM     17  C   UNL     1     175.561 171.869 161.871  1.00  0.00     0.047 A 
BRANCH  15  18
ATOM     18  O   UNL     1     177.577 173.097 162.371  1.00  0.00    -0.508 OA
ATOM     19  H   UNL     1     178.177 172.359 162.721  1.00  0.00     0.293 HD
ENDBRANCH  15  18
ENDBRANCH   1  12
BRANCH  11  20
ATOM     20  C   UNL     1     166.943 173.400 161.582  1.00  0.00     0.188 C 
ATOM     21  C   UNL     1     166.545 172.665 160.277  1.00  0.00     0.179 C 
ATOM     22  O   UNL     1     165.791 173.871 162.265  1.00  0.00    -0.362 OA
ATOM     23  C   UNL     1     165.723 173.602 159.374  1.00  0.00     0.177 C 
ATOM     24  C   UNL     1     165.104 174.847 161.497  1.00  0.00     0.176 C 
ATOM     25  C   UNL     1     164.567 174.215 160.187  1.00  0.00     0.177 C 
BRANCH  21  26
ATOM     26  O   UNL     1     167.691 172.236 159.584  1.00  0.00    -0.387 OA
ATOM     27  H   UNL     1     168.225 173.047 159.374  1.00  0.00     0.211 HD
ENDBRANCH  21  26
BRANCH  23  28
ATOM     28  O   UNL     1     166.541 174.624 158.859  1.00  0.00    -0.387 OA
ATOM     29  H   UNL     1     167.483 174.349 159.014  1.00  0.00     0.211 HD
ENDBRANCH  23  28
BRANCH  24  30
ATOM     30  C   UNL     1     163.953 175.403 162.342  1.00  0.00     0.191 C 
BRANCH  30  31
ATOM     31  O   UNL     1     162.751 174.791 161.964  1.00  0.00    -0.394 OA
ATOM     32  H   UNL     1     162.350 175.376 161.269  1.00  0.00     0.210 HD
ENDBRANCH  30  31
ENDBRANCH  24  30
BRANCH  25  33
ATOM     33  O   UNL     1     163.849 175.143 159.410  1.00  0.00    -0.388 OA
ATOM     34  H   UNL     1     162.887 175.057 159.642  1.00  0.00     0.211 HD
ENDBRANCH  25  33
ENDBRANCH  11  20
BRANCH  10  35
ATOM     35  O   UNL     1     165.650 171.412 163.244  1.00  0.00    -0.507 OA
ATOM     36  H   UNL     1     165.054 172.175 163.548  1.00  0.00     0.293 HD
ENDBRANCH  10  35
TORSDOF 9
ENDMDL
MODEL 7
REMARK VINA RESULT:    -4.965      4.568      5.962
REMARK INTER + INTRA:          -7.611
REMARK INTER:                  -6.414
REMARK INTRA:                  -1.197
REMARK UNBOUND:                -0.905
REMARK SMILES O=c1c(-c2ccc(O)cc2)coc2c([C@@H]3O[C@H](CO)[C@@H](O)[C@@H](O)[C@H]3O)c(O)ccc12
REMARK SMILES IDX 3 1 11 2 12 3 13 4 30 5 2 6 1 7 29 8 28 9 26 10 14 11 4 12
REMARK SMILES IDX 5 13 6 14 7 15 10 16 9 17 8 18 15 20 24 21 16 22 22 23 17 24
REMARK SMILES IDX 20 25 25 26 23 28 18 30 19 31 21 33 27 35
REMARK H PARENT 8 19 25 27 23 29 19 32 21 34 27 36
REMARK Flexibility Score: inf
ROOT
ATOM      1  C   UNL     1     170.313 168.523 161.808  1.00  0.00     0.065 A 
ATOM      2  C   UNL     1     169.863 169.048 160.588  1.00  0.00     0.208 A 
ATOM      3  O   UNL     1     168.863 169.921 160.548  1.00  0.00    -0.463 OA
ATOM      4  C   UNL     1     168.229 170.351 161.636  1.00  0.00     0.147 A 
ATOM      5  C   UNL     1     168.618 169.873 162.909  1.00  0.00     0.066 A 
ATOM      6  C   UNL     1     169.681 168.953 162.988  1.00  0.00     0.200 A 
ATOM      7  O   UNL     1     170.075 168.532 164.111  1.00  0.00    -0.288 OA
ATOM      8  C   UNL     1     167.943 170.321 164.055  1.00  0.00     0.020 A 
ATOM      9  C   UNL     1     166.885 171.220 163.938  1.00  0.00     0.047 A 
ATOM     10  C   UNL     1     166.488 171.697 162.684  1.00  0.00     0.125 A 
ATOM     11  C   UNL     1     167.170 171.281 161.517  1.00  0.00     0.069 A 
ENDROOT
BRANCH   1  12
ATOM     12  C   UNL     1     171.429 167.544 161.825  1.00  0.00    -0.011 A 
ATOM     13  C   UNL     1     172.761 167.989 161.906  1.00  0.00     0.013 A 
ATOM     14  C   UNL     1     173.814 167.068 161.914  1.00  0.00     0.047 A 
ATOM     15  C   UNL     1     173.550 165.695 161.835  1.00  0.00     0.115 A 
ATOM     16  C   UNL     1     171.173 166.163 161.740  1.00  0.00     0.013 A 
ATOM     17  C   UNL     1     172.229 165.247 161.747  1.00  0.00     0.047 A 
BRANCH  15  18
ATOM     18  O   UNL     1     174.592 164.770 161.843  1.00  0.00    -0.508 OA
ATOM     19  H   UNL     1     174.576 163.960 162.451  1.00  0.00     0.293 HD
ENDBRANCH  15  18
ENDBRANCH   1  12
BRANCH  11  20
ATOM     20  C   UNL     1     166.730 171.777 160.147  1.00  0.00     0.188 C 
ATOM     21  C   UNL     1     165.513 170.961 159.641  1.00  0.00     0.179 C 
ATOM     22  O   UNL     1     166.409 173.157 160.234  1.00  0.00    -0.362 OA
ATOM     23  C   UNL     1     165.049 171.500 158.276  1.00  0.00     0.177 C 
ATOM     24  C   UNL     1     166.119 173.699 158.954  1.00  0.00     0.176 C 
ATOM     25  C   UNL     1     164.854 173.025 158.364  1.00  0.00     0.177 C 
BRANCH  21  26
ATOM     26  O   UNL     1     165.849 169.602 159.517  1.00  0.00    -0.387 OA
ATOM     27  H   UNL     1     165.134 169.173 158.976  1.00  0.00     0.211 HD
ENDBRANCH  21  26
BRANCH  23  28
ATOM     28  O   UNL     1     165.997 171.195 157.283  1.00  0.00    -0.387 OA
ATOM     29  H   UNL     1     166.813 170.873 157.749  1.00  0.00     0.211 HD
ENDBRANCH  23  28
BRANCH  24  30
ATOM     30  C   UNL     1     165.910 175.209 159.106  1.00  0.00     0.191 C 
BRANCH  30  31
ATOM     31  O   UNL     1     164.555 175.476 159.339  1.00  0.00    -0.394 OA
ATOM     32  H   UNL     1     164.452 176.461 159.265  1.00  0.00     0.210 HD
ENDBRANCH  30  31
ENDBRANCH  24  30
BRANCH  25  33
ATOM     33  O   UNL     1     164.511 173.558 157.107  1.00  0.00    -0.388 OA
ATOM     34  H   UNL     1     165.304 173.478 156.515  1.00  0.00     0.211 HD
ENDBRANCH  25  33
ENDBRANCH  11  20
BRANCH  10  35
ATOM     35  O   UNL     1     165.411 172.580 162.596  1.00  0.00    -0.507 OA
ATOM     36  H   UNL     1     164.474 172.259 162.381  1.00  0.00     0.293 HD
ENDBRANCH  10  35
TORSDOF 9
ENDMDL
MODEL 8
REMARK VINA RESULT:    -4.845      2.309      8.506
REMARK INTER + INTRA:          -7.450
REMARK INTER:                  -6.272
REMARK INTRA:                  -1.177
REMARK UNBOUND:                -0.905
REMARK SMILES O=c1c(-c2ccc(O)cc2)coc2c([C@@H]3O[C@H](CO)[C@@H](O)[C@@H](O)[C@H]3O)c(O)ccc12
REMARK SMILES IDX 3 1 11 2 12 3 13 4 30 5 2 6 1 7 29 8 28 9 26 10 14 11 4 12
REMARK SMILES IDX 5 13 6 14 7 15 10 16 9 17 8 18 15 20 24 21 16 22 22 23 17 24
REMARK SMILES IDX 20 25 25 26 23 28 18 30 19 31 21 33 27 35
REMARK H PARENT 8 19 25 27 23 29 19 32 21 34 27 36
REMARK Flexibility Score: inf
ROOT
ATOM      1  C   UNL     1     173.473 173.724 162.518  1.00  0.00     0.065 A 
ATOM      2  C   UNL     1     173.698 172.345 162.400  1.00  0.00     0.208 A 
ATOM      3  O   UNL     1     172.700 171.511 162.133  1.00  0.00    -0.463 OA
ATOM      4  C   UNL     1     171.443 171.911 161.962  1.00  0.00     0.147 A 
ATOM      5  C   UNL     1     171.125 173.286 162.063  1.00  0.00     0.066 A 
ATOM      6  C   UNL     1     172.162 174.199 162.337  1.00  0.00     0.200 A 
ATOM      7  O   UNL     1     171.919 175.436 162.401  1.00  0.00    -0.288 OA
ATOM      8  C   UNL     1     169.798 173.707 161.891  1.00  0.00     0.020 A 
ATOM      9  C   UNL     1     168.794 172.774 161.638  1.00  0.00     0.047 A 
ATOM     10  C   UNL     1     169.095 171.411 161.540  1.00  0.00     0.125 A 
ATOM     11  C   UNL     1     170.430 170.965 161.682  1.00  0.00     0.069 A 
ENDROOT
BRANCH   1  12
ATOM     12  C   UNL     1     174.605 174.635 162.822  1.00  0.00    -0.011 A 
ATOM     13  C   UNL     1     174.919 174.954 164.155  1.00  0.00     0.013 A 
ATOM     14  C   UNL     1     175.980 175.818 164.444  1.00  0.00     0.047 A 
ATOM     15  C   UNL     1     176.734 176.379 163.405  1.00  0.00     0.115 A 
ATOM     16  C   UNL     1     175.364 175.207 161.785  1.00  0.00     0.013 A 
ATOM     17  C   UNL     1     176.422 176.072 162.077  1.00  0.00     0.047 A 
BRANCH  15  18
ATOM     18  O   UNL     1     177.794 177.241 163.682  1.00  0.00    -0.508 OA
ATOM     19  H   UNL     1     178.180 177.322 164.615  1.00  0.00     0.293 HD
ENDBRANCH  15  18
ENDBRANCH   1  12
BRANCH  11  20
ATOM     20  C   UNL     1     170.762 169.481 161.599  1.00  0.00     0.188 C 
ATOM     21  C   UNL     1     170.332 168.758 162.900  1.00  0.00     0.179 C 
ATOM     22  O   UNL     1     170.106 168.922 160.472  1.00  0.00    -0.362 OA
ATOM     23  C   UNL     1     170.632 167.252 162.788  1.00  0.00     0.177 C 
ATOM     24  C   UNL     1     170.490 167.569 160.275  1.00  0.00     0.176 C 
ATOM     25  C   UNL     1     170.035 166.705 161.478  1.00  0.00     0.177 C 
BRANCH  21  26
ATOM     26  O   UNL     1     171.015 169.289 164.009  1.00  0.00    -0.387 OA
ATOM     27  H   UNL     1     171.983 169.285 163.784  1.00  0.00     0.211 HD
ENDBRANCH  21  26
BRANCH  23  28
ATOM     28  O   UNL     1     172.020 167.028 162.813  1.00  0.00    -0.387 OA
ATOM     29  H   UNL     1     172.249 166.719 163.728  1.00  0.00     0.211 HD
ENDBRANCH  23  28
BRANCH  24  30
ATOM     30  C   UNL     1     169.849 167.071 158.975  1.00  0.00     0.191 C 
BRANCH  30  31
ATOM     31  O   UNL     1     168.641 166.423 159.263  1.00  0.00    -0.394 OA
ATOM     32  H   UNL     1     168.432 166.637 160.210  1.00  0.00     0.210 HD
ENDBRANCH  30  31
ENDBRANCH  24  30
BRANCH  25  33
ATOM     33  O   UNL     1     170.367 165.347 161.308  1.00  0.00    -0.388 OA
ATOM     34  H   UNL     1     169.788 164.813 161.911  1.00  0.00     0.211 HD
ENDBRANCH  25  33
ENDBRANCH  11  20
BRANCH  10  35
ATOM     35  O   UNL     1     168.067 170.497 161.305  1.00  0.00    -0.507 OA
ATOM     36  H   UNL     1     168.093 169.556 161.683  1.00  0.00     0.293 HD
ENDBRANCH  10  35
TORSDOF 9
ENDMDL
MODEL 9
REMARK VINA RESULT:    -4.760      1.815      8.384
REMARK INTER + INTRA:          -7.334
REMARK INTER:                  -6.160
REMARK INTRA:                  -1.174
REMARK UNBOUND:                -0.905
REMARK SMILES O=c1c(-c2ccc(O)cc2)coc2c([C@@H]3O[C@H](CO)[C@@H](O)[C@@H](O)[C@H]3O)c(O)ccc12
REMARK SMILES IDX 3 1 11 2 12 3 13 4 30 5 2 6 1 7 29 8 28 9 26 10 14 11 4 12
REMARK SMILES IDX 5 13 6 14 7 15 10 16 9 17 8 18 15 20 24 21 16 22 22 23 17 24
REMARK SMILES IDX 20 25 25 26 23 28 18 30 19 31 21 33 27 35
REMARK H PARENT 8 19 25 27 23 29 19 32 21 34 27 36
REMARK Flexibility Score: inf
ROOT
ATOM      1  C   UNL     1     171.813 172.951 161.306  1.00  0.00     0.065 A 
ATOM      2  C   UNL     1     172.229 171.802 160.618  1.00  0.00     0.208 A 
ATOM      3  O   UNL     1     171.807 170.598 160.983  1.00  0.00    -0.463 OA
ATOM      4  C   UNL     1     170.979 170.395 162.004  1.00  0.00     0.147 A 
ATOM      5  C   UNL     1     170.509 171.498 162.754  1.00  0.00     0.066 A 
ATOM      6  C   UNL     1     170.930 172.790 162.389  1.00  0.00     0.200 A 
ATOM      7  O   UNL     1     170.503 173.799 163.017  1.00  0.00    -0.288 OA
ATOM      8  C   UNL     1     169.642 171.282 163.836  1.00  0.00     0.020 A 
ATOM      9  C   UNL     1     169.259 169.987 164.180  1.00  0.00     0.047 A 
ATOM     10  C   UNL     1     169.720 168.888 163.448  1.00  0.00     0.125 A 
ATOM     11  C   UNL     1     170.572 169.082 162.336  1.00  0.00     0.069 A 
ENDROOT
BRANCH   1  12
ATOM     12  C   UNL     1     172.303 174.286 160.882  1.00  0.00    -0.011 A 
ATOM     13  C   UNL     1     173.464 174.831 161.458  1.00  0.00     0.013 A 
ATOM     14  C   UNL     1     173.924 176.092 161.066  1.00  0.00     0.047 A 
ATOM     15  C   UNL     1     173.225 176.827 160.099  1.00  0.00     0.115 A 
ATOM     16  C   UNL     1     171.604 175.034 159.916  1.00  0.00     0.013 A 
ATOM     17  C   UNL     1     172.066 176.295 159.528  1.00  0.00     0.047 A 
BRANCH  15  18
ATOM     18  O   UNL     1     173.674 178.084 159.701  1.00  0.00    -0.508 OA
ATOM     19  H   UNL     1     173.756 178.850 160.359  1.00  0.00     0.293 HD
ENDBRANCH  15  18
ENDBRANCH   1  12
BRANCH  11  20
ATOM     20  C   UNL     1     171.098 167.889 161.548  1.00  0.00     0.188 C 
ATOM     21  C   UNL     1     172.265 167.210 162.309  1.00  0.00     0.179 C 
ATOM     22  O   UNL     1     170.036 166.972 161.334  1.00  0.00    -0.362 OA
ATOM     23  C   UNL     1     172.758 165.980 161.526  1.00  0.00     0.177 C 
ATOM     24  C   UNL     1     170.443 165.906 160.489  1.00  0.00     0.176 C 
ATOM     25  C   UNL     1     171.560 165.079 161.176  1.00  0.00     0.177 C 
BRANCH  21  26
ATOM     26  O   UNL     1     173.330 168.111 162.483  1.00  0.00    -0.387 OA
ATOM     27  H   UNL     1     173.020 168.812 163.115  1.00  0.00     0.211 HD
ENDBRANCH  21  26
BRANCH  23  28
ATOM     28  O   UNL     1     173.414 166.383 160.348  1.00  0.00    -0.387 OA
ATOM     29  H   UNL     1     174.349 166.054 160.408  1.00  0.00     0.211 HD
ENDBRANCH  23  28
BRANCH  24  30
ATOM     30  C   UNL     1     169.221 165.029 160.196  1.00  0.00     0.191 C 
BRANCH  30  31
ATOM     31  O   UNL     1     169.293 163.852 160.952  1.00  0.00    -0.394 OA
ATOM     32  H   UNL     1     169.875 163.231 160.440  1.00  0.00     0.210 HD
ENDBRANCH  30  31
ENDBRANCH  24  30
BRANCH  25  33
ATOM     33  O   UNL     1     171.971 163.988 160.385  1.00  0.00    -0.388 OA
ATOM     34  H   UNL     1     171.378 163.219 160.593  1.00  0.00     0.211 HD
ENDBRANCH  25  33
ENDBRANCH  11  20
BRANCH  10  35
ATOM     35  O   UNL     1     169.336 167.602 163.828  1.00  0.00    -0.507 OA
ATOM     36  H   UNL     1     169.941 167.006 164.383  1.00  0.00     0.293 HD
ENDBRANCH  10  35
TORSDOF 9
ENDMDL
