MODEL 1
REMARK VINA RESULT:    -2.761      0.000      0.000
REMARK INTER + INTRA:          -3.105
REMARK INTER:                  -3.083
REMARK INTRA:                  -0.022
REMARK UNBOUND:                -0.022
REMARK SMILES CCCC(=O)[O-]
REMARK SMILES IDX 3 1 4 2 5 3 6 4 2 5 1 6
REMARK H PARENT
REMARK Flexibility Score: inf
ROOT
ATOM      1  C   UNL     1      45.670 -24.690   0.860  1.00  0.00     0.052 C 
ENDROOT
BRANCH   1   2
ATOM      2  C   UNL     1      45.598 -24.589  -0.633  1.00  0.00     0.041 C 
ATOM      3  O   UNL     1      45.176 -23.534  -1.176  1.00  0.00    -0.550 OA
ATOM      4  O   UNL     1      45.964 -25.671  -1.423  1.00  0.00    -0.550 OA
ENDBRANCH   1   2
BRANCH   1   5
ATOM      5  C   UNL     1      46.060 -26.101   1.316  1.00  0.00     0.003 C 
ATOM      6  C   UNL     1      45.098 -26.661   2.365  1.00  0.00     0.004 C 
ENDBRANCH   1   5
TORSDOF 2
ENDMDL
MODEL 2
REMARK VINA RESULT:    -2.540      1.258      2.082
REMARK INTER + INTRA:          -2.858
REMARK INTER:                  -2.833
REMARK INTRA:                  -0.025
REMARK UNBOUND:                -0.022
REMARK SMILES CCCC(=O)[O-]
REMARK SMILES IDX 3 1 4 2 5 3 6 4 2 5 1 6
REMARK H PARENT
REMARK Flexibility Score: inf
ROOT
ATOM      1  C   UNL     1      45.024 -24.045  -0.741  1.00  0.00     0.052 C 
ENDROOT
BRANCH   1   2
ATOM      2  C   UNL     1      45.699 -24.522  -1.991  1.00  0.00     0.041 C 
ATOM      3  O   UNL     1      45.910 -25.751  -2.166  1.00  0.00    -0.550 OA
ATOM      4  O   UNL     1      46.125 -23.607  -2.945  1.00  0.00    -0.550 OA
ENDBRANCH   1   2
BRANCH   1   5
ATOM      5  C   UNL     1      45.953 -24.133   0.476  1.00  0.00     0.003 C 
ATOM      6  C   UNL     1      45.720 -25.402   1.295  1.00  0.00     0.004 C 
ENDBRANCH   1   5
TORSDOF 2
ENDMDL
MODEL 3
REMARK VINA RESULT:    -2.499      3.143      4.150
REMARK INTER + INTRA:          -2.813
REMARK INTER:                  -2.802
REMARK INTRA:                  -0.011
REMARK UNBOUND:                -0.022
REMARK SMILES CCCC(=O)[O-]
REMARK SMILES IDX 3 1 4 2 5 3 6 4 2 5 1 6
REMARK H PARENT
REMARK Flexibility Score: inf
ROOT
ATOM      1  C   UNL     1      45.047 -26.879   2.181  1.00  0.00     0.052 C 
ENDROOT
BRANCH   1   2
ATOM      2  C   UNL     1      45.783 -28.152   2.469  1.00  0.00     0.041 C 
ATOM      3  O   UNL     1      46.125 -28.433   3.648  1.00  0.00    -0.550 OA
ATOM      4  O   UNL     1      46.123 -29.010   1.430  1.00  0.00    -0.550 OA
ENDBRANCH   1   2
BRANCH   1   5
ATOM      5  C   UNL     1      46.002 -25.744   1.792  1.00  0.00     0.003 C 
ATOM      6  C   UNL     1      45.473 -24.915   0.621  1.00  0.00     0.004 C 
ENDBRANCH   1   5
TORSDOF 2
ENDMDL
MODEL 4
REMARK VINA RESULT:    -2.380      2.610      3.549
REMARK INTER + INTRA:          -2.680
REMARK INTER:                  -2.668
REMARK INTRA:                  -0.012
REMARK UNBOUND:                -0.022
REMARK SMILES CCCC(=O)[O-]
REMARK SMILES IDX 3 1 4 2 5 3 6 4 2 5 1 6
REMARK H PARENT
REMARK Flexibility Score: inf
ROOT
ATOM      1  C   UNL     1      45.387 -25.427   1.473  1.00  0.00     0.052 C 
ENDROOT
BRANCH   1   2
ATOM      2  C   UNL     1      45.679 -26.746   2.119  1.00  0.00     0.041 C 
ATOM      3  O   UNL     1      45.865 -26.814   3.363  1.00  0.00    -0.550 OA
ATOM      4  O   UNL     1      45.778 -27.895   1.345  1.00  0.00    -0.550 OA
ENDBRANCH   1   2
BRANCH   1   5
ATOM      5  C   UNL     1      46.125 -25.273   0.137  1.00  0.00     0.003 C 
ATOM      6  C   UNL     1      45.421 -24.297  -0.807  1.00  0.00     0.004 C 
ENDBRANCH   1   5
TORSDOF 2
ENDMDL
MODEL 5
REMARK VINA RESULT:    -2.183      2.114      3.647
REMARK INTER + INTRA:          -2.459
REMARK INTER:                  -2.454
REMARK INTRA:                  -0.006
REMARK UNBOUND:                -0.022
REMARK SMILES CCCC(=O)[O-]
REMARK SMILES IDX 3 1 4 2 5 3 6 4 2 5 1 6
REMARK H PARENT
REMARK Flexibility Score: inf
ROOT
ATOM      1  C   UNL     1      45.133 -24.249  -1.500  1.00  0.00     0.052 C 
ENDROOT
BRANCH   1   2
ATOM      2  C   UNL     1      45.448 -24.291  -0.036  1.00  0.00     0.041 C 
ATOM      3  O   UNL     1      45.369 -25.377   0.597  1.00  0.00    -0.550 OA
ATOM      4  O   UNL     1      45.795 -23.125   0.636  1.00  0.00    -0.550 OA
ENDBRANCH   1   2
BRANCH   1   5
ATOM      5  C   UNL     1      46.125 -25.083  -2.320  1.00  0.00     0.003 C 
ATOM      6  C   UNL     1      45.863 -24.988  -3.823  1.00  0.00     0.004 C 
ENDBRANCH   1   5
TORSDOF 2
ENDMDL
MODEL 6
REMARK VINA RESULT:    -2.105      5.084      6.023
REMARK INTER + INTRA:          -2.373
REMARK INTER:                  -2.350
REMARK INTRA:                  -0.023
REMARK UNBOUND:                -0.022
REMARK SMILES CCCC(=O)[O-]
REMARK SMILES IDX 3 1 4 2 5 3 6 4 2 5 1 6
REMARK H PARENT
REMARK Flexibility Score: inf
ROOT
ATOM      1  C   UNL     1      45.126 -24.806  -5.586  1.00  0.00     0.052 C 
ENDROOT
BRANCH   1   2
ATOM      2  C   UNL     1      45.803 -23.954  -6.614  1.00  0.00     0.041 C 
ATOM      3  O   UNL     1      46.067 -22.748  -6.363  1.00  0.00    -0.550 OA
ATOM      4  O   UNL     1      46.112 -24.481  -7.862  1.00  0.00    -0.550 OA
ENDBRANCH   1   2
BRANCH   1   5
ATOM      5  C   UNL     1      46.125 -25.375  -4.571  1.00  0.00     0.003 C 
ATOM      6  C   UNL     1      45.738 -25.050  -3.128  1.00  0.00     0.004 C 
ENDBRANCH   1   5
TORSDOF 2
ENDMDL
MODEL 7
REMARK VINA RESULT:    -1.948      8.301      9.409
REMARK INTER + INTRA:          -2.197
REMARK INTER:                  -2.160
REMARK INTRA:                  -0.037
REMARK UNBOUND:                -0.022
REMARK SMILES CCCC(=O)[O-]
REMARK SMILES IDX 3 1 4 2 5 3 6 4 2 5 1 6
REMARK H PARENT
REMARK Flexibility Score: inf
ROOT
ATOM      1  C   UNL     1      45.440 -29.365   9.039  1.00  0.00     0.052 C 
ENDROOT
BRANCH   1   2
ATOM      2  C   UNL     1      45.790 -28.315   8.030  1.00  0.00     0.041 C 
ATOM      3  O   UNL     1      45.752 -27.096   8.344  1.00  0.00    -0.550 OA
ATOM      4  O   UNL     1      46.125 -28.681   6.732  1.00  0.00    -0.550 OA
ENDBRANCH   1   2
BRANCH   1   5
ATOM      5  C   UNL     1      45.437 -28.803  10.467  1.00  0.00     0.003 C 
ATOM      6  C   UNL     1      44.058 -28.883  11.121  1.00  0.00     0.004 C 
ENDBRANCH   1   5
TORSDOF 2
ENDMDL
MODEL 8
REMARK VINA RESULT:    -1.850      2.269      2.984
REMARK INTER + INTRA:          -2.088
REMARK INTER:                  -2.082
REMARK INTRA:                  -0.006
REMARK UNBOUND:                -0.022
REMARK SMILES CCCC(=O)[O-]
REMARK SMILES IDX 3 1 4 2 5 3 6 4 2 5 1 6
REMARK H PARENT
REMARK Flexibility Score: inf
ROOT
ATOM      1  C   UNL     1      44.990 -26.594   3.070  1.00  0.00     0.052 C 
ENDROOT
BRANCH   1   2
ATOM      2  C   UNL     1      45.386 -26.487   1.629  1.00  0.00     0.041 C 
ATOM      3  O   UNL     1      45.122 -25.442   0.976  1.00  0.00    -0.550 OA
ATOM      4  O   UNL     1      46.015 -27.552   0.998  1.00  0.00    -0.550 OA
ENDBRANCH   1   2
BRANCH   1   5
ATOM      5  C   UNL     1      46.125 -27.161   3.931  1.00  0.00     0.003 C 
ATOM      6  C   UNL     1      45.937 -26.851   5.417  1.00  0.00     0.004 C 
ENDBRANCH   1   5
TORSDOF 2
ENDMDL
