MODEL 1
REMARK VINA RESULT:    -6.411      0.000      0.000
REMARK INTER + INTRA:          -8.241
REMARK INTER:                  -7.911
REMARK INTRA:                  -0.330
REMARK UNBOUND:                -0.330
REMARK SMILES O=c1c(O)c(-c2cc(O)c(O)c(O)c2)oc2cc(O)cc(O)c12
REMARK SMILES IDX 5 1 3 2 2 3 1 4 23 5 21 6 20 7 18 8 17 9 16 10 15 11 6 12
REMARK SMILES IDX 7 13 8 14 14 15 10 16 12 17 9 18 11 20 13 22 4 24 22 26
REMARK SMILES IDX 19 28
REMARK H PARENT 9 19 11 21 13 23 4 25 22 27 19 29
REMARK Flexibility Score: inf
ROOT
ATOM      1  C   UNL     1      22.010 -21.220 -11.486  1.00  0.00     0.180 A 
ATOM      2  C   UNL     1      21.348 -20.366 -12.385  1.00  0.00     0.208 A 
ATOM      3  C   UNL     1      21.359 -18.983 -12.143  1.00  0.00     0.238 A 
ATOM      4  O   UNL     1      20.812 -18.218 -12.980  1.00  0.00    -0.285 OA
ATOM      5  C   UNL     1      22.018 -18.473 -10.998  1.00  0.00     0.111 A 
ATOM      6  C   UNL     1      22.059 -17.094 -10.634  1.00  0.00     0.134 A 
ATOM      7  C   UNL     1      22.850 -16.688  -9.552  1.00  0.00     0.093 A 
ATOM      8  C   UNL     1      23.549 -17.620  -8.781  1.00  0.00     0.123 A 
ATOM      9  C   UNL     1      23.467 -18.976  -9.093  1.00  0.00     0.094 A 
ATOM     10  C   UNL     1      22.716 -19.406 -10.189  1.00  0.00     0.146 A 
ATOM     11  O   UNL     1      22.674 -20.706 -10.458  1.00  0.00    -0.452 OA
ENDROOT
BRANCH   1  12
ATOM     12  C   UNL     1      22.021 -22.691 -11.661  1.00  0.00     0.029 A 
ATOM     13  C   UNL     1      22.935 -23.274 -12.547  1.00  0.00     0.062 A 
ATOM     14  C   UNL     1      22.981 -24.660 -12.716  1.00  0.00     0.162 A 
ATOM     15  C   UNL     1      21.173 -23.522 -10.912  1.00  0.00     0.062 A 
ATOM     16  C   UNL     1      22.116 -25.492 -11.984  1.00  0.00     0.200 A 
ATOM     17  C   UNL     1      21.206 -24.912 -11.065  1.00  0.00     0.162 A 
BRANCH  14  18
ATOM     18  O   UNL     1      23.898 -25.194 -13.622  1.00  0.00    -0.504 OA
ATOM     19  H   UNL     1      23.665 -25.361 -14.594  1.00  0.00     0.293 HD
ENDBRANCH  14  18
BRANCH  16  20
ATOM     20  O   UNL     1      22.187 -26.872 -12.190  1.00  0.00    -0.502 OA
ATOM     21  H   UNL     1      21.733 -27.559 -11.605  1.00  0.00     0.293 HD
ENDBRANCH  16  20
BRANCH  17  22
ATOM     22  O   UNL     1      20.332 -25.672 -10.286  1.00  0.00    -0.504 OA
ATOM     23  H   UNL     1      19.544 -25.291  -9.783  1.00  0.00     0.293 HD
ENDBRANCH  17  22
ENDBRANCH   1  12
BRANCH   2  24
ATOM     24  O   UNL     1      20.723 -20.888 -13.520  1.00  0.00    -0.502 OA
ATOM     25  H   UNL     1      21.243 -21.201 -14.332  1.00  0.00     0.293 HD
ENDBRANCH   2  24
BRANCH   6  26
ATOM     26  O   UNL     1      21.326 -16.094 -11.280  1.00  0.00    -0.507 OA
ATOM     27  H   UNL     1      21.335 -15.926 -12.274  1.00  0.00     0.293 HD
ENDBRANCH   6  26
BRANCH   8  28
ATOM     28  O   UNL     1      24.321 -17.210  -7.696  1.00  0.00    -0.508 OA
ATOM     29  H   UNL     1      24.279 -17.690  -6.805  1.00  0.00     0.293 HD
ENDBRANCH   8  28
TORSDOF 7
ENDMDL
MODEL 2
REMARK VINA RESULT:    -6.405      0.078      1.767
REMARK INTER + INTRA:          -8.233
REMARK INTER:                  -7.909
REMARK INTRA:                  -0.324
REMARK UNBOUND:                -0.330
REMARK SMILES O=c1c(O)c(-c2cc(O)c(O)c(O)c2)oc2cc(O)cc(O)c12
REMARK SMILES IDX 5 1 3 2 2 3 1 4 23 5 21 6 20 7 18 8 17 9 16 10 15 11 6 12
REMARK SMILES IDX 7 13 8 14 14 15 10 16 12 17 9 18 11 20 13 22 4 24 22 26
REMARK SMILES IDX 19 28
REMARK H PARENT 9 19 11 21 13 23 4 25 22 27 19 29
REMARK Flexibility Score: inf
ROOT
ATOM      1  C   UNL     1      22.095 -21.267 -11.484  1.00  0.00     0.180 A 
ATOM      2  C   UNL     1      21.413 -20.423 -12.378  1.00  0.00     0.208 A 
ATOM      3  C   UNL     1      21.400 -19.041 -12.133  1.00  0.00     0.238 A 
ATOM      4  O   UNL     1      20.835 -18.285 -12.966  1.00  0.00    -0.285 OA
ATOM      5  C   UNL     1      22.053 -18.521 -10.989  1.00  0.00     0.111 A 
ATOM      6  C   UNL     1      22.069 -17.143 -10.623  1.00  0.00     0.134 A 
ATOM      7  C   UNL     1      22.857 -16.725  -9.542  1.00  0.00     0.093 A 
ATOM      8  C   UNL     1      23.577 -17.645  -8.777  1.00  0.00     0.123 A 
ATOM      9  C   UNL     1      23.519 -19.001  -9.091  1.00  0.00     0.094 A 
ATOM     10  C   UNL     1      22.772 -19.444 -10.185  1.00  0.00     0.146 A 
ATOM     11  O   UNL     1      22.753 -20.743 -10.457  1.00  0.00    -0.452 OA
ENDROOT
BRANCH   1  12
ATOM     12  C   UNL     1      22.133 -22.737 -11.662  1.00  0.00     0.029 A 
ATOM     13  C   UNL     1      21.239 -23.542 -10.944  1.00  0.00     0.062 A 
ATOM     14  C   UNL     1      21.239 -24.930 -11.107  1.00  0.00     0.162 A 
ATOM     15  C   UNL     1      23.007 -23.340 -12.581  1.00  0.00     0.062 A 
ATOM     16  C   UNL     1      22.130 -25.537 -12.010  1.00  0.00     0.200 A 
ATOM     17  C   UNL     1      23.019 -24.728 -12.760  1.00  0.00     0.162 A 
BRANCH  14  18
ATOM     18  O   UNL     1      20.342 -25.692 -10.359  1.00  0.00    -0.504 OA
ATOM     19  H   UNL     1      20.058 -25.430  -9.423  1.00  0.00     0.293 HD
ENDBRANCH  14  18
BRANCH  16  20
ATOM     20  O   UNL     1      22.105 -26.928 -12.136  1.00  0.00    -0.502 OA
ATOM     21  H   UNL     1      21.393 -27.441 -12.638  1.00  0.00     0.293 HD
ENDBRANCH  16  20
BRANCH  17  22
ATOM     22  O   UNL     1      23.916 -25.254 -13.691  1.00  0.00    -0.504 OA
ATOM     23  H   UNL     1      23.947 -26.226 -13.963  1.00  0.00     0.293 HD
ENDBRANCH  17  22
ENDBRANCH   1  12
BRANCH   2  24
ATOM     24  O   UNL     1      20.794 -20.955 -13.512  1.00  0.00    -0.502 OA
ATOM     25  H   UNL     1      19.869 -21.367 -13.484  1.00  0.00     0.293 HD
ENDBRANCH   2  24
BRANCH   6  26
ATOM     26  O   UNL     1      21.315 -16.155 -11.263  1.00  0.00    -0.507 OA
ATOM     27  H   UNL     1      21.114 -16.136 -12.251  1.00  0.00     0.293 HD
ENDBRANCH   6  26
BRANCH   8  28
ATOM     28  O   UNL     1      24.345 -17.223  -7.694  1.00  0.00    -0.508 OA
ATOM     29  H   UNL     1      24.495 -16.240  -7.502  1.00  0.00     0.293 HD
ENDBRANCH   8  28
TORSDOF 7
ENDMDL
MODEL 3
REMARK VINA RESULT:    -6.366      2.096      7.304
REMARK INTER + INTRA:          -8.185
REMARK INTER:                  -7.986
REMARK INTRA:                  -0.199
REMARK UNBOUND:                -0.330
REMARK SMILES O=c1c(O)c(-c2cc(O)c(O)c(O)c2)oc2cc(O)cc(O)c12
REMARK SMILES IDX 5 1 3 2 2 3 1 4 23 5 21 6 20 7 18 8 17 9 16 10 15 11 6 12
REMARK SMILES IDX 7 13 8 14 14 15 10 16 12 17 9 18 11 20 13 22 4 24 22 26
REMARK SMILES IDX 19 28
REMARK H PARENT 9 19 11 21 13 23 4 25 22 27 19 29
REMARK Flexibility Score: inf
ROOT
ATOM      1  C   UNL     1      23.409 -22.203 -12.018  1.00  0.00     0.180 A 
ATOM      2  C   UNL     1      22.257 -22.960 -11.740  1.00  0.00     0.208 A 
ATOM      3  C   UNL     1      22.146 -24.251 -12.279  1.00  0.00     0.238 A 
ATOM      4  O   UNL     1      21.139 -24.945 -11.982  1.00  0.00    -0.285 OA
ATOM      5  C   UNL     1      23.178 -24.764 -13.102  1.00  0.00     0.111 A 
ATOM      6  C   UNL     1      23.151 -26.043 -13.733  1.00  0.00     0.134 A 
ATOM      7  C   UNL     1      24.285 -26.499 -14.418  1.00  0.00     0.093 A 
ATOM      8  C   UNL     1      25.419 -25.694 -14.550  1.00  0.00     0.123 A 
ATOM      9  C   UNL     1      25.431 -24.419 -13.988  1.00  0.00     0.094 A 
ATOM     10  C   UNL     1      24.331 -23.952 -13.268  1.00  0.00     0.146 A 
ATOM     11  O   UNL     1      24.388 -22.736 -12.739  1.00  0.00    -0.452 OA
ENDROOT
BRANCH   1  12
ATOM     12  C   UNL     1      23.588 -20.824 -11.505  1.00  0.00     0.029 A 
ATOM     13  C   UNL     1      23.581 -19.749 -12.403  1.00  0.00     0.062 A 
ATOM     14  C   UNL     1      23.728 -18.436 -11.945  1.00  0.00     0.162 A 
ATOM     15  C   UNL     1      23.705 -20.565 -10.131  1.00  0.00     0.062 A 
ATOM     16  C   UNL     1      23.868 -18.178 -10.570  1.00  0.00     0.200 A 
ATOM     17  C   UNL     1      23.849 -19.258  -9.654  1.00  0.00     0.162 A 
BRANCH  14  18
ATOM     18  O   UNL     1      23.731 -17.399 -12.878  1.00  0.00    -0.504 OA
ATOM     19  H   UNL     1      23.312 -17.494 -13.795  1.00  0.00     0.293 HD
ENDBRANCH  14  18
BRANCH  16  20
ATOM     20  O   UNL     1      24.022 -16.852 -10.155  1.00  0.00    -0.502 OA
ATOM     21  H   UNL     1      23.367 -16.362  -9.563  1.00  0.00     0.293 HD
ENDBRANCH  16  20
BRANCH  17  22
ATOM     22  O   UNL     1      23.960 -19.079  -8.273  1.00  0.00    -0.504 OA
ATOM     23  H   UNL     1      24.738 -19.409  -7.720  1.00  0.00     0.293 HD
ENDBRANCH  17  22
ENDBRANCH   1  12
BRANCH   2  24
ATOM     24  O   UNL     1      21.261 -22.444 -10.907  1.00  0.00    -0.502 OA
ATOM     25  H   UNL     1      20.318 -22.264 -11.233  1.00  0.00     0.293 HD
ENDBRANCH   2  24
BRANCH   6  26
ATOM     26  O   UNL     1      22.037 -26.887 -13.740  1.00  0.00    -0.507 OA
ATOM     27  H   UNL     1      21.792 -27.522 -12.996  1.00  0.00     0.293 HD
ENDBRANCH   6  26
BRANCH   8  28
ATOM     28  O   UNL     1      26.536 -26.149 -15.247  1.00  0.00    -0.508 OA
ATOM     29  H   UNL     1      27.241 -26.725 -14.801  1.00  0.00     0.293 HD
ENDBRANCH   8  28
TORSDOF 7
ENDMDL
MODEL 4
REMARK VINA RESULT:    -6.353      2.099      7.450
REMARK INTER + INTRA:          -8.169
REMARK INTER:                  -7.976
REMARK INTRA:                  -0.193
REMARK UNBOUND:                -0.330
REMARK SMILES O=c1c(O)c(-c2cc(O)c(O)c(O)c2)oc2cc(O)cc(O)c12
REMARK SMILES IDX 5 1 3 2 2 3 1 4 23 5 21 6 20 7 18 8 17 9 16 10 15 11 6 12
REMARK SMILES IDX 7 13 8 14 14 15 10 16 12 17 9 18 11 20 13 22 4 24 22 26
REMARK SMILES IDX 19 28
REMARK H PARENT 9 19 11 21 13 23 4 25 22 27 19 29
REMARK Flexibility Score: inf
ROOT
ATOM      1  C   UNL     1      23.402 -22.210 -12.035  1.00  0.00     0.180 A 
ATOM      2  C   UNL     1      22.279 -22.996 -11.721  1.00  0.00     0.208 A 
ATOM      3  C   UNL     1      22.194 -24.299 -12.238  1.00  0.00     0.238 A 
ATOM      4  O   UNL     1      21.215 -25.017 -11.909  1.00  0.00    -0.285 OA
ATOM      5  C   UNL     1      23.223 -24.793 -13.077  1.00  0.00     0.111 A 
ATOM      6  C   UNL     1      23.220 -26.082 -13.688  1.00  0.00     0.134 A 
ATOM      7  C   UNL     1      24.352 -26.515 -14.392  1.00  0.00     0.093 A 
ATOM      8  C   UNL     1      25.458 -25.680 -14.560  1.00  0.00     0.123 A 
ATOM      9  C   UNL     1      25.445 -24.397 -14.018  1.00  0.00     0.094 A 
ATOM     10  C   UNL     1      24.347 -23.951 -13.280  1.00  0.00     0.146 A 
ATOM     11  O   UNL     1      24.380 -22.725 -12.770  1.00  0.00    -0.452 OA
ENDROOT
BRANCH   1  12
ATOM     12  C   UNL     1      23.551 -20.820 -11.547  1.00  0.00     0.029 A 
ATOM     13  C   UNL     1      23.724 -20.584 -10.178  1.00  0.00     0.062 A 
ATOM     14  C   UNL     1      23.887 -19.283  -9.692  1.00  0.00     0.162 A 
ATOM     15  C   UNL     1      23.580 -19.733 -12.436  1.00  0.00     0.062 A 
ATOM     16  C   UNL     1      23.894 -18.192 -10.579  1.00  0.00     0.200 A 
ATOM     17  C   UNL     1      23.746 -18.425 -11.968  1.00  0.00     0.162 A 
BRANCH  14  18
ATOM     18  O   UNL     1      24.041 -19.096  -8.318  1.00  0.00    -0.504 OA
ATOM     19  H   UNL     1      24.062 -18.176  -7.896  1.00  0.00     0.293 HD
ENDBRANCH  14  18
BRANCH  16  20
ATOM     20  O   UNL     1      24.049 -16.908 -10.051  1.00  0.00    -0.502 OA
ATOM     21  H   UNL     1      24.789 -16.271 -10.312  1.00  0.00     0.293 HD
ENDBRANCH  16  20
BRANCH  17  22
ATOM     22  O   UNL     1      23.765 -17.396 -12.912  1.00  0.00    -0.504 OA
ATOM     23  H   UNL     1      23.070 -17.277 -13.636  1.00  0.00     0.293 HD
ENDBRANCH  17  22
ENDBRANCH   1  12
BRANCH   2  24
ATOM     24  O   UNL     1      21.287 -22.497 -10.874  1.00  0.00    -0.502 OA
ATOM     25  H   UNL     1      20.723 -21.690 -11.113  1.00  0.00     0.293 HD
ENDBRANCH   2  24
BRANCH   6  26
ATOM     26  O   UNL     1      22.132 -26.958 -13.658  1.00  0.00    -0.507 OA
ATOM     27  H   UNL     1      22.183 -27.930 -13.392  1.00  0.00     0.293 HD
ENDBRANCH   6  26
BRANCH   8  28
ATOM     28  O   UNL     1      26.573 -26.112 -15.275  1.00  0.00    -0.508 OA
ATOM     29  H   UNL     1      26.882 -27.077 -15.243  1.00  0.00     0.293 HD
ENDBRANCH   8  28
TORSDOF 7
ENDMDL
MODEL 5
REMARK VINA RESULT:    -6.336      7.733      9.026
REMARK INTER + INTRA:          -8.148
REMARK INTER:                  -7.794
REMARK INTRA:                  -0.354
REMARK UNBOUND:                -0.330
REMARK SMILES O=c1c(O)c(-c2cc(O)c(O)c(O)c2)oc2cc(O)cc(O)c12
REMARK SMILES IDX 5 1 3 2 2 3 1 4 23 5 21 6 20 7 18 8 17 9 16 10 15 11 6 12
REMARK SMILES IDX 7 13 8 14 14 15 10 16 12 17 9 18 11 20 13 22 4 24 22 26
REMARK SMILES IDX 19 28
REMARK H PARENT 9 19 11 21 13 23 4 25 22 27 19 29
REMARK Flexibility Score: inf
ROOT
ATOM      1  C   UNL     1      22.264 -28.887 -11.507  1.00  0.00     0.180 A 
ATOM      2  C   UNL     1      21.702 -28.134 -12.553  1.00  0.00     0.208 A 
ATOM      3  C   UNL     1      22.551 -27.566 -13.515  1.00  0.00     0.238 A 
ATOM      4  O   UNL     1      22.040 -26.940 -14.479  1.00  0.00    -0.285 OA
ATOM      5  C   UNL     1      23.953 -27.743 -13.411  1.00  0.00     0.111 A 
ATOM      6  C   UNL     1      24.909 -27.179 -14.307  1.00  0.00     0.134 A 
ATOM      7  C   UNL     1      26.260 -27.528 -14.184  1.00  0.00     0.093 A 
ATOM      8  C   UNL     1      26.696 -28.369 -13.157  1.00  0.00     0.123 A 
ATOM      9  C   UNL     1      25.778 -28.877 -12.242  1.00  0.00     0.094 A 
ATOM     10  C   UNL     1      24.419 -28.576 -12.361  1.00  0.00     0.146 A 
ATOM     11  O   UNL     1      23.575 -29.090 -11.474  1.00  0.00    -0.452 OA
ENDROOT
BRANCH   1  12
ATOM     12  C   UNL     1      21.434 -29.497 -10.442  1.00  0.00     0.029 A 
ATOM     13  C   UNL     1      21.074 -28.731  -9.325  1.00  0.00     0.062 A 
ATOM     14  C   UNL     1      20.275 -29.274  -8.315  1.00  0.00     0.162 A 
ATOM     15  C   UNL     1      20.950 -30.810 -10.553  1.00  0.00     0.062 A 
ATOM     16  C   UNL     1      19.809 -30.597  -8.415  1.00  0.00     0.200 A 
ATOM     17  C   UNL     1      20.147 -31.369  -9.553  1.00  0.00     0.162 A 
BRANCH  14  18
ATOM     18  O   UNL     1      19.955 -28.479  -7.214  1.00  0.00    -0.504 OA
ATOM     19  H   UNL     1      20.031 -28.816  -6.262  1.00  0.00     0.293 HD
ENDBRANCH  14  18
BRANCH  16  20
ATOM     20  O   UNL     1      19.022 -31.105  -7.378  1.00  0.00    -0.502 OA
ATOM     21  H   UNL     1      18.619 -32.031  -7.371  1.00  0.00     0.293 HD
ENDBRANCH  16  20
BRANCH  17  22
ATOM     22  O   UNL     1      19.705 -32.681  -9.735  1.00  0.00    -0.504 OA
ATOM     23  H   UNL     1      19.411 -33.063 -10.622  1.00  0.00     0.293 HD
ENDBRANCH  17  22
ENDBRANCH   1  12
BRANCH   2  24
ATOM     24  O   UNL     1      20.315 -27.990 -12.649  1.00  0.00    -0.502 OA
ATOM     25  H   UNL     1      19.679 -28.379 -11.963  1.00  0.00     0.293 HD
ENDBRANCH   2  24
BRANCH   6  26
ATOM     26  O   UNL     1      24.592 -26.257 -15.308  1.00  0.00    -0.507 OA
ATOM     27  H   UNL     1      23.953 -25.485 -15.197  1.00  0.00     0.293 HD
ENDBRANCH   6  26
BRANCH   8  28
ATOM     28  O   UNL     1      28.044 -28.699 -13.033  1.00  0.00    -0.508 OA
ATOM     29  H   UNL     1      28.355 -29.663 -13.017  1.00  0.00     0.293 HD
ENDBRANCH   8  28
TORSDOF 7
ENDMDL
MODEL 6
REMARK VINA RESULT:    -6.231      1.502      7.015
REMARK INTER + INTRA:          -8.018
REMARK INTER:                  -8.424
REMARK INTRA:                   0.406
REMARK UNBOUND:                -0.330
REMARK SMILES O=c1c(O)c(-c2cc(O)c(O)c(O)c2)oc2cc(O)cc(O)c12
REMARK SMILES IDX 5 1 3 2 2 3 1 4 23 5 21 6 20 7 18 8 17 9 16 10 15 11 6 12
REMARK SMILES IDX 7 13 8 14 14 15 10 16 12 17 9 18 11 20 13 22 4 24 22 26
REMARK SMILES IDX 19 28
REMARK H PARENT 9 19 11 21 13 23 4 25 22 27 19 29
REMARK Flexibility Score: inf
ROOT
ATOM      1  C   UNL     1      21.755 -19.051 -11.408  1.00  0.00     0.180 A 
ATOM      2  C   UNL     1      21.164 -18.889 -12.673  1.00  0.00     0.208 A 
ATOM      3  C   UNL     1      20.779 -20.029 -13.396  1.00  0.00     0.238 A 
ATOM      4  O   UNL     1      20.200 -19.877 -14.502  1.00  0.00    -0.285 OA
ATOM      5  C   UNL     1      21.006 -21.318 -12.853  1.00  0.00     0.111 A 
ATOM      6  C   UNL     1      20.693 -22.542 -13.516  1.00  0.00     0.134 A 
ATOM      7  C   UNL     1      20.840 -23.755 -12.830  1.00  0.00     0.093 A 
ATOM      8  C   UNL     1      21.351 -23.791 -11.531  1.00  0.00     0.123 A 
ATOM      9  C   UNL     1      21.716 -22.604 -10.898  1.00  0.00     0.094 A 
ATOM     10  C   UNL     1      21.546 -21.377 -11.542  1.00  0.00     0.146 A 
ATOM     11  O   UNL     1      21.895 -20.269 -10.899  1.00  0.00    -0.452 OA
ENDROOT
BRANCH   1  12
ATOM     12  C   UNL     1      22.209 -17.897 -10.597  1.00  0.00     0.029 A 
ATOM     13  C   UNL     1      23.100 -18.107  -9.537  1.00  0.00     0.062 A 
ATOM     14  C   UNL     1      23.561 -17.035  -8.768  1.00  0.00     0.162 A 
ATOM     15  C   UNL     1      21.812 -16.586 -10.905  1.00  0.00     0.062 A 
ATOM     16  C   UNL     1      23.145 -15.724  -9.061  1.00  0.00     0.200 A 
ATOM     17  C   UNL     1      22.265 -15.500 -10.149  1.00  0.00     0.162 A 
BRANCH  14  18
ATOM     18  O   UNL     1      24.435 -17.294  -7.712  1.00  0.00    -0.504 OA
ATOM     19  H   UNL     1      24.547 -18.220  -7.318  1.00  0.00     0.293 HD
ENDBRANCH  14  18
BRANCH  16  20
ATOM     20  O   UNL     1      23.621 -14.681  -8.262  1.00  0.00    -0.502 OA
ATOM     21  H   UNL     1      23.301 -14.494  -7.322  1.00  0.00     0.293 HD
ENDBRANCH  16  20
BRANCH  17  22
ATOM     22  O   UNL     1      21.826 -14.226 -10.515  1.00  0.00    -0.504 OA
ATOM     23  H   UNL     1      22.176 -13.368 -10.114  1.00  0.00     0.293 HD
ENDBRANCH  17  22
ENDBRANCH   1  12
BRANCH   2  24
ATOM     24  O   UNL     1      20.928 -17.608 -13.180  1.00  0.00    -0.502 OA
ATOM     25  H   UNL     1      19.997 -17.216 -13.256  1.00  0.00     0.293 HD
ENDBRANCH   2  24
BRANCH   6  26
ATOM     26  O   UNL     1      20.264 -22.624 -14.843  1.00  0.00    -0.507 OA
ATOM     27  H   UNL     1      20.576 -23.317 -15.506  1.00  0.00     0.293 HD
ENDBRANCH   6  26
BRANCH   8  28
ATOM     28  O   UNL     1      21.509 -25.003 -10.862  1.00  0.00    -0.508 OA
ATOM     29  H   UNL     1      20.714 -25.515 -10.498  1.00  0.00     0.293 HD
ENDBRANCH   8  28
TORSDOF 7
ENDMDL
MODEL 7
REMARK VINA RESULT:    -6.190      1.807      3.054
REMARK INTER + INTRA:          -7.967
REMARK INTER:                  -7.613
REMARK INTRA:                  -0.355
REMARK UNBOUND:                -0.330
REMARK SMILES O=c1c(O)c(-c2cc(O)c(O)c(O)c2)oc2cc(O)cc(O)c12
REMARK SMILES IDX 5 1 3 2 2 3 1 4 23 5 21 6 20 7 18 8 17 9 16 10 15 11 6 12
REMARK SMILES IDX 7 13 8 14 14 15 10 16 12 17 9 18 11 20 13 22 4 24 22 26
REMARK SMILES IDX 19 28
REMARK H PARENT 9 19 11 21 13 23 4 25 22 27 19 29
REMARK Flexibility Score: inf
ROOT
ATOM      1  C   UNL     1      23.286 -22.300 -12.737  1.00  0.00     0.180 A 
ATOM      2  C   UNL     1      22.270 -21.634 -13.444  1.00  0.00     0.208 A 
ATOM      3  C   UNL     1      21.729 -20.455 -12.909  1.00  0.00     0.238 A 
ATOM      4  O   UNL     1      20.859 -19.833 -13.572  1.00  0.00    -0.285 OA
ATOM      5  C   UNL     1      22.198 -19.965 -11.665  1.00  0.00     0.111 A 
ATOM      6  C   UNL     1      21.693 -18.802 -11.011  1.00  0.00     0.134 A 
ATOM      7  C   UNL     1      22.322 -18.337  -9.848  1.00  0.00     0.093 A 
ATOM      8  C   UNL     1      23.394 -19.030  -9.282  1.00  0.00     0.123 A 
ATOM      9  C   UNL     1      23.855 -20.200  -9.882  1.00  0.00     0.094 A 
ATOM     10  C   UNL     1      23.273 -20.668 -11.062  1.00  0.00     0.146 A 
ATOM     11  O   UNL     1      23.750 -21.780 -11.607  1.00  0.00    -0.452 OA
ENDROOT
BRANCH   1  12
ATOM     12  C   UNL     1      23.889 -23.562 -13.226  1.00  0.00     0.029 A 
ATOM     13  C   UNL     1      23.330 -24.788 -12.841  1.00  0.00     0.062 A 
ATOM     14  C   UNL     1      23.866 -25.993 -13.303  1.00  0.00     0.162 A 
ATOM     15  C   UNL     1      24.974 -23.557 -14.116  1.00  0.00     0.062 A 
ATOM     16  C   UNL     1      24.968 -25.990 -14.177  1.00  0.00     0.200 A 
ATOM     17  C   UNL     1      25.522 -24.754 -14.592  1.00  0.00     0.162 A 
BRANCH  14  18
ATOM     18  O   UNL     1      23.285 -27.189 -12.880  1.00  0.00    -0.504 OA
ATOM     19  H   UNL     1      23.004 -27.345 -11.920  1.00  0.00     0.293 HD
ENDBRANCH  14  18
BRANCH  16  20
ATOM     20  O   UNL     1      25.479 -27.217 -14.607  1.00  0.00    -0.502 OA
ATOM     21  H   UNL     1      24.985 -27.857 -15.212  1.00  0.00     0.293 HD
ENDBRANCH  16  20
BRANCH  17  22
ATOM     22  O   UNL     1      26.601 -24.668 -15.474  1.00  0.00    -0.504 OA
ATOM     23  H   UNL     1      26.742 -23.909 -16.125  1.00  0.00     0.293 HD
ENDBRANCH  17  22
ENDBRANCH   1  12
BRANCH   2  24
ATOM     24  O   UNL     1      21.838 -22.123 -14.680  1.00  0.00    -0.502 OA
ATOM     25  H   UNL     1      21.608 -23.099 -14.829  1.00  0.00     0.293 HD
ENDBRANCH   2  24
BRANCH   6  26
ATOM     26  O   UNL     1      20.571 -18.089 -11.441  1.00  0.00    -0.507 OA
ATOM     27  H   UNL     1      19.627 -18.260 -11.129  1.00  0.00     0.293 HD
ENDBRANCH   6  26
BRANCH   8  28
ATOM     28  O   UNL     1      24.003 -18.569  -8.117  1.00  0.00    -0.508 OA
ATOM     29  H   UNL     1      24.834 -19.012  -7.743  1.00  0.00     0.293 HD
ENDBRANCH   8  28
TORSDOF 7
ENDMDL
MODEL 8
REMARK VINA RESULT:    -6.125      1.598      3.753
REMARK INTER + INTRA:          -7.887
REMARK INTER:                  -7.518
REMARK INTRA:                  -0.370
REMARK UNBOUND:                -0.330
REMARK SMILES O=c1c(O)c(-c2cc(O)c(O)c(O)c2)oc2cc(O)cc(O)c12
REMARK SMILES IDX 5 1 3 2 2 3 1 4 23 5 21 6 20 7 18 8 17 9 16 10 15 11 6 12
REMARK SMILES IDX 7 13 8 14 14 15 10 16 12 17 9 18 11 20 13 22 4 24 22 26
REMARK SMILES IDX 19 28
REMARK H PARENT 9 19 11 21 13 23 4 25 22 27 19 29
REMARK Flexibility Score: inf
ROOT
ATOM      1  C   UNL     1      23.005 -19.652 -10.799  1.00  0.00     0.180 A 
ATOM      2  C   UNL     1      23.718 -19.292  -9.643  1.00  0.00     0.208 A 
ATOM      3  C   UNL     1      23.755 -17.943  -9.258  1.00  0.00     0.238 A 
ATOM      4  O   UNL     1      24.348 -17.634  -8.192  1.00  0.00    -0.285 OA
ATOM      5  C   UNL     1      23.093 -16.968 -10.043  1.00  0.00     0.111 A 
ATOM      6  C   UNL     1      23.098 -15.568  -9.769  1.00  0.00     0.134 A 
ATOM      7  C   UNL     1      22.300 -14.711 -10.538  1.00  0.00     0.093 A 
ATOM      8  C   UNL     1      21.550 -15.195 -11.612  1.00  0.00     0.123 A 
ATOM      9  C   UNL     1      21.586 -16.552 -11.924  1.00  0.00     0.094 A 
ATOM     10  C   UNL     1      22.342 -17.437 -11.153  1.00  0.00     0.146 A 
ATOM     11  O   UNL     1      22.340 -18.724 -11.477  1.00  0.00    -0.452 OA
ENDROOT
BRANCH   1  12
ATOM     12  C   UNL     1      22.941 -21.051 -11.282  1.00  0.00     0.029 A 
ATOM     13  C   UNL     1      21.871 -21.867 -10.893  1.00  0.00     0.062 A 
ATOM     14  C   UNL     1      21.775 -23.185 -11.349  1.00  0.00     0.162 A 
ATOM     15  C   UNL     1      23.901 -21.562 -12.170  1.00  0.00     0.062 A 
ATOM     16  C   UNL     1      22.749 -23.705 -12.221  1.00  0.00     0.200 A 
ATOM     17  C   UNL     1      23.819 -22.878 -12.640  1.00  0.00     0.162 A 
BRANCH  14  18
ATOM     18  O   UNL     1      20.700 -23.965 -10.922  1.00  0.00    -0.504 OA
ATOM     19  H   UNL     1      19.768 -23.857 -11.302  1.00  0.00     0.293 HD
ENDBRANCH  14  18
BRANCH  16  20
ATOM     20  O   UNL     1      22.621 -25.030 -12.645  1.00  0.00    -0.502 OA
ATOM     21  H   UNL     1      23.383 -25.589 -13.002  1.00  0.00     0.293 HD
ENDBRANCH  16  20
BRANCH  17  22
ATOM     22  O   UNL     1      24.811 -23.315 -13.521  1.00  0.00    -0.504 OA
ATOM     23  H   UNL     1      24.732 -24.137 -14.101  1.00  0.00     0.293 HD
ENDBRANCH  17  22
ENDBRANCH   1  12
BRANCH   2  24
ATOM     24  O   UNL     1      24.346 -20.273  -8.870  1.00  0.00    -0.502 OA
ATOM     25  H   UNL     1      24.076 -21.249  -8.905  1.00  0.00     0.293 HD
ENDBRANCH   2  24
BRANCH   6  26
ATOM     26  O   UNL     1      23.882 -14.968  -8.779  1.00  0.00    -0.507 OA
ATOM     27  H   UNL     1      24.890 -14.925  -8.792  1.00  0.00     0.293 HD
ENDBRANCH   6  26
BRANCH   8  28
ATOM     28  O   UNL     1      20.772 -14.334 -12.383  1.00  0.00    -0.508 OA
ATOM     29  H   UNL     1      19.827 -14.576 -12.657  1.00  0.00     0.293 HD
ENDBRANCH   8  28
TORSDOF 7
ENDMDL
MODEL 9
REMARK VINA RESULT:    -6.116      8.251     10.631
REMARK INTER + INTRA:          -7.877
REMARK INTER:                  -7.531
REMARK INTRA:                  -0.346
REMARK UNBOUND:                -0.330
REMARK SMILES O=c1c(O)c(-c2cc(O)c(O)c(O)c2)oc2cc(O)cc(O)c12
REMARK SMILES IDX 5 1 3 2 2 3 1 4 23 5 21 6 20 7 18 8 17 9 16 10 15 11 6 12
REMARK SMILES IDX 7 13 8 14 14 15 10 16 12 17 9 18 11 20 13 22 4 24 22 26
REMARK SMILES IDX 19 28
REMARK H PARENT 9 19 11 21 13 23 4 25 22 27 19 29
REMARK Flexibility Score: inf
ROOT
ATOM      1  C   UNL     1      22.678 -29.984 -12.240  1.00  0.00     0.180 A 
ATOM      2  C   UNL     1      22.164 -31.176 -12.781  1.00  0.00     0.208 A 
ATOM      3  C   UNL     1      21.213 -31.902 -12.046  1.00  0.00     0.238 A 
ATOM      4  O   UNL     1      20.715 -32.938 -12.558  1.00  0.00    -0.285 OA
ATOM      5  C   UNL     1      20.802 -31.437 -10.772  1.00  0.00     0.111 A 
ATOM      6  C   UNL     1      19.875 -32.114  -9.924  1.00  0.00     0.134 A 
ATOM      7  C   UNL     1      19.442 -31.496  -8.744  1.00  0.00     0.093 A 
ATOM      8  C   UNL     1      19.952 -30.257  -8.350  1.00  0.00     0.123 A 
ATOM      9  C   UNL     1      20.902 -29.616  -9.142  1.00  0.00     0.094 A 
ATOM     10  C   UNL     1      21.326 -30.190 -10.343  1.00  0.00     0.146 A 
ATOM     11  O   UNL     1      22.224 -29.541 -11.074  1.00  0.00    -0.452 OA
ENDROOT
BRANCH   1  12
ATOM     12  C   UNL     1      23.701 -29.177 -12.945  1.00  0.00     0.029 A 
ATOM     13  C   UNL     1      25.058 -29.389 -12.669  1.00  0.00     0.062 A 
ATOM     14  C   UNL     1      26.045 -28.656 -13.334  1.00  0.00     0.162 A 
ATOM     15  C   UNL     1      23.344 -28.243 -13.930  1.00  0.00     0.062 A 
ATOM     16  C   UNL     1      25.686 -27.703 -14.304  1.00  0.00     0.200 A 
ATOM     17  C   UNL     1      24.318 -27.502 -14.608  1.00  0.00     0.162 A 
BRANCH  14  18
ATOM     18  O   UNL     1      27.382 -28.890 -13.013  1.00  0.00    -0.504 OA
ATOM     19  H   UNL     1      27.688 -29.739 -12.554  1.00  0.00     0.293 HD
ENDBRANCH  14  18
BRANCH  16  20
ATOM     20  O   UNL     1      26.704 -26.985 -14.938  1.00  0.00    -0.502 OA
ATOM     21  H   UNL     1      27.106 -26.131 -14.577  1.00  0.00     0.293 HD
ENDBRANCH  16  20
BRANCH  17  22
ATOM     22  O   UNL     1      23.885 -26.592 -15.574  1.00  0.00    -0.504 OA
ATOM     23  H   UNL     1      24.314 -25.693 -15.739  1.00  0.00     0.293 HD
ENDBRANCH  17  22
ENDBRANCH   1  12
BRANCH   2  24
ATOM     24  O   UNL     1      22.567 -31.604 -14.048  1.00  0.00    -0.502 OA
ATOM     25  H   UNL     1      22.092 -32.347 -14.548  1.00  0.00     0.293 HD
ENDBRANCH   2  24
BRANCH   6  26
ATOM     26  O   UNL     1      19.375 -33.394 -10.178  1.00  0.00    -0.507 OA
ATOM     27  H   UNL     1      19.920 -34.162 -10.539  1.00  0.00     0.293 HD
ENDBRANCH   6  26
BRANCH   8  28
ATOM     28  O   UNL     1      19.528 -29.657  -7.166  1.00  0.00    -0.508 OA
ATOM     29  H   UNL     1      19.630 -30.120  -6.271  1.00  0.00     0.293 HD
ENDBRANCH   8  28
TORSDOF 7
ENDMDL
