MODEL 1
REMARK VINA RESULT:    44.673      0.000      0.000
REMARK INTER + INTRA:          68.872
REMARK INTER:                  65.565
REMARK INTRA:                   3.306
REMARK UNBOUND:                 3.306
REMARK SMILES Cc1cc2c(C(C)C)c(O)c(O)c(C=O)c2c(O)c1-c1c(C)cc2c(C(C)C)c(O)c(O)c(C=O)c2c1O
REMARK SMILES IDX 1 1 2 2 3 3 4 4 16 5 13 6 11 7 9 8 5 9 17 10 19 11 20 12
REMARK SMILES IDX 37 13 21 14 36 15 23 16 22 17 24 18 33 19 25 20 31 21 29 22
REMARK SMILES IDX 38 23 34 25 35 26 26 27 27 28 28 29 32 30 30 32 18 34 6 36
REMARK SMILES IDX 7 37 8 38 14 39 15 40 10 41 12 43
REMARK H PARENT 38 24 32 31 30 33 18 35 10 42 12 44
REMARK Flexibility Score: inf
ROOT
ATOM      1  C   UNL     1       3.651 -39.833  21.168  1.00  0.00     0.045 C 
ATOM      2  C   UNL     1       4.087 -38.593  21.912  1.00  0.00    -0.039 A 
ATOM      3  C   UNL     1       4.354 -38.673  23.280  1.00  0.00     0.013 A 
ATOM      4  C   UNL     1       4.782 -37.556  24.029  1.00  0.00    -0.006 A 
ATOM      5  C   UNL     1       4.971 -36.314  23.347  1.00  0.00     0.039 A 
ATOM      6  C   UNL     1       5.494 -35.201  24.068  1.00  0.00     0.072 A 
ATOM      7  C   UNL     1       5.664 -35.285  25.461  1.00  0.00     0.169 A 
ATOM      8  C   UNL     1       5.401 -36.479  26.139  1.00  0.00     0.162 A 
ATOM      9  C   UNL     1       5.015 -37.646  25.440  1.00  0.00     0.008 A 
ATOM     10  C   UNL     1       4.596 -36.212  21.973  1.00  0.00     0.132 A 
ATOM     11  C   UNL     1       4.179 -37.355  21.260  1.00  0.00     0.031 A 
ENDROOT
BRANCH  11  12
ATOM     12  C   UNL     1       3.816 -37.250  19.823  1.00  0.00     0.031 A 
ATOM     13  C   UNL     1       2.583 -37.761  19.364  1.00  0.00     0.132 A 
ATOM     14  C   UNL     1       4.699 -36.635  18.918  1.00  0.00    -0.039 A 
ATOM     15  C   UNL     1       2.205 -37.608  18.000  1.00  0.00     0.039 A 
ATOM     16  C   UNL     1       4.390 -36.624  17.556  1.00  0.00     0.013 A 
ATOM     17  C   UNL     1       6.011 -36.055  19.385  1.00  0.00     0.045 C 
ATOM     18  C   UNL     1       3.182 -37.167  17.064  1.00  0.00    -0.006 A 
ATOM     19  C   UNL     1       0.895 -37.916  17.537  1.00  0.00     0.072 A 
ATOM     20  C   UNL     1       2.920 -37.253  15.663  1.00  0.00     0.008 A 
ATOM     21  C   UNL     1       0.610 -37.896  16.162  1.00  0.00     0.169 A 
ATOM     22  C   UNL     1       1.602 -37.530  15.232  1.00  0.00     0.162 A 
BRANCH  13  23
ATOM     23  O   UNL     1       1.755 -38.464  20.248  1.00  0.00    -0.507 OA
ATOM     24  H   UNL     1       1.001 -38.038  20.771  1.00  0.00     0.293 HD
ENDBRANCH  13  23
BRANCH  19  25
ATOM     25  C   UNL     1      -0.251 -38.134  18.449  1.00  0.00     0.264 C 
ATOM     26  O   UNL     1      -0.505 -37.316  19.373  1.00  0.00    -0.298 OA
ENDBRANCH  19  25
BRANCH  20  27
ATOM     27  C   UNL     1       4.037 -37.040  14.623  1.00  0.00     0.017 C 
ATOM     28  C   UNL     1       5.182 -38.035  14.836  1.00  0.00     0.012 C 
ATOM     29  C   UNL     1       4.556 -35.591  14.558  1.00  0.00     0.012 C 
ENDBRANCH  20  27
BRANCH  21  30
ATOM     30  O   UNL     1      -0.683 -38.247  15.752  1.00  0.00    -0.504 OA
ATOM     31  H   UNL     1      -1.523 -38.066  16.284  1.00  0.00     0.293 HD
ENDBRANCH  21  30
BRANCH  22  32
ATOM     32  O   UNL     1       1.292 -37.391  13.875  1.00  0.00    -0.504 OA
ATOM     33  H   UNL     1       0.368 -37.215  13.511  1.00  0.00     0.293 HD
ENDBRANCH  22  32
ENDBRANCH  11  12
BRANCH  10  34
ATOM     34  O   UNL     1       4.599 -34.969  21.331  1.00  0.00    -0.507 OA
ATOM     35  H   UNL     1       5.196 -34.738  20.546  1.00  0.00     0.293 HD
ENDBRANCH  10  34
BRANCH   9  36
ATOM     36  C   UNL     1       4.835 -38.940  26.261  1.00  0.00     0.017 C 
ATOM     37  C   UNL     1       6.112 -39.795  26.283  1.00  0.00     0.012 C 
ATOM     38  C   UNL     1       4.229 -38.714  27.663  1.00  0.00     0.012 C 
ENDBRANCH   9  36
BRANCH   6  39
ATOM     39  C   UNL     1       5.949 -33.966  23.393  1.00  0.00     0.264 C 
ATOM     40  O   UNL     1       5.132 -33.042  23.139  1.00  0.00    -0.298 OA
ENDBRANCH   6  39
BRANCH   8  41
ATOM     41  O   UNL     1       5.543 -36.513  27.531  1.00  0.00    -0.504 OA
ATOM     42  H   UNL     1       5.716 -37.367  28.048  1.00  0.00     0.293 HD
ENDBRANCH   8  41
BRANCH   7  43
ATOM     43  O   UNL     1       6.123 -34.193  26.209  1.00  0.00    -0.504 OA
ATOM     44  H   UNL     1       7.053 -33.804  26.136  1.00  0.00     0.293 HD
ENDBRANCH   7  43
TORSDOF 11
ENDMDL
