MODEL 1
REMARK VINA RESULT:    -4.748      0.000      0.000
REMARK INTER + INTRA:          -7.695
REMARK INTER:                  -5.859
REMARK INTRA:                  -1.836
REMARK UNBOUND:                -1.836
REMARK SMILES CC(C)=CCC[C@H](C)[C@@H]1C=CC(C)=CC1
REMARK SMILES IDX 6 1 7 2 8 3 9 4 13 5 12 6 14 7 11 8 15 9 10 10 5 11 4 12
REMARK SMILES IDX 2 13 1 14 3 15
REMARK H PARENT
REMARK Flexibility Score: inf
ROOT
ATOM      1  C   UNL     1      30.165  11.681  32.270  1.00  0.00     0.008 C 
ENDROOT
BRANCH   1   2
ATOM      2  C   UNL     1      31.624  12.167  32.516  1.00  0.00    -0.007 C 
ATOM      3  C   UNL     1      32.340  12.579  31.220  1.00  0.00     0.008 C 
BRANCH   2   4
ATOM      4  C   UNL     1      32.516  11.236  33.401  1.00  0.00     0.018 C 
ATOM      5  C   UNL     1      30.869   7.179  33.609  1.00  0.00     0.044 C 
ATOM      6  C   UNL     1      31.519   8.530  33.659  1.00  0.00    -0.055 C 
ATOM      7  C   UNL     1      31.101   9.446  34.545  1.00  0.00    -0.023 C 
ATOM      8  C   UNL     1      32.650   8.834  32.760  1.00  0.00    -0.001 C 
ATOM      9  C   UNL     1      31.814  10.763  34.703  1.00  0.00     0.035 C 
ATOM     10  C   UNL     1      33.125  10.077  32.643  1.00  0.00    -0.023 C 
ENDBRANCH   2   4
ENDBRANCH   1   2
BRANCH   1  11
ATOM     11  C   UNL     1      29.819  11.251  30.827  1.00  0.00     0.027 C 
BRANCH  11  12
ATOM     12  C   UNL     1      29.790   9.749  30.656  1.00  0.00    -0.028 C 
ATOM     13  C   UNL     1      30.597   9.090  29.797  1.00  0.00    -0.080 C 
ATOM     14  C   UNL     1      31.596   9.822  28.932  1.00  0.00     0.039 C 
ATOM     15  C   UNL     1      30.488   7.591  29.706  1.00  0.00     0.039 C 
ENDBRANCH  11  12
ENDBRANCH   1  11
TORSDOF 4
ENDMDL
MODEL 2
REMARK VINA RESULT:    -4.664      1.183      4.093
REMARK INTER + INTRA:          -7.592
REMARK INTER:                  -5.694
REMARK INTRA:                  -1.898
REMARK UNBOUND:                -1.836
REMARK SMILES CC(C)=CCC[C@H](C)[C@@H]1C=CC(C)=CC1
REMARK SMILES IDX 6 1 7 2 8 3 9 4 13 5 12 6 14 7 11 8 15 9 10 10 5 11 4 12
REMARK SMILES IDX 2 13 1 14 3 15
REMARK H PARENT
REMARK Flexibility Score: inf
ROOT
ATOM      1  C   UNL     1      32.858  11.564  30.997  1.00  0.00     0.008 C 
ENDROOT
BRANCH   1   2
ATOM      2  C   UNL     1      31.557  12.219  30.445  1.00  0.00    -0.007 C 
ATOM      3  C   UNL     1      30.537  12.538  31.550  1.00  0.00     0.008 C 
BRANCH   2   4
ATOM      4  C   UNL     1      30.889  11.496  29.230  1.00  0.00     0.018 C 
ATOM      5  C   UNL     1      29.677   7.415  30.271  1.00  0.00     0.044 C 
ATOM      6  C   UNL     1      30.076   8.770  29.768  1.00  0.00    -0.055 C 
ATOM      7  C   UNL     1      31.322   8.983  29.320  1.00  0.00    -0.023 C 
ATOM      8  C   UNL     1      29.079   9.860  29.725  1.00  0.00    -0.001 C 
ATOM      9  C   UNL     1      31.715  10.295  28.696  1.00  0.00     0.035 C 
ATOM     10  C   UNL     1      29.444  11.119  29.466  1.00  0.00    -0.023 C 
ENDBRANCH   2   4
ENDBRANCH   1   2
BRANCH   1  11
ATOM     11  C   UNL     1      32.819  11.095  32.469  1.00  0.00     0.027 C 
BRANCH  11  12
ATOM     12  C   UNL     1      32.914   9.592  32.605  1.00  0.00    -0.028 C 
ATOM     13  C   UNL     1      31.887   8.824  33.030  1.00  0.00    -0.080 C 
ATOM     14  C   UNL     1      30.554   9.426  33.407  1.00  0.00     0.039 C 
ATOM     15  C   UNL     1      32.090   7.335  33.128  1.00  0.00     0.039 C 
ENDBRANCH  11  12
ENDBRANCH   1  11
TORSDOF 4
ENDMDL
MODEL 3
REMARK VINA RESULT:    -4.623      2.145      5.102
REMARK INTER + INTRA:          -7.540
REMARK INTER:                  -6.428
REMARK INTRA:                  -1.112
REMARK UNBOUND:                -1.836
REMARK SMILES CC(C)=CCC[C@H](C)[C@@H]1C=CC(C)=CC1
REMARK SMILES IDX 6 1 7 2 8 3 9 4 13 5 12 6 14 7 11 8 15 9 10 10 5 11 4 12
REMARK SMILES IDX 2 13 1 14 3 15
REMARK H PARENT
REMARK Flexibility Score: inf
ROOT
ATOM      1  C   UNL     1      30.787  10.790  35.829  1.00  0.00     0.008 C 
ENDROOT
BRANCH   1   2
ATOM      2  C   UNL     1      30.708  10.451  34.311  1.00  0.00    -0.007 C 
ATOM      3  C   UNL     1      29.531   9.522  33.970  1.00  0.00     0.008 C 
BRANCH   2   4
ATOM      4  C   UNL     1      32.039   9.969  33.647  1.00  0.00     0.018 C 
ATOM      5  C   UNL     1      32.404  11.464  29.543  1.00  0.00     0.044 C 
ATOM      6  C   UNL     1      32.390  10.852  30.912  1.00  0.00    -0.055 C 
ATOM      7  C   UNL     1      31.745   9.696  31.126  1.00  0.00    -0.023 C 
ATOM      8  C   UNL     1      33.125  11.504  32.015  1.00  0.00    -0.001 C 
ATOM      9  C   UNL     1      31.817   8.995  32.458  1.00  0.00     0.035 C 
ATOM     10  C   UNL     1      32.978  11.095  33.279  1.00  0.00    -0.023 C 
ENDBRANCH   2   4
ENDBRANCH   1   2
BRANCH   1  11
ATOM     11  C   UNL     1      31.623   9.831  36.705  1.00  0.00     0.027 C 
BRANCH  11  12
ATOM     12  C   UNL     1      30.780   8.773  37.381  1.00  0.00    -0.028 C 
ATOM     13  C   UNL     1      30.757   7.484  36.981  1.00  0.00    -0.080 C 
ATOM     14  C   UNL     1      31.581   7.004  35.810  1.00  0.00     0.039 C 
ATOM     15  C   UNL     1      29.882   6.511  37.727  1.00  0.00     0.039 C 
ENDBRANCH  11  12
ENDBRANCH   1  11
TORSDOF 4
ENDMDL
MODEL 4
REMARK VINA RESULT:    -4.599      1.212      2.570
REMARK INTER + INTRA:          -7.511
REMARK INTER:                  -5.750
REMARK INTRA:                  -1.760
REMARK UNBOUND:                -1.836
REMARK SMILES CC(C)=CCC[C@H](C)[C@@H]1C=CC(C)=CC1
REMARK SMILES IDX 6 1 7 2 8 3 9 4 13 5 12 6 14 7 11 8 15 9 10 10 5 11 4 12
REMARK SMILES IDX 2 13 1 14 3 15
REMARK H PARENT
REMARK Flexibility Score: inf
ROOT
ATOM      1  C   UNL     1      31.636  10.232  30.209  1.00  0.00     0.008 C 
ENDROOT
BRANCH   1   2
ATOM      2  C   UNL     1      32.229  11.128  31.337  1.00  0.00    -0.007 C 
ATOM      3  C   UNL     1      33.125  12.253  30.793  1.00  0.00     0.008 C 
BRANCH   2   4
ATOM      4  C   UNL     1      32.906  10.373  32.527  1.00  0.00     0.018 C 
ATOM      5  C   UNL     1      29.937   9.035  35.460  1.00  0.00     0.044 C 
ATOM      6  C   UNL     1      31.059   9.469  34.565  1.00  0.00    -0.055 C 
ATOM      7  C   UNL     1      31.576  10.700  34.680  1.00  0.00    -0.023 C 
ATOM      8  C   UNL     1      31.623   8.519  33.584  1.00  0.00    -0.001 C 
ATOM      9  C   UNL     1      32.782  11.121  33.882  1.00  0.00     0.035 C 
ATOM     10  C   UNL     1      32.486   8.925  32.647  1.00  0.00    -0.023 C 
ENDBRANCH   2   4
ENDBRANCH   1   2
BRANCH   1  11
ATOM     11  C   UNL     1      30.104  10.287  30.022  1.00  0.00     0.027 C 
BRANCH  11  12
ATOM     12  C   UNL     1      29.357  10.328  31.336  1.00  0.00    -0.028 C 
ATOM     13  C   UNL     1      28.784  11.450  31.822  1.00  0.00    -0.080 C 
ATOM     14  C   UNL     1      28.854  12.761  31.076  1.00  0.00     0.039 C 
ATOM     15  C   UNL     1      28.062  11.380  33.143  1.00  0.00     0.039 C 
ENDBRANCH  11  12
ENDBRANCH   1  11
TORSDOF 4
ENDMDL
MODEL 5
REMARK VINA RESULT:    -4.570      1.394      4.685
REMARK INTER + INTRA:          -7.476
REMARK INTER:                  -6.510
REMARK INTRA:                  -0.966
REMARK UNBOUND:                -1.836
REMARK SMILES CC(C)=CCC[C@H](C)[C@@H]1C=CC(C)=CC1
REMARK SMILES IDX 6 1 7 2 8 3 9 4 13 5 12 6 14 7 11 8 15 9 10 10 5 11 4 12
REMARK SMILES IDX 2 13 1 14 3 15
REMARK H PARENT
REMARK Flexibility Score: inf
ROOT
ATOM      1  C   UNL     1      32.531   9.051  32.703  1.00  0.00     0.008 C 
ENDROOT
BRANCH   1   2
ATOM      2  C   UNL     1      33.117  10.493  32.653  1.00  0.00    -0.007 C 
ATOM      3  C   UNL     1      32.896  11.270  33.961  1.00  0.00     0.008 C 
BRANCH   2   4
ATOM      4  C   UNL     1      32.733  11.347  31.401  1.00  0.00     0.018 C 
ATOM      5  C   UNL     1      28.400  11.345  30.739  1.00  0.00     0.044 C 
ATOM      6  C   UNL     1      29.896  11.397  30.822  1.00  0.00    -0.055 C 
ATOM      7  C   UNL     1      30.636  10.418  30.281  1.00  0.00    -0.023 C 
ATOM      8  C   UNL     1      30.556  12.554  31.462  1.00  0.00    -0.001 C 
ATOM      9  C   UNL     1      32.139  10.505  30.239  1.00  0.00     0.035 C 
ATOM     10  C   UNL     1      31.867  12.544  31.722  1.00  0.00    -0.023 C 
ENDBRANCH   2   4
ENDBRANCH   1   2
BRANCH   1  11
ATOM     11  C   UNL     1      31.226   8.868  33.509  1.00  0.00     0.027 C 
BRANCH  11  12
ATOM     12  C   UNL     1      31.257   7.647  34.400  1.00  0.00    -0.028 C 
ATOM     13  C   UNL     1      31.252   7.719  35.748  1.00  0.00    -0.080 C 
ATOM     14  C   UNL     1      31.217   9.046  36.469  1.00  0.00     0.039 C 
ATOM     15  C   UNL     1      31.283   6.439  36.542  1.00  0.00     0.039 C 
ENDBRANCH  11  12
ENDBRANCH   1  11
TORSDOF 4
ENDMDL
MODEL 6
REMARK VINA RESULT:    -4.492      1.636      4.042
REMARK INTER + INTRA:          -7.379
REMARK INTER:                  -5.342
REMARK INTRA:                  -2.037
REMARK UNBOUND:                -1.836
REMARK SMILES CC(C)=CCC[C@H](C)[C@@H]1C=CC(C)=CC1
REMARK SMILES IDX 6 1 7 2 8 3 9 4 13 5 12 6 14 7 11 8 15 9 10 10 5 11 4 12
REMARK SMILES IDX 2 13 1 14 3 15
REMARK H PARENT
REMARK Flexibility Score: inf
ROOT
ATOM      1  C   UNL     1      30.114   8.221  31.618  1.00  0.00     0.008 C 
ENDROOT
BRANCH   1   2
ATOM      2  C   UNL     1      31.510   8.870  31.852  1.00  0.00    -0.007 C 
ATOM      3  C   UNL     1      32.313   8.169  32.960  1.00  0.00     0.008 C 
BRANCH   2   4
ATOM      4  C   UNL     1      31.523  10.424  32.022  1.00  0.00     0.018 C 
ATOM      5  C   UNL     1      31.651  12.451  28.138  1.00  0.00     0.044 C 
ATOM      6  C   UNL     1      31.650  11.891  29.529  1.00  0.00    -0.055 C 
ATOM      7  C   UNL     1      32.803  11.533  30.112  1.00  0.00    -0.023 C 
ATOM      8  C   UNL     1      30.378  11.776  30.273  1.00  0.00    -0.001 C 
ATOM      9  C   UNL     1      32.847  11.085  31.549  1.00  0.00     0.035 C 
ATOM     10  C   UNL     1      30.313  11.111  31.430  1.00  0.00    -0.023 C 
ENDBRANCH   2   4
ENDBRANCH   1   2
BRANCH   1  11
ATOM     11  C   UNL     1      29.882   7.569  30.237  1.00  0.00     0.027 C 
BRANCH  11  12
ATOM     12  C   UNL     1      30.986   7.881  29.252  1.00  0.00    -0.028 C 
ATOM     13  C   UNL     1      30.791   8.617  28.137  1.00  0.00    -0.080 C 
ATOM     14  C   UNL     1      29.435   9.185  27.791  1.00  0.00     0.039 C 
ATOM     15  C   UNL     1      31.962   8.868  27.223  1.00  0.00     0.039 C 
ENDBRANCH  11  12
ENDBRANCH   1  11
TORSDOF 4
ENDMDL
MODEL 7
REMARK VINA RESULT:    -4.490      1.747      4.895
REMARK INTER + INTRA:          -7.376
REMARK INTER:                  -6.138
REMARK INTRA:                  -1.237
REMARK UNBOUND:                -1.836
REMARK SMILES CC(C)=CCC[C@H](C)[C@@H]1C=CC(C)=CC1
REMARK SMILES IDX 6 1 7 2 8 3 9 4 13 5 12 6 14 7 11 8 15 9 10 10 5 11 4 12
REMARK SMILES IDX 2 13 1 14 3 15
REMARK H PARENT
REMARK Flexibility Score: inf
ROOT
ATOM      1  C   UNL     1      31.462  11.798  29.351  1.00  0.00     0.008 C 
ENDROOT
BRANCH   1   2
ATOM      2  C   UNL     1      31.938  11.235  27.979  1.00  0.00    -0.007 C 
ATOM      3  C   UNL     1      32.364  12.340  26.999  1.00  0.00     0.008 C 
BRANCH   2   4
ATOM      4  C   UNL     1      30.991  10.191  27.302  1.00  0.00     0.018 C 
ATOM      5  C   UNL     1      30.631   6.556  29.723  1.00  0.00     0.044 C 
ATOM      6  C   UNL     1      30.696   7.718  28.778  1.00  0.00    -0.055 C 
ATOM      7  C   UNL     1      31.697   7.811  27.891  1.00  0.00    -0.023 C 
ATOM      8  C   UNL     1      29.629   8.740  28.797  1.00  0.00    -0.001 C 
ATOM      9  C   UNL     1      31.722   8.898  26.849  1.00  0.00     0.035 C 
ATOM     10  C   UNL     1      29.752   9.880  28.109  1.00  0.00    -0.023 C 
ENDBRANCH   2   4
ENDBRANCH   1   2
BRANCH   1  11
ATOM     11  C   UNL     1      32.357  11.485  30.570  1.00  0.00     0.027 C 
BRANCH  11  12
ATOM     12  C   UNL     1      32.070  10.128  31.172  1.00  0.00    -0.028 C 
ATOM     13  C   UNL     1      32.413   9.795  32.435  1.00  0.00    -0.080 C 
ATOM     14  C   UNL     1      33.122  10.770  33.345  1.00  0.00     0.039 C 
ATOM     15  C   UNL     1      32.078   8.414  32.935  1.00  0.00     0.039 C 
ENDBRANCH  11  12
ENDBRANCH   1  11
TORSDOF 4
ENDMDL
MODEL 8
REMARK VINA RESULT:    -4.437      1.630      5.236
REMARK INTER + INTRA:          -7.311
REMARK INTER:                  -5.329
REMARK INTRA:                  -1.981
REMARK UNBOUND:                -1.836
REMARK SMILES CC(C)=CCC[C@H](C)[C@@H]1C=CC(C)=CC1
REMARK SMILES IDX 6 1 7 2 8 3 9 4 13 5 12 6 14 7 11 8 15 9 10 10 5 11 4 12
REMARK SMILES IDX 2 13 1 14 3 15
REMARK H PARENT
REMARK Flexibility Score: inf
ROOT
ATOM      1  C   UNL     1      31.234   6.883  35.303  1.00  0.00     0.008 C 
ENDROOT
BRANCH   1   2
ATOM      2  C   UNL     1      30.303   7.073  34.069  1.00  0.00    -0.007 C 
ATOM      3  C   UNL     1      29.280   5.936  33.916  1.00  0.00     0.008 C 
BRANCH   2   4
ATOM      4  C   UNL     1      31.016   7.396  32.715  1.00  0.00     0.018 C 
ATOM      5  C   UNL     1      31.751  11.696  32.289  1.00  0.00     0.044 C 
ATOM      6  C   UNL     1      31.526  10.214  32.284  1.00  0.00    -0.055 C 
ATOM      7  C   UNL     1      30.352   9.712  31.872  1.00  0.00    -0.023 C 
ATOM      8  C   UNL     1      32.616   9.304  32.692  1.00  0.00    -0.001 C 
ATOM      9  C   UNL     1      30.140   8.227  31.739  1.00  0.00     0.035 C 
ATOM     10  C   UNL     1      32.392   8.000  32.882  1.00  0.00    -0.023 C 
ENDBRANCH   2   4
ENDBRANCH   1   2
BRANCH   1  11
ATOM     11  C   UNL     1      31.119   7.945  36.419  1.00  0.00     0.027 C 
BRANCH  11  12
ATOM     12  C   UNL     1      30.132   9.040  36.084  1.00  0.00    -0.028 C 
ATOM     13  C   UNL     1      30.501  10.318  35.854  1.00  0.00    -0.080 C 
ATOM     14  C   UNL     1      31.947  10.748  35.920  1.00  0.00     0.039 C 
ATOM     15  C   UNL     1      29.434  11.331  35.527  1.00  0.00     0.039 C 
ENDBRANCH  11  12
ENDBRANCH   1  11
TORSDOF 4
ENDMDL
MODEL 9
REMARK VINA RESULT:    -4.419      1.794      4.470
REMARK INTER + INTRA:          -7.288
REMARK INTER:                  -5.560
REMARK INTRA:                  -1.728
REMARK UNBOUND:                -1.836
REMARK SMILES CC(C)=CCC[C@H](C)[C@@H]1C=CC(C)=CC1
REMARK SMILES IDX 6 1 7 2 8 3 9 4 13 5 12 6 14 7 11 8 15 9 10 10 5 11 4 12
REMARK SMILES IDX 2 13 1 14 3 15
REMARK H PARENT
REMARK Flexibility Score: inf
ROOT
ATOM      1  C   UNL     1      30.922   7.170  33.973  1.00  0.00     0.008 C 
ENDROOT
BRANCH   1   2
ATOM      2  C   UNL     1      31.258   7.738  35.384  1.00  0.00    -0.007 C 
ATOM      3  C   UNL     1      31.621   6.640  36.396  1.00  0.00     0.008 C 
BRANCH   2   4
ATOM      4  C   UNL     1      30.227   8.755  35.976  1.00  0.00     0.018 C 
ATOM      5  C   UNL     1      28.770  11.520  32.904  1.00  0.00     0.044 C 
ATOM      6  C   UNL     1      29.213  10.673  34.059  1.00  0.00    -0.055 C 
ATOM      7  C   UNL     1      30.331  10.980  34.731  1.00  0.00    -0.023 C 
ATOM      8  C   UNL     1      28.389   9.522  34.483  1.00  0.00    -0.001 C 
ATOM      9  C   UNL     1      30.734  10.222  35.969  1.00  0.00     0.035 C 
ATOM     10  C   UNL     1      28.844   8.638  35.376  1.00  0.00    -0.023 C 
ENDBRANCH   2   4
ENDBRANCH   1   2
BRANCH   1  11
ATOM     11  C   UNL     1      31.976   7.404  32.869  1.00  0.00     0.027 C 
BRANCH  11  12
ATOM     12  C   UNL     1      32.652   8.751  32.984  1.00  0.00    -0.028 C 
ATOM     13  C   UNL     1      32.395   9.778  32.145  1.00  0.00    -0.080 C 
ATOM     14  C   UNL     1      31.402   9.646  31.015  1.00  0.00     0.039 C 
ATOM     15  C   UNL     1      33.125  11.080  32.350  1.00  0.00     0.039 C 
ENDBRANCH  11  12
ENDBRANCH   1  11
TORSDOF 4
ENDMDL
