MODEL 1
REMARK VINA RESULT:    -6.328      0.000      0.000
REMARK INTER + INTRA:         -10.266
REMARK INTER:                  -8.362
REMARK INTRA:                  -1.904
REMARK UNBOUND:                -1.904
REMARK SMILES CC[C@@H](C=C[C@H](C)[C@@H]1CC[C@H]2[C@H]3CC[C@H]4C[C@@H](O)CC[C@@]4(C)[C@@H]3CC[C@]21C)C(C)C
REMARK SMILES IDX 6 1 7 2 5 3 4 4 3 5 2 6 1 7 28 8 29 9 30 10 8 11 9 12 26 13
REMARK SMILES IDX 10 14 11 15 25 16 27 17 12 18 24 19 23 20 13 21 21 22 14 23
REMARK SMILES IDX 15 24 20 25 22 26 16 27 19 28 17 29 18 30
REMARK H PARENT 18 31
REMARK Flexibility Score: inf
ROOT
ATOM      1  C   UNL     1     148.217 140.274 137.494  1.00  0.00     0.012 C 
ATOM      2  C   UNL     1     147.633 141.045 136.288  1.00  0.00     0.012 C 
ENDROOT
BRANCH   1   3
ATOM      3  C   UNL     1     147.711 140.980 138.738  1.00  0.00    -0.028 C 
ATOM      4  C   UNL     1     148.509 141.244 139.786  1.00  0.00    -0.027 C 
BRANCH   4   5
ATOM      5  C   UNL     1     147.953 141.857 141.058  1.00  0.00     0.014 C 
BRANCH   5   6
ATOM      6  C   UNL     1     148.529 143.274 141.364  1.00  0.00     0.004 C 
ATOM      7  C   UNL     1     149.842 143.645 140.663  1.00  0.00     0.004 C 
ENDBRANCH   5   6
BRANCH   5   8
ATOM      8  C   UNL     1     148.024 140.837 142.238  1.00  0.00    -0.011 C 
ATOM      9  C   UNL     1     149.195 139.850 142.087  1.00  0.00     0.008 C 
ATOM     10  C   UNL     1     146.714 140.078 142.480  1.00  0.00     0.008 C 
ENDBRANCH   5   8
ENDBRANCH   4   5
ENDBRANCH   1   3
BRANCH   1  11
ATOM     11  C   UNL     1     147.800 138.755 137.519  1.00  0.00     0.002 C 
ATOM     12  C   UNL     1     146.381 138.563 138.103  1.00  0.00     0.005 C 
ATOM     13  C   UNL     1     148.711 137.737 138.316  1.00  0.00    -0.026 C 
ATOM     14  C   UNL     1     146.502 137.920 139.471  1.00  0.00     0.005 C 
ATOM     15  C   UNL     1     147.951 137.447 139.649  1.00  0.00    -0.001 C 
ATOM     16  C   UNL     1     148.923 136.426 137.472  1.00  0.00     0.007 C 
ATOM     17  C   UNL     1     150.125 138.267 138.666  1.00  0.00     0.012 C 
ATOM     18  C   UNL     1     148.082 135.965 140.101  1.00  0.00    -0.004 C 
ATOM     19  C   UNL     1     147.765 135.429 137.590  1.00  0.00     0.005 C 
ATOM     20  C   UNL     1     147.529 134.959 139.055  1.00  0.00    -0.001 C 
ATOM     21  C   UNL     1     147.462 135.698 141.500  1.00  0.00     0.004 C 
ATOM     22  C   UNL     1     147.982 133.472 139.393  1.00  0.00    -0.026 C 
ATOM     23  C   UNL     1     147.132 134.206 141.732  1.00  0.00     0.004 C 
ATOM     24  C   UNL     1     148.114 133.295 140.963  1.00  0.00    -0.002 C 
ATOM     25  C   UNL     1     146.903 132.505 138.809  1.00  0.00     0.010 C 
ATOM     26  C   UNL     1     149.367 133.146 138.766  1.00  0.00     0.012 C 
ATOM     27  C   UNL     1     148.069 131.825 141.452  1.00  0.00     0.036 C 
ATOM     28  C   UNL     1     147.035 131.061 139.293  1.00  0.00     0.032 C 
ATOM     29  C   UNL     1     146.956 130.985 140.820  1.00  0.00     0.114 C 
BRANCH  29  30
ATOM     30  O   UNL     1     145.704 131.418 141.284  1.00  0.00    -0.393 OA
ATOM     31  H   UNL     1     145.035 131.137 140.606  1.00  0.00     0.210 HD
ENDBRANCH  29  30
ENDBRANCH   1  11
TORSDOF 6
ENDMDL
MODEL 2
REMARK VINA RESULT:    -5.899      6.580      9.226
REMARK INTER + INTRA:          -9.700
REMARK INTER:                  -8.575
REMARK INTRA:                  -1.125
REMARK UNBOUND:                -1.904
REMARK SMILES CC[C@@H](C=C[C@H](C)[C@@H]1CC[C@H]2[C@H]3CC[C@H]4C[C@@H](O)CC[C@@]4(C)[C@@H]3CC[C@]21C)C(C)C
REMARK SMILES IDX 6 1 7 2 5 3 4 4 3 5 2 6 1 7 28 8 29 9 30 10 8 11 9 12 26 13
REMARK SMILES IDX 10 14 11 15 25 16 27 17 12 18 24 19 23 20 13 21 21 22 14 23
REMARK SMILES IDX 15 24 20 25 22 26 16 27 19 28 17 29 18 30
REMARK H PARENT 18 31
REMARK Flexibility Score: inf
ROOT
ATOM      1  C   UNL     1     140.318 136.254 142.969  1.00  0.00     0.012 C 
ATOM      2  C   UNL     1     140.054 135.539 144.314  1.00  0.00     0.012 C 
ENDROOT
BRANCH   1   3
ATOM      3  C   UNL     1     139.101 137.120 142.701  1.00  0.00    -0.028 C 
ATOM      4  C   UNL     1     138.061 137.176 143.549  1.00  0.00    -0.027 C 
BRANCH   4   5
ATOM      5  C   UNL     1     136.813 137.969 143.206  1.00  0.00     0.014 C 
BRANCH   5   6
ATOM      6  C   UNL     1     136.346 138.913 144.356  1.00  0.00     0.004 C 
ATOM      7  C   UNL     1     134.869 139.329 144.343  1.00  0.00     0.004 C 
ENDBRANCH   5   6
BRANCH   5   8
ATOM      8  C   UNL     1     135.710 137.033 142.620  1.00  0.00    -0.011 C 
ATOM      9  C   UNL     1     135.719 135.639 143.270  1.00  0.00     0.008 C 
ATOM     10  C   UNL     1     135.751 136.909 141.092  1.00  0.00     0.008 C 
ENDBRANCH   5   8
ENDBRANCH   4   5
ENDBRANCH   1   3
BRANCH   1  11
ATOM     11  C   UNL     1     141.624 137.136 142.982  1.00  0.00     0.002 C 
ATOM     12  C   UNL     1     141.404 138.492 142.271  1.00  0.00     0.005 C 
ATOM     13  C   UNL     1     142.939 136.542 142.332  1.00  0.00    -0.026 C 
ATOM     14  C   UNL     1     142.160 138.479 140.956  1.00  0.00     0.005 C 
ATOM     15  C   UNL     1     143.081 137.251 140.948  1.00  0.00    -0.001 C 
ATOM     16  C   UNL     1     144.176 136.830 143.260  1.00  0.00     0.007 C 
ATOM     17  C   UNL     1     142.913 135.011 142.097  1.00  0.00     0.012 C 
ATOM     18  C   UNL     1     144.560 137.569 140.589  1.00  0.00    -0.004 C 
ATOM     19  C   UNL     1     144.763 138.235 143.081  1.00  0.00     0.005 C 
ATOM     20  C   UNL     1     145.251 138.496 141.626  1.00  0.00    -0.001 C 
ATOM     21  C   UNL     1     144.728 138.133 139.150  1.00  0.00     0.004 C 
ATOM     22  C   UNL     1     146.827 138.521 141.412  1.00  0.00    -0.026 C 
ATOM     23  C   UNL     1     146.053 138.907 138.965  1.00  0.00     0.004 C 
ATOM     24  C   UNL     1     147.163 138.333 139.874  1.00  0.00    -0.002 C 
ATOM     25  C   UNL     1     147.352 139.896 141.936  1.00  0.00     0.010 C 
ATOM     26  C   UNL     1     147.522 137.369 142.189  1.00  0.00     0.012 C 
ATOM     27  C   UNL     1     148.578 138.811 139.460  1.00  0.00     0.036 C 
ATOM     28  C   UNL     1     148.799 140.199 141.543  1.00  0.00     0.032 C 
ATOM     29  C   UNL     1     148.969 140.181 140.022  1.00  0.00     0.114 C 
BRANCH  29  30
ATOM     30  O   UNL     1     148.201 141.187 139.414  1.00  0.00    -0.393 OA
ATOM     31  H   UNL     1     148.020 141.870 140.112  1.00  0.00     0.210 HD
ENDBRANCH  29  30
ENDBRANCH   1  11
TORSDOF 6
ENDMDL
MODEL 3
REMARK VINA RESULT:    -5.891      0.933      1.717
REMARK INTER + INTRA:          -9.689
REMARK INTER:                  -8.002
REMARK INTRA:                  -1.687
REMARK UNBOUND:                -1.904
REMARK SMILES CC[C@@H](C=C[C@H](C)[C@@H]1CC[C@H]2[C@H]3CC[C@H]4C[C@@H](O)CC[C@@]4(C)[C@@H]3CC[C@]21C)C(C)C
REMARK SMILES IDX 6 1 7 2 5 3 4 4 3 5 2 6 1 7 28 8 29 9 30 10 8 11 9 12 26 13
REMARK SMILES IDX 10 14 11 15 25 16 27 17 12 18 24 19 23 20 13 21 21 22 14 23
REMARK SMILES IDX 15 24 20 25 22 26 16 27 19 28 17 29 18 30
REMARK H PARENT 18 31
REMARK Flexibility Score: inf
ROOT
ATOM      1  C   UNL     1     148.515 139.669 137.273  1.00  0.00     0.012 C 
ATOM      2  C   UNL     1     147.870 140.560 136.187  1.00  0.00     0.012 C 
ENDROOT
BRANCH   1   3
ATOM      3  C   UNL     1     148.490 140.476 138.558  1.00  0.00    -0.028 C 
ATOM      4  C   UNL     1     149.560 140.574 139.363  1.00  0.00    -0.027 C 
BRANCH   4   5
ATOM      5  C   UNL     1     149.476 141.302 140.693  1.00  0.00     0.014 C 
BRANCH   5   6
ATOM      6  C   UNL     1     148.735 140.486 141.797  1.00  0.00     0.004 C 
ATOM      7  C   UNL     1     149.336 139.122 142.159  1.00  0.00     0.004 C 
ENDBRANCH   5   6
BRANCH   5   8
ATOM      8  C   UNL     1     148.970 142.764 140.489  1.00  0.00    -0.011 C 
ATOM      9  C   UNL     1     149.929 143.805 141.093  1.00  0.00     0.008 C 
ATOM     10  C   UNL     1     147.541 143.000 140.993  1.00  0.00     0.008 C 
ENDBRANCH   5   8
ENDBRANCH   4   5
ENDBRANCH   1   3
BRANCH   1  11
ATOM     11  C   UNL     1     147.766 138.297 137.475  1.00  0.00     0.002 C 
ATOM     12  C   UNL     1     146.549 138.444 138.417  1.00  0.00     0.005 C 
ATOM     13  C   UNL     1     148.584 137.071 138.051  1.00  0.00    -0.026 C 
ATOM     14  C   UNL     1     146.870 137.762 139.734  1.00  0.00     0.005 C 
ATOM     15  C   UNL     1     148.156 136.946 139.547  1.00  0.00    -0.001 C 
ATOM     16  C   UNL     1     148.243 135.766 137.240  1.00  0.00     0.007 C 
ATOM     17  C   UNL     1     150.124 137.233 137.994  1.00  0.00     0.012 C 
ATOM     18  C   UNL     1     148.042 135.468 140.015  1.00  0.00    -0.004 C 
ATOM     19  C   UNL     1     146.953 135.079 137.701  1.00  0.00     0.005 C 
ATOM     20  C   UNL     1     147.008 134.649 139.196  1.00  0.00    -0.001 C 
ATOM     21  C   UNL     1     147.769 135.331 141.538  1.00  0.00     0.004 C 
ATOM     22  C   UNL     1     147.162 133.090 139.470  1.00  0.00    -0.026 C 
ATOM     23  C   UNL     1     147.163 133.960 141.915  1.00  0.00     0.004 C 
ATOM     24  C   UNL     1     147.658 132.853 140.957  1.00  0.00    -0.002 C 
ATOM     25  C   UNL     1     145.767 132.428 139.232  1.00  0.00     0.010 C 
ATOM     26  C   UNL     1     148.211 132.450 138.517  1.00  0.00     0.012 C 
ATOM     27  C   UNL     1     147.392 131.428 141.505  1.00  0.00     0.036 C 
ATOM     28  C   UNL     1     145.672 130.985 139.728  1.00  0.00     0.032 C 
ATOM     29  C   UNL     1     145.984 130.898 141.225  1.00  0.00     0.114 C 
BRANCH  29  30
ATOM     30  O   UNL     1     145.041 131.614 141.981  1.00  0.00    -0.393 OA
ATOM     31  H   UNL     1     144.417 130.945 142.368  1.00  0.00     0.210 HD
ENDBRANCH  29  30
ENDBRANCH   1  11
TORSDOF 6
ENDMDL
MODEL 4
REMARK VINA RESULT:    -5.842      4.582      7.759
REMARK INTER + INTRA:          -9.624
REMARK INTER:                  -7.750
REMARK INTRA:                  -1.874
REMARK UNBOUND:                -1.904
REMARK SMILES CC[C@@H](C=C[C@H](C)[C@@H]1CC[C@H]2[C@H]3CC[C@H]4C[C@@H](O)CC[C@@]4(C)[C@@H]3CC[C@]21C)C(C)C
REMARK SMILES IDX 6 1 7 2 5 3 4 4 3 5 2 6 1 7 28 8 29 9 30 10 8 11 9 12 26 13
REMARK SMILES IDX 10 14 11 15 25 16 27 17 12 18 24 19 23 20 13 21 21 22 14 23
REMARK SMILES IDX 15 24 20 25 22 26 16 27 19 28 17 29 18 30
REMARK H PARENT 18 31
REMARK Flexibility Score: inf
ROOT
ATOM      1  C   UNL     1     143.130 135.787 144.269  1.00  0.00     0.012 C 
ATOM      2  C   UNL     1     142.989 135.833 145.808  1.00  0.00     0.012 C 
ENDROOT
BRANCH   1   3
ATOM      3  C   UNL     1     141.840 136.354 143.705  1.00  0.00    -0.028 C 
ATOM      4  C   UNL     1     141.265 135.858 142.597  1.00  0.00    -0.027 C 
BRANCH   4   5
ATOM      5  C   UNL     1     140.032 136.510 141.997  1.00  0.00     0.014 C 
BRANCH   5   6
ATOM      6  C   UNL     1     140.087 136.621 140.442  1.00  0.00     0.004 C 
ATOM      7  C   UNL     1     141.461 136.426 139.790  1.00  0.00     0.004 C 
ENDBRANCH   5   6
BRANCH   5   8
ATOM      8  C   UNL     1     139.687 137.833 142.750  1.00  0.00    -0.011 C 
ATOM      9  C   UNL     1     138.170 138.042 142.900  1.00  0.00     0.008 C 
ATOM     10  C   UNL     1     140.339 139.080 142.141  1.00  0.00     0.008 C 
ENDBRANCH   5   8
ENDBRANCH   4   5
ENDBRANCH   1   3
BRANCH   1  11
ATOM     11  C   UNL     1     144.366 136.606 143.735  1.00  0.00     0.002 C 
ATOM     12  C   UNL     1     144.013 138.097 143.521  1.00  0.00     0.005 C 
ATOM     13  C   UNL     1     145.044 136.148 142.381  1.00  0.00    -0.026 C 
ATOM     14  C   UNL     1     143.962 138.374 142.030  1.00  0.00     0.005 C 
ATOM     15  C   UNL     1     144.548 137.158 141.299  1.00  0.00    -0.001 C 
ATOM     16  C   UNL     1     146.611 136.177 142.526  1.00  0.00     0.007 C 
ATOM     17  C   UNL     1     144.672 134.717 141.920  1.00  0.00     0.012 C 
ATOM     18  C   UNL     1     145.652 137.513 140.263  1.00  0.00    -0.004 C 
ATOM     19  C   UNL     1     147.219 137.569 142.321  1.00  0.00     0.005 C 
ATOM     20  C   UNL     1     146.911 138.151 140.910  1.00  0.00    -0.001 C 
ATOM     21  C   UNL     1     145.128 138.395 139.095  1.00  0.00     0.004 C 
ATOM     22  C   UNL     1     148.128 138.185 139.887  1.00  0.00    -0.026 C 
ATOM     23  C   UNL     1     146.261 139.156 138.369  1.00  0.00     0.004 C 
ATOM     24  C   UNL     1     147.581 138.355 138.409  1.00  0.00    -0.002 C 
ATOM     25  C   UNL     1     149.047 139.384 140.286  1.00  0.00     0.010 C 
ATOM     26  C   UNL     1     148.946 136.864 139.936  1.00  0.00     0.012 C 
ATOM     27  C   UNL     1     148.626 138.880 137.391  1.00  0.00     0.036 C 
ATOM     28  C   UNL     1     150.104 139.733 139.237  1.00  0.00     0.032 C 
ATOM     29  C   UNL     1     149.451 140.068 137.892  1.00  0.00     0.114 C 
BRANCH  29  30
ATOM     30  O   UNL     1     148.639 141.209 137.995  1.00  0.00    -0.393 OA
ATOM     31  H   UNL     1     148.939 141.838 137.287  1.00  0.00     0.210 HD
ENDBRANCH  29  30
ENDBRANCH   1  11
TORSDOF 6
ENDMDL
MODEL 5
REMARK VINA RESULT:    -5.737      3.437      7.970
REMARK INTER + INTRA:          -9.485
REMARK INTER:                  -7.697
REMARK INTRA:                  -1.788
REMARK UNBOUND:                -1.904
REMARK SMILES CC[C@@H](C=C[C@H](C)[C@@H]1CC[C@H]2[C@H]3CC[C@H]4C[C@@H](O)CC[C@@]4(C)[C@@H]3CC[C@]21C)C(C)C
REMARK SMILES IDX 6 1 7 2 5 3 4 4 3 5 2 6 1 7 28 8 29 9 30 10 8 11 9 12 26 13
REMARK SMILES IDX 10 14 11 15 25 16 27 17 12 18 24 19 23 20 13 21 21 22 14 23
REMARK SMILES IDX 15 24 20 25 22 26 16 27 19 28 17 29 18 30
REMARK H PARENT 18 31
REMARK Flexibility Score: inf
ROOT
ATOM      1  C   UNL     1     145.902 133.882 138.430  1.00  0.00     0.012 C 
ATOM      2  C   UNL     1     145.802 132.531 139.175  1.00  0.00     0.012 C 
ENDROOT
BRANCH   1   3
ATOM      3  C   UNL     1     144.544 134.121 137.797  1.00  0.00    -0.028 C 
ATOM      4  C   UNL     1     144.407 134.493 136.514  1.00  0.00    -0.027 C 
BRANCH   4   5
ATOM      5  C   UNL     1     143.044 134.826 135.936  1.00  0.00     0.014 C 
BRANCH   5   6
ATOM      6  C   UNL     1     142.663 133.949 134.704  1.00  0.00     0.004 C 
ATOM      7  C   UNL     1     143.776 133.068 134.121  1.00  0.00     0.004 C 
ENDBRANCH   5   6
BRANCH   5   8
ATOM      8  C   UNL     1     142.895 136.367 135.731  1.00  0.00    -0.011 C 
ATOM      9  C   UNL     1     144.243 137.052 135.449  1.00  0.00     0.008 C 
ATOM     10  C   UNL     1     142.165 137.076 136.878  1.00  0.00     0.008 C 
ENDBRANCH   5   8
ENDBRANCH   4   5
ENDBRANCH   1   3
BRANCH   1  11
ATOM     11  C   UNL     1     146.285 135.084 139.374  1.00  0.00     0.002 C 
ATOM     12  C   UNL     1     145.055 135.957 139.714  1.00  0.00     0.005 C 
ATOM     13  C   UNL     1     147.389 136.104 138.883  1.00  0.00    -0.026 C 
ATOM     14  C   UNL     1     145.187 137.283 138.989  1.00  0.00     0.005 C 
ATOM     15  C   UNL     1     146.609 137.376 138.420  1.00  0.00    -0.001 C 
ATOM     16  C   UNL     1     148.384 136.430 140.057  1.00  0.00     0.007 C 
ATOM     17  C   UNL     1     148.255 135.606 137.699  1.00  0.00     0.012 C 
ATOM     18  C   UNL     1     147.350 138.695 138.779  1.00  0.00    -0.004 C 
ATOM     19  C   UNL     1     147.865 137.506 141.019  1.00  0.00     0.005 C 
ATOM     20  C   UNL     1     147.591 138.862 140.304  1.00  0.00    -0.001 C 
ATOM     21  C   UNL     1     146.663 139.958 138.190  1.00  0.00     0.004 C 
ATOM     22  C   UNL     1     148.630 140.029 140.597  1.00  0.00    -0.026 C 
ATOM     23  C   UNL     1     147.064 141.255 138.930  1.00  0.00     0.004 C 
ATOM     24  C   UNL     1     148.502 141.153 139.487  1.00  0.00    -0.002 C 
ATOM     25  C   UNL     1     148.309 140.602 142.015  1.00  0.00     0.010 C 
ATOM     26  C   UNL     1     150.094 139.505 140.567  1.00  0.00     0.012 C 
ATOM     27  C   UNL     1     149.080 142.532 139.895  1.00  0.00     0.036 C 
ATOM     28  C   UNL     1     149.027 141.915 142.331  1.00  0.00     0.032 C 
ATOM     29  C   UNL     1     148.679 142.992 141.299  1.00  0.00     0.114 C 
BRANCH  29  30
ATOM     30  O   UNL     1     147.309 143.300 141.331  1.00  0.00    -0.393 OA
ATOM     31  H   UNL     1     146.823 142.436 141.397  1.00  0.00     0.210 HD
ENDBRANCH  29  30
ENDBRANCH   1  11
TORSDOF 6
ENDMDL
MODEL 6
REMARK VINA RESULT:    -5.723      6.733      8.410
REMARK INTER + INTRA:          -9.467
REMARK INTER:                  -8.611
REMARK INTRA:                  -0.856
REMARK UNBOUND:                -1.904
REMARK SMILES CC[C@@H](C=C[C@H](C)[C@@H]1CC[C@H]2[C@H]3CC[C@H]4C[C@@H](O)CC[C@@]4(C)[C@@H]3CC[C@]21C)C(C)C
REMARK SMILES IDX 6 1 7 2 5 3 4 4 3 5 2 6 1 7 28 8 29 9 30 10 8 11 9 12 26 13
REMARK SMILES IDX 10 14 11 15 25 16 27 17 12 18 24 19 23 20 13 21 21 22 14 23
REMARK SMILES IDX 15 24 20 25 22 26 16 27 19 28 17 29 18 30
REMARK H PARENT 18 31
REMARK Flexibility Score: inf
ROOT
ATOM      1  C   UNL     1     144.732 137.664 140.855  1.00  0.00     0.012 C 
ATOM      2  C   UNL     1     144.818 138.011 139.351  1.00  0.00     0.012 C 
ENDROOT
BRANCH   1   3
ATOM      3  C   UNL     1     145.899 138.370 141.523  1.00  0.00    -0.028 C 
ATOM      4  C   UNL     1     146.804 139.074 140.824  1.00  0.00    -0.027 C 
BRANCH   4   5
ATOM      5  C   UNL     1     148.017 139.683 141.505  1.00  0.00     0.014 C 
BRANCH   5   6
ATOM      6  C   UNL     1     147.723 141.061 142.173  1.00  0.00     0.004 C 
ATOM      7  C   UNL     1     148.826 142.121 142.068  1.00  0.00     0.004 C 
ENDBRANCH   5   6
BRANCH   5   8
ATOM      8  C   UNL     1     149.255 139.650 140.555  1.00  0.00    -0.011 C 
ATOM      9  C   UNL     1     148.865 139.848 139.079  1.00  0.00     0.008 C 
ATOM     10  C   UNL     1     150.124 138.398 140.713  1.00  0.00     0.008 C 
ENDBRANCH   5   8
ENDBRANCH   4   5
ENDBRANCH   1   3
BRANCH   1  11
ATOM     11  C   UNL     1     143.373 138.107 141.518  1.00  0.00     0.002 C 
ATOM     12  C   UNL     1     143.525 138.322 143.042  1.00  0.00     0.005 C 
ATOM     13  C   UNL     1     142.116 137.160 141.362  1.00  0.00    -0.026 C 
ATOM     14  C   UNL     1     142.805 137.200 143.765  1.00  0.00     0.005 C 
ATOM     15  C   UNL     1     141.965 136.432 142.735  1.00  0.00    -0.001 C 
ATOM     16  C   UNL     1     140.839 138.011 141.013  1.00  0.00     0.007 C 
ATOM     17  C   UNL     1     142.244 136.087 140.252  1.00  0.00     0.012 C 
ATOM     18  C   UNL     1     140.479 136.238 143.148  1.00  0.00    -0.004 C 
ATOM     19  C   UNL     1     140.170 138.641 142.241  1.00  0.00     0.005 C 
ATOM     20  C   UNL     1     139.703 137.577 143.277  1.00  0.00    -0.001 C 
ATOM     21  C   UNL     1     140.311 135.380 144.433  1.00  0.00     0.004 C 
ATOM     22  C   UNL     1     138.135 137.327 143.364  1.00  0.00    -0.026 C 
ATOM     23  C   UNL     1     138.945 135.600 145.122  1.00  0.00     0.004 C 
ATOM     24  C   UNL     1     137.851 135.946 144.088  1.00  0.00    -0.002 C 
ATOM     25  C   UNL     1     137.511 138.516 144.161  1.00  0.00     0.010 C 
ATOM     26  C   UNL     1     137.494 137.256 141.949  1.00  0.00     0.012 C 
ATOM     27  C   UNL     1     136.420 135.802 144.665  1.00  0.00     0.036 C 
ATOM     28  C   UNL     1     136.058 138.288 144.582  1.00  0.00     0.032 C 
ATOM     29  C   UNL     1     135.929 137.027 145.441  1.00  0.00     0.114 C 
BRANCH  29  30
ATOM     30  O   UNL     1     136.647 137.156 146.641  1.00  0.00    -0.393 OA
ATOM     31  H   UNL     1     136.314 137.979 147.087  1.00  0.00     0.210 HD
ENDBRANCH  29  30
ENDBRANCH   1  11
TORSDOF 6
ENDMDL
MODEL 7
REMARK VINA RESULT:    -5.716      5.875      7.501
REMARK INTER + INTRA:          -9.457
REMARK INTER:                  -8.430
REMARK INTRA:                  -1.027
REMARK UNBOUND:                -1.904
REMARK SMILES CC[C@@H](C=C[C@H](C)[C@@H]1CC[C@H]2[C@H]3CC[C@H]4C[C@@H](O)CC[C@@]4(C)[C@@H]3CC[C@]21C)C(C)C
REMARK SMILES IDX 6 1 7 2 5 3 4 4 3 5 2 6 1 7 28 8 29 9 30 10 8 11 9 12 26 13
REMARK SMILES IDX 10 14 11 15 25 16 27 17 12 18 24 19 23 20 13 21 21 22 14 23
REMARK SMILES IDX 15 24 20 25 22 26 16 27 19 28 17 29 18 30
REMARK H PARENT 18 31
REMARK Flexibility Score: inf
ROOT
ATOM      1  C   UNL     1     146.322 137.387 142.103  1.00  0.00     0.012 C 
ATOM      2  C   UNL     1     147.467 136.543 141.498  1.00  0.00     0.012 C 
ENDROOT
BRANCH   1   3
ATOM      3  C   UNL     1     146.410 138.755 141.452  1.00  0.00    -0.028 C 
ATOM      4  C   UNL     1     147.559 139.235 140.947  1.00  0.00    -0.027 C 
BRANCH   4   5
ATOM      5  C   UNL     1     147.643 140.647 140.396  1.00  0.00     0.014 C 
BRANCH   5   6
ATOM      6  C   UNL     1     148.562 140.766 139.141  1.00  0.00     0.004 C 
ATOM      7  C   UNL     1     149.900 140.020 139.200  1.00  0.00     0.004 C 
ENDBRANCH   5   6
BRANCH   5   8
ATOM      8  C   UNL     1     147.936 141.668 141.540  1.00  0.00    -0.011 C 
ATOM      9  C   UNL     1     148.340 143.051 141.000  1.00  0.00     0.008 C 
ATOM     10  C   UNL     1     148.966 141.173 142.562  1.00  0.00     0.008 C 
ENDBRANCH   5   8
ENDBRANCH   4   5
ENDBRANCH   1   3
BRANCH   1  11
ATOM     11  C   UNL     1     144.896 136.760 141.865  1.00  0.00     0.002 C 
ATOM     12  C   UNL     1     144.244 137.300 140.571  1.00  0.00     0.005 C 
ATOM     13  C   UNL     1     143.796 136.946 142.986  1.00  0.00    -0.026 C 
ATOM     14  C   UNL     1     143.101 138.222 140.952  1.00  0.00     0.005 C 
ATOM     15  C   UNL     1     142.838 138.059 142.455  1.00  0.00    -0.001 C 
ATOM     16  C   UNL     1     143.033 135.590 143.223  1.00  0.00     0.007 C 
ATOM     17  C   UNL     1     144.342 137.388 144.366  1.00  0.00     0.012 C 
ATOM     18  C   UNL     1     141.350 137.787 142.812  1.00  0.00    -0.004 C 
ATOM     19  C   UNL     1     141.910 135.334 142.211  1.00  0.00     0.005 C 
ATOM     20  C   UNL     1     140.821 136.446 142.235  1.00  0.00    -0.001 C 
ATOM     21  C   UNL     1     140.407 138.961 142.426  1.00  0.00     0.004 C 
ATOM     22  C   UNL     1     139.429 136.047 142.893  1.00  0.00    -0.026 C 
ATOM     23  C   UNL     1     138.930 138.523 142.299  1.00  0.00     0.004 C 
ATOM     24  C   UNL     1     138.614 137.356 143.261  1.00  0.00    -0.002 C 
ATOM     25  C   UNL     1     138.650 135.174 141.858  1.00  0.00     0.010 C 
ATOM     26  C   UNL     1     139.635 135.238 144.205  1.00  0.00     0.012 C 
ATOM     27  C   UNL     1     137.091 137.136 143.448  1.00  0.00     0.036 C 
ATOM     28  C   UNL     1     137.181 134.947 142.216  1.00  0.00     0.032 C 
ATOM     29  C   UNL     1     136.440 136.280 142.359  1.00  0.00     0.114 C 
BRANCH  29  30
ATOM     30  O   UNL     1     136.421 136.982 141.143  1.00  0.00    -0.393 OA
ATOM     31  H   UNL     1     136.267 136.310 140.427  1.00  0.00     0.210 HD
ENDBRANCH  29  30
ENDBRANCH   1  11
TORSDOF 6
ENDMDL
MODEL 8
REMARK VINA RESULT:    -5.552      4.570      8.448
REMARK INTER + INTRA:          -9.241
REMARK INTER:                  -8.035
REMARK INTRA:                  -1.206
REMARK UNBOUND:                -1.904
REMARK SMILES CC[C@@H](C=C[C@H](C)[C@@H]1CC[C@H]2[C@H]3CC[C@H]4C[C@@H](O)CC[C@@]4(C)[C@@H]3CC[C@]21C)C(C)C
REMARK SMILES IDX 6 1 7 2 5 3 4 4 3 5 2 6 1 7 28 8 29 9 30 10 8 11 9 12 26 13
REMARK SMILES IDX 10 14 11 15 25 16 27 17 12 18 24 19 23 20 13 21 21 22 14 23
REMARK SMILES IDX 15 24 20 25 22 26 16 27 19 28 17 29 18 30
REMARK H PARENT 18 31
REMARK Flexibility Score: inf
ROOT
ATOM      1  C   UNL     1     144.245 135.502 136.841  1.00  0.00     0.012 C 
ATOM      2  C   UNL     1     144.254 133.994 137.183  1.00  0.00     0.012 C 
ENDROOT
BRANCH   1   3
ATOM      3  C   UNL     1     142.811 135.851 136.487  1.00  0.00    -0.028 C 
ATOM      4  C   UNL     1     141.799 134.987 136.667  1.00  0.00    -0.027 C 
BRANCH   4   5
ATOM      5  C   UNL     1     140.392 135.324 136.208  1.00  0.00     0.014 C 
BRANCH   5   6
ATOM      6  C   UNL     1     139.731 136.470 137.033  1.00  0.00     0.004 C 
ATOM      7  C   UNL     1     139.743 136.310 138.559  1.00  0.00     0.004 C 
ENDBRANCH   5   6
BRANCH   5   8
ATOM      8  C   UNL     1     139.536 134.027 136.061  1.00  0.00    -0.011 C 
ATOM      9  C   UNL     1     140.404 132.773 135.852  1.00  0.00     0.008 C 
ATOM     10  C   UNL     1     138.458 134.116 134.973  1.00  0.00     0.008 C 
ENDBRANCH   5   8
ENDBRANCH   4   5
ENDBRANCH   1   3
BRANCH   1  11
ATOM     11  C   UNL     1     144.752 136.409 138.026  1.00  0.00     0.002 C 
ATOM     12  C   UNL     1     143.853 137.652 138.218  1.00  0.00     0.005 C 
ATOM     13  C   UNL     1     146.227 136.977 137.961  1.00  0.00    -0.026 C 
ATOM     14  C   UNL     1     144.618 138.879 137.762  1.00  0.00     0.005 C 
ATOM     15  C   UNL     1     146.082 138.475 137.545  1.00  0.00    -0.001 C 
ATOM     16  C   UNL     1     146.924 136.829 139.364  1.00  0.00     0.007 C 
ATOM     17  C   UNL     1     147.150 136.272 136.936  1.00  0.00     0.012 C 
ATOM     18  C   UNL     1     147.107 139.396 138.265  1.00  0.00    -0.004 C 
ATOM     19  C   UNL     1     146.571 137.953 140.345  1.00  0.00     0.005 C 
ATOM     20  C   UNL     1     146.977 139.359 139.812  1.00  0.00    -0.001 C 
ATOM     21  C   UNL     1     147.077 140.861 137.747  1.00  0.00     0.004 C 
ATOM     22  C   UNL     1     148.236 140.033 140.511  1.00  0.00    -0.026 C 
ATOM     23  C   UNL     1     147.687 141.862 138.755  1.00  0.00     0.004 C 
ATOM     24  C   UNL     1     148.800 141.196 139.594  1.00  0.00    -0.002 C 
ATOM     25  C   UNL     1     147.768 140.588 141.894  1.00  0.00     0.010 C 
ATOM     26  C   UNL     1     149.384 139.006 140.724  1.00  0.00     0.012 C 
ATOM     27  C   UNL     1     149.685 142.230 140.335  1.00  0.00     0.036 C 
ATOM     28  C   UNL     1     148.781 141.515 142.567  1.00  0.00     0.032 C 
ATOM     29  C   UNL     1     149.109 142.711 141.669  1.00  0.00     0.114 C 
BRANCH  29  30
ATOM     30  O   UNL     1     147.972 143.504 141.445  1.00  0.00    -0.393 OA
ATOM     31  H   UNL     1     147.859 144.076 142.249  1.00  0.00     0.210 HD
ENDBRANCH  29  30
ENDBRANCH   1  11
TORSDOF 6
ENDMDL
MODEL 9
REMARK VINA RESULT:    -5.518      5.109      8.530
REMARK INTER + INTRA:          -9.196
REMARK INTER:                  -8.248
REMARK INTRA:                  -0.948
REMARK UNBOUND:                -1.904
REMARK SMILES CC[C@@H](C=C[C@H](C)[C@@H]1CC[C@H]2[C@H]3CC[C@H]4C[C@@H](O)CC[C@@]4(C)[C@@H]3CC[C@]21C)C(C)C
REMARK SMILES IDX 6 1 7 2 5 3 4 4 3 5 2 6 1 7 28 8 29 9 30 10 8 11 9 12 26 13
REMARK SMILES IDX 10 14 11 15 25 16 27 17 12 18 24 19 23 20 13 21 21 22 14 23
REMARK SMILES IDX 15 24 20 25 22 26 16 27 19 28 17 29 18 30
REMARK H PARENT 18 31
REMARK Flexibility Score: inf
ROOT
ATOM      1  C   UNL     1     142.719 135.388 141.649  1.00  0.00     0.012 C 
ATOM      2  C   UNL     1     142.651 134.462 142.885  1.00  0.00     0.012 C 
ENDROOT
BRANCH   1   3
ATOM      3  C   UNL     1     141.286 135.760 141.315  1.00  0.00    -0.028 C 
ATOM      4  C   UNL     1     140.391 136.083 142.263  1.00  0.00    -0.027 C 
BRANCH   4   5
ATOM      5  C   UNL     1     138.939 136.349 141.911  1.00  0.00     0.014 C 
BRANCH   5   6
ATOM      6  C   UNL     1     138.571 135.935 140.453  1.00  0.00     0.004 C 
ATOM      7  C   UNL     1     137.111 135.535 140.202  1.00  0.00     0.004 C 
ENDBRANCH   5   6
BRANCH   5   8
ATOM      8  C   UNL     1     138.531 137.801 142.316  1.00  0.00    -0.011 C 
ATOM      9  C   UNL     1     139.742 138.747 142.397  1.00  0.00     0.008 C 
ATOM     10  C   UNL     1     137.708 137.875 143.608  1.00  0.00     0.008 C 
ENDBRANCH   5   8
ENDBRANCH   4   5
ENDBRANCH   1   3
BRANCH   1  11
ATOM     11  C   UNL     1     143.578 136.686 141.892  1.00  0.00     0.002 C 
ATOM     12  C   UNL     1     142.991 137.907 141.147  1.00  0.00     0.005 C 
ATOM     13  C   UNL     1     145.109 136.661 141.494  1.00  0.00    -0.026 C 
ATOM     14  C   UNL     1     143.908 138.257 139.990  1.00  0.00     0.005 C 
ATOM     15  C   UNL     1     145.208 137.457 140.155  1.00  0.00    -0.001 C 
ATOM     16  C   UNL     1     145.972 137.326 142.629  1.00  0.00     0.007 C 
ATOM     17  C   UNL     1     145.698 135.247 141.266  1.00  0.00     0.012 C 
ATOM     18  C   UNL     1     146.498 138.321 140.068  1.00  0.00    -0.004 C 
ATOM     19  C   UNL     1     146.012 138.857 142.552  1.00  0.00     0.005 C 
ATOM     20  C   UNL     1     146.606 139.370 141.207  1.00  0.00    -0.001 C 
ATOM     21  C   UNL     1     146.685 138.996 138.680  1.00  0.00     0.004 C 
ATOM     22  C   UNL     1     148.070 139.988 141.282  1.00  0.00    -0.026 C 
ATOM     23  C   UNL     1     147.635 140.214 138.734  1.00  0.00     0.004 C 
ATOM     24  C   UNL     1     148.707 140.034 139.831  1.00  0.00    -0.002 C 
ATOM     25  C   UNL     1     147.946 141.424 141.885  1.00  0.00     0.010 C 
ATOM     26  C   UNL     1     149.004 139.126 142.178  1.00  0.00     0.012 C 
ATOM     27  C   UNL     1     149.889 141.025 139.677  1.00  0.00     0.036 C 
ATOM     28  C   UNL     1     149.218 142.263 141.759  1.00  0.00     0.032 C 
ATOM     29  C   UNL     1     149.638 142.404 140.293  1.00  0.00     0.114 C 
BRANCH  29  30
ATOM     30  O   UNL     1     148.664 143.092 139.551  1.00  0.00    -0.393 OA
ATOM     31  H   UNL     1     148.017 142.412 139.228  1.00  0.00     0.210 HD
ENDBRANCH  29  30
ENDBRANCH   1  11
TORSDOF 6
ENDMDL
