MODEL 1
REMARK VINA RESULT:    -2.602      0.000      0.000
REMARK INTER + INTRA:          -5.772
REMARK INTER:                  -4.579
REMARK INTRA:                  -1.193
REMARK UNBOUND:                -1.193
REMARK SMILES CCCCCCCCCCCCCCC(=O)[O-]
REMARK SMILES IDX 9 1 10 2 11 3 12 4 13 5 14 6 15 7 16 8 17 9 8 10 7 11 6 12
REMARK SMILES IDX 5 13 4 14 3 15 2 16 1 17
REMARK H PARENT
REMARK Flexibility Score: inf
ROOT
ATOM      1  C   UNL     1     -32.034 -20.202 -21.122  1.00  0.00     0.000 C 
ENDROOT
BRANCH   1   2
ATOM      2  C   UNL     1     -31.724 -21.675 -21.439  1.00  0.00     0.000 C 
BRANCH   2   3
ATOM      3  C   UNL     1     -30.453 -22.233 -20.769  1.00  0.00     0.000 C 
BRANCH   3   4
ATOM      4  C   UNL     1     -29.566 -21.150 -20.119  1.00  0.00     0.000 C 
BRANCH   4   5
ATOM      5  C   UNL     1     -28.358 -21.752 -19.379  1.00  0.00     0.006 C 
BRANCH   5   6
ATOM      6  C   UNL     1     -28.718 -23.042 -18.630  1.00  0.00     0.053 C 
BRANCH   6   7
ATOM      7  C   UNL     1     -28.379 -22.953 -17.173  1.00  0.00     0.041 C 
ATOM      8  O   UNL     1     -27.180 -23.023 -16.796  1.00  0.00    -0.550 OA
ATOM      9  O   UNL     1     -29.392 -22.828 -16.229  1.00  0.00    -0.550 OA
ENDBRANCH   6   7
ENDBRANCH   5   6
ENDBRANCH   4   5
ENDBRANCH   3   4
ENDBRANCH   2   3
ENDBRANCH   1   2
BRANCH   1  10
ATOM     10  C   UNL     1     -32.594 -19.437 -22.333  1.00  0.00     0.000 C 
BRANCH  10  11
ATOM     11  C   UNL     1     -32.512 -20.252 -23.634  1.00  0.00    -0.000 C 
BRANCH  11  12
ATOM     12  C   UNL     1     -31.757 -19.517 -24.751  1.00  0.00    -0.000 C 
BRANCH  12  13
ATOM     13  C   UNL     1     -31.291 -20.499 -25.836  1.00  0.00    -0.000 C 
BRANCH  13  14
ATOM     14  C   UNL     1     -29.859 -21.007 -25.605  1.00  0.00    -0.000 C 
BRANCH  14  15
ATOM     15  C   UNL     1     -29.665 -21.613 -24.204  1.00  0.00    -0.000 C 
BRANCH  15  16
ATOM     16  C   UNL     1     -28.317 -21.224 -23.576  1.00  0.00    -0.003 C 
ATOM     17  C   UNL     1     -27.589 -22.415 -22.952  1.00  0.00     0.004 C 
ENDBRANCH  15  16
ENDBRANCH  14  15
ENDBRANCH  13  14
ENDBRANCH  12  13
ENDBRANCH  11  12
ENDBRANCH  10  11
ENDBRANCH   1  10
TORSDOF 13
ENDMDL
MODEL 2
REMARK VINA RESULT:    -2.203      2.982      6.476
REMARK INTER + INTRA:          -5.070
REMARK INTER:                  -4.537
REMARK INTRA:                  -0.532
REMARK UNBOUND:                -1.193
REMARK SMILES CCCCCCCCCCCCCCC(=O)[O-]
REMARK SMILES IDX 9 1 10 2 11 3 12 4 13 5 14 6 15 7 16 8 17 9 8 10 7 11 6 12
REMARK SMILES IDX 5 13 4 14 3 15 2 16 1 17
REMARK H PARENT
REMARK Flexibility Score: inf
ROOT
ATOM      1  C   UNL     1     -28.459 -21.490 -23.088  1.00  0.00     0.000 C 
ENDROOT
BRANCH   1   2
ATOM      2  C   UNL     1     -29.382 -21.781 -24.283  1.00  0.00     0.000 C 
BRANCH   2   3
ATOM      3  C   UNL     1     -29.673 -20.570 -25.192  1.00  0.00     0.000 C 
BRANCH   3   4
ATOM      4  C   UNL     1     -31.074 -19.957 -24.983  1.00  0.00     0.000 C 
BRANCH   4   5
ATOM      5  C   UNL     1     -32.041 -20.936 -24.294  1.00  0.00     0.006 C 
BRANCH   5   6
ATOM      6  C   UNL     1     -31.991 -20.824 -22.764  1.00  0.00     0.053 C 
BRANCH   6   7
ATOM      7  C   UNL     1     -32.794 -19.664 -22.264  1.00  0.00     0.041 C 
ATOM      8  O   UNL     1     -32.555 -19.168 -21.132  1.00  0.00    -0.550 OA
ATOM      9  O   UNL     1     -33.832 -19.151 -23.034  1.00  0.00    -0.550 OA
ENDBRANCH   6   7
ENDBRANCH   5   6
ENDBRANCH   4   5
ENDBRANCH   3   4
ENDBRANCH   2   3
ENDBRANCH   1   2
BRANCH   1  10
ATOM     10  C   UNL     1     -28.400 -22.653 -22.083  1.00  0.00     0.000 C 
BRANCH  10  11
ATOM     11  C   UNL     1     -29.796 -23.124 -21.645  1.00  0.00    -0.000 C 
BRANCH  11  12
ATOM     12  C   UNL     1     -30.069 -22.874 -20.155  1.00  0.00    -0.000 C 
BRANCH  12  13
ATOM     13  C   UNL     1     -28.856 -22.218 -19.478  1.00  0.00    -0.000 C 
BRANCH  13  14
ATOM     14  C   UNL     1     -28.202 -23.122 -18.421  1.00  0.00    -0.000 C 
BRANCH  14  15
ATOM     15  C   UNL     1     -27.204 -22.364 -17.530  1.00  0.00    -0.000 C 
BRANCH  15  16
ATOM     16  C   UNL     1     -27.034 -23.018 -16.148  1.00  0.00    -0.003 C 
ATOM     17  C   UNL     1     -25.678 -22.713 -15.512  1.00  0.00     0.004 C 
ENDBRANCH  15  16
ENDBRANCH  14  15
ENDBRANCH  13  14
ENDBRANCH  12  13
ENDBRANCH  11  12
ENDBRANCH  10  11
ENDBRANCH   1  10
TORSDOF 13
ENDMDL
MODEL 3
REMARK VINA RESULT:    -1.943      3.837      6.718
REMARK INTER + INTRA:          -4.614
REMARK INTER:                  -5.355
REMARK INTRA:                   0.742
REMARK UNBOUND:                -1.193
REMARK SMILES CCCCCCCCCCCCCCC(=O)[O-]
REMARK SMILES IDX 9 1 10 2 11 3 12 4 13 5 14 6 15 7 16 8 17 9 8 10 7 11 6 12
REMARK SMILES IDX 5 13 4 14 3 15 2 16 1 17
REMARK H PARENT
REMARK Flexibility Score: inf
ROOT
ATOM      1  C   UNL     1     -31.779 -21.033 -21.473  1.00  0.00     0.000 C 
ENDROOT
BRANCH   1   2
ATOM      2  C   UNL     1     -32.770 -20.221 -22.323  1.00  0.00     0.000 C 
BRANCH   2   3
ATOM      3  C   UNL     1     -32.149 -19.497 -23.535  1.00  0.00     0.000 C 
BRANCH   3   4
ATOM      4  C   UNL     1     -31.471 -20.446 -24.546  1.00  0.00     0.000 C 
BRANCH   4   5
ATOM      5  C   UNL     1     -30.939 -19.697 -25.781  1.00  0.00     0.006 C 
BRANCH   5   6
ATOM      6  C   UNL     1     -31.188 -20.471 -27.083  1.00  0.00     0.053 C 
BRANCH   6   7
ATOM      7  C   UNL     1     -31.123 -21.952 -26.871  1.00  0.00     0.041 C 
ATOM      8  O   UNL     1     -30.064 -22.583 -27.125  1.00  0.00    -0.550 OA
ATOM      9  O   UNL     1     -32.245 -22.642 -26.427  1.00  0.00    -0.550 OA
ENDBRANCH   6   7
ENDBRANCH   5   6
ENDBRANCH   4   5
ENDBRANCH   3   4
ENDBRANCH   2   3
ENDBRANCH   1   2
BRANCH   1  10
ATOM     10  C   UNL     1     -30.964 -22.038 -22.305  1.00  0.00     0.000 C 
BRANCH  10  11
ATOM     11  C   UNL     1     -29.476 -21.664 -22.388  1.00  0.00    -0.000 C 
BRANCH  11  12
ATOM     12  C   UNL     1     -28.549 -22.887 -22.313  1.00  0.00    -0.000 C 
BRANCH  12  13
ATOM     13  C   UNL     1     -27.886 -22.989 -20.931  1.00  0.00    -0.000 C 
BRANCH  13  14
ATOM     14  C   UNL     1     -28.842 -22.625 -19.784  1.00  0.00    -0.000 C 
BRANCH  14  15
ATOM     15  C   UNL     1     -28.098 -22.230 -18.497  1.00  0.00    -0.000 C 
BRANCH  15  16
ATOM     16  C   UNL     1     -28.768 -22.793 -17.233  1.00  0.00    -0.003 C 
ATOM     17  C   UNL     1     -27.765 -23.124 -16.128  1.00  0.00     0.004 C 
ENDBRANCH  15  16
ENDBRANCH  14  15
ENDBRANCH  13  14
ENDBRANCH  12  13
ENDBRANCH  11  12
ENDBRANCH  10  11
ENDBRANCH   1  10
TORSDOF 13
ENDMDL
MODEL 4
REMARK VINA RESULT:    -1.675      0.784      3.175
REMARK INTER + INTRA:          -4.141
REMARK INTER:                  -2.579
REMARK INTRA:                  -1.561
REMARK UNBOUND:                -1.193
REMARK SMILES CCCCCCCCCCCCCCC(=O)[O-]
REMARK SMILES IDX 9 1 10 2 11 3 12 4 13 5 14 6 15 7 16 8 17 9 8 10 7 11 6 12
REMARK SMILES IDX 5 13 4 14 3 15 2 16 1 17
REMARK H PARENT
REMARK Flexibility Score: inf
ROOT
ATOM      1  C   UNL     1     -28.253 -21.246 -23.935  1.00  0.00     0.000 C 
ENDROOT
BRANCH   1   2
ATOM      2  C   UNL     1     -27.636 -21.888 -22.681  1.00  0.00     0.000 C 
BRANCH   2   3
ATOM      3  C   UNL     1     -28.506 -22.967 -22.005  1.00  0.00     0.000 C 
BRANCH   3   4
ATOM      4  C   UNL     1     -28.247 -23.116 -20.491  1.00  0.00     0.000 C 
BRANCH   4   5
ATOM      5  C   UNL     1     -28.250 -21.761 -19.762  1.00  0.00     0.006 C 
BRANCH   5   6
ATOM      6  C   UNL     1     -29.058 -21.803 -18.458  1.00  0.00     0.053 C 
BRANCH   6   7
ATOM      7  C   UNL     1     -28.330 -22.539 -17.376  1.00  0.00     0.041 C 
ATOM      8  O   UNL     1     -28.972 -23.125 -16.465  1.00  0.00    -0.550 OA
ATOM      9  O   UNL     1     -26.940 -22.548 -17.353  1.00  0.00    -0.550 OA
ENDBRANCH   6   7
ENDBRANCH   5   6
ENDBRANCH   4   5
ENDBRANCH   3   4
ENDBRANCH   2   3
ENDBRANCH   1   2
BRANCH   1  10
ATOM     10  C   UNL     1     -29.731 -21.624 -24.131  1.00  0.00     0.000 C 
BRANCH  10  11
ATOM     11  C   UNL     1     -30.289 -21.139 -25.478  1.00  0.00    -0.000 C 
BRANCH  11  12
ATOM     12  C   UNL     1     -31.691 -20.522 -25.355  1.00  0.00    -0.000 C 
BRANCH  12  13
ATOM     13  C   UNL     1     -31.772 -19.584 -24.142  1.00  0.00    -0.000 C 
BRANCH  13  14
ATOM     14  C   UNL     1     -33.042 -19.802 -23.304  1.00  0.00    -0.000 C 
BRANCH  14  15
ATOM     15  C   UNL     1     -32.814 -19.541 -21.806  1.00  0.00    -0.000 C 
BRANCH  15  16
ATOM     16  C   UNL     1     -31.609 -20.316 -21.249  1.00  0.00    -0.003 C 
ATOM     17  C   UNL     1     -31.804 -21.831 -21.302  1.00  0.00     0.004 C 
ENDBRANCH  15  16
ENDBRANCH  14  15
ENDBRANCH  13  14
ENDBRANCH  12  13
ENDBRANCH  11  12
ENDBRANCH  10  11
ENDBRANCH   1  10
TORSDOF 13
ENDMDL
MODEL 5
REMARK VINA RESULT:    -1.550      3.732      6.441
REMARK INTER + INTRA:          -3.921
REMARK INTER:                  -3.179
REMARK INTRA:                  -0.742
REMARK UNBOUND:                -1.193
REMARK SMILES CCCCCCCCCCCCCCC(=O)[O-]
REMARK SMILES IDX 9 1 10 2 11 3 12 4 13 5 14 6 15 7 16 8 17 9 8 10 7 11 6 12
REMARK SMILES IDX 5 13 4 14 3 15 2 16 1 17
REMARK H PARENT
REMARK Flexibility Score: inf
ROOT
ATOM      1  C   UNL     1     -27.588 -22.993 -20.147  1.00  0.00     0.000 C 
ENDROOT
BRANCH   1   2
ATOM      2  C   UNL     1     -28.271 -23.125 -21.519  1.00  0.00     0.000 C 
BRANCH   2   3
ATOM      3  C   UNL     1     -27.444 -22.603 -22.711  1.00  0.00     0.000 C 
BRANCH   3   4
ATOM      4  C   UNL     1     -28.049 -21.357 -23.390  1.00  0.00     0.000 C 
BRANCH   4   5
ATOM      5  C   UNL     1     -29.412 -21.652 -24.042  1.00  0.00     0.006 C 
BRANCH   5   6
ATOM      6  C   UNL     1     -29.922 -20.475 -24.884  1.00  0.00     0.053 C 
BRANCH   6   7
ATOM      7  C   UNL     1     -30.861 -20.926 -25.961  1.00  0.00     0.041 C 
ATOM      8  O   UNL     1     -30.928 -20.295 -27.048  1.00  0.00    -0.550 OA
ATOM      9  O   UNL     1     -31.688 -22.023 -25.749  1.00  0.00    -0.550 OA
ENDBRANCH   6   7
ENDBRANCH   5   6
ENDBRANCH   4   5
ENDBRANCH   3   4
ENDBRANCH   2   3
ENDBRANCH   1   2
BRANCH   1  10
ATOM     10  C   UNL     1     -28.577 -23.121 -18.975  1.00  0.00     0.000 C 
BRANCH  10  11
ATOM     11  C   UNL     1     -29.037 -21.756 -18.441  1.00  0.00    -0.000 C 
BRANCH  11  12
ATOM     12  C   UNL     1     -28.691 -20.597 -19.389  1.00  0.00    -0.000 C 
BRANCH  12  13
ATOM     13  C   UNL     1     -29.919 -20.176 -20.211  1.00  0.00    -0.000 C 
BRANCH  13  14
ATOM     14  C   UNL     1     -30.797 -21.368 -20.624  1.00  0.00    -0.000 C 
BRANCH  14  15
ATOM     15  C   UNL     1     -31.638 -21.076 -21.878  1.00  0.00    -0.000 C 
BRANCH  15  16
ATOM     16  C   UNL     1     -32.614 -19.905 -21.673  1.00  0.00    -0.003 C 
ATOM     17  C   UNL     1     -33.347 -19.514 -22.956  1.00  0.00     0.004 C 
ENDBRANCH  15  16
ENDBRANCH  14  15
ENDBRANCH  13  14
ENDBRANCH  12  13
ENDBRANCH  11  12
ENDBRANCH  10  11
ENDBRANCH   1  10
TORSDOF 13
ENDMDL
MODEL 6
REMARK VINA RESULT:    -1.385      3.068      5.141
REMARK INTER + INTRA:          -3.630
REMARK INTER:                  -3.733
REMARK INTRA:                   0.102
REMARK UNBOUND:                -1.193
REMARK SMILES CCCCCCCCCCCCCCC(=O)[O-]
REMARK SMILES IDX 9 1 10 2 11 3 12 4 13 5 14 6 15 7 16 8 17 9 8 10 7 11 6 12
REMARK SMILES IDX 5 13 4 14 3 15 2 16 1 17
REMARK H PARENT
REMARK Flexibility Score: inf
ROOT
ATOM      1  C   UNL     1     -27.417 -22.555 -20.905  1.00  0.00     0.000 C 
ENDROOT
BRANCH   1   2
ATOM      2  C   UNL     1     -28.446 -23.125 -19.914  1.00  0.00     0.000 C 
BRANCH   2   3
ATOM      3  C   UNL     1     -29.914 -23.041 -20.378  1.00  0.00     0.000 C 
BRANCH   3   4
ATOM      4  C   UNL     1     -30.312 -21.659 -20.938  1.00  0.00     0.000 C 
BRANCH   4   5
ATOM      5  C   UNL     1     -31.827 -21.541 -21.179  1.00  0.00     0.006 C 
BRANCH   5   6
ATOM      6  C   UNL     1     -32.153 -20.865 -22.518  1.00  0.00     0.053 C 
BRANCH   6   7
ATOM      7  C   UNL     1     -32.925 -19.596 -22.327  1.00  0.00     0.041 C 
ATOM      8  O   UNL     1     -32.698 -18.858 -21.333  1.00  0.00    -0.550 OA
ATOM      9  O   UNL     1     -33.923 -19.245 -23.230  1.00  0.00    -0.550 OA
ENDBRANCH   6   7
ENDBRANCH   5   6
ENDBRANCH   4   5
ENDBRANCH   3   4
ENDBRANCH   2   3
ENDBRANCH   1   2
BRANCH   1  10
ATOM     10  C   UNL     1     -27.579 -23.125 -22.325  1.00  0.00     0.000 C 
BRANCH  10  11
ATOM     11  C   UNL     1     -27.644 -22.026 -23.397  1.00  0.00    -0.000 C 
BRANCH  11  12
ATOM     12  C   UNL     1     -28.972 -21.254 -23.381  1.00  0.00    -0.000 C 
BRANCH  12  13
ATOM     13  C   UNL     1     -29.814 -21.587 -24.622  1.00  0.00    -0.000 C 
BRANCH  13  14
ATOM     14  C   UNL     1     -30.184 -20.341 -25.442  1.00  0.00    -0.000 C 
BRANCH  14  15
ATOM     15  C   UNL     1     -30.761 -20.692 -26.824  1.00  0.00    -0.000 C 
BRANCH  15  16
ATOM     16  C   UNL     1     -30.693 -22.199 -27.124  1.00  0.00    -0.003 C 
ATOM     17  C   UNL     1     -32.053 -22.888 -27.008  1.00  0.00     0.004 C 
ENDBRANCH  15  16
ENDBRANCH  14  15
ENDBRANCH  13  14
ENDBRANCH  12  13
ENDBRANCH  11  12
ENDBRANCH  10  11
ENDBRANCH   1  10
TORSDOF 13
ENDMDL
MODEL 7
REMARK VINA RESULT:    -1.215      3.749      6.267
REMARK INTER + INTRA:          -3.331
REMARK INTER:                  -3.497
REMARK INTRA:                   0.166
REMARK UNBOUND:                -1.193
REMARK SMILES CCCCCCCCCCCCCCC(=O)[O-]
REMARK SMILES IDX 9 1 10 2 11 3 12 4 13 5 14 6 15 7 16 8 17 9 8 10 7 11 6 12
REMARK SMILES IDX 5 13 4 14 3 15 2 16 1 17
REMARK H PARENT
REMARK Flexibility Score: inf
ROOT
ATOM      1  C   UNL     1     -31.018 -20.754 -20.881  1.00  0.00     0.000 C 
ENDROOT
BRANCH   1   2
ATOM      2  C   UNL     1     -32.094 -19.885 -21.555  1.00  0.00     0.000 C 
BRANCH   2   3
ATOM      3  C   UNL     1     -32.714 -20.488 -22.831  1.00  0.00     0.000 C 
BRANCH   3   4
ATOM      4  C   UNL     1     -31.672 -20.905 -23.891  1.00  0.00     0.000 C 
BRANCH   4   5
ATOM      5  C   UNL     1     -31.351 -19.764 -24.873  1.00  0.00     0.006 C 
BRANCH   5   6
ATOM      6  C   UNL     1     -31.503 -20.195 -26.337  1.00  0.00     0.053 C 
BRANCH   6   7
ATOM      7  C   UNL     1     -31.047 -21.606 -26.552  1.00  0.00     0.041 C 
ATOM      8  O   UNL     1     -29.837 -21.913 -26.392  1.00  0.00    -0.550 OA
ATOM      9  O   UNL     1     -31.954 -22.575 -26.966  1.00  0.00    -0.550 OA
ENDBRANCH   6   7
ENDBRANCH   5   6
ENDBRANCH   4   5
ENDBRANCH   3   4
ENDBRANCH   2   3
ENDBRANCH   1   2
BRANCH   1  10
ATOM     10  C   UNL     1     -31.352 -22.254 -20.924  1.00  0.00     0.000 C 
BRANCH  10  11
ATOM     11  C   UNL     1     -30.282 -23.116 -20.235  1.00  0.00    -0.000 C 
BRANCH  11  12
ATOM     12  C   UNL     1     -29.366 -22.301 -19.309  1.00  0.00    -0.000 C 
BRANCH  12  13
ATOM     13  C   UNL     1     -28.004 -22.991 -19.140  1.00  0.00    -0.000 C 
BRANCH  13  14
ATOM     14  C   UNL     1     -27.234 -23.123 -20.463  1.00  0.00    -0.000 C 
BRANCH  14  15
ATOM     15  C   UNL     1     -28.151 -23.015 -21.694  1.00  0.00    -0.000 C 
BRANCH  15  16
ATOM     16  C   UNL     1     -27.414 -22.476 -22.931  1.00  0.00    -0.003 C 
ATOM     17  C   UNL     1     -28.096 -21.250 -23.539  1.00  0.00     0.004 C 
ENDBRANCH  15  16
ENDBRANCH  14  15
ENDBRANCH  13  14
ENDBRANCH  12  13
ENDBRANCH  11  12
ENDBRANCH  10  11
ENDBRANCH   1  10
TORSDOF 13
ENDMDL
MODEL 8
REMARK VINA RESULT:    -1.047      1.110      2.261
REMARK INTER + INTRA:          -3.037
REMARK INTER:                  -2.438
REMARK INTRA:                  -0.599
REMARK UNBOUND:                -1.193
REMARK SMILES CCCCCCCCCCCCCCC(=O)[O-]
REMARK SMILES IDX 9 1 10 2 11 3 12 4 13 5 14 6 15 7 16 8 17 9 8 10 7 11 6 12
REMARK SMILES IDX 5 13 4 14 3 15 2 16 1 17
REMARK H PARENT
REMARK Flexibility Score: inf
ROOT
ATOM      1  C   UNL     1     -30.611 -20.257 -20.762  1.00  0.00     0.000 C 
ENDROOT
BRANCH   1   2
ATOM      2  C   UNL     1     -30.767 -21.767 -21.013  1.00  0.00     0.000 C 
BRANCH   2   3
ATOM      3  C   UNL     1     -29.691 -22.391 -21.924  1.00  0.00     0.000 C 
BRANCH   3   4
ATOM      4  C   UNL     1     -28.354 -22.671 -21.206  1.00  0.00     0.000 C 
BRANCH   4   5
ATOM      5  C   UNL     1     -28.558 -23.125 -19.750  1.00  0.00     0.006 C 
BRANCH   5   6
ATOM      6  C   UNL     1     -27.994 -22.116 -18.741  1.00  0.00     0.053 C 
BRANCH   6   7
ATOM      7  C   UNL     1     -28.034 -22.646 -17.341  1.00  0.00     0.041 C 
ATOM      8  O   UNL     1     -29.138 -22.830 -16.763  1.00  0.00    -0.550 OA
ATOM      9  O   UNL     1     -26.850 -22.905 -16.660  1.00  0.00    -0.550 OA
ENDBRANCH   6   7
ENDBRANCH   5   6
ENDBRANCH   4   5
ENDBRANCH   3   4
ENDBRANCH   2   3
ENDBRANCH   1   2
BRANCH   1  10
ATOM     10  C   UNL     1     -31.955 -19.510 -20.773  1.00  0.00     0.000 C 
BRANCH  10  11
ATOM     11  C   UNL     1     -32.479 -19.262 -22.197  1.00  0.00    -0.000 C 
BRANCH  11  12
ATOM     12  C   UNL     1     -32.859 -20.560 -22.926  1.00  0.00    -0.000 C 
BRANCH  12  13
ATOM     13  C   UNL     1     -32.740 -20.388 -24.448  1.00  0.00    -0.000 C 
BRANCH  13  14
ATOM     14  C   UNL     1     -31.386 -19.801 -24.877  1.00  0.00    -0.000 C 
BRANCH  14  15
ATOM     15  C   UNL     1     -30.265 -20.855 -24.898  1.00  0.00    -0.000 C 
BRANCH  15  16
ATOM     16  C   UNL     1     -29.949 -21.350 -26.319  1.00  0.00    -0.003 C 
ATOM     17  C   UNL     1     -31.206 -21.681 -27.124  1.00  0.00     0.004 C 
ENDBRANCH  15  16
ENDBRANCH  14  15
ENDBRANCH  13  14
ENDBRANCH  12  13
ENDBRANCH  11  12
ENDBRANCH  10  11
ENDBRANCH   1  10
TORSDOF 13
ENDMDL
