MODEL 1
REMARK VINA RESULT:    -4.684      0.000      0.000
REMARK INTER + INTRA:          -6.158
REMARK INTER:                  -5.779
REMARK INTRA:                  -0.379
REMARK UNBOUND:                -0.379
REMARK SMILES COC(=O)c1ccccc1C(=O)OC
REMARK SMILES IDX 5 1 6 2 7 3 8 4 9 5 10 6 3 7 4 8 2 9 1 10 11 11 12 12 13 13
REMARK SMILES IDX 14 14
REMARK H PARENT
REMARK Flexibility Score: inf
ROOT
ATOM      1  C   UNL     1      18.161  23.547   9.162  1.00  0.00     0.074 A 
ATOM      2  C   UNL     1      17.212  24.567   8.963  1.00  0.00     0.016 A 
ATOM      3  C   UNL     1      17.554  25.737   8.287  1.00  0.00     0.001 A 
ATOM      4  C   UNL     1      18.847  25.911   7.798  1.00  0.00     0.001 A 
ATOM      5  C   UNL     1      19.810  24.922   8.005  1.00  0.00     0.016 A 
ATOM      6  C   UNL     1      19.494  23.743   8.703  1.00  0.00     0.074 A 
ENDROOT
BRANCH   1   7
ATOM      7  C   UNL     1      17.700  22.285   9.786  1.00  0.00     0.338 C 
ATOM      8  O   UNL     1      17.693  22.161  11.042  1.00  0.00    -0.246 OA
BRANCH   7   9
ATOM      9  O   UNL     1      17.329  21.210   8.972  1.00  0.00    -0.465 OA
ATOM     10  C   UNL     1      16.144  20.455   9.193  1.00  0.00     0.282 C 
ENDBRANCH   7   9
ENDBRANCH   1   7
BRANCH   6  11
ATOM     11  C   UNL     1      20.592  22.790   8.983  1.00  0.00     0.338 C 
ATOM     12  O   UNL     1      21.192  22.818  10.092  1.00  0.00    -0.246 OA
BRANCH  11  13
ATOM     13  O   UNL     1      21.001  21.898   7.986  1.00  0.00    -0.465 OA
ATOM     14  C   UNL     1      20.702  20.507   8.032  1.00  0.00     0.282 C 
ENDBRANCH  11  13
ENDBRANCH   6  11
TORSDOF 4
ENDMDL
MODEL 2
REMARK VINA RESULT:    -4.664      0.121      3.184
REMARK INTER + INTRA:          -6.134
REMARK INTER:                  -5.765
REMARK INTRA:                  -0.368
REMARK UNBOUND:                -0.379
REMARK SMILES COC(=O)c1ccccc1C(=O)OC
REMARK SMILES IDX 5 1 6 2 7 3 8 4 9 5 10 6 3 7 4 8 2 9 1 10 11 11 12 12 13 13
REMARK SMILES IDX 14 14
REMARK H PARENT
REMARK Flexibility Score: inf
ROOT
ATOM      1  C   UNL     1      19.489  23.680   8.679  1.00  0.00     0.074 A 
ATOM      2  C   UNL     1      19.828  24.847   7.970  1.00  0.00     0.016 A 
ATOM      3  C   UNL     1      18.891  25.861   7.773  1.00  0.00     0.001 A 
ATOM      4  C   UNL     1      17.601  25.728   8.280  1.00  0.00     0.001 A 
ATOM      5  C   UNL     1      17.235  24.569   8.967  1.00  0.00     0.016 A 
ATOM      6  C   UNL     1      18.158  23.524   9.158  1.00  0.00     0.074 A 
ENDROOT
BRANCH   1   7
ATOM      7  C   UNL     1      20.564  22.697   8.949  1.00  0.00     0.338 C 
ATOM      8  O   UNL     1      21.172  22.705  10.054  1.00  0.00    -0.246 OA
BRANCH   7   9
ATOM      9  O   UNL     1      20.941  21.798   7.947  1.00  0.00    -0.465 OA
ATOM     10  C   UNL     1      20.649  20.407   8.015  1.00  0.00     0.282 C 
ENDBRANCH   7   9
ENDBRANCH   1   7
BRANCH   6  11
ATOM     11  C   UNL     1      17.670  22.280   9.795  1.00  0.00     0.338 C 
ATOM     12  O   UNL     1      17.652  22.173  11.053  1.00  0.00    -0.246 OA
BRANCH  11  13
ATOM     13  O   UNL     1      17.286  21.200   8.994  1.00  0.00    -0.465 OA
ATOM     14  C   UNL     1      16.322  20.241   9.410  1.00  0.00     0.282 C 
ENDBRANCH  11  13
ENDBRANCH   6  11
TORSDOF 4
ENDMDL
MODEL 3
REMARK VINA RESULT:    -4.541      1.727      3.717
REMARK INTER + INTRA:          -5.982
REMARK INTER:                  -5.506
REMARK INTRA:                  -0.475
REMARK UNBOUND:                -0.379
REMARK SMILES COC(=O)c1ccccc1C(=O)OC
REMARK SMILES IDX 5 1 6 2 7 3 8 4 9 5 10 6 3 7 4 8 2 9 1 10 11 11 12 12 13 13
REMARK SMILES IDX 14 14
REMARK H PARENT
REMARK Flexibility Score: inf
ROOT
ATOM      1  C   UNL     1      19.658  21.874   8.963  1.00  0.00     0.074 A 
ATOM      2  C   UNL     1      20.136  23.167   8.684  1.00  0.00     0.016 A 
ATOM      3  C   UNL     1      19.309  24.281   8.825  1.00  0.00     0.001 A 
ATOM      4  C   UNL     1      17.991  24.124   9.248  1.00  0.00     0.001 A 
ATOM      5  C   UNL     1      17.488  22.848   9.508  1.00  0.00     0.016 A 
ATOM      6  C   UNL     1      18.298  21.709   9.351  1.00  0.00     0.074 A 
ENDROOT
BRANCH   1   7
ATOM      7  C   UNL     1      20.621  20.751   8.901  1.00  0.00     0.338 C 
ATOM      8  O   UNL     1      20.981  20.281   7.786  1.00  0.00    -0.246 OA
BRANCH   7   9
ATOM      9  O   UNL     1      21.084  20.175  10.088  1.00  0.00    -0.465 OA
ATOM     10  C   UNL     1      20.950  18.787  10.371  1.00  0.00     0.282 C 
ENDBRANCH   7   9
ENDBRANCH   1   7
BRANCH   6  11
ATOM     11  C   UNL     1      17.667  20.382   9.534  1.00  0.00     0.338 C 
ATOM     12  O   UNL     1      17.512  19.905  10.692  1.00  0.00    -0.246 OA
BRANCH  11  13
ATOM     13  O   UNL     1      17.298  19.634   8.412  1.00  0.00    -0.465 OA
ATOM     14  C   UNL     1      17.942  18.416   8.056  1.00  0.00     0.282 C 
ENDBRANCH  11  13
ENDBRANCH   6  11
TORSDOF 4
ENDMDL
MODEL 4
REMARK VINA RESULT:    -4.527      1.725      2.300
REMARK INTER + INTRA:          -5.964
REMARK INTER:                  -5.481
REMARK INTRA:                  -0.483
REMARK UNBOUND:                -0.379
REMARK SMILES COC(=O)c1ccccc1C(=O)OC
REMARK SMILES IDX 5 1 6 2 7 3 8 4 9 5 10 6 3 7 4 8 2 9 1 10 11 11 12 12 13 13
REMARK SMILES IDX 14 14
REMARK H PARENT
REMARK Flexibility Score: inf
ROOT
ATOM      1  C   UNL     1      18.317  21.699   9.344  1.00  0.00     0.074 A 
ATOM      2  C   UNL     1      17.506  22.835   9.521  1.00  0.00     0.016 A 
ATOM      3  C   UNL     1      18.001  24.113   9.263  1.00  0.00     0.001 A 
ATOM      4  C   UNL     1      19.312  24.279   8.822  1.00  0.00     0.001 A 
ATOM      5  C   UNL     1      20.142  23.168   8.662  1.00  0.00     0.016 A 
ATOM      6  C   UNL     1      19.670  21.872   8.938  1.00  0.00     0.074 A 
ENDROOT
BRANCH   1   7
ATOM      7  C   UNL     1      17.693  20.368   9.527  1.00  0.00     0.338 C 
ATOM      8  O   UNL     1      17.556  19.883  10.684  1.00  0.00    -0.246 OA
BRANCH   7   9
ATOM      9  O   UNL     1      17.311  19.627   8.405  1.00  0.00    -0.465 OA
ATOM     10  C   UNL     1      17.927  18.394   8.054  1.00  0.00     0.282 C 
ENDBRANCH   7   9
ENDBRANCH   1   7
BRANCH   6  11
ATOM     11  C   UNL     1      20.637  20.753   8.854  1.00  0.00     0.338 C 
ATOM     12  O   UNL     1      20.972  20.283   7.732  1.00  0.00    -0.246 OA
BRANCH  11  13
ATOM     13  O   UNL     1      21.130  20.179  10.031  1.00  0.00    -0.465 OA
ATOM     14  C   UNL     1      20.976  18.798  10.334  1.00  0.00     0.282 C 
ENDBRANCH  11  13
ENDBRANCH   6  11
TORSDOF 4
ENDMDL
MODEL 5
REMARK VINA RESULT:    -4.460      1.973      3.154
REMARK INTER + INTRA:          -5.882
REMARK INTER:                  -5.581
REMARK INTRA:                  -0.300
REMARK UNBOUND:                -0.379
REMARK SMILES COC(=O)c1ccccc1C(=O)OC
REMARK SMILES IDX 5 1 6 2 7 3 8 4 9 5 10 6 3 7 4 8 2 9 1 10 11 11 12 12 13 13
REMARK SMILES IDX 14 14
REMARK H PARENT
REMARK Flexibility Score: inf
ROOT
ATOM      1  C   UNL     1      19.502  21.827   9.146  1.00  0.00     0.074 A 
ATOM      2  C   UNL     1      18.168  21.566   9.507  1.00  0.00     0.016 A 
ATOM      3  C   UNL     1      17.228  22.595   9.559  1.00  0.00     0.001 A 
ATOM      4  C   UNL     1      17.603  23.901   9.251  1.00  0.00     0.001 A 
ATOM      5  C   UNL     1      18.927  24.186   8.912  1.00  0.00     0.016 A 
ATOM      6  C   UNL     1      19.896  23.168   8.875  1.00  0.00     0.074 A 
ENDROOT
BRANCH   1   7
ATOM      7  C   UNL     1      20.418  20.672   9.000  1.00  0.00     0.338 C 
ATOM      8  O   UNL     1      20.645  20.178   7.861  1.00  0.00    -0.246 OA
BRANCH   7   9
ATOM      9  O   UNL     1      20.984  20.095  10.141  1.00  0.00    -0.465 OA
ATOM     10  C   UNL     1      20.963  18.693  10.382  1.00  0.00     0.282 C 
ENDBRANCH   7   9
ENDBRANCH   1   7
BRANCH   6  11
ATOM     11  C   UNL     1      21.301  23.560   8.619  1.00  0.00     0.338 C 
ATOM     12  O   UNL     1      22.015  24.018   9.553  1.00  0.00    -0.246 OA
BRANCH  11  13
ATOM     13  O   UNL     1      21.814  23.476   7.321  1.00  0.00    -0.465 OA
ATOM     14  C   UNL     1      21.358  24.308   6.260  1.00  0.00     0.282 C 
ENDBRANCH  11  13
ENDBRANCH   6  11
TORSDOF 4
ENDMDL
MODEL 6
REMARK VINA RESULT:    -4.442      2.029      3.840
REMARK INTER + INTRA:          -5.860
REMARK INTER:                  -5.532
REMARK INTRA:                  -0.328
REMARK UNBOUND:                -0.379
REMARK SMILES COC(=O)c1ccccc1C(=O)OC
REMARK SMILES IDX 5 1 6 2 7 3 8 4 9 5 10 6 3 7 4 8 2 9 1 10 11 11 12 12 13 13
REMARK SMILES IDX 14 14
REMARK H PARENT
REMARK Flexibility Score: inf
ROOT
ATOM      1  C   UNL     1      19.860  22.966   8.865  1.00  0.00     0.074 A 
ATOM      2  C   UNL     1      18.878  23.970   8.948  1.00  0.00     0.016 A 
ATOM      3  C   UNL     1      17.567  23.659   9.308  1.00  0.00     0.001 A 
ATOM      4  C   UNL     1      17.214  22.342   9.592  1.00  0.00     0.001 A 
ATOM      5  C   UNL     1      18.166  21.326   9.493  1.00  0.00     0.016 A 
ATOM      6  C   UNL     1      19.489  21.614   9.111  1.00  0.00     0.074 A 
ENDROOT
BRANCH   1   7
ATOM      7  C   UNL     1      21.254  23.382   8.589  1.00  0.00     0.338 C 
ATOM      8  O   UNL     1      21.980  23.834   9.518  1.00  0.00    -0.246 OA
BRANCH   7   9
ATOM      9  O   UNL     1      21.743  23.327   7.281  1.00  0.00    -0.465 OA
ATOM     10  C   UNL     1      21.438  24.316   6.305  1.00  0.00     0.282 C 
ENDBRANCH   7   9
ENDBRANCH   1   7
BRANCH   6  11
ATOM     11  C   UNL     1      20.415  20.475   8.917  1.00  0.00     0.338 C 
ATOM     12  O   UNL     1      20.579  19.975   7.770  1.00  0.00    -0.246 OA
BRANCH  11  13
ATOM     13  O   UNL     1      21.062  19.917  10.025  1.00  0.00    -0.465 OA
ATOM     14  C   UNL     1      20.988  18.531  10.338  1.00  0.00     0.282 C 
ENDBRANCH  11  13
ENDBRANCH   6  11
TORSDOF 4
ENDMDL
MODEL 7
REMARK VINA RESULT:    -4.416      1.459      4.854
REMARK INTER + INTRA:          -5.827
REMARK INTER:                  -5.353
REMARK INTRA:                  -0.474
REMARK UNBOUND:                -0.379
REMARK SMILES COC(=O)c1ccccc1C(=O)OC
REMARK SMILES IDX 5 1 6 2 7 3 8 4 9 5 10 6 3 7 4 8 2 9 1 10 11 11 12 12 13 13
REMARK SMILES IDX 14 14
REMARK H PARENT
REMARK Flexibility Score: inf
ROOT
ATOM      1  C   UNL     1      19.839  21.216   8.768  1.00  0.00     0.074 A 
ATOM      2  C   UNL     1      20.387  20.082   8.142  1.00  0.00     0.016 A 
ATOM      3  C   UNL     1      19.594  18.973   7.850  1.00  0.00     0.001 A 
ATOM      4  C   UNL     1      18.240  18.977   8.177  1.00  0.00     0.001 A 
ATOM      5  C   UNL     1      17.679  20.082   8.820  1.00  0.00     0.016 A 
ATOM      6  C   UNL     1      18.465  21.202   9.143  1.00  0.00     0.074 A 
ENDROOT
BRANCH   1   7
ATOM      7  C   UNL     1      20.711  22.399   8.944  1.00  0.00     0.338 C 
ATOM      8  O   UNL     1      20.970  23.152   7.964  1.00  0.00    -0.246 OA
BRANCH   7   9
ATOM      9  O   UNL     1      21.295  22.645  10.191  1.00  0.00    -0.465 OA
ATOM     10  C   UNL     1      21.087  23.854  10.910  1.00  0.00     0.282 C 
ENDBRANCH   7   9
ENDBRANCH   1   7
BRANCH   6  11
ATOM     11  C   UNL     1      17.831  22.289   9.924  1.00  0.00     0.338 C 
ATOM     12  O   UNL     1      17.878  22.278  11.185  1.00  0.00    -0.246 OA
BRANCH  11  13
ATOM     13  O   UNL     1      17.129  23.297   9.256  1.00  0.00    -0.465 OA
ATOM     14  C   UNL     1      17.688  24.579   8.997  1.00  0.00     0.282 C 
ENDBRANCH  11  13
ENDBRANCH   6  11
TORSDOF 4
ENDMDL
MODEL 8
REMARK VINA RESULT:    -4.389      8.420     10.519
REMARK INTER + INTRA:          -5.794
REMARK INTER:                  -5.403
REMARK INTRA:                  -0.392
REMARK UNBOUND:                -0.379
REMARK SMILES COC(=O)c1ccccc1C(=O)OC
REMARK SMILES IDX 5 1 6 2 7 3 8 4 9 5 10 6 3 7 4 8 2 9 1 10 11 11 12 12 13 13
REMARK SMILES IDX 14 14
REMARK H PARENT
REMARK Flexibility Score: inf
ROOT
ATOM      1  C   UNL     1      18.391  12.953  12.194  1.00  0.00     0.074 A 
ATOM      2  C   UNL     1      17.673  12.556  13.337  1.00  0.00     0.016 A 
ATOM      3  C   UNL     1      17.678  13.339  14.491  1.00  0.00     0.001 A 
ATOM      4  C   UNL     1      18.399  14.530  14.525  1.00  0.00     0.001 A 
ATOM      5  C   UNL     1      19.138  14.932  13.411  1.00  0.00     0.016 A 
ATOM      6  C   UNL     1      19.165  14.147  12.244  1.00  0.00     0.074 A 
ENDROOT
BRANCH   1   7
ATOM      7  C   UNL     1      18.249  12.134  10.969  1.00  0.00     0.338 C 
ATOM      8  O   UNL     1      17.401  12.447  10.088  1.00  0.00    -0.246 OA
BRANCH   7   9
ATOM      9  O   UNL     1      19.021  10.977  10.821  1.00  0.00    -0.465 OA
ATOM     10  C   UNL     1      18.458   9.671  10.853  1.00  0.00     0.282 C 
ENDBRANCH   7   9
ENDBRANCH   1   7
BRANCH   6  11
ATOM     11  C   UNL     1      20.059  14.576  11.143  1.00  0.00     0.338 C 
ATOM     12  O   UNL     1      21.243  14.144  11.080  1.00  0.00    -0.246 OA
BRANCH  11  13
ATOM     13  O   UNL     1      19.600  15.509  10.208  1.00  0.00    -0.465 OA
ATOM     14  C   UNL     1      19.388  15.182   8.840  1.00  0.00     0.282 C 
ENDBRANCH  11  13
ENDBRANCH   6  11
TORSDOF 4
ENDMDL
MODEL 9
REMARK VINA RESULT:    -4.377      8.402     10.759
REMARK INTER + INTRA:          -5.779
REMARK INTER:                  -5.384
REMARK INTRA:                  -0.395
REMARK UNBOUND:                -0.379
REMARK SMILES COC(=O)c1ccccc1C(=O)OC
REMARK SMILES IDX 5 1 6 2 7 3 8 4 9 5 10 6 3 7 4 8 2 9 1 10 11 11 12 12 13 13
REMARK SMILES IDX 14 14
REMARK H PARENT
REMARK Flexibility Score: inf
ROOT
ATOM      1  C   UNL     1      19.161  14.176  12.254  1.00  0.00     0.074 A 
ATOM      2  C   UNL     1      19.153  14.969  13.417  1.00  0.00     0.016 A 
ATOM      3  C   UNL     1      18.425  14.580  14.541  1.00  0.00     0.001 A 
ATOM      4  C   UNL     1      17.695  13.393  14.524  1.00  0.00     0.001 A 
ATOM      5  C   UNL     1      17.670  12.603  13.374  1.00  0.00     0.016 A 
ATOM      6  C   UNL     1      18.379  12.988  12.222  1.00  0.00     0.074 A 
ENDROOT
BRANCH   1   7
ATOM      7  C   UNL     1      20.045  14.591  11.141  1.00  0.00     0.338 C 
ATOM      8  O   UNL     1      21.220  14.138  11.057  1.00  0.00    -0.246 OA
BRANCH   7   9
ATOM      9  O   UNL     1      19.589  15.535  10.215  1.00  0.00    -0.465 OA
ATOM     10  C   UNL     1      19.200  15.185   8.892  1.00  0.00     0.282 C 
ENDBRANCH   7   9
ENDBRANCH   1   7
BRANCH   6  11
ATOM     11  C   UNL     1      18.217  12.161  11.003  1.00  0.00     0.338 C 
ATOM     12  O   UNL     1      17.334  12.452  10.150  1.00  0.00    -0.246 OA
BRANCH  11  13
ATOM     13  O   UNL     1      19.010  11.022  10.834  1.00  0.00    -0.465 OA
ATOM     14  C   UNL     1      18.472   9.705  10.849  1.00  0.00     0.282 C 
ENDBRANCH  11  13
ENDBRANCH   6  11
TORSDOF 4
ENDMDL
