MODEL 1
REMARK VINA RESULT:    -5.357      0.000      0.000
REMARK INTER + INTRA:          -6.748
REMARK INTER:                  -6.453
REMARK INTRA:                  -0.296
REMARK UNBOUND:                -0.296
REMARK SMILES O=c1c(O)c(-c2ccc(O)c(O)c2)oc2cc(O)cc(O)c12
REMARK SMILES IDX 5 1 3 2 2 3 1 4 22 5 20 6 19 7 17 8 16 9 15 10 14 11 6 12
REMARK SMILES IDX 7 13 8 14 9 15 13 16 11 17 10 18 12 20 4 22 21 24 18 26
REMARK H PARENT 10 19 12 21 4 23 21 25 18 27
REMARK Flexibility Score: inf
ROOT
ATOM      1  C   UNL     1      14.252  33.897  54.034  1.00  0.00     0.180 A 
ATOM      2  C   UNL     1      12.920  34.031  54.463  1.00  0.00     0.208 A 
ATOM      3  C   UNL     1      12.565  33.559  55.737  1.00  0.00     0.238 A 
ATOM      4  O   UNL     1      11.389  33.749  56.145  1.00  0.00    -0.285 OA
ATOM      5  C   UNL     1      13.530  32.907  56.543  1.00  0.00     0.111 A 
ATOM      6  C   UNL     1      13.270  32.348  57.831  1.00  0.00     0.134 A 
ATOM      7  C   UNL     1      14.329  31.821  58.581  1.00  0.00     0.093 A 
ATOM      8  C   UNL     1      15.626  31.775  58.065  1.00  0.00     0.123 A 
ATOM      9  C   UNL     1      15.879  32.268  56.787  1.00  0.00     0.094 A 
ATOM     10  C   UNL     1      14.851  32.834  56.029  1.00  0.00     0.146 A 
ATOM     11  O   UNL     1      15.142  33.311  54.824  1.00  0.00    -0.452 OA
ENDROOT
BRANCH   1  12
ATOM     12  C   UNL     1      14.706  34.383  52.712  1.00  0.00     0.025 A 
ATOM     13  C   UNL     1      14.476  33.598  51.571  1.00  0.00     0.016 A 
ATOM     14  C   UNL     1      14.914  34.027  50.316  1.00  0.00     0.051 A 
ATOM     15  C   UNL     1      15.604  35.240  50.185  1.00  0.00     0.157 A 
ATOM     16  C   UNL     1      15.417  35.590  52.579  1.00  0.00     0.062 A 
ATOM     17  C   UNL     1      15.860  36.020  51.320  1.00  0.00     0.158 A 
BRANCH  15  18
ATOM     18  O   UNL     1      16.041  35.672  48.935  1.00  0.00    -0.504 OA
ATOM     19  H   UNL     1      16.459  36.586  48.806  1.00  0.00     0.293 HD
ENDBRANCH  15  18
BRANCH  17  20
ATOM     20  O   UNL     1      16.558  37.220  51.189  1.00  0.00    -0.504 OA
ATOM     21  H   UNL     1      16.265  38.059  51.676  1.00  0.00     0.293 HD
ENDBRANCH  17  20
ENDBRANCH   1  12
BRANCH   2  22
ATOM     22  O   UNL     1      11.964  34.608  53.623  1.00  0.00    -0.502 OA
ATOM     23  H   UNL     1      10.976  34.608  53.843  1.00  0.00     0.293 HD
ENDBRANCH   2  22
BRANCH   6  24
ATOM     24  O   UNL     1      11.998  32.262  58.405  1.00  0.00    -0.507 OA
ATOM     25  H   UNL     1      11.548  32.998  58.926  1.00  0.00     0.293 HD
ENDBRANCH   6  24
BRANCH   8  26
ATOM     26  O   UNL     1      16.670  31.233  58.812  1.00  0.00    -0.508 OA
ATOM     27  H   UNL     1      16.888  30.245  58.777  1.00  0.00     0.293 HD
ENDBRANCH   8  26
TORSDOF 6
ENDMDL
MODEL 2
REMARK VINA RESULT:    -5.258      1.698      3.703
REMARK INTER + INTRA:          -6.629
REMARK INTER:                  -6.320
REMARK INTRA:                  -0.309
REMARK UNBOUND:                -0.296
REMARK SMILES O=c1c(O)c(-c2ccc(O)c(O)c2)oc2cc(O)cc(O)c12
REMARK SMILES IDX 5 1 3 2 2 3 1 4 22 5 20 6 19 7 17 8 16 9 15 10 14 11 6 12
REMARK SMILES IDX 7 13 8 14 9 15 13 16 11 17 10 18 12 20 4 22 21 24 18 26
REMARK H PARENT 10 19 12 21 4 23 21 25 18 27
REMARK Flexibility Score: inf
ROOT
ATOM      1  C   UNL     1      15.569  34.782  52.602  1.00  0.00     0.180 A 
ATOM      2  C   UNL     1      16.639  34.002  53.077  1.00  0.00     0.208 A 
ATOM      3  C   UNL     1      16.447  33.206  54.217  1.00  0.00     0.238 A 
ATOM      4  O   UNL     1      17.384  32.454  54.593  1.00  0.00    -0.285 OA
ATOM      5  C   UNL     1      15.208  33.243  54.903  1.00  0.00     0.111 A 
ATOM      6  C   UNL     1      14.918  32.512  56.096  1.00  0.00     0.134 A 
ATOM      7  C   UNL     1      13.622  32.545  56.627  1.00  0.00     0.093 A 
ATOM      8  C   UNL     1      12.624  33.330  56.045  1.00  0.00     0.123 A 
ATOM      9  C   UNL     1      12.913  34.088  54.914  1.00  0.00     0.094 A 
ATOM     10  C   UNL     1      14.185  34.048  54.339  1.00  0.00     0.146 A 
ATOM     11  O   UNL     1      14.410  34.771  53.248  1.00  0.00    -0.452 OA
ENDROOT
BRANCH   1  12
ATOM     12  C   UNL     1      15.689  35.635  51.399  1.00  0.00     0.025 A 
ATOM     13  C   UNL     1      15.852  37.021  51.548  1.00  0.00     0.016 A 
ATOM     14  C   UNL     1      15.946  37.848  50.425  1.00  0.00     0.051 A 
ATOM     15  C   UNL     1      15.863  37.302  49.138  1.00  0.00     0.157 A 
ATOM     16  C   UNL     1      15.586  35.094  50.103  1.00  0.00     0.062 A 
ATOM     17  C   UNL     1      15.678  35.923  48.977  1.00  0.00     0.158 A 
BRANCH  15  18
ATOM     18  O   UNL     1      15.959  38.123  48.016  1.00  0.00    -0.504 OA
ATOM     19  H   UNL     1      15.394  38.959  47.921  1.00  0.00     0.293 HD
ENDBRANCH  15  18
BRANCH  17  20
ATOM     20  O   UNL     1      15.582  35.385  47.694  1.00  0.00    -0.504 OA
ATOM     21  H   UNL     1      16.186  35.697  46.942  1.00  0.00     0.293 HD
ENDBRANCH  17  20
ENDBRANCH   1  12
BRANCH   2  22
ATOM     22  O   UNL     1      17.877  34.038  52.431  1.00  0.00    -0.502 OA
ATOM     23  H   UNL     1      18.173  33.321  51.781  1.00  0.00     0.293 HD
ENDBRANCH   2  22
BRANCH   6  24
ATOM     24  O   UNL     1      15.863  31.768  56.808  1.00  0.00    -0.507 OA
ATOM     25  H   UNL     1      16.508  31.109  56.399  1.00  0.00     0.293 HD
ENDBRANCH   6  24
BRANCH   8  26
ATOM     26  O   UNL     1      11.343  33.369  56.591  1.00  0.00    -0.508 OA
ATOM     27  H   UNL     1      11.174  33.733  57.521  1.00  0.00     0.293 HD
ENDBRANCH   8  26
TORSDOF 6
ENDMDL
MODEL 3
REMARK VINA RESULT:    -5.058      3.072      5.373
REMARK INTER + INTRA:          -6.389
REMARK INTER:                  -6.357
REMARK INTRA:                  -0.032
REMARK UNBOUND:                -0.296
REMARK SMILES O=c1c(O)c(-c2ccc(O)c(O)c2)oc2cc(O)cc(O)c12
REMARK SMILES IDX 5 1 3 2 2 3 1 4 22 5 20 6 19 7 17 8 16 9 15 10 14 11 6 12
REMARK SMILES IDX 7 13 8 14 9 15 13 16 11 17 10 18 12 20 4 22 21 24 18 26
REMARK H PARENT 10 19 12 21 4 23 21 25 18 27
REMARK Flexibility Score: inf
ROOT
ATOM      1  C   UNL     1      14.503  31.868  57.837  1.00  0.00     0.180 A 
ATOM      2  C   UNL     1      14.030  30.696  58.453  1.00  0.00     0.208 A 
ATOM      3  C   UNL     1      14.816  30.082  59.441  1.00  0.00     0.238 A 
ATOM      4  O   UNL     1      14.354  29.076  60.041  1.00  0.00    -0.285 OA
ATOM      5  C   UNL     1      16.089  30.613  59.762  1.00  0.00     0.111 A 
ATOM      6  C   UNL     1      16.989  30.047  60.714  1.00  0.00     0.134 A 
ATOM      7  C   UNL     1      18.178  30.720  61.026  1.00  0.00     0.093 A 
ATOM      8  C   UNL     1      18.528  31.905  60.374  1.00  0.00     0.123 A 
ATOM      9  C   UNL     1      17.682  32.435  59.404  1.00  0.00     0.094 A 
ATOM     10  C   UNL     1      16.472  31.808  59.098  1.00  0.00     0.146 A 
ATOM     11  O   UNL     1      15.686  32.361  58.181  1.00  0.00    -0.452 OA
ENDROOT
BRANCH   1  12
ATOM     12  C   UNL     1      13.726  32.581  56.798  1.00  0.00     0.025 A 
ATOM     13  C   UNL     1      14.357  32.959  55.603  1.00  0.00     0.016 A 
ATOM     14  C   UNL     1      13.649  33.652  54.616  1.00  0.00     0.051 A 
ATOM     15  C   UNL     1      12.304  33.989  54.818  1.00  0.00     0.157 A 
ATOM     16  C   UNL     1      12.381  32.940  57.005  1.00  0.00     0.062 A 
ATOM     17  C   UNL     1      11.671  33.636  56.017  1.00  0.00     0.158 A 
BRANCH  15  18
ATOM     18  O   UNL     1      11.594  34.677  53.837  1.00  0.00    -0.504 OA
ATOM     19  H   UNL     1      11.907  34.700  52.874  1.00  0.00     0.293 HD
ENDBRANCH  15  18
BRANCH  17  20
ATOM     20  O   UNL     1      10.336  33.985  56.220  1.00  0.00    -0.504 OA
ATOM     21  H   UNL     1       9.837  34.574  55.564  1.00  0.00     0.293 HD
ENDBRANCH  17  20
ENDBRANCH   1  12
BRANCH   2  22
ATOM     22  O   UNL     1      12.806  30.144  58.068  1.00  0.00    -0.502 OA
ATOM     23  H   UNL     1      12.169  29.717  58.730  1.00  0.00     0.293 HD
ENDBRANCH   2  22
BRANCH   6  24
ATOM     24  O   UNL     1      16.781  28.824  61.358  1.00  0.00    -0.507 OA
ATOM     25  H   UNL     1      17.477  28.324  61.889  1.00  0.00     0.293 HD
ENDBRANCH   6  24
BRANCH   8  26
ATOM     26  O   UNL     1      19.720  32.558  60.679  1.00  0.00    -0.508 OA
ATOM     27  H   UNL     1      19.993  32.742  61.636  1.00  0.00     0.293 HD
ENDBRANCH   8  26
TORSDOF 6
ENDMDL
MODEL 4
REMARK VINA RESULT:    -5.043      1.467      3.111
REMARK INTER + INTRA:          -6.371
REMARK INTER:                  -6.051
REMARK INTRA:                  -0.320
REMARK UNBOUND:                -0.296
REMARK SMILES O=c1c(O)c(-c2ccc(O)c(O)c2)oc2cc(O)cc(O)c12
REMARK SMILES IDX 5 1 3 2 2 3 1 4 22 5 20 6 19 7 17 8 16 9 15 10 14 11 6 12
REMARK SMILES IDX 7 13 8 14 9 15 13 16 11 17 10 18 12 20 4 22 21 24 18 26
REMARK H PARENT 10 19 12 21 4 23 21 25 18 27
REMARK Flexibility Score: inf
ROOT
ATOM      1  C   UNL     1      14.977  34.206  53.204  1.00  0.00     0.180 A 
ATOM      2  C   UNL     1      15.900  33.498  53.993  1.00  0.00     0.208 A 
ATOM      3  C   UNL     1      15.456  32.886  55.176  1.00  0.00     0.238 A 
ATOM      4  O   UNL     1      16.271  32.191  55.839  1.00  0.00    -0.285 OA
ATOM      5  C   UNL     1      14.109  33.037  55.587  1.00  0.00     0.111 A 
ATOM      6  C   UNL     1      13.561  32.499  56.790  1.00  0.00     0.134 A 
ATOM      7  C   UNL     1      12.188  32.622  57.040  1.00  0.00     0.093 A 
ATOM      8  C   UNL     1      11.356  33.319  56.161  1.00  0.00     0.123 A 
ATOM      9  C   UNL     1      11.891  33.895  55.012  1.00  0.00     0.094 A 
ATOM     10  C   UNL     1      13.249  33.756  54.716  1.00  0.00     0.146 A 
ATOM     11  O   UNL     1      13.713  34.303  53.598  1.00  0.00    -0.452 OA
ENDROOT
BRANCH   1  12
ATOM     12  C   UNL     1      15.365  34.865  51.938  1.00  0.00     0.025 A 
ATOM     13  C   UNL     1      15.261  34.157  50.731  1.00  0.00     0.016 A 
ATOM     14  C   UNL     1      15.642  34.751  49.525  1.00  0.00     0.051 A 
ATOM     15  C   UNL     1      16.147  36.058  49.511  1.00  0.00     0.157 A 
ATOM     16  C   UNL     1      15.892  36.170  51.921  1.00  0.00     0.062 A 
ATOM     17  C   UNL     1      16.277  36.766  50.712  1.00  0.00     0.158 A 
BRANCH  15  18
ATOM     18  O   UNL     1      16.526  36.655  48.310  1.00  0.00    -0.504 OA
ATOM     19  H   UNL     1      16.859  36.106  47.527  1.00  0.00     0.293 HD
ENDBRANCH  15  18
BRANCH  17  20
ATOM     20  O   UNL     1      16.792  38.062  50.696  1.00  0.00    -0.504 OA
ATOM     21  H   UNL     1      17.791  38.234  50.713  1.00  0.00     0.293 HD
ENDBRANCH  17  20
ENDBRANCH   1  12
BRANCH   2  22
ATOM     22  O   UNL     1      17.242  33.424  53.611  1.00  0.00    -0.502 OA
ATOM     23  H   UNL     1      17.920  34.132  53.866  1.00  0.00     0.293 HD
ENDBRANCH   2  22
BRANCH   6  24
ATOM     24  O   UNL     1      14.317  31.862  57.779  1.00  0.00    -0.507 OA
ATOM     25  H   UNL     1      14.932  31.079  57.622  1.00  0.00     0.293 HD
ENDBRANCH   6  24
BRANCH   8  26
ATOM     26  O   UNL     1       9.994  33.452  56.426  1.00  0.00    -0.508 OA
ATOM     27  H   UNL     1       9.401  34.048  55.862  1.00  0.00     0.293 HD
ENDBRANCH   8  26
TORSDOF 6
ENDMDL
MODEL 5
REMARK VINA RESULT:    -5.041      6.247      8.865
REMARK INTER + INTRA:          -6.369
REMARK INTER:                  -6.051
REMARK INTRA:                  -0.317
REMARK UNBOUND:                -0.296
REMARK SMILES O=c1c(O)c(-c2ccc(O)c(O)c2)oc2cc(O)cc(O)c12
REMARK SMILES IDX 5 1 3 2 2 3 1 4 22 5 20 6 19 7 17 8 16 9 15 10 14 11 6 12
REMARK SMILES IDX 7 13 8 14 9 15 13 16 11 17 10 18 12 20 4 22 21 24 18 26
REMARK H PARENT 10 19 12 21 4 23 21 25 18 27
REMARK Flexibility Score: inf
ROOT
ATOM      1  C   UNL     1      11.656  36.207  48.342  1.00  0.00     0.180 A 
ATOM      2  C   UNL     1      12.358  36.194  47.124  1.00  0.00     0.208 A 
ATOM      3  C   UNL     1      13.714  36.558  47.115  1.00  0.00     0.238 A 
ATOM      4  O   UNL     1      14.355  36.472  46.036  1.00  0.00    -0.285 OA
ATOM      5  C   UNL     1      14.337  36.985  48.314  1.00  0.00     0.111 A 
ATOM      6  C   UNL     1      15.693  37.421  48.414  1.00  0.00     0.134 A 
ATOM      7  C   UNL     1      16.231  37.720  49.672  1.00  0.00     0.093 A 
ATOM      8  C   UNL     1      15.445  37.660  50.825  1.00  0.00     0.123 A 
ATOM      9  C   UNL     1      14.106  37.290  50.730  1.00  0.00     0.094 A 
ATOM     10  C   UNL     1      13.550  36.949  49.495  1.00  0.00     0.146 A 
ATOM     11  O   UNL     1      12.275  36.581  49.454  1.00  0.00    -0.452 OA
ENDROOT
BRANCH   1  12
ATOM     12  C   UNL     1      10.230  35.822  48.433  1.00  0.00     0.025 A 
ATOM     13  C   UNL     1       9.887  34.467  48.562  1.00  0.00     0.016 A 
ATOM     14  C   UNL     1       8.546  34.079  48.629  1.00  0.00     0.051 A 
ATOM     15  C   UNL     1       7.529  35.039  48.552  1.00  0.00     0.157 A 
ATOM     16  C   UNL     1       9.203  36.781  48.336  1.00  0.00     0.062 A 
ATOM     17  C   UNL     1       7.858  36.391  48.401  1.00  0.00     0.158 A 
BRANCH  15  18
ATOM     18  O   UNL     1       6.191  34.655  48.621  1.00  0.00    -0.504 OA
ATOM     19  H   UNL     1       5.923  33.691  48.777  1.00  0.00     0.293 HD
ENDBRANCH  15  18
BRANCH  17  20
ATOM     20  O   UNL     1       6.843  37.342  48.311  1.00  0.00    -0.504 OA
ATOM     21  H   UNL     1       5.922  37.103  47.959  1.00  0.00     0.293 HD
ENDBRANCH  17  20
ENDBRANCH   1  12
BRANCH   2  22
ATOM     22  O   UNL     1      11.705  35.843  45.939  1.00  0.00    -0.502 OA
ATOM     23  H   UNL     1      11.268  36.527  45.335  1.00  0.00     0.293 HD
ENDBRANCH   2  22
BRANCH   6  24
ATOM     24  O   UNL     1      16.541  37.601  47.316  1.00  0.00    -0.507 OA
ATOM     25  H   UNL     1      16.982  38.471  47.064  1.00  0.00     0.293 HD
ENDBRANCH   6  24
BRANCH   8  26
ATOM     26  O   UNL     1      15.985  37.977  52.070  1.00  0.00    -0.508 OA
ATOM     27  H   UNL     1      16.878  38.446  52.156  1.00  0.00     0.293 HD
ENDBRANCH   8  26
TORSDOF 6
ENDMDL
MODEL 6
REMARK VINA RESULT:    -5.012      2.649      5.240
REMARK INTER + INTRA:          -6.334
REMARK INTER:                  -6.799
REMARK INTRA:                   0.465
REMARK UNBOUND:                -0.296
REMARK SMILES O=c1c(O)c(-c2ccc(O)c(O)c2)oc2cc(O)cc(O)c12
REMARK SMILES IDX 5 1 3 2 2 3 1 4 22 5 20 6 19 7 17 8 16 9 15 10 14 11 6 12
REMARK SMILES IDX 7 13 8 14 9 15 13 16 11 17 10 18 12 20 4 22 21 24 18 26
REMARK H PARENT 10 19 12 21 4 23 21 25 18 27
REMARK Flexibility Score: inf
ROOT
ATOM      1  C   UNL     1      14.302  32.163  57.861  1.00  0.00     0.180 A 
ATOM      2  C   UNL     1      15.700  32.026  57.913  1.00  0.00     0.208 A 
ATOM      3  C   UNL     1      16.278  31.353  59.001  1.00  0.00     0.238 A 
ATOM      4  O   UNL     1      17.524  31.169  59.005  1.00  0.00    -0.285 OA
ATOM      5  C   UNL     1      15.457  30.874  60.052  1.00  0.00     0.111 A 
ATOM      6  C   UNL     1      15.939  30.217  61.225  1.00  0.00     0.134 A 
ATOM      7  C   UNL     1      15.025  29.693  62.147  1.00  0.00     0.093 A 
ATOM      8  C   UNL     1      13.649  29.856  61.971  1.00  0.00     0.123 A 
ATOM      9  C   UNL     1      13.172  30.544  60.859  1.00  0.00     0.094 A 
ATOM     10  C   UNL     1      14.056  31.046  59.901  1.00  0.00     0.146 A 
ATOM     11  O   UNL     1      13.556  31.676  58.845  1.00  0.00    -0.452 OA
ENDROOT
BRANCH   1  12
ATOM     12  C   UNL     1      13.618  32.847  56.741  1.00  0.00     0.025 A 
ATOM     13  C   UNL     1      12.218  32.801  56.655  1.00  0.00     0.016 A 
ATOM     14  C   UNL     1      11.552  33.421  55.594  1.00  0.00     0.051 A 
ATOM     15  C   UNL     1      12.279  34.082  54.595  1.00  0.00     0.157 A 
ATOM     16  C   UNL     1      14.345  33.494  55.724  1.00  0.00     0.062 A 
ATOM     17  C   UNL     1      13.677  34.114  54.658  1.00  0.00     0.158 A 
BRANCH  15  18
ATOM     18  O   UNL     1      11.619  34.703  53.537  1.00  0.00    -0.504 OA
ATOM     19  H   UNL     1      11.843  35.649  53.254  1.00  0.00     0.293 HD
ENDBRANCH  15  18
BRANCH  17  20
ATOM     20  O   UNL     1      14.398  34.762  53.655  1.00  0.00    -0.504 OA
ATOM     21  H   UNL     1      14.044  35.598  53.204  1.00  0.00     0.293 HD
ENDBRANCH  17  20
ENDBRANCH   1  12
BRANCH   2  22
ATOM     22  O   UNL     1      16.499  32.572  56.905  1.00  0.00    -0.502 OA
ATOM     23  H   UNL     1      17.481  32.779  57.041  1.00  0.00     0.293 HD
ENDBRANCH   2  22
BRANCH   6  24
ATOM     24  O   UNL     1      17.293  30.077  61.544  1.00  0.00    -0.507 OA
ATOM     25  H   UNL     1      18.028  30.689  61.225  1.00  0.00     0.293 HD
ENDBRANCH   6  24
BRANCH   8  26
ATOM     26  O   UNL     1      12.748  29.346  62.903  1.00  0.00    -0.508 OA
ATOM     27  H   UNL     1      12.615  29.786  63.806  1.00  0.00     0.293 HD
ENDBRANCH   8  26
TORSDOF 6
ENDMDL
MODEL 7
REMARK VINA RESULT:    -4.997      2.515      6.922
REMARK INTER + INTRA:          -6.315
REMARK INTER:                  -5.994
REMARK INTRA:                  -0.321
REMARK UNBOUND:                -0.296
REMARK SMILES O=c1c(O)c(-c2ccc(O)c(O)c2)oc2cc(O)cc(O)c12
REMARK SMILES IDX 5 1 3 2 2 3 1 4 22 5 20 6 19 7 17 8 16 9 15 10 14 11 6 12
REMARK SMILES IDX 7 13 8 14 9 15 13 16 11 17 10 18 12 20 4 22 21 24 18 26
REMARK H PARENT 10 19 12 21 4 23 21 25 18 27
REMARK Flexibility Score: inf
ROOT
ATOM      1  C   UNL     1      15.786  31.868  57.970  1.00  0.00     0.180 A 
ATOM      2  C   UNL     1      14.581  31.668  58.669  1.00  0.00     0.208 A 
ATOM      3  C   UNL     1      13.379  32.106  58.091  1.00  0.00     0.238 A 
ATOM      4  O   UNL     1      12.298  31.858  58.686  1.00  0.00    -0.285 OA
ATOM      5  C   UNL     1      13.399  32.788  56.850  1.00  0.00     0.111 A 
ATOM      6  C   UNL     1      12.246  33.315  56.193  1.00  0.00     0.134 A 
ATOM      7  C   UNL     1      12.375  33.878  54.917  1.00  0.00     0.093 A 
ATOM      8  C   UNL     1      13.623  33.989  54.300  1.00  0.00     0.123 A 
ATOM      9  C   UNL     1      14.762  33.527  54.957  1.00  0.00     0.094 A 
ATOM     10  C   UNL     1      14.661  32.927  56.214  1.00  0.00     0.146 A 
ATOM     11  O   UNL     1      15.769  32.481  56.794  1.00  0.00    -0.452 OA
ENDROOT
BRANCH   1  12
ATOM     12  C   UNL     1      17.091  31.422  58.506  1.00  0.00     0.025 A 
ATOM     13  C   UNL     1      17.568  30.142  58.185  1.00  0.00     0.016 A 
ATOM     14  C   UNL     1      18.788  29.692  58.697  1.00  0.00     0.051 A 
ATOM     15  C   UNL     1      19.540  30.509  59.550  1.00  0.00     0.157 A 
ATOM     16  C   UNL     1      17.840  32.232  59.381  1.00  0.00     0.062 A 
ATOM     17  C   UNL     1      19.062  31.779  59.897  1.00  0.00     0.158 A 
BRANCH  15  18
ATOM     18  O   UNL     1      20.757  30.064  60.061  1.00  0.00    -0.504 OA
ATOM     19  H   UNL     1      21.082  30.344  60.979  1.00  0.00     0.293 HD
ENDBRANCH  15  18
BRANCH  17  20
ATOM     20  O   UNL     1      19.807  32.584  60.758  1.00  0.00    -0.504 OA
ATOM     21  H   UNL     1      20.402  33.326  60.407  1.00  0.00     0.293 HD
ENDBRANCH  17  20
ENDBRANCH   1  12
BRANCH   2  22
ATOM     22  O   UNL     1      14.590  31.062  59.927  1.00  0.00    -0.502 OA
ATOM     23  H   UNL     1      14.732  31.585  60.782  1.00  0.00     0.293 HD
ENDBRANCH   2  22
BRANCH   6  24
ATOM     24  O   UNL     1      10.966  33.337  56.755  1.00  0.00    -0.507 OA
ATOM     25  H   UNL     1      10.714  32.913  57.634  1.00  0.00     0.293 HD
ENDBRANCH   6  24
BRANCH   8  26
ATOM     26  O   UNL     1      13.744  34.566  53.038  1.00  0.00    -0.508 OA
ATOM     27  H   UNL     1      14.220  34.089  52.282  1.00  0.00     0.293 HD
ENDBRANCH   8  26
TORSDOF 6
ENDMDL
MODEL 8
REMARK VINA RESULT:    -4.891      1.920      6.857
REMARK INTER + INTRA:          -6.188
REMARK INTER:                  -5.875
REMARK INTRA:                  -0.313
REMARK UNBOUND:                -0.296
REMARK SMILES O=c1c(O)c(-c2ccc(O)c(O)c2)oc2cc(O)cc(O)c12
REMARK SMILES IDX 5 1 3 2 2 3 1 4 22 5 20 6 19 7 17 8 16 9 15 10 14 11 6 12
REMARK SMILES IDX 7 13 8 14 9 15 13 16 11 17 10 18 12 20 4 22 21 24 18 26
REMARK H PARENT 10 19 12 21 4 23 21 25 18 27
REMARK Flexibility Score: inf
ROOT
ATOM      1  C   UNL     1      14.117  34.041  53.400  1.00  0.00     0.180 A 
ATOM      2  C   UNL     1      12.937  33.965  52.639  1.00  0.00     0.208 A 
ATOM      3  C   UNL     1      12.811  34.772  51.497  1.00  0.00     0.238 A 
ATOM      4  O   UNL     1      11.785  34.646  50.779  1.00  0.00    -0.285 OA
ATOM      5  C   UNL     1      13.841  35.685  51.160  1.00  0.00     0.111 A 
ATOM      6  C   UNL     1      13.800  36.583  50.051  1.00  0.00     0.134 A 
ATOM      7  C   UNL     1      14.923  37.366  49.755  1.00  0.00     0.093 A 
ATOM      8  C   UNL     1      16.061  37.329  50.564  1.00  0.00     0.123 A 
ATOM      9  C   UNL     1      16.089  36.497  51.680  1.00  0.00     0.094 A 
ATOM     10  C   UNL     1      14.999  35.676  51.980  1.00  0.00     0.146 A 
ATOM     11  O   UNL     1      15.078  34.882  53.041  1.00  0.00    -0.452 OA
ENDROOT
BRANCH   1  12
ATOM     12  C   UNL     1      14.329  33.212  54.608  1.00  0.00     0.025 A 
ATOM     13  C   UNL     1      13.825  33.649  55.842  1.00  0.00     0.016 A 
ATOM     14  C   UNL     1      14.032  32.894  57.000  1.00  0.00     0.051 A 
ATOM     15  C   UNL     1      14.760  31.698  56.941  1.00  0.00     0.157 A 
ATOM     16  C   UNL     1      15.078  32.021  54.558  1.00  0.00     0.062 A 
ATOM     17  C   UNL     1      15.287  31.264  55.719  1.00  0.00     0.158 A 
BRANCH  15  18
ATOM     18  O   UNL     1      14.966  30.941  58.093  1.00  0.00    -0.504 OA
ATOM     19  H   UNL     1      14.251  30.851  58.804  1.00  0.00     0.293 HD
ENDBRANCH  15  18
BRANCH  17  20
ATOM     20  O   UNL     1      16.023  30.081  55.667  1.00  0.00    -0.504 OA
ATOM     21  H   UNL     1      15.570  29.174  55.685  1.00  0.00     0.293 HD
ENDBRANCH  17  20
ENDBRANCH   1  12
BRANCH   2  22
ATOM     22  O   UNL     1      11.900  33.115  53.030  1.00  0.00    -0.502 OA
ATOM     23  H   UNL     1      11.137  33.422  53.620  1.00  0.00     0.293 HD
ENDBRANCH   2  22
BRANCH   6  24
ATOM     24  O   UNL     1      12.682  36.764  49.231  1.00  0.00    -0.507 OA
ATOM     25  H   UNL     1      12.409  36.147  48.482  1.00  0.00     0.293 HD
ENDBRANCH   6  24
BRANCH   8  26
ATOM     26  O   UNL     1      17.167  38.124  50.271  1.00  0.00    -0.508 OA
ATOM     27  H   UNL     1      17.493  38.248  49.320  1.00  0.00     0.293 HD
ENDBRANCH   8  26
TORSDOF 6
ENDMDL
MODEL 9
REMARK VINA RESULT:    -4.804      1.840      3.015
REMARK INTER + INTRA:          -6.082
REMARK INTER:                  -5.760
REMARK INTRA:                  -0.323
REMARK UNBOUND:                -0.296
REMARK SMILES O=c1c(O)c(-c2ccc(O)c(O)c2)oc2cc(O)cc(O)c12
REMARK SMILES IDX 5 1 3 2 2 3 1 4 22 5 20 6 19 7 17 8 16 9 15 10 14 11 6 12
REMARK SMILES IDX 7 13 8 14 9 15 13 16 11 17 10 18 12 20 4 22 21 24 18 26
REMARK H PARENT 10 19 12 21 4 23 21 25 18 27
REMARK Flexibility Score: inf
ROOT
ATOM      1  C   UNL     1      14.337  35.096  52.168  1.00  0.00     0.180 A 
ATOM      2  C   UNL     1      13.062  34.697  51.730  1.00  0.00     0.208 A 
ATOM      3  C   UNL     1      12.235  33.978  52.607  1.00  0.00     0.238 A 
ATOM      4  O   UNL     1      11.068  33.688  52.236  1.00  0.00    -0.285 OA
ATOM      5  C   UNL     1      12.713  33.617  53.891  1.00  0.00     0.111 A 
ATOM      6  C   UNL     1      11.979  32.850  54.846  1.00  0.00     0.134 A 
ATOM      7  C   UNL     1      12.513  32.644  56.124  1.00  0.00     0.093 A 
ATOM      8  C   UNL     1      13.780  33.123  56.462  1.00  0.00     0.123 A 
ATOM      9  C   UNL     1      14.527  33.825  55.519  1.00  0.00     0.094 A 
ATOM     10  C   UNL     1      14.007  34.079  54.248  1.00  0.00     0.146 A 
ATOM     11  O   UNL     1      14.745  34.771  53.388  1.00  0.00    -0.452 OA
ENDROOT
BRANCH   1  12
ATOM     12  C   UNL     1      15.260  35.869  51.307  1.00  0.00     0.025 A 
ATOM     13  C   UNL     1      15.214  37.272  51.330  1.00  0.00     0.016 A 
ATOM     14  C   UNL     1      16.061  38.022  50.510  1.00  0.00     0.051 A 
ATOM     15  C   UNL     1      16.955  37.380  49.643  1.00  0.00     0.157 A 
ATOM     16  C   UNL     1      16.145  35.228  50.420  1.00  0.00     0.062 A 
ATOM     17  C   UNL     1      16.993  35.981  49.595  1.00  0.00     0.158 A 
BRANCH  15  18
ATOM     18  O   UNL     1      17.802  38.125  48.826  1.00  0.00    -0.504 OA
ATOM     19  H   UNL     1      18.241  37.719  48.008  1.00  0.00     0.293 HD
ENDBRANCH  15  18
BRANCH  17  20
ATOM     20  O   UNL     1      17.875  35.345  48.722  1.00  0.00    -0.504 OA
ATOM     21  H   UNL     1      18.444  34.561  49.021  1.00  0.00     0.293 HD
ENDBRANCH  17  20
ENDBRANCH   1  12
BRANCH   2  22
ATOM     22  O   UNL     1      12.638  34.996  50.433  1.00  0.00    -0.502 OA
ATOM     23  H   UNL     1      12.484  35.945  50.116  1.00  0.00     0.293 HD
ENDBRANCH   2  22
BRANCH   6  24
ATOM     24  O   UNL     1      10.743  32.249  54.584  1.00  0.00    -0.507 OA
ATOM     25  H   UNL     1       9.885  32.459  55.069  1.00  0.00     0.293 HD
ENDBRANCH   6  24
BRANCH   8  26
ATOM     26  O   UNL     1      14.310  32.899  57.731  1.00  0.00    -0.508 OA
ATOM     27  H   UNL     1      14.112  33.522  58.505  1.00  0.00     0.293 HD
ENDBRANCH   8  26
TORSDOF 6
ENDMDL
