MODEL 1
REMARK VINA RESULT:    -4.143      0.000      0.000
REMARK INTER + INTRA:          -7.396
REMARK INTER:                  -7.050
REMARK INTRA:                  -0.346
REMARK UNBOUND:                -0.346
REMARK SMILES CCCCCCCCCCCCCC(=O)[O-]
REMARK SMILES IDX 8 1 9 2 10 3 11 4 12 5 13 6 14 7 15 8 16 9 7 10 6 11 5 12
REMARK SMILES IDX 4 13 3 14 2 15 1 16
REMARK H PARENT
REMARK Flexibility Score: inf
ROOT
ATOM      1  C   UNL     1      -3.212  18.041  13.082  1.00  0.00     0.000 C 
ENDROOT
BRANCH   1   2
ATOM      2  C   UNL     1      -3.752  18.213  14.519  1.00  0.00     0.000 C 
BRANCH   2   3
ATOM      3  C   UNL     1      -5.244  18.588  14.579  1.00  0.00     0.000 C 
BRANCH   3   4
ATOM      4  C   UNL     1      -5.533  20.099  14.666  1.00  0.00     0.000 C 
BRANCH   4   5
ATOM      5  C   UNL     1      -7.016  20.468  14.873  1.00  0.00     0.006 C 
BRANCH   5   6
ATOM      6  C   UNL     1      -7.335  21.959  14.683  1.00  0.00     0.053 C 
BRANCH   6   7
ATOM      7  C   UNL     1      -8.765  22.183  14.298  1.00  0.00     0.041 C 
ATOM      8  O   UNL     1      -9.564  21.212  14.239  1.00  0.00    -0.550 OA
ATOM      9  O   UNL     1      -9.207  23.460  13.973  1.00  0.00    -0.550 OA
ENDBRANCH   6   7
ENDBRANCH   5   6
ENDBRANCH   4   5
ENDBRANCH   3   4
ENDBRANCH   2   3
ENDBRANCH   1   2
BRANCH   1  10
ATOM     10  C   UNL     1      -2.125  16.955  12.988  1.00  0.00     0.000 C 
BRANCH  10  11
ATOM     11  C   UNL     1      -1.772  16.598  11.536  1.00  0.00    -0.000 C 
BRANCH  11  12
ATOM     12  C   UNL     1      -1.196  15.177  11.402  1.00  0.00    -0.000 C 
BRANCH  12  13
ATOM     13  C   UNL     1      -2.234  14.088  11.720  1.00  0.00    -0.000 C 
BRANCH  13  14
ATOM     14  C   UNL     1      -2.644  13.283  10.474  1.00  0.00    -0.000 C 
BRANCH  14  15
ATOM     15  C   UNL     1      -1.691  12.111  10.192  1.00  0.00    -0.003 C 
ATOM     16  C   UNL     1      -1.680  11.703   8.719  1.00  0.00     0.004 C 
ENDBRANCH  14  15
ENDBRANCH  13  14
ENDBRANCH  12  13
ENDBRANCH  11  12
ENDBRANCH  10  11
ENDBRANCH   1  10
TORSDOF 12
ENDMDL
MODEL 2
REMARK VINA RESULT:    -3.894      4.438      9.062
REMARK INTER + INTRA:          -6.973
REMARK INTER:                  -6.349
REMARK INTRA:                  -0.624
REMARK UNBOUND:                -0.346
REMARK SMILES CCCCCCCCCCCCCC(=O)[O-]
REMARK SMILES IDX 8 1 9 2 10 3 11 4 12 5 13 6 14 7 15 8 16 9 7 10 6 11 5 12
REMARK SMILES IDX 4 13 3 14 2 15 1 16
REMARK H PARENT
REMARK Flexibility Score: inf
ROOT
ATOM      1  C   UNL     1      -3.394  18.645  12.906  1.00  0.00     0.000 C 
ENDROOT
BRANCH   1   2
ATOM      2  C   UNL     1      -1.862  18.510  13.053  1.00  0.00     0.000 C 
BRANCH   2   3
ATOM      3  C   UNL     1      -1.429  17.436  14.068  1.00  0.00     0.000 C 
BRANCH   3   4
ATOM      4  C   UNL     1      -0.961  16.106  13.448  1.00  0.00     0.000 C 
BRANCH   4   5
ATOM      5  C   UNL     1      -2.090  15.207  12.904  1.00  0.00     0.006 C 
BRANCH   5   6
ATOM      6  C   UNL     1      -1.903  14.759  11.446  1.00  0.00     0.053 C 
BRANCH   6   7
ATOM      7  C   UNL     1      -2.364  13.351  11.227  1.00  0.00     0.041 C 
ATOM      8  O   UNL     1      -2.605  12.604  12.211  1.00  0.00    -0.550 OA
ATOM      9  O   UNL     1      -2.495  12.854   9.936  1.00  0.00    -0.550 OA
ENDBRANCH   6   7
ENDBRANCH   5   6
ENDBRANCH   4   5
ENDBRANCH   3   4
ENDBRANCH   2   3
ENDBRANCH   1   2
BRANCH   1  10
ATOM     10  C   UNL     1      -4.130  18.484  14.248  1.00  0.00     0.000 C 
BRANCH  10  11
ATOM     11  C   UNL     1      -4.844  19.771  14.687  1.00  0.00    -0.000 C 
BRANCH  11  12
ATOM     12  C   UNL     1      -6.373  19.677  14.541  1.00  0.00    -0.000 C 
BRANCH  12  13
ATOM     13  C   UNL     1      -7.070  21.030  14.755  1.00  0.00    -0.000 C 
BRANCH  13  14
ATOM     14  C   UNL     1      -8.576  20.974  14.443  1.00  0.00    -0.000 C 
BRANCH  14  15
ATOM     15  C   UNL     1      -9.237  22.361  14.483  1.00  0.00    -0.003 C 
ATOM     16  C   UNL     1      -8.280  23.481  14.077  1.00  0.00     0.004 C 
ENDBRANCH  14  15
ENDBRANCH  13  14
ENDBRANCH  12  13
ENDBRANCH  11  12
ENDBRANCH  10  11
ENDBRANCH   1  10
TORSDOF 12
ENDMDL
MODEL 3
REMARK VINA RESULT:    -3.875      4.189      8.688
REMARK INTER + INTRA:          -6.940
REMARK INTER:                  -6.415
REMARK INTRA:                  -0.525
REMARK UNBOUND:                -0.346
REMARK SMILES CCCCCCCCCCCCCC(=O)[O-]
REMARK SMILES IDX 8 1 9 2 10 3 11 4 12 5 13 6 14 7 15 8 16 9 7 10 6 11 5 12
REMARK SMILES IDX 4 13 3 14 2 15 1 16
REMARK H PARENT
REMARK Flexibility Score: inf
ROOT
ATOM      1  C   UNL     1      -2.531  17.919  12.605  1.00  0.00     0.000 C 
ENDROOT
BRANCH   1   2
ATOM      2  C   UNL     1      -1.304  17.700  13.516  1.00  0.00     0.000 C 
BRANCH   2   3
ATOM      3  C   UNL     1      -0.189  16.862  12.865  1.00  0.00     0.000 C 
BRANCH   3   4
ATOM      4  C   UNL     1      -0.654  15.929  11.730  1.00  0.00     0.000 C 
BRANCH   4   5
ATOM      5  C   UNL     1      -1.395  14.658  12.193  1.00  0.00     0.006 C 
BRANCH   5   6
ATOM      6  C   UNL     1      -2.213  13.960  11.096  1.00  0.00     0.053 C 
BRANCH   6   7
ATOM      7  C   UNL     1      -3.111  12.899  11.653  1.00  0.00     0.041 C 
ATOM      8  O   UNL     1      -3.662  12.068  10.884  1.00  0.00    -0.550 OA
ATOM      9  O   UNL     1      -3.367  12.849  13.018  1.00  0.00    -0.550 OA
ENDBRANCH   6   7
ENDBRANCH   5   6
ENDBRANCH   4   5
ENDBRANCH   3   4
ENDBRANCH   2   3
ENDBRANCH   1   2
BRANCH   1  10
ATOM     10  C   UNL     1      -3.686  18.629  13.335  1.00  0.00     0.000 C 
BRANCH  10  11
ATOM     11  C   UNL     1      -4.068  17.933  14.650  1.00  0.00    -0.000 C 
BRANCH  11  12
ATOM     12  C   UNL     1      -5.484  18.307  15.125  1.00  0.00    -0.000 C 
BRANCH  12  13
ATOM     13  C   UNL     1      -5.779  19.808  14.974  1.00  0.00    -0.000 C 
BRANCH  13  14
ATOM     14  C   UNL     1      -7.286  20.117  14.991  1.00  0.00    -0.000 C 
BRANCH  14  15
ATOM     15  C   UNL     1      -7.611  21.496  14.394  1.00  0.00    -0.003 C 
ATOM     16  C   UNL     1      -9.097  21.841  14.483  1.00  0.00     0.004 C 
ENDBRANCH  14  15
ENDBRANCH  13  14
ENDBRANCH  12  13
ENDBRANCH  11  12
ENDBRANCH  10  11
ENDBRANCH   1  10
TORSDOF 12
ENDMDL
MODEL 4
REMARK VINA RESULT:    -3.729      4.494      8.846
REMARK INTER + INTRA:          -6.691
REMARK INTER:                  -6.023
REMARK INTRA:                  -0.669
REMARK UNBOUND:                -0.346
REMARK SMILES CCCCCCCCCCCCCC(=O)[O-]
REMARK SMILES IDX 8 1 9 2 10 3 11 4 12 5 13 6 14 7 15 8 16 9 7 10 6 11 5 12
REMARK SMILES IDX 4 13 3 14 2 15 1 16
REMARK H PARENT
REMARK Flexibility Score: inf
ROOT
ATOM      1  C   UNL     1      -2.016  16.349  12.748  1.00  0.00     0.000 C 
ENDROOT
BRANCH   1   2
ATOM      2  C   UNL     1      -1.709  15.575  11.448  1.00  0.00     0.000 C 
BRANCH   2   3
ATOM      3  C   UNL     1      -0.959  14.249  11.678  1.00  0.00     0.000 C 
BRANCH   3   4
ATOM      4  C   UNL     1      -1.528  13.039  10.915  1.00  0.00     0.000 C 
BRANCH   4   5
ATOM      5  C   UNL     1      -3.067  12.990  10.822  1.00  0.00     0.006 C 
BRANCH   5   6
ATOM      6  C   UNL     1      -3.760  12.363  12.042  1.00  0.00     0.053 C 
BRANCH   6   7
ATOM      7  C   UNL     1      -4.375  11.036  11.718  1.00  0.00     0.041 C 
ATOM      8  O   UNL     1      -5.627  10.918  11.649  1.00  0.00    -0.550 OA
ATOM      9  O   UNL     1      -3.567   9.923  11.526  1.00  0.00    -0.550 OA
ENDBRANCH   6   7
ENDBRANCH   5   6
ENDBRANCH   4   5
ENDBRANCH   3   4
ENDBRANCH   2   3
ENDBRANCH   1   2
BRANCH   1  10
ATOM     10  C   UNL     1      -2.292  17.842  12.492  1.00  0.00     0.000 C 
BRANCH  10  11
ATOM     11  C   UNL     1      -2.958  18.533  13.692  1.00  0.00    -0.000 C 
BRANCH  11  12
ATOM     12  C   UNL     1      -3.903  17.594  14.463  1.00  0.00    -0.000 C 
BRANCH  12  13
ATOM     13  C   UNL     1      -5.200  18.293  14.901  1.00  0.00    -0.000 C 
BRANCH  13  14
ATOM     14  C   UNL     1      -5.473  19.580  14.103  1.00  0.00    -0.000 C 
BRANCH  14  15
ATOM     15  C   UNL     1      -6.037  20.708  14.981  1.00  0.00    -0.003 C 
ATOM     16  C   UNL     1      -7.560  20.811  14.902  1.00  0.00     0.004 C 
ENDBRANCH  14  15
ENDBRANCH  13  14
ENDBRANCH  12  13
ENDBRANCH  11  12
ENDBRANCH  10  11
ENDBRANCH   1  10
TORSDOF 12
ENDMDL
MODEL 5
REMARK VINA RESULT:    -3.725      4.961      8.937
REMARK INTER + INTRA:          -6.684
REMARK INTER:                  -5.905
REMARK INTRA:                  -0.779
REMARK UNBOUND:                -0.346
REMARK SMILES CCCCCCCCCCCCCC(=O)[O-]
REMARK SMILES IDX 8 1 9 2 10 3 11 4 12 5 13 6 14 7 15 8 16 9 7 10 6 11 5 12
REMARK SMILES IDX 4 13 3 14 2 15 1 16
REMARK H PARENT
REMARK Flexibility Score: inf
ROOT
ATOM      1  C   UNL     1      -2.175  17.206  12.267  1.00  0.00     0.000 C 
ENDROOT
BRANCH   1   2
ATOM      2  C   UNL     1      -0.771  16.621  12.534  1.00  0.00     0.000 C 
BRANCH   2   3
ATOM      3  C   UNL     1      -0.793  15.246  13.227  1.00  0.00     0.000 C 
BRANCH   3   4
ATOM      4  C   UNL     1      -0.885  14.038  12.276  1.00  0.00     0.000 C 
BRANCH   4   5
ATOM      5  C   UNL     1      -2.302  13.458  12.093  1.00  0.00     0.006 C 
BRANCH   5   6
ATOM      6  C   UNL     1      -2.756  13.328  10.631  1.00  0.00     0.053 C 
BRANCH   6   7
ATOM      7  C   UNL     1      -2.361  12.012  10.035  1.00  0.00     0.041 C 
ATOM      8  O   UNL     1      -1.828  11.968   8.895  1.00  0.00    -0.550 OA
ATOM      9  O   UNL     1      -2.610  10.832  10.724  1.00  0.00    -0.550 OA
ENDBRANCH   6   7
ENDBRANCH   5   6
ENDBRANCH   4   5
ENDBRANCH   3   4
ENDBRANCH   2   3
ENDBRANCH   1   2
BRANCH   1  10
ATOM     10  C   UNL     1      -2.328  18.639  12.807  1.00  0.00     0.000 C 
BRANCH  10  11
ATOM     11  C   UNL     1      -2.898  18.674  14.233  1.00  0.00    -0.000 C 
BRANCH  11  12
ATOM     12  C   UNL     1      -4.019  17.641  14.445  1.00  0.00    -0.000 C 
BRANCH  12  13
ATOM     13  C   UNL     1      -5.312  18.276  14.981  1.00  0.00    -0.000 C 
BRANCH  13  14
ATOM     14  C   UNL     1      -5.571  19.673  14.391  1.00  0.00    -0.000 C 
BRANCH  14  15
ATOM     15  C   UNL     1      -6.886  20.289  14.893  1.00  0.00    -0.003 C 
ATOM     16  C   UNL     1      -6.966  21.794  14.639  1.00  0.00     0.004 C 
ENDBRANCH  14  15
ENDBRANCH  13  14
ENDBRANCH  12  13
ENDBRANCH  11  12
ENDBRANCH  10  11
ENDBRANCH   1  10
TORSDOF 12
ENDMDL
MODEL 6
REMARK VINA RESULT:    -3.723      2.865      4.710
REMARK INTER + INTRA:          -6.682
REMARK INTER:                  -5.273
REMARK INTRA:                  -1.408
REMARK UNBOUND:                -0.346
REMARK SMILES CCCCCCCCCCCCCC(=O)[O-]
REMARK SMILES IDX 8 1 9 2 10 3 11 4 12 5 13 6 14 7 15 8 16 9 7 10 6 11 5 12
REMARK SMILES IDX 4 13 3 14 2 15 1 16
REMARK H PARENT
REMARK Flexibility Score: inf
ROOT
ATOM      1  C   UNL     1      -0.237  15.000  11.795  1.00  0.00     0.000 C 
ENDROOT
BRANCH   1   2
ATOM      2  C   UNL     1      -1.678  15.350  11.366  1.00  0.00     0.000 C 
BRANCH   2   3
ATOM      3  C   UNL     1      -2.087  16.800  11.686  1.00  0.00     0.000 C 
BRANCH   3   4
ATOM      4  C   UNL     1      -1.299  17.460  12.833  1.00  0.00     0.000 C 
BRANCH   4   5
ATOM      5  C   UNL     1      -2.094  18.490  13.662  1.00  0.00     0.006 C 
BRANCH   5   6
ATOM      6  C   UNL     1      -3.527  18.739  13.166  1.00  0.00     0.053 C 
BRANCH   6   7
ATOM      7  C   UNL     1      -4.550  18.370  14.196  1.00  0.00     0.041 C 
ATOM      8  O   UNL     1      -4.433  17.301  14.850  1.00  0.00    -0.550 OA
ATOM      9  O   UNL     1      -5.651  19.191  14.410  1.00  0.00    -0.550 OA
ENDBRANCH   6   7
ENDBRANCH   5   6
ENDBRANCH   4   5
ENDBRANCH   3   4
ENDBRANCH   2   3
ENDBRANCH   1   2
BRANCH   1  10
ATOM     10  C   UNL     1      -0.087  13.525  12.208  1.00  0.00     0.000 C 
BRANCH  10  11
ATOM     11  C   UNL     1      -0.160  12.567  11.009  1.00  0.00    -0.000 C 
BRANCH  11  12
ATOM     12  C   UNL     1      -1.173  11.428  11.225  1.00  0.00    -0.000 C 
BRANCH  12  13
ATOM     13  C   UNL     1      -2.480  11.645  10.445  1.00  0.00    -0.000 C 
BRANCH  13  14
ATOM     14  C   UNL     1      -3.583  12.281  11.309  1.00  0.00    -0.000 C 
BRANCH  14  15
ATOM     15  C   UNL     1      -3.449  11.916  12.795  1.00  0.00    -0.003 C 
ATOM     16  C   UNL     1      -3.648  13.118  13.717  1.00  0.00     0.004 C 
ENDBRANCH  14  15
ENDBRANCH  13  14
ENDBRANCH  12  13
ENDBRANCH  11  12
ENDBRANCH  10  11
ENDBRANCH   1  10
TORSDOF 12
ENDMDL
MODEL 7
REMARK VINA RESULT:    -3.710      3.592      5.870
REMARK INTER + INTRA:          -6.660
REMARK INTER:                  -4.660
REMARK INTRA:                  -2.000
REMARK UNBOUND:                -0.346
REMARK SMILES CCCCCCCCCCCCCC(=O)[O-]
REMARK SMILES IDX 8 1 9 2 10 3 11 4 12 5 13 6 14 7 15 8 16 9 7 10 6 11 5 12
REMARK SMILES IDX 4 13 3 14 2 15 1 16
REMARK H PARENT
REMARK Flexibility Score: inf
ROOT
ATOM      1  C   UNL     1      -2.880  13.218  10.634  1.00  0.00     0.000 C 
ENDROOT
BRANCH   1   2
ATOM      2  C   UNL     1      -1.626  13.936  11.180  1.00  0.00     0.000 C 
BRANCH   2   3
ATOM      3  C   UNL     1      -1.915  15.329  11.768  1.00  0.00     0.000 C 
BRANCH   3   4
ATOM      4  C   UNL     1      -0.801  15.902  12.664  1.00  0.00     0.000 C 
BRANCH   4   5
ATOM      5  C   UNL     1      -1.289  16.815  13.807  1.00  0.00     0.006 C 
BRANCH   5   6
ATOM      6  C   UNL     1      -2.815  16.974  13.891  1.00  0.00     0.053 C 
BRANCH   6   7
ATOM      7  C   UNL     1      -3.273  18.300  13.366  1.00  0.00     0.041 C 
ATOM      8  O   UNL     1      -4.448  18.695  13.582  1.00  0.00    -0.550 OA
ATOM      9  O   UNL     1      -2.411  19.084  12.610  1.00  0.00    -0.550 OA
ENDBRANCH   6   7
ENDBRANCH   5   6
ENDBRANCH   4   5
ENDBRANCH   3   4
ENDBRANCH   2   3
ENDBRANCH   1   2
BRANCH   1  10
ATOM     10  C   UNL     1      -2.822  11.694  10.839  1.00  0.00     0.000 C 
BRANCH  10  11
ATOM     11  C   UNL     1      -4.099  11.137  11.487  1.00  0.00    -0.000 C 
BRANCH  11  12
ATOM     12  C   UNL     1      -4.739  12.129  12.475  1.00  0.00    -0.000 C 
BRANCH  12  13
ATOM     13  C   UNL     1      -4.161  12.004  13.893  1.00  0.00    -0.000 C 
BRANCH  13  14
ATOM     14  C   UNL     1      -3.591  13.333  14.417  1.00  0.00    -0.000 C 
BRANCH  14  15
ATOM     15  C   UNL     1      -2.133  13.203  14.885  1.00  0.00    -0.003 C 
ATOM     16  C   UNL     1      -1.435  11.974  14.305  1.00  0.00     0.004 C 
ENDBRANCH  14  15
ENDBRANCH  13  14
ENDBRANCH  12  13
ENDBRANCH  11  12
ENDBRANCH  10  11
ENDBRANCH   1  10
TORSDOF 12
ENDMDL
MODEL 8
REMARK VINA RESULT:    -3.700      6.287      8.825
REMARK INTER + INTRA:          -6.641
REMARK INTER:                  -5.001
REMARK INTRA:                  -1.640
REMARK UNBOUND:                -0.346
REMARK SMILES CCCCCCCCCCCCCC(=O)[O-]
REMARK SMILES IDX 8 1 9 2 10 3 11 4 12 5 13 6 14 7 15 8 16 9 7 10 6 11 5 12
REMARK SMILES IDX 4 13 3 14 2 15 1 16
REMARK H PARENT
REMARK Flexibility Score: inf
ROOT
ATOM      1  C   UNL     1      -3.022  13.764  14.335  1.00  0.00     0.000 C 
ENDROOT
BRANCH   1   2
ATOM      2  C   UNL     1      -3.965  12.736  13.672  1.00  0.00     0.000 C 
BRANCH   2   3
ATOM      3  C   UNL     1      -3.301  11.919  12.549  1.00  0.00     0.000 C 
BRANCH   3   4
ATOM      4  C   UNL     1      -3.659  12.366  11.119  1.00  0.00     0.000 C 
BRANCH   4   5
ATOM      5  C   UNL     1      -2.467  12.859  10.272  1.00  0.00     0.006 C 
BRANCH   5   6
ATOM      6  C   UNL     1      -1.374  11.806  10.035  1.00  0.00     0.053 C 
BRANCH   6   7
ATOM      7  C   UNL     1      -1.488  11.173   8.682  1.00  0.00     0.041 C 
ATOM      8  O   UNL     1      -1.397   9.923   8.559  1.00  0.00    -0.550 OA
ATOM      9  O   UNL     1      -1.661  11.965   7.554  1.00  0.00    -0.550 OA
ENDBRANCH   6   7
ENDBRANCH   5   6
ENDBRANCH   4   5
ENDBRANCH   3   4
ENDBRANCH   2   3
ENDBRANCH   1   2
BRANCH   1  10
ATOM     10  C   UNL     1      -1.584  13.234  14.481  1.00  0.00     0.000 C 
BRANCH  10  11
ATOM     11  C   UNL     1      -0.528  14.279  14.087  1.00  0.00    -0.000 C 
BRANCH  11  12
ATOM     12  C   UNL     1      -0.329  14.370  12.563  1.00  0.00    -0.000 C 
BRANCH  12  13
ATOM     13  C   UNL     1      -0.345  15.820  12.053  1.00  0.00    -0.000 C 
BRANCH  13  14
ATOM     14  C   UNL     1      -1.733  16.253  11.552  1.00  0.00    -0.000 C 
BRANCH  14  15
ATOM     15  C   UNL     1      -2.337  17.386  12.396  1.00  0.00    -0.003 C 
ATOM     16  C   UNL     1      -1.309  18.048  13.313  1.00  0.00     0.004 C 
ENDBRANCH  14  15
ENDBRANCH  13  14
ENDBRANCH  12  13
ENDBRANCH  11  12
ENDBRANCH  10  11
ENDBRANCH   1  10
TORSDOF 12
ENDMDL
MODEL 9
REMARK VINA RESULT:    -3.561      3.632      5.631
REMARK INTER + INTRA:          -6.406
REMARK INTER:                  -5.092
REMARK INTRA:                  -1.314
REMARK UNBOUND:                -0.346
REMARK SMILES CCCCCCCCCCCCCC(=O)[O-]
REMARK SMILES IDX 8 1 9 2 10 3 11 4 12 5 13 6 14 7 15 8 16 9 7 10 6 11 5 12
REMARK SMILES IDX 4 13 3 14 2 15 1 16
REMARK H PARENT
REMARK Flexibility Score: inf
ROOT
ATOM      1  C   UNL     1      -3.224  12.876  10.777  1.00  0.00     0.000 C 
ENDROOT
BRANCH   1   2
ATOM      2  C   UNL     1      -2.488  14.221  10.591  1.00  0.00     0.000 C 
BRANCH   2   3
ATOM      3  C   UNL     1      -1.508  14.555  11.731  1.00  0.00     0.000 C 
BRANCH   3   4
ATOM      4  C   UNL     1      -0.935  15.984  11.699  1.00  0.00     0.000 C 
BRANCH   4   5
ATOM      5  C   UNL     1      -1.885  17.079  12.227  1.00  0.00     0.006 C 
BRANCH   5   6
ATOM      6  C   UNL     1      -2.517  16.773  13.594  1.00  0.00     0.053 C 
BRANCH   6   7
ATOM      7  C   UNL     1      -3.681  17.668  13.888  1.00  0.00     0.041 C 
ATOM      8  O   UNL     1      -4.465  17.396  14.835  1.00  0.00    -0.550 OA
ATOM      9  O   UNL     1      -3.919  18.784  13.096  1.00  0.00    -0.550 OA
ENDBRANCH   6   7
ENDBRANCH   5   6
ENDBRANCH   4   5
ENDBRANCH   3   4
ENDBRANCH   2   3
ENDBRANCH   1   2
BRANCH   1  10
ATOM     10  C   UNL     1      -2.898  12.209  12.125  1.00  0.00     0.000 C 
BRANCH  10  11
ATOM     11  C   UNL     1      -3.185  10.700  12.120  1.00  0.00    -0.000 C 
BRANCH  11  12
ATOM     12  C   UNL     1      -2.033   9.882  11.509  1.00  0.00    -0.000 C 
BRANCH  12  13
ATOM     13  C   UNL     1      -0.694  10.636  11.540  1.00  0.00    -0.000 C 
BRANCH  13  14
ATOM     14  C   UNL     1      -0.050  10.751  10.148  1.00  0.00    -0.000 C 
BRANCH  14  15
ATOM     15  C   UNL     1      -1.000  10.313   9.022  1.00  0.00    -0.003 C 
ATOM     16  C   UNL     1      -1.293  11.437   8.029  1.00  0.00     0.004 C 
ENDBRANCH  14  15
ENDBRANCH  13  14
ENDBRANCH  12  13
ENDBRANCH  11  12
ENDBRANCH  10  11
ENDBRANCH   1  10
TORSDOF 12
ENDMDL
