MODEL 1
REMARK VINA RESULT:    -6.322      0.000      0.000
REMARK INTER + INTRA:          -7.574
REMARK INTER:                  -7.431
REMARK INTRA:                  -0.143
REMARK UNBOUND:                -0.143
REMARK SMILES O=C([O-])C=Cc1ccc(O)c(O)c1
REMARK SMILES IDX 6 1 13 2 7 3 11 4 8 5 9 6 5 7 4 8 2 9 1 10 3 11 12 12 10 14
REMARK H PARENT 12 13 10 15
REMARK Flexibility Score: inf
ROOT
ATOM      1  C   UNL     1     -24.319 -22.471 -13.696  1.00  0.00    -0.022 A 
ATOM      2  C   UNL     1     -23.583 -23.649 -13.907  1.00  0.00     0.058 A 
ATOM      3  C   UNL     1     -25.643 -22.403 -14.174  1.00  0.00     0.012 A 
ATOM      4  C   UNL     1     -24.142 -24.730 -14.603  1.00  0.00     0.157 A 
ATOM      5  C   UNL     1     -26.200 -23.480 -14.867  1.00  0.00     0.051 A 
ATOM      6  C   UNL     1     -25.458 -24.642 -15.087  1.00  0.00     0.157 A 
ENDROOT
BRANCH   1   7
ATOM      7  C   UNL     1     -23.684 -21.361 -12.944  1.00  0.00     0.010 C 
ATOM      8  C   UNL     1     -24.349 -20.289 -12.493  1.00  0.00     0.025 C 
BRANCH   8   9
ATOM      9  C   UNL     1     -23.675 -19.205 -11.761  1.00  0.00     0.064 C 
ATOM     10  O   UNL     1     -22.931 -19.484 -10.786  1.00  0.00    -0.545 OA
ATOM     11  O   UNL     1     -23.845 -17.876 -12.131  1.00  0.00    -0.545 OA
ENDBRANCH   8   9
ENDBRANCH   1   7
BRANCH   4  12
ATOM     12  O   UNL     1     -23.396 -25.889 -14.814  1.00  0.00    -0.504 OA
ATOM     13  H   UNL     1     -22.422 -25.850 -15.091  1.00  0.00     0.293 HD
ENDBRANCH   4  12
BRANCH   6  14
ATOM     14  O   UNL     1     -26.041 -25.699 -15.785  1.00  0.00    -0.504 OA
ATOM     15  H   UNL     1     -26.914 -26.122 -15.491  1.00  0.00     0.293 HD
ENDBRANCH   6  14
TORSDOF 4
ENDMDL
MODEL 2
REMARK VINA RESULT:    -6.294      1.276      2.114
REMARK INTER + INTRA:          -7.540
REMARK INTER:                  -7.407
REMARK INTRA:                  -0.133
REMARK UNBOUND:                -0.143
REMARK SMILES O=C([O-])C=Cc1ccc(O)c(O)c1
REMARK SMILES IDX 6 1 13 2 7 3 11 4 8 5 9 6 5 7 4 8 2 9 1 10 3 11 12 12 10 14
REMARK H PARENT 12 13 10 15
REMARK Flexibility Score: inf
ROOT
ATOM      1  C   UNL     1     -24.083 -22.061 -13.481  1.00  0.00    -0.022 A 
ATOM      2  C   UNL     1     -25.055 -22.183 -14.489  1.00  0.00     0.058 A 
ATOM      3  C   UNL     1     -23.521 -23.232 -12.935  1.00  0.00     0.012 A 
ATOM      4  C   UNL     1     -25.480 -23.445 -14.928  1.00  0.00     0.157 A 
ATOM      5  C   UNL     1     -23.944 -24.489 -13.372  1.00  0.00     0.051 A 
ATOM      6  C   UNL     1     -24.922 -24.604 -14.363  1.00  0.00     0.157 A 
ENDROOT
BRANCH   1   7
ATOM      7  C   UNL     1     -23.661 -20.702 -13.062  1.00  0.00     0.010 C 
ATOM      8  C   UNL     1     -24.039 -19.579 -13.686  1.00  0.00     0.025 C 
BRANCH   8   9
ATOM      9  C   UNL     1     -23.586 -18.251 -13.242  1.00  0.00     0.064 C 
ATOM     10  O   UNL     1     -23.942 -17.819 -12.115  1.00  0.00    -0.545 OA
ATOM     11  O   UNL     1     -22.767 -17.466 -14.046  1.00  0.00    -0.545 OA
ENDBRANCH   8   9
ENDBRANCH   1   7
BRANCH   4  12
ATOM     12  O   UNL     1     -26.453 -23.551 -15.921  1.00  0.00    -0.504 OA
ATOM     13  H   UNL     1     -27.309 -23.011 -15.885  1.00  0.00     0.293 HD
ENDBRANCH   4  12
BRANCH   6  14
ATOM     14  O   UNL     1     -25.326 -25.873 -14.776  1.00  0.00    -0.504 OA
ATOM     15  H   UNL     1     -25.540 -26.082 -15.744  1.00  0.00     0.293 HD
ENDBRANCH   6  14
TORSDOF 4
ENDMDL
MODEL 3
REMARK VINA RESULT:    -6.090      1.307      2.172
REMARK INTER + INTRA:          -7.301
REMARK INTER:                  -7.171
REMARK INTRA:                  -0.130
REMARK UNBOUND:                -0.143
REMARK SMILES O=C([O-])C=Cc1ccc(O)c(O)c1
REMARK SMILES IDX 6 1 13 2 7 3 11 4 8 5 9 6 5 7 4 8 2 9 1 10 3 11 12 12 10 14
REMARK H PARENT 12 13 10 15
REMARK Flexibility Score: inf
ROOT
ATOM      1  C   UNL     1     -24.451 -22.294 -13.350  1.00  0.00    -0.022 A 
ATOM      2  C   UNL     1     -25.528 -22.523 -14.224  1.00  0.00     0.058 A 
ATOM      3  C   UNL     1     -23.472 -23.297 -13.203  1.00  0.00     0.012 A 
ATOM      4  C   UNL     1     -25.644 -23.736 -14.918  1.00  0.00     0.157 A 
ATOM      5  C   UNL     1     -23.587 -24.505 -13.895  1.00  0.00     0.051 A 
ATOM      6  C   UNL     1     -24.669 -24.732 -14.749  1.00  0.00     0.157 A 
ENDROOT
BRANCH   1   7
ATOM      7  C   UNL     1     -24.370 -20.990 -12.648  1.00  0.00     0.010 C 
ATOM      8  C   UNL     1     -25.406 -20.414 -12.025  1.00  0.00     0.025 C 
BRANCH   8   9
ATOM      9  C   UNL     1     -25.283 -19.111 -11.351  1.00  0.00     0.064 C 
ATOM     10  O   UNL     1     -24.477 -18.255 -11.799  1.00  0.00    -0.545 OA
ATOM     11  O   UNL     1     -26.045 -18.809 -10.229  1.00  0.00    -0.545 OA
ENDBRANCH   8   9
ENDBRANCH   1   7
BRANCH   4  12
ATOM     12  O   UNL     1     -26.724 -23.953 -15.773  1.00  0.00    -0.504 OA
ATOM     13  H   UNL     1     -26.598 -24.349 -16.697  1.00  0.00     0.293 HD
ENDBRANCH   4  12
BRANCH   6  14
ATOM     14  O   UNL     1     -24.758 -25.949 -15.424  1.00  0.00    -0.504 OA
ATOM     15  H   UNL     1     -25.005 -26.005 -16.405  1.00  0.00     0.293 HD
ENDBRANCH   6  14
TORSDOF 4
ENDMDL
MODEL 4
REMARK VINA RESULT:    -5.866      2.143      5.997
REMARK INTER + INTRA:          -7.038
REMARK INTER:                  -6.907
REMARK INTRA:                  -0.131
REMARK UNBOUND:                -0.143
REMARK SMILES O=C([O-])C=Cc1ccc(O)c(O)c1
REMARK SMILES IDX 6 1 13 2 7 3 11 4 8 5 9 6 5 7 4 8 2 9 1 10 3 11 12 12 10 14
REMARK H PARENT 12 13 10 15
REMARK Flexibility Score: inf
ROOT
ATOM      1  C   UNL     1     -24.072 -20.761 -13.786  1.00  0.00    -0.022 A 
ATOM      2  C   UNL     1     -25.180 -19.976 -14.145  1.00  0.00     0.058 A 
ATOM      3  C   UNL     1     -22.818 -20.136 -13.631  1.00  0.00     0.012 A 
ATOM      4  C   UNL     1     -25.041 -18.599 -14.371  1.00  0.00     0.157 A 
ATOM      5  C   UNL     1     -22.680 -18.764 -13.856  1.00  0.00     0.051 A 
ATOM      6  C   UNL     1     -23.783 -17.992 -14.229  1.00  0.00     0.157 A 
ENDROOT
BRANCH   1   7
ATOM      7  C   UNL     1     -24.275 -22.211 -13.547  1.00  0.00     0.010 C 
ATOM      8  C   UNL     1     -23.609 -23.174 -14.197  1.00  0.00     0.025 C 
BRANCH   8   9
ATOM      9  C   UNL     1     -23.852 -24.602 -13.936  1.00  0.00     0.064 C 
ATOM     10  O   UNL     1     -23.424 -25.463 -14.748  1.00  0.00    -0.545 OA
ATOM     11  O   UNL     1     -24.546 -25.016 -12.805  1.00  0.00    -0.545 OA
ENDBRANCH   8   9
ENDBRANCH   1   7
BRANCH   4  12
ATOM     12  O   UNL     1     -26.148 -17.834 -14.738  1.00  0.00    -0.504 OA
ATOM     13  H   UNL     1     -27.094 -18.182 -14.629  1.00  0.00     0.293 HD
ENDBRANCH   4  12
BRANCH   6  14
ATOM     14  O   UNL     1     -23.613 -16.626 -14.449  1.00  0.00    -0.504 OA
ATOM     15  H   UNL     1     -23.111 -16.034 -13.798  1.00  0.00     0.293 HD
ENDBRANCH   6  14
TORSDOF 4
ENDMDL
MODEL 5
REMARK VINA RESULT:    -5.738      1.562      5.934
REMARK INTER + INTRA:          -6.888
REMARK INTER:                  -6.757
REMARK INTRA:                  -0.130
REMARK UNBOUND:                -0.143
REMARK SMILES O=C([O-])C=Cc1ccc(O)c(O)c1
REMARK SMILES IDX 6 1 13 2 7 3 11 4 8 5 9 6 5 7 4 8 2 9 1 10 3 11 12 12 10 14
REMARK H PARENT 12 13 10 15
REMARK Flexibility Score: inf
ROOT
ATOM      1  C   UNL     1     -23.975 -20.895 -12.776  1.00  0.00    -0.022 A 
ATOM      2  C   UNL     1     -23.200 -20.137 -13.671  1.00  0.00     0.058 A 
ATOM      3  C   UNL     1     -24.747 -20.221 -11.808  1.00  0.00     0.012 A 
ATOM      4  C   UNL     1     -23.170 -18.738 -13.587  1.00  0.00     0.157 A 
ATOM      5  C   UNL     1     -24.718 -18.827 -11.726  1.00  0.00     0.051 A 
ATOM      6  C   UNL     1     -23.932 -18.081 -12.607  1.00  0.00     0.157 A 
ENDROOT
BRANCH   1   7
ATOM      7  C   UNL     1     -23.980 -22.372 -12.915  1.00  0.00     0.010 C 
ATOM      8  C   UNL     1     -24.259 -23.012 -14.058  1.00  0.00     0.025 C 
BRANCH   8   9
ATOM      9  C   UNL     1     -24.263 -24.481 -14.146  1.00  0.00     0.064 C 
ATOM     10  O   UNL     1     -24.336 -25.166 -13.093  1.00  0.00    -0.545 OA
ATOM     11  O   UNL     1     -24.192 -25.126 -15.375  1.00  0.00    -0.545 OA
ENDBRANCH   8   9
ENDBRANCH   1   7
BRANCH   4  12
ATOM     12  O   UNL     1     -22.388 -18.000 -14.475  1.00  0.00    -0.504 OA
ATOM     13  H   UNL     1     -22.734 -17.153 -14.911  1.00  0.00     0.293 HD
ENDBRANCH   4  12
BRANCH   6  14
ATOM     14  O   UNL     1     -23.922 -16.691 -12.498  1.00  0.00    -0.504 OA
ATOM     15  H   UNL     1     -23.243 -16.200 -11.929  1.00  0.00     0.293 HD
ENDBRANCH   6  14
TORSDOF 4
ENDMDL
MODEL 6
REMARK VINA RESULT:    -5.630      2.806      3.602
REMARK INTER + INTRA:          -6.760
REMARK INTER:                  -6.630
REMARK INTRA:                  -0.129
REMARK UNBOUND:                -0.143
REMARK SMILES O=C([O-])C=Cc1ccc(O)c(O)c1
REMARK SMILES IDX 6 1 13 2 7 3 11 4 8 5 9 6 5 7 4 8 2 9 1 10 3 11 12 12 10 14
REMARK H PARENT 12 13 10 15
REMARK Flexibility Score: inf
ROOT
ATOM      1  C   UNL     1     -24.997 -19.436 -13.577  1.00  0.00    -0.022 A 
ATOM      2  C   UNL     1     -24.892 -20.188 -14.760  1.00  0.00     0.058 A 
ATOM      3  C   UNL     1     -25.407 -20.085 -12.395  1.00  0.00     0.012 A 
ATOM      4  C   UNL     1     -25.213 -21.553 -14.774  1.00  0.00     0.157 A 
ATOM      5  C   UNL     1     -25.726 -21.445 -12.409  1.00  0.00     0.051 A 
ATOM      6  C   UNL     1     -25.635 -22.183 -13.592  1.00  0.00     0.157 A 
ENDROOT
BRANCH   1   7
ATOM      7  C   UNL     1     -24.635 -17.998 -13.615  1.00  0.00     0.010 C 
ATOM      8  C   UNL     1     -23.551 -17.519 -14.238  1.00  0.00     0.025 C 
BRANCH   8   9
ATOM      9  C   UNL     1     -23.223 -16.084 -14.239  1.00  0.00     0.064 C 
ATOM     10  O   UNL     1     -22.018 -15.723 -14.209  1.00  0.00    -0.545 OA
ATOM     11  O   UNL     1     -24.224 -15.120 -14.275  1.00  0.00    -0.545 OA
ENDBRANCH   8   9
ENDBRANCH   1   7
BRANCH   4  12
ATOM     12  O   UNL     1     -25.114 -22.284 -15.958  1.00  0.00    -0.504 OA
ATOM     13  H   UNL     1     -24.231 -22.667 -16.273  1.00  0.00     0.293 HD
ENDBRANCH   4  12
BRANCH   6  14
ATOM     14  O   UNL     1     -25.963 -23.538 -13.574  1.00  0.00    -0.504 OA
ATOM     15  H   UNL     1     -26.319 -24.016 -14.393  1.00  0.00     0.293 HD
ENDBRANCH   6  14
TORSDOF 4
ENDMDL
MODEL 7
REMARK VINA RESULT:    -5.591      1.243      6.010
REMARK INTER + INTRA:          -6.715
REMARK INTER:                  -6.586
REMARK INTRA:                  -0.129
REMARK UNBOUND:                -0.143
REMARK SMILES O=C([O-])C=Cc1ccc(O)c(O)c1
REMARK SMILES IDX 6 1 13 2 7 3 11 4 8 5 9 6 5 7 4 8 2 9 1 10 3 11 12 12 10 14
REMARK H PARENT 12 13 10 15
REMARK Flexibility Score: inf
ROOT
ATOM      1  C   UNL     1     -23.770 -21.416 -13.099  1.00  0.00    -0.022 A 
ATOM      2  C   UNL     1     -24.728 -20.932 -12.192  1.00  0.00     0.058 A 
ATOM      3  C   UNL     1     -22.845 -20.510 -13.656  1.00  0.00     0.012 A 
ATOM      4  C   UNL     1     -24.785 -19.570 -11.866  1.00  0.00     0.157 A 
ATOM      5  C   UNL     1     -22.901 -19.153 -13.331  1.00  0.00     0.051 A 
ATOM      6  C   UNL     1     -23.867 -18.676 -12.442  1.00  0.00     0.157 A 
ENDROOT
BRANCH   1   7
ATOM      7  C   UNL     1     -23.747 -22.868 -13.401  1.00  0.00     0.010 C 
ATOM      8  C   UNL     1     -24.300 -23.411 -14.494  1.00  0.00     0.025 C 
BRANCH   8   9
ATOM      9  C   UNL     1     -24.264 -24.860 -14.748  1.00  0.00     0.064 C 
ATOM     10  O   UNL     1     -23.194 -25.496 -14.561  1.00  0.00    -0.545 OA
ATOM     11  O   UNL     1     -25.393 -25.540 -15.187  1.00  0.00    -0.545 OA
ENDBRANCH   8   9
ENDBRANCH   1   7
BRANCH   4  12
ATOM     12  O   UNL     1     -25.749 -19.102 -10.974  1.00  0.00    -0.504 OA
ATOM     13  H   UNL     1     -25.538 -18.954  -9.994  1.00  0.00     0.293 HD
ENDBRANCH   4  12
BRANCH   6  14
ATOM     14  O   UNL     1     -23.899 -17.315 -12.139  1.00  0.00    -0.504 OA
ATOM     15  H   UNL     1     -23.097 -16.830 -11.755  1.00  0.00     0.293 HD
ENDBRANCH   6  14
TORSDOF 4
ENDMDL
MODEL 8
REMARK VINA RESULT:    -5.508      3.260      4.510
REMARK INTER + INTRA:          -6.616
REMARK INTER:                  -6.483
REMARK INTRA:                  -0.134
REMARK UNBOUND:                -0.143
REMARK SMILES O=C([O-])C=Cc1ccc(O)c(O)c1
REMARK SMILES IDX 6 1 13 2 7 3 11 4 8 5 9 6 5 7 4 8 2 9 1 10 3 11 12 12 10 14
REMARK H PARENT 12 13 10 15
REMARK Flexibility Score: inf
ROOT
ATOM      1  C   UNL     1     -24.377 -18.512 -13.143  1.00  0.00    -0.022 A 
ATOM      2  C   UNL     1     -24.509 -19.220 -14.349  1.00  0.00     0.058 A 
ATOM      3  C   UNL     1     -24.729 -19.152 -11.938  1.00  0.00     0.012 A 
ATOM      4  C   UNL     1     -25.008 -20.531 -14.361  1.00  0.00     0.157 A 
ATOM      5  C   UNL     1     -25.225 -20.458 -11.950  1.00  0.00     0.051 A 
ATOM      6  C   UNL     1     -25.369 -21.151 -13.155  1.00  0.00     0.157 A 
ENDROOT
BRANCH   1   7
ATOM      7  C   UNL     1     -23.835 -17.132 -13.185  1.00  0.00     0.010 C 
ATOM      8  C   UNL     1     -23.866 -16.352 -14.273  1.00  0.00     0.025 C 
BRANCH   8   9
ATOM      9  C   UNL     1     -23.305 -14.991 -14.273  1.00  0.00     0.064 C 
ATOM     10  O   UNL     1     -22.262 -14.751 -13.610  1.00  0.00    -0.545 OA
ATOM     11  O   UNL     1     -23.905 -13.967 -14.995  1.00  0.00    -0.545 OA
ENDBRANCH   8   9
ENDBRANCH   1   7
BRANCH   4  12
ATOM     12  O   UNL     1     -25.144 -21.218 -15.567  1.00  0.00    -0.504 OA
ATOM     13  H   UNL     1     -24.437 -21.164 -16.291  1.00  0.00     0.293 HD
ENDBRANCH   4  12
BRANCH   6  14
ATOM     14  O   UNL     1     -25.869 -22.452 -13.134  1.00  0.00    -0.504 OA
ATOM     15  H   UNL     1     -26.575 -22.769 -13.789  1.00  0.00     0.293 HD
ENDBRANCH   6  14
TORSDOF 4
ENDMDL
