MODEL 1
REMARK VINA RESULT:    -6.140      0.000      0.000
REMARK INTER + INTRA:         -12.751
REMARK INTER:                 -11.165
REMARK INTRA:                  -1.585
REMARK UNBOUND:                -1.585
REMARK SMILES CCCCCCCCCCCCCC[C@@H](C)C(=O)[O-]
REMARK SMILES IDX 9 1 10 2 11 3 12 4 13 5 14 6 15 7 16 8 17 9 18 10 19 11 8 12
REMARK SMILES IDX 7 13 6 14 5 15 4 16 3 17 2 18 1 19
REMARK H PARENT
REMARK Flexibility Score: inf
ROOT
ATOM      1  C   UNL     1       5.977   7.610  15.227  1.00  0.00     0.000 C 
ENDROOT
BRANCH   1   2
ATOM      2  C   UNL     1       6.175   7.240  13.745  1.00  0.00     0.000 C 
BRANCH   2   3
ATOM      3  C   UNL     1       4.928   6.601  13.116  1.00  0.00     0.000 C 
BRANCH   3   4
ATOM      4  C   UNL     1       5.013   5.066  13.049  1.00  0.00     0.000 C 
BRANCH   4   5
ATOM      5  C   UNL     1       3.766   4.351  13.612  1.00  0.00     0.001 C 
BRANCH   5   6
ATOM      6  C   UNL     1       4.066   3.611  14.929  1.00  0.00     0.009 C 
BRANCH   6   7
ATOM      7  C   UNL     1       4.378   2.115  14.714  1.00  0.00     0.032 C 
ATOM      8  C   UNL     1       5.361   1.571  15.760  1.00  0.00     0.014 C 
BRANCH   7   9
ATOM      9  C   UNL     1       3.103   1.319  14.759  1.00  0.00     0.044 C 
ATOM     10  O   UNL     1       2.172   1.659  15.534  1.00  0.00    -0.550 OA
ATOM     11  O   UNL     1       2.945   0.201  13.949  1.00  0.00    -0.550 OA
ENDBRANCH   7   9
ENDBRANCH   6   7
ENDBRANCH   5   6
ENDBRANCH   4   5
ENDBRANCH   3   4
ENDBRANCH   2   3
ENDBRANCH   1   2
BRANCH   1  12
ATOM     12  C   UNL     1       4.532   7.481  15.752  1.00  0.00     0.000 C 
BRANCH  12  13
ATOM     13  C   UNL     1       3.963   8.742  16.427  1.00  0.00    -0.000 C 
BRANCH  13  14
ATOM     14  C   UNL     1       3.137   8.428  17.683  1.00  0.00    -0.000 C 
BRANCH  14  15
ATOM     15  C   UNL     1       2.745   6.944  17.723  1.00  0.00    -0.000 C 
BRANCH  15  16
ATOM     16  C   UNL     1       2.163   6.514  19.081  1.00  0.00    -0.000 C 
BRANCH  16  17
ATOM     17  C   UNL     1       2.529   5.085  19.529  1.00  0.00    -0.000 C 
BRANCH  17  18
ATOM     18  C   UNL     1       2.761   4.083  18.385  1.00  0.00    -0.003 C 
ATOM     19  C   UNL     1       3.360   2.760  18.864  1.00  0.00     0.004 C 
ENDBRANCH  17  18
ENDBRANCH  16  17
ENDBRANCH  15  16
ENDBRANCH  14  15
ENDBRANCH  13  14
ENDBRANCH  12  13
ENDBRANCH   1  12
TORSDOF 14
ENDMDL
MODEL 2
REMARK VINA RESULT:    -6.053      1.171      1.887
REMARK INTER + INTRA:         -12.593
REMARK INTER:                 -11.149
REMARK INTRA:                  -1.445
REMARK UNBOUND:                -1.585
REMARK SMILES CCCCCCCCCCCCCC[C@@H](C)C(=O)[O-]
REMARK SMILES IDX 9 1 10 2 11 3 12 4 13 5 14 6 15 7 16 8 17 9 18 10 19 11 8 12
REMARK SMILES IDX 7 13 6 14 5 15 4 16 3 17 2 18 1 19
REMARK H PARENT
REMARK Flexibility Score: inf
ROOT
ATOM      1  C   UNL     1       4.495   7.609  15.880  1.00  0.00     0.000 C 
ENDROOT
BRANCH   1   2
ATOM      2  C   UNL     1       5.901   7.658  15.253  1.00  0.00     0.000 C 
BRANCH   2   3
ATOM      3  C   UNL     1       5.878   8.023  13.760  1.00  0.00     0.000 C 
BRANCH   3   4
ATOM      4  C   UNL     1       4.879   7.174  12.954  1.00  0.00     0.000 C 
BRANCH   4   5
ATOM      5  C   UNL     1       5.258   5.680  12.875  1.00  0.00     0.001 C 
BRANCH   5   6
ATOM      6  C   UNL     1       4.050   4.761  13.136  1.00  0.00     0.009 C 
BRANCH   6   7
ATOM      7  C   UNL     1       4.198   3.933  14.430  1.00  0.00     0.032 C 
ATOM      8  C   UNL     1       3.020   4.143  15.391  1.00  0.00     0.014 C 
BRANCH   7   9
ATOM      9  C   UNL     1       4.317   2.473  14.089  1.00  0.00     0.044 C 
ATOM     10  O   UNL     1       3.895   1.600  14.892  1.00  0.00    -0.550 OA
ATOM     11  O   UNL     1       4.897   2.078  12.890  1.00  0.00    -0.550 OA
ENDBRANCH   7   9
ENDBRANCH   6   7
ENDBRANCH   5   6
ENDBRANCH   4   5
ENDBRANCH   3   4
ENDBRANCH   2   3
ENDBRANCH   1   2
BRANCH   1  12
ATOM     12  C   UNL     1       3.889   8.979  16.250  1.00  0.00     0.000 C 
BRANCH  12  13
ATOM     13  C   UNL     1       3.860   9.299  17.756  1.00  0.00    -0.000 C 
BRANCH  13  14
ATOM     14  C   UNL     1       2.437   9.317  18.336  1.00  0.00    -0.000 C 
BRANCH  14  15
ATOM     15  C   UNL     1       2.238   8.166  19.331  1.00  0.00    -0.000 C 
BRANCH  15  16
ATOM     16  C   UNL     1       2.262   6.781  18.659  1.00  0.00    -0.000 C 
BRANCH  16  17
ATOM     17  C   UNL     1       2.257   5.581  19.628  1.00  0.00    -0.000 C 
BRANCH  17  18
ATOM     18  C   UNL     1       2.625   4.229  18.991  1.00  0.00    -0.003 C 
ATOM     19  C   UNL     1       1.896   3.051  19.637  1.00  0.00     0.004 C 
ENDBRANCH  17  18
ENDBRANCH  16  17
ENDBRANCH  15  16
ENDBRANCH  14  15
ENDBRANCH  13  14
ENDBRANCH  12  13
ENDBRANCH   1  12
TORSDOF 14
ENDMDL
MODEL 3
REMARK VINA RESULT:    -6.023      1.838      5.179
REMARK INTER + INTRA:         -12.538
REMARK INTER:                 -11.443
REMARK INTRA:                  -1.095
REMARK UNBOUND:                -1.585
REMARK SMILES CCCCCCCCCCCCCC[C@@H](C)C(=O)[O-]
REMARK SMILES IDX 9 1 10 2 11 3 12 4 13 5 14 6 15 7 16 8 17 9 18 10 19 11 8 12
REMARK SMILES IDX 7 13 6 14 5 15 4 16 3 17 2 18 1 19
REMARK H PARENT
REMARK Flexibility Score: inf
ROOT
ATOM      1  C   UNL     1       4.443   8.757  16.972  1.00  0.00     0.000 C 
ENDROOT
BRANCH   1   2
ATOM      2  C   UNL     1       3.002   9.184  17.311  1.00  0.00     0.000 C 
BRANCH   2   3
ATOM      3  C   UNL     1       2.787   9.424  18.814  1.00  0.00     0.000 C 
BRANCH   3   4
ATOM      4  C   UNL     1       2.227   8.188  19.541  1.00  0.00     0.000 C 
BRANCH   4   5
ATOM      5  C   UNL     1       2.113   6.939  18.641  1.00  0.00     0.001 C 
BRANCH   5   6
ATOM      6  C   UNL     1       2.285   5.633  19.439  1.00  0.00     0.009 C 
BRANCH   6   7
ATOM      7  C   UNL     1       2.009   4.374  18.589  1.00  0.00     0.032 C 
ATOM      8  C   UNL     1       2.775   4.391  17.259  1.00  0.00     0.014 C 
BRANCH   7   9
ATOM      9  C   UNL     1       2.381   3.143  19.369  1.00  0.00     0.044 C 
ATOM     10  O   UNL     1       1.599   2.688  20.244  1.00  0.00    -0.550 OA
ATOM     11  O   UNL     1       3.592   2.503  19.134  1.00  0.00    -0.550 OA
ENDBRANCH   7   9
ENDBRANCH   6   7
ENDBRANCH   5   6
ENDBRANCH   4   5
ENDBRANCH   3   4
ENDBRANCH   2   3
ENDBRANCH   1   2
BRANCH   1  12
ATOM     12  C   UNL     1       4.574   7.714  15.843  1.00  0.00     0.000 C 
BRANCH  12  13
ATOM     13  C   UNL     1       5.268   8.215  14.563  1.00  0.00    -0.000 C 
BRANCH  13  14
ATOM     14  C   UNL     1       5.398   7.125  13.488  1.00  0.00    -0.000 C 
BRANCH  14  15
ATOM     15  C   UNL     1       4.841   5.788  13.995  1.00  0.00    -0.000 C 
BRANCH  15  16
ATOM     16  C   UNL     1       4.191   4.948  12.880  1.00  0.00    -0.000 C 
BRANCH  16  17
ATOM     17  C   UNL     1       4.432   3.428  12.978  1.00  0.00    -0.000 C 
BRANCH  17  18
ATOM     18  C   UNL     1       4.028   2.790  14.319  1.00  0.00    -0.003 C 
ATOM     19  C   UNL     1       4.785   1.495  14.612  1.00  0.00     0.004 C 
ENDBRANCH  17  18
ENDBRANCH  16  17
ENDBRANCH  15  16
ENDBRANCH  14  15
ENDBRANCH  13  14
ENDBRANCH  12  13
ENDBRANCH   1  12
TORSDOF 14
ENDMDL
MODEL 4
REMARK VINA RESULT:    -5.998      2.060      4.146
REMARK INTER + INTRA:         -12.493
REMARK INTER:                 -11.020
REMARK INTRA:                  -1.473
REMARK UNBOUND:                -1.585
REMARK SMILES CCCCCCCCCCCCCC[C@@H](C)C(=O)[O-]
REMARK SMILES IDX 9 1 10 2 11 3 12 4 13 5 14 6 15 7 16 8 17 9 18 10 19 11 8 12
REMARK SMILES IDX 7 13 6 14 5 15 4 16 3 17 2 18 1 19
REMARK H PARENT
REMARK Flexibility Score: inf
ROOT
ATOM      1  C   UNL     1       4.656   5.389  14.189  1.00  0.00     0.000 C 
ENDROOT
BRANCH   1   2
ATOM      2  C   UNL     1       3.880   4.264  13.479  1.00  0.00     0.000 C 
BRANCH   2   3
ATOM      3  C   UNL     1       4.508   2.878  13.693  1.00  0.00     0.000 C 
BRANCH   3   4
ATOM      4  C   UNL     1       4.432   2.407  15.156  1.00  0.00     0.000 C 
BRANCH   4   5
ATOM      5  C   UNL     1       3.020   2.521  15.770  1.00  0.00     0.001 C 
BRANCH   5   6
ATOM      6  C   UNL     1       3.052   2.475  17.309  1.00  0.00     0.009 C 
BRANCH   6   7
ATOM      7  C   UNL     1       3.132   3.879  17.946  1.00  0.00     0.032 C 
ATOM      8  C   UNL     1       2.485   4.955  17.064  1.00  0.00     0.014 C 
BRANCH   7   9
ATOM      9  C   UNL     1       2.465   3.864  19.294  1.00  0.00     0.044 C 
ATOM     10  O   UNL     1       2.982   4.479  20.263  1.00  0.00    -0.550 OA
ATOM     11  O   UNL     1       1.277   3.167  19.480  1.00  0.00    -0.550 OA
ENDBRANCH   7   9
ENDBRANCH   6   7
ENDBRANCH   5   6
ENDBRANCH   4   5
ENDBRANCH   3   4
ENDBRANCH   2   3
ENDBRANCH   1   2
BRANCH   1  12
ATOM     12  C   UNL     1       5.258   6.464  13.261  1.00  0.00     0.000 C 
BRANCH  12  13
ATOM     13  C   UNL     1       5.846   7.695  13.974  1.00  0.00    -0.000 C 
BRANCH  13  14
ATOM     14  C   UNL     1       5.552   7.709  15.482  1.00  0.00    -0.000 C 
BRANCH  14  15
ATOM     15  C   UNL     1       4.449   8.723  15.814  1.00  0.00    -0.000 C 
BRANCH  15  16
ATOM     16  C   UNL     1       3.629   8.331  17.057  1.00  0.00    -0.000 C 
BRANCH  16  17
ATOM     17  C   UNL     1       2.990   9.509  17.821  1.00  0.00    -0.000 C 
BRANCH  17  18
ATOM     18  C   UNL     1       2.467   9.165  19.227  1.00  0.00    -0.003 C 
ATOM     19  C   UNL     1       2.032   7.706  19.359  1.00  0.00     0.004 C 
ENDBRANCH  17  18
ENDBRANCH  16  17
ENDBRANCH  15  16
ENDBRANCH  14  15
ENDBRANCH  13  14
ENDBRANCH  12  13
ENDBRANCH   1  12
TORSDOF 14
ENDMDL
MODEL 5
REMARK VINA RESULT:    -5.923      1.455      4.427
REMARK INTER + INTRA:         -12.356
REMARK INTER:                 -11.100
REMARK INTRA:                  -1.255
REMARK UNBOUND:                -1.585
REMARK SMILES CCCCCCCCCCCCCC[C@@H](C)C(=O)[O-]
REMARK SMILES IDX 9 1 10 2 11 3 12 4 13 5 14 6 15 7 16 8 17 9 18 10 19 11 8 12
REMARK SMILES IDX 7 13 6 14 5 15 4 16 3 17 2 18 1 19
REMARK H PARENT
REMARK Flexibility Score: inf
ROOT
ATOM      1  C   UNL     1       2.181   6.873  18.796  1.00  0.00     0.000 C 
ENDROOT
BRANCH   1   2
ATOM      2  C   UNL     1       2.400   5.572  19.593  1.00  0.00     0.000 C 
BRANCH   2   3
ATOM      3  C   UNL     1       2.627   4.350  18.691  1.00  0.00     0.000 C 
BRANCH   3   4
ATOM      4  C   UNL     1       2.296   4.629  17.214  1.00  0.00     0.000 C 
BRANCH   4   5
ATOM      5  C   UNL     1       3.441   4.266  16.243  1.00  0.00     0.001 C 
BRANCH   5   6
ATOM      6  C   UNL     1       3.016   3.197  15.219  1.00  0.00     0.009 C 
BRANCH   6   7
ATOM      7  C   UNL     1       3.023   1.771  15.808  1.00  0.00     0.032 C 
ATOM      8  C   UNL     1       2.688   0.706  14.755  1.00  0.00     0.014 C 
BRANCH   7   9
ATOM      9  C   UNL     1       4.369   1.477  16.412  1.00  0.00     0.044 C 
ATOM     10  O   UNL     1       4.487   1.335  17.657  1.00  0.00    -0.550 OA
ATOM     11  O   UNL     1       5.492   1.366  15.600  1.00  0.00    -0.550 OA
ENDBRANCH   7   9
ENDBRANCH   6   7
ENDBRANCH   5   6
ENDBRANCH   4   5
ENDBRANCH   3   4
ENDBRANCH   2   3
ENDBRANCH   1   2
BRANCH   1  12
ATOM     12  C   UNL     1       2.249   8.173  19.624  1.00  0.00     0.000 C 
BRANCH  12  13
ATOM     13  C   UNL     1       2.771   9.408  18.867  1.00  0.00    -0.000 C 
BRANCH  13  14
ATOM     14  C   UNL     1       2.915   9.167  17.357  1.00  0.00    -0.000 C 
BRANCH  14  15
ATOM     15  C   UNL     1       4.351   8.754  17.003  1.00  0.00    -0.000 C 
BRANCH  15  16
ATOM     16  C   UNL     1       4.517   8.372  15.521  1.00  0.00    -0.000 C 
BRANCH  16  17
ATOM     17  C   UNL     1       5.820   7.621  15.179  1.00  0.00    -0.000 C 
BRANCH  17  18
ATOM     18  C   UNL     1       5.999   7.272  13.691  1.00  0.00    -0.003 C 
ATOM     19  C   UNL     1       5.168   6.063  13.260  1.00  0.00     0.004 C 
ENDBRANCH  17  18
ENDBRANCH  16  17
ENDBRANCH  15  16
ENDBRANCH  14  15
ENDBRANCH  13  14
ENDBRANCH  12  13
ENDBRANCH   1  12
TORSDOF 14
ENDMDL
MODEL 6
REMARK VINA RESULT:    -5.911      1.245      4.250
REMARK INTER + INTRA:         -12.334
REMARK INTER:                 -10.983
REMARK INTRA:                  -1.351
REMARK UNBOUND:                -1.585
REMARK SMILES CCCCCCCCCCCCCC[C@@H](C)C(=O)[O-]
REMARK SMILES IDX 9 1 10 2 11 3 12 4 13 5 14 6 15 7 16 8 17 9 18 10 19 11 8 12
REMARK SMILES IDX 7 13 6 14 5 15 4 16 3 17 2 18 1 19
REMARK H PARENT
REMARK Flexibility Score: inf
ROOT
ATOM      1  C   UNL     1       2.002   6.368  18.522  1.00  0.00     0.000 C 
ENDROOT
BRANCH   1   2
ATOM      2  C   UNL     1       2.576   5.359  19.534  1.00  0.00     0.000 C 
BRANCH   2   3
ATOM      3  C   UNL     1       2.829   3.974  18.919  1.00  0.00     0.000 C 
BRANCH   3   4
ATOM      4  C   UNL     1       2.936   4.013  17.385  1.00  0.00     0.000 C 
BRANCH   4   5
ATOM      5  C   UNL     1       3.521   2.723  16.771  1.00  0.00     0.001 C 
BRANCH   5   6
ATOM      6  C   UNL     1       2.631   2.159  15.648  1.00  0.00     0.009 C 
BRANCH   6   7
ATOM      7  C   UNL     1       3.257   0.935  14.947  1.00  0.00     0.032 C 
ATOM      8  C   UNL     1       4.587   0.517  15.589  1.00  0.00     0.014 C 
BRANCH   7   9
ATOM      9  C   UNL     1       2.294  -0.219  14.984  1.00  0.00     0.044 C 
ATOM     10  O   UNL     1       2.699  -1.370  15.294  1.00  0.00    -0.550 OA
ATOM     11  O   UNL     1       0.954  -0.025  14.671  1.00  0.00    -0.550 OA
ENDBRANCH   7   9
ENDBRANCH   6   7
ENDBRANCH   5   6
ENDBRANCH   4   5
ENDBRANCH   3   4
ENDBRANCH   2   3
ENDBRANCH   1   2
BRANCH   1  12
ATOM     12  C   UNL     1       2.193   7.854  18.891  1.00  0.00     0.000 C 
BRANCH  12  13
ATOM     13  C   UNL     1       2.998   8.686  17.876  1.00  0.00    -0.000 C 
BRANCH  13  14
ATOM     14  C   UNL     1       3.704   7.822  16.820  1.00  0.00    -0.000 C 
BRANCH  14  15
ATOM     15  C   UNL     1       4.526   8.693  15.861  1.00  0.00    -0.000 C 
BRANCH  15  16
ATOM     16  C   UNL     1       5.265   7.871  14.789  1.00  0.00    -0.000 C 
BRANCH  16  17
ATOM     17  C   UNL     1       4.905   6.372  14.747  1.00  0.00    -0.000 C 
BRANCH  17  18
ATOM     18  C   UNL     1       4.926   5.737  13.346  1.00  0.00    -0.003 C 
ATOM     19  C   UNL     1       4.216   4.384  13.297  1.00  0.00     0.004 C 
ENDBRANCH  17  18
ENDBRANCH  16  17
ENDBRANCH  15  16
ENDBRANCH  14  15
ENDBRANCH  13  14
ENDBRANCH  12  13
ENDBRANCH   1  12
TORSDOF 14
ENDMDL
MODEL 7
REMARK VINA RESULT:    -5.871      2.985      5.342
REMARK INTER + INTRA:         -12.262
REMARK INTER:                 -11.067
REMARK INTRA:                  -1.195
REMARK UNBOUND:                -1.585
REMARK SMILES CCCCCCCCCCCCCC[C@@H](C)C(=O)[O-]
REMARK SMILES IDX 9 1 10 2 11 3 12 4 13 5 14 6 15 7 16 8 17 9 18 10 19 11 8 12
REMARK SMILES IDX 7 13 6 14 5 15 4 16 3 17 2 18 1 19
REMARK H PARENT
REMARK Flexibility Score: inf
ROOT
ATOM      1  C   UNL     1       3.282   3.118  16.487  1.00  0.00     0.000 C 
ENDROOT
BRANCH   1   2
ATOM      2  C   UNL     1       3.677   3.103  14.998  1.00  0.00     0.000 C 
BRANCH   2   3
ATOM      3  C   UNL     1       3.264   4.385  14.257  1.00  0.00     0.000 C 
BRANCH   3   4
ATOM      4  C   UNL     1       4.124   4.656  13.010  1.00  0.00     0.000 C 
BRANCH   4   5
ATOM      5  C   UNL     1       5.184   5.760  13.216  1.00  0.00     0.001 C 
BRANCH   5   6
ATOM      6  C   UNL     1       5.166   6.319  14.651  1.00  0.00     0.009 C 
BRANCH   6   7
ATOM      7  C   UNL     1       5.914   7.664  14.775  1.00  0.00     0.032 C 
ATOM      8  C   UNL     1       7.052   7.792  13.753  1.00  0.00     0.014 C 
BRANCH   7   9
ATOM      9  C   UNL     1       4.947   8.801  14.599  1.00  0.00     0.044 C 
ATOM     10  O   UNL     1       4.170   9.122  15.536  1.00  0.00    -0.550 OA
ATOM     11  O   UNL     1       4.900   9.502  13.399  1.00  0.00    -0.550 OA
ENDBRANCH   7   9
ENDBRANCH   6   7
ENDBRANCH   5   6
ENDBRANCH   4   5
ENDBRANCH   3   4
ENDBRANCH   2   3
ENDBRANCH   1   2
BRANCH   1  12
ATOM     12  C   UNL     1       3.982   2.061  17.366  1.00  0.00     0.000 C 
BRANCH  12  13
ATOM     13  C   UNL     1       3.661   2.140  18.870  1.00  0.00    -0.000 C 
BRANCH  13  14
ATOM     14  C   UNL     1       2.496   3.090  19.184  1.00  0.00    -0.000 C 
BRANCH  14  15
ATOM     15  C   UNL     1       2.997   4.352  19.900  1.00  0.00    -0.000 C 
BRANCH  15  16
ATOM     16  C   UNL     1       2.121   5.587  19.619  1.00  0.00    -0.000 C 
BRANCH  16  17
ATOM     17  C   UNL     1       2.344   6.251  18.245  1.00  0.00    -0.000 C 
BRANCH  17  18
ATOM     18  C   UNL     1       2.646   7.759  18.292  1.00  0.00    -0.003 C 
ATOM     19  C   UNL     1       2.026   8.452  19.506  1.00  0.00     0.004 C 
ENDBRANCH  17  18
ENDBRANCH  16  17
ENDBRANCH  15  16
ENDBRANCH  14  15
ENDBRANCH  13  14
ENDBRANCH  12  13
ENDBRANCH   1  12
TORSDOF 14
ENDMDL
MODEL 8
REMARK VINA RESULT:    -5.829      2.344      4.158
REMARK INTER + INTRA:         -12.185
REMARK INTER:                 -10.940
REMARK INTRA:                  -1.245
REMARK UNBOUND:                -1.585
REMARK SMILES CCCCCCCCCCCCCC[C@@H](C)C(=O)[O-]
REMARK SMILES IDX 9 1 10 2 11 3 12 4 13 5 14 6 15 7 16 8 17 9 18 10 19 11 8 12
REMARK SMILES IDX 7 13 6 14 5 15 4 16 3 17 2 18 1 19
REMARK H PARENT
REMARK Flexibility Score: inf
ROOT
ATOM      1  C   UNL     1       2.970   3.875  16.306  1.00  0.00     0.000 C 
ENDROOT
BRANCH   1   2
ATOM      2  C   UNL     1       4.053   4.307  15.298  1.00  0.00     0.000 C 
BRANCH   2   3
ATOM      3  C   UNL     1       3.864   3.676  13.910  1.00  0.00     0.000 C 
BRANCH   3   4
ATOM      4  C   UNL     1       4.792   2.472  13.671  1.00  0.00     0.000 C 
BRANCH   4   5
ATOM      5  C   UNL     1       4.172   1.120  14.086  1.00  0.00     0.001 C 
BRANCH   5   6
ATOM      6  C   UNL     1       5.016   0.399  15.154  1.00  0.00     0.009 C 
BRANCH   6   7
ATOM      7  C   UNL     1       4.158  -0.439  16.127  1.00  0.00     0.032 C 
ATOM      8  C   UNL     1       3.590  -1.700  15.461  1.00  0.00     0.014 C 
BRANCH   7   9
ATOM      9  C   UNL     1       4.981  -0.827  17.324  1.00  0.00     0.044 C 
ATOM     10  O   UNL     1       5.015  -0.081  18.337  1.00  0.00    -0.550 OA
ATOM     11  O   UNL     1       5.713  -2.009  17.318  1.00  0.00    -0.550 OA
ENDBRANCH   7   9
ENDBRANCH   6   7
ENDBRANCH   5   6
ENDBRANCH   4   5
ENDBRANCH   3   4
ENDBRANCH   2   3
ENDBRANCH   1   2
BRANCH   1  12
ATOM     12  C   UNL     1       3.420   2.833  17.351  1.00  0.00     0.000 C 
BRANCH  12  13
ATOM     13  C   UNL     1       2.998   3.132  18.801  1.00  0.00    -0.000 C 
BRANCH  13  14
ATOM     14  C   UNL     1       1.891   4.193  18.895  1.00  0.00    -0.000 C 
BRANCH  14  15
ATOM     15  C   UNL     1       2.429   5.491  19.512  1.00  0.00    -0.000 C 
BRANCH  15  16
ATOM     16  C   UNL     1       2.119   6.734  18.659  1.00  0.00    -0.000 C 
BRANCH  16  17
ATOM     17  C   UNL     1       2.133   8.074  19.422  1.00  0.00    -0.000 C 
BRANCH  17  18
ATOM     18  C   UNL     1       2.318   9.323  18.541  1.00  0.00    -0.003 C 
ATOM     19  C   UNL     1       3.272   9.088  17.370  1.00  0.00     0.004 C 
ENDBRANCH  17  18
ENDBRANCH  16  17
ENDBRANCH  15  16
ENDBRANCH  14  15
ENDBRANCH  13  14
ENDBRANCH  12  13
ENDBRANCH   1  12
TORSDOF 14
ENDMDL
MODEL 9
REMARK VINA RESULT:    -5.829      2.013      4.445
REMARK INTER + INTRA:         -12.185
REMARK INTER:                 -10.940
REMARK INTRA:                  -1.245
REMARK UNBOUND:                -1.585
REMARK SMILES CCCCCCCCCCCCCC[C@@H](C)C(=O)[O-]
REMARK SMILES IDX 9 1 10 2 11 3 12 4 13 5 14 6 15 7 16 8 17 9 18 10 19 11 8 12
REMARK SMILES IDX 7 13 6 14 5 15 4 16 3 17 2 18 1 19
REMARK H PARENT
REMARK Flexibility Score: inf
ROOT
ATOM      1  C   UNL     1       2.530   5.397  19.327  1.00  0.00     0.000 C 
ENDROOT
BRANCH   1   2
ATOM      2  C   UNL     1       2.568   4.247  18.303  1.00  0.00     0.000 C 
BRANCH   2   3
ATOM      3  C   UNL     1       2.959   4.715  16.892  1.00  0.00     0.000 C 
BRANCH   3   4
ATOM      4  C   UNL     1       3.662   3.618  16.073  1.00  0.00     0.000 C 
BRANCH   4   5
ATOM      5  C   UNL     1       3.357   2.187  16.564  1.00  0.00     0.001 C 
BRANCH   5   6
ATOM      6  C   UNL     1       4.469   1.193  16.177  1.00  0.00     0.009 C 
BRANCH   6   7
ATOM      7  C   UNL     1       5.178   0.584  17.405  1.00  0.00     0.032 C 
ATOM      8  C   UNL     1       4.481   0.955  18.721  1.00  0.00     0.014 C 
BRANCH   7   9
ATOM      9  C   UNL     1       5.233  -0.913  17.269  1.00  0.00     0.044 C 
ATOM     10  O   UNL     1       4.642  -1.484  16.315  1.00  0.00    -0.550 OA
ATOM     11  O   UNL     1       5.931  -1.677  18.197  1.00  0.00    -0.550 OA
ENDBRANCH   7   9
ENDBRANCH   6   7
ENDBRANCH   5   6
ENDBRANCH   4   5
ENDBRANCH   3   4
ENDBRANCH   2   3
ENDBRANCH   1   2
BRANCH   1  12
ATOM     12  C   UNL     1       1.834   6.687  18.846  1.00  0.00     0.000 C 
BRANCH  12  13
ATOM     13  C   UNL     1       2.200   7.962  19.626  1.00  0.00    -0.000 C 
BRANCH  13  14
ATOM     14  C   UNL     1       2.250   9.214  18.738  1.00  0.00    -0.000 C 
BRANCH  14  15
ATOM     15  C   UNL     1       3.626   9.357  18.072  1.00  0.00    -0.000 C 
BRANCH  15  16
ATOM     16  C   UNL     1       3.672   8.754  16.656  1.00  0.00    -0.000 C 
BRANCH  16  17
ATOM     17  C   UNL     1       5.074   8.338  16.166  1.00  0.00    -0.000 C 
BRANCH  17  18
ATOM     18  C   UNL     1       5.084   7.318  15.014  1.00  0.00    -0.003 C 
ATOM     19  C   UNL     1       6.425   7.262  14.281  1.00  0.00     0.004 C 
ENDBRANCH  17  18
ENDBRANCH  16  17
ENDBRANCH  15  16
ENDBRANCH  14  15
ENDBRANCH  13  14
ENDBRANCH  12  13
ENDBRANCH   1  12
TORSDOF 14
ENDMDL
