MODEL 1
REMARK VINA RESULT:    -3.332      0.000      0.000
REMARK INTER + INTRA:          -4.429
REMARK INTER:                  -4.306
REMARK INTRA:                  -0.123
REMARK UNBOUND:                -0.123
REMARK SMILES CCCCCCC(=O)[O-]
REMARK SMILES IDX 5 1 6 2 7 3 8 4 9 5 4 6 3 7 2 8 1 9
REMARK H PARENT
REMARK Flexibility Score: inf
ROOT
ATOM      1  C   UNL     1      58.996  37.065  55.030  1.00  0.00     0.006 C 
ENDROOT
BRANCH   1   2
ATOM      2  C   UNL     1      57.830  37.200  54.045  1.00  0.00     0.053 C 
BRANCH   2   3
ATOM      3  C   UNL     1      57.809  36.044  53.097  1.00  0.00     0.041 C 
ATOM      4  O   UNL     1      57.625  34.875  53.527  1.00  0.00    -0.550 OA
ATOM      5  O   UNL     1      57.944  36.262  51.731  1.00  0.00    -0.550 OA
ENDBRANCH   2   3
ENDBRANCH   1   2
BRANCH   1   6
ATOM      6  C   UNL     1      58.936  38.159  56.105  1.00  0.00     0.000 C 
BRANCH   6   7
ATOM      7  C   UNL     1      59.453  37.683  57.475  1.00  0.00    -0.000 C 
BRANCH   7   8
ATOM      8  C   UNL     1      58.654  38.202  58.684  1.00  0.00    -0.003 C 
ATOM      9  C   UNL     1      58.045  39.584  58.449  1.00  0.00     0.004 C 
ENDBRANCH   7   8
ENDBRANCH   6   7
ENDBRANCH   1   6
TORSDOF 5
ENDMDL
MODEL 2
REMARK VINA RESULT:    -3.328      3.690      5.372
REMARK INTER + INTRA:          -4.423
REMARK INTER:                  -4.264
REMARK INTRA:                  -0.159
REMARK UNBOUND:                -0.123
REMARK SMILES CCCCCCC(=O)[O-]
REMARK SMILES IDX 5 1 6 2 7 3 8 4 9 5 4 6 3 7 2 8 1 9
REMARK H PARENT
REMARK Flexibility Score: inf
ROOT
ATOM      1  C   UNL     1      58.932  38.245  56.194  1.00  0.00     0.006 C 
ENDROOT
BRANCH   1   2
ATOM      2  C   UNL     1      59.001  37.845  57.671  1.00  0.00     0.053 C 
BRANCH   2   3
ATOM      3  C   UNL     1      59.406  39.013  58.512  1.00  0.00     0.041 C 
ATOM      4  O   UNL     1      60.506  39.000  59.125  1.00  0.00    -0.550 OA
ATOM      5  O   UNL     1      58.592  40.137  58.580  1.00  0.00    -0.550 OA
ENDBRANCH   2   3
ENDBRANCH   1   2
BRANCH   1   6
ATOM      6  C   UNL     1      59.674  37.229  55.314  1.00  0.00     0.000 C 
BRANCH   6   7
ATOM      7  C   UNL     1      58.726  36.380  54.447  1.00  0.00    -0.000 C 
BRANCH   7   8
ATOM      8  C   UNL     1      57.486  37.125  53.925  1.00  0.00    -0.003 C 
ATOM      9  C   UNL     1      57.302  36.994  52.413  1.00  0.00     0.004 C 
ENDBRANCH   7   8
ENDBRANCH   6   7
ENDBRANCH   1   6
TORSDOF 5
ENDMDL
MODEL 3
REMARK VINA RESULT:    -3.177     10.565     11.397
REMARK INTER + INTRA:          -4.228
REMARK INTER:                  -4.051
REMARK INTRA:                  -0.177
REMARK UNBOUND:                -0.123
REMARK SMILES CCCCCCC(=O)[O-]
REMARK SMILES IDX 5 1 6 2 7 3 8 4 9 5 4 6 3 7 2 8 1 9
REMARK H PARENT
REMARK Flexibility Score: inf
ROOT
ATOM      1  C   UNL     1      65.748  44.641  57.001  1.00  0.00     0.006 C 
ENDROOT
BRANCH   1   2
ATOM      2  C   UNL     1      65.499  43.131  56.934  1.00  0.00     0.053 C 
BRANCH   2   3
ATOM      3  C   UNL     1      66.648  42.383  57.533  1.00  0.00     0.041 C 
ATOM      4  O   UNL     1      66.968  41.251  57.085  1.00  0.00    -0.550 OA
ATOM      5  O   UNL     1      67.397  42.958  58.553  1.00  0.00    -0.550 OA
ENDBRANCH   2   3
ENDBRANCH   1   2
BRANCH   1   6
ATOM      6  C   UNL     1      64.810  45.308  58.017  1.00  0.00     0.000 C 
BRANCH   6   7
ATOM      7  C   UNL     1      65.496  46.424  58.825  1.00  0.00    -0.000 C 
BRANCH   7   8
ATOM      8  C   UNL     1      65.507  47.803  58.144  1.00  0.00    -0.003 C 
ATOM      9  C   UNL     1      66.890  48.453  58.134  1.00  0.00     0.004 C 
ENDBRANCH   7   8
ENDBRANCH   6   7
ENDBRANCH   1   6
TORSDOF 5
ENDMDL
MODEL 4
REMARK VINA RESULT:    -3.152      9.651     10.473
REMARK INTER + INTRA:          -4.197
REMARK INTER:                  -4.009
REMARK INTRA:                  -0.187
REMARK UNBOUND:                -0.123
REMARK SMILES CCCCCCC(=O)[O-]
REMARK SMILES IDX 5 1 6 2 7 3 8 4 9 5 4 6 3 7 2 8 1 9
REMARK H PARENT
REMARK Flexibility Score: inf
ROOT
ATOM      1  C   UNL     1      65.627  43.272  56.689  1.00  0.00     0.006 C 
ENDROOT
BRANCH   1   2
ATOM      2  C   UNL     1      66.548  42.460  57.605  1.00  0.00     0.053 C 
BRANCH   2   3
ATOM      3  C   UNL     1      65.834  41.255  58.131  1.00  0.00     0.041 C 
ATOM      4  O   UNL     1      64.578  41.189  58.073  1.00  0.00    -0.550 OA
ATOM      5  O   UNL     1      66.558  40.184  58.640  1.00  0.00    -0.550 OA
ENDBRANCH   2   3
ENDBRANCH   1   2
BRANCH   1   6
ATOM      6  C   UNL     1      65.771  44.776  56.959  1.00  0.00     0.000 C 
BRANCH   6   7
ATOM      7  C   UNL     1      64.948  45.249  58.171  1.00  0.00    -0.000 C 
BRANCH   7   8
ATOM      8  C   UNL     1      65.101  46.741  58.514  1.00  0.00    -0.003 C 
ATOM      9  C   UNL     1      66.232  47.419  57.741  1.00  0.00     0.004 C 
ENDBRANCH   7   8
ENDBRANCH   6   7
ENDBRANCH   1   6
TORSDOF 5
ENDMDL
MODEL 5
REMARK VINA RESULT:    -3.086      9.811     10.768
REMARK INTER + INTRA:          -4.111
REMARK INTER:                  -3.892
REMARK INTRA:                  -0.218
REMARK UNBOUND:                -0.123
REMARK SMILES CCCCCCC(=O)[O-]
REMARK SMILES IDX 5 1 6 2 7 3 8 4 9 5 4 6 3 7 2 8 1 9
REMARK H PARENT
REMARK Flexibility Score: inf
ROOT
ATOM      1  C   UNL     1      65.456  43.137  56.885  1.00  0.00     0.006 C 
ENDROOT
BRANCH   1   2
ATOM      2  C   UNL     1      65.371  44.487  57.604  1.00  0.00     0.053 C 
BRANCH   2   3
ATOM      3  C   UNL     1      65.763  45.598  56.682  1.00  0.00     0.041 C 
ATOM      4  O   UNL     1      66.078  46.725  57.147  1.00  0.00    -0.550 OA
ATOM      5  O   UNL     1      65.829  45.375  55.312  1.00  0.00    -0.550 OA
ENDBRANCH   2   3
ENDBRANCH   1   2
BRANCH   1   6
ATOM      6  C   UNL     1      66.739  42.389  57.271  1.00  0.00     0.000 C 
BRANCH   6   7
ATOM      7  C   UNL     1      66.804  42.042  58.770  1.00  0.00    -0.000 C 
BRANCH   7   8
ATOM      8  C   UNL     1      66.344  40.617  59.125  1.00  0.00    -0.003 C 
ATOM      9  C   UNL     1      66.300  39.684  57.915  1.00  0.00     0.004 C 
ENDBRANCH   7   8
ENDBRANCH   6   7
ENDBRANCH   1   6
TORSDOF 5
ENDMDL
MODEL 6
REMARK VINA RESULT:    -3.071     11.306     12.406
REMARK INTER + INTRA:          -4.091
REMARK INTER:                  -3.858
REMARK INTRA:                  -0.233
REMARK UNBOUND:                -0.123
REMARK SMILES CCCCCCC(=O)[O-]
REMARK SMILES IDX 5 1 6 2 7 3 8 4 9 5 4 6 3 7 2 8 1 9
REMARK H PARENT
REMARK Flexibility Score: inf
ROOT
ATOM      1  C   UNL     1      65.026  45.674  57.777  1.00  0.00     0.006 C 
ENDROOT
BRANCH   1   2
ATOM      2  C   UNL     1      66.238  46.374  58.399  1.00  0.00     0.053 C 
BRANCH   2   3
ATOM      3  C   UNL     1      66.339  47.783  57.908  1.00  0.00     0.041 C 
ATOM      4  O   UNL     1      65.503  48.647  58.285  1.00  0.00    -0.550 OA
ATOM      5  O   UNL     1      67.385  48.156  57.073  1.00  0.00    -0.550 OA
ENDBRANCH   2   3
ENDBRANCH   1   2
BRANCH   1   6
ATOM      6  C   UNL     1      65.048  44.169  58.074  1.00  0.00     0.000 C 
BRANCH   6   7
ATOM      7  C   UNL     1      65.650  43.339  56.926  1.00  0.00    -0.000 C 
BRANCH   7   8
ATOM      8  C   UNL     1      66.715  42.315  57.356  1.00  0.00    -0.003 C 
ATOM      9  C   UNL     1      67.281  42.591  58.749  1.00  0.00     0.004 C 
ENDBRANCH   7   8
ENDBRANCH   6   7
ENDBRANCH   1   6
TORSDOF 5
ENDMDL
MODEL 7
REMARK VINA RESULT:    -3.069     17.730     18.374
REMARK INTER + INTRA:          -4.089
REMARK INTER:                  -3.855
REMARK INTRA:                  -0.234
REMARK UNBOUND:                -0.123
REMARK SMILES CCCCCCC(=O)[O-]
REMARK SMILES IDX 5 1 6 2 7 3 8 4 9 5 4 6 3 7 2 8 1 9
REMARK H PARENT
REMARK Flexibility Score: inf
ROOT
ATOM      1  C   UNL     1      70.609  52.294  51.923  1.00  0.00     0.006 C 
ENDROOT
BRANCH   1   2
ATOM      2  C   UNL     1      70.369  51.685  50.539  1.00  0.00     0.053 C 
BRANCH   2   3
ATOM      3  C   UNL     1      68.918  51.378  50.345  1.00  0.00     0.041 C 
ATOM      4  O   UNL     1      68.186  52.169  49.694  1.00  0.00    -0.550 OA
ATOM      5  O   UNL     1      68.385  50.195  50.842  1.00  0.00    -0.550 OA
ENDBRANCH   2   3
ENDBRANCH   1   2
BRANCH   1   6
ATOM      6  C   UNL     1      71.297  51.287  52.855  1.00  0.00     0.000 C 
BRANCH   6   7
ATOM      7  C   UNL     1      70.703  51.280  54.275  1.00  0.00    -0.000 C 
BRANCH   7   8
ATOM      8  C   UNL     1      69.202  50.952  54.347  1.00  0.00    -0.003 C 
ATOM      9  C   UNL     1      68.805  50.249  55.645  1.00  0.00     0.004 C 
ENDBRANCH   7   8
ENDBRANCH   6   7
ENDBRANCH   1   6
TORSDOF 5
ENDMDL
MODEL 8
REMARK VINA RESULT:    -3.056      4.301      5.982
REMARK INTER + INTRA:          -4.072
REMARK INTER:                  -3.929
REMARK INTRA:                  -0.143
REMARK UNBOUND:                -0.123
REMARK SMILES CCCCCCC(=O)[O-]
REMARK SMILES IDX 5 1 6 2 7 3 8 4 9 5 4 6 3 7 2 8 1 9
REMARK H PARENT
REMARK Flexibility Score: inf
ROOT
ATOM      1  C   UNL     1      58.623  36.008  49.662  1.00  0.00     0.006 C 
ENDROOT
BRANCH   1   2
ATOM      2  C   UNL     1      59.583  35.957  48.470  1.00  0.00     0.053 C 
BRANCH   2   3
ATOM      3  C   UNL     1      59.730  37.314  47.857  1.00  0.00     0.041 C 
ATOM      4  O   UNL     1      60.840  37.907  47.892  1.00  0.00    -0.550 OA
ATOM      5  O   UNL     1      58.654  37.902  47.204  1.00  0.00    -0.550 OA
ENDBRANCH   2   3
ENDBRANCH   1   2
BRANCH   1   6
ATOM      6  C   UNL     1      59.017  34.978  50.730  1.00  0.00     0.000 C 
BRANCH   6   7
ATOM      7  C   UNL     1      58.632  35.413  52.155  1.00  0.00    -0.000 C 
BRANCH   7   8
ATOM      8  C   UNL     1      57.568  36.522  52.229  1.00  0.00    -0.003 C 
ATOM      9  C   UNL     1      57.416  37.112  53.630  1.00  0.00     0.004 C 
ENDBRANCH   7   8
ENDBRANCH   6   7
ENDBRANCH   1   6
TORSDOF 5
ENDMDL
MODEL 9
REMARK VINA RESULT:    -2.978     19.486     20.191
REMARK INTER + INTRA:          -3.971
REMARK INTER:                  -3.637
REMARK INTRA:                  -0.334
REMARK UNBOUND:                -0.123
REMARK SMILES CCCCCCC(=O)[O-]
REMARK SMILES IDX 5 1 6 2 7 3 8 4 9 5 4 6 3 7 2 8 1 9
REMARK H PARENT
REMARK Flexibility Score: inf
ROOT
ATOM      1  C   UNL     1      68.235  52.950  49.687  1.00  0.00     0.006 C 
ENDROOT
BRANCH   1   2
ATOM      2  C   UNL     1      69.132  54.185  49.814  1.00  0.00     0.053 C 
BRANCH   2   3
ATOM      3  C   UNL     1      70.224  54.147  48.793  1.00  0.00     0.041 C 
ATOM      4  O   UNL     1      71.430  54.132  49.156  1.00  0.00    -0.550 OA
ATOM      5  O   UNL     1      69.911  54.078  47.441  1.00  0.00    -0.550 OA
ENDBRANCH   2   3
ENDBRANCH   1   2
BRANCH   1   6
ATOM      6  C   UNL     1      69.065  51.660  49.748  1.00  0.00     0.000 C 
BRANCH   6   7
ATOM      7  C   UNL     1      68.734  50.789  50.973  1.00  0.00    -0.000 C 
BRANCH   7   8
ATOM      8  C   UNL     1      69.621  51.041  52.205  1.00  0.00    -0.003 C 
ATOM      9  C   UNL     1      70.982  51.638  51.849  1.00  0.00     0.004 C 
ENDBRANCH   7   8
ENDBRANCH   6   7
ENDBRANCH   1   6
TORSDOF 5
ENDMDL
