MODEL 1
REMARK VINA RESULT:    14.914      0.000      0.000
REMARK INTER + INTRA:          25.919
REMARK INTER:                  22.760
REMARK INTRA:                   3.159
REMARK UNBOUND:                 3.159
REMARK SMILES OC[C@@H]1O[C@H](O[C@@]2(CO)O[C@@H](CO)[C@H](O)[C@@H]2O)[C@H](O)[C@@H](O)[C@H]1O
REMARK SMILES IDX 6 1 5 2 3 3 22 4 4 5 20 6 18 7 2 8 1 9 23 11 21 13 19 15
REMARK SMILES IDX 7 17 16 18 10 19 14 20 11 21 8 22 9 23 17 25 15 27 12 29
REMARK SMILES IDX 13 30
REMARK H PARENT 1 10 23 12 21 14 19 16 9 24 17 26 15 28 13 31
REMARK Flexibility Score: inf
ROOT
ATOM      1  O   UNL     1      -2.787  27.521  16.843  1.00  0.00    -0.313 OA
ENDROOT
BRANCH   1   2
ATOM      2  C   UNL     1      -2.355  28.818  17.248  1.00  0.00     0.285 C 
ATOM      3  C   UNL     1      -0.043  28.476  16.722  1.00  0.00     0.178 C 
ATOM      4  C   UNL     1      -0.112  29.432  15.500  1.00  0.00     0.177 C 
ATOM      5  O   UNL     1      -1.014  28.781  17.722  1.00  0.00    -0.341 OA
ATOM      6  C   UNL     1      -1.545  29.540  14.951  1.00  0.00     0.179 C 
ATOM      7  C   UNL     1      -2.523  29.833  16.099  1.00  0.00     0.202 C 
BRANCH   3   8
ATOM      8  C   UNL     1      -0.034  26.982  16.340  1.00  0.00     0.191 C 
BRANCH   8   9
ATOM      9  O   UNL     1      -0.889  26.751  15.250  1.00  0.00    -0.394 OA
ATOM     10  H   UNL     1      -1.002  25.769  15.176  1.00  0.00     0.210 HD
ENDBRANCH   8   9
ENDBRANCH   3   8
BRANCH   4  11
ATOM     11  O   UNL     1       0.390  30.708  15.821  1.00  0.00    -0.387 OA
ATOM     12  H   UNL     1      -0.320  31.212  16.302  1.00  0.00     0.211 HD
ENDBRANCH   4  11
BRANCH   6  13
ATOM     13  O   UNL     1      -1.627  30.564  13.992  1.00  0.00    -0.387 OA
ATOM     14  H   UNL     1      -2.428  30.369  13.437  1.00  0.00     0.211 HD
ENDBRANCH   6  13
BRANCH   7  15
ATOM     15  O   UNL     1      -3.851  29.861  15.645  1.00  0.00    -0.385 OA
ATOM     16  H   UNL     1      -4.411  29.375  16.300  1.00  0.00     0.211 HD
ENDBRANCH   7  15
ENDBRANCH   1   2
BRANCH   1  17
ATOM     17  C   UNL     1      -2.765  26.521  17.863  1.00  0.00     0.224 C 
ATOM     18  C   UNL     1      -1.447  26.532  18.678  1.00  0.00     0.208 C 
ATOM     19  O   UNL     1      -2.837  25.270  17.203  1.00  0.00    -0.337 OA
ATOM     20  C   UNL     1      -1.134  25.072  18.894  1.00  0.00     0.180 C 
ATOM     21  C   UNL     1      -1.844  24.401  17.708  1.00  0.00     0.179 C 
BRANCH  17  22
ATOM     22  C   UNL     1      -4.035  26.627  18.753  1.00  0.00     0.225 C 
BRANCH  22  23
ATOM     23  O   UNL     1      -5.058  27.311  18.078  1.00  0.00    -0.391 OA
ATOM     24  H   UNL     1      -4.625  28.043  17.567  1.00  0.00     0.210 HD
ENDBRANCH  22  23
ENDBRANCH  17  22
BRANCH  18  25
ATOM     25  O   UNL     1      -1.566  27.229  19.895  1.00  0.00    -0.385 OA
ATOM     26  H   UNL     1      -2.508  27.531  19.954  1.00  0.00     0.211 HD
ENDBRANCH  18  25
BRANCH  20  27
ATOM     27  O   UNL     1      -1.591  24.630  20.157  1.00  0.00    -0.387 OA
ATOM     28  H   UNL     1      -2.467  24.174  20.056  1.00  0.00     0.211 HD
ENDBRANCH  20  27
BRANCH  21  29
ATOM     29  C   UNL     1      -0.870  24.049  16.571  1.00  0.00     0.191 C 
BRANCH  29  30
ATOM     30  O   UNL     1      -1.511  24.123  15.324  1.00  0.00    -0.394 OA
ATOM     31  H   UNL     1      -2.438  24.420  15.498  1.00  0.00     0.210 HD
ENDBRANCH  29  30
ENDBRANCH  21  29
ENDBRANCH   1  17
TORSDOF 13
ENDMDL
MODEL 2
REMARK VINA RESULT:    14.981      1.633      4.340
REMARK INTER + INTRA:          26.022
REMARK INTER:                  22.976
REMARK INTRA:                   3.046
REMARK UNBOUND:                 3.159
REMARK SMILES OC[C@@H]1O[C@H](O[C@@]2(CO)O[C@@H](CO)[C@H](O)[C@@H]2O)[C@H](O)[C@@H](O)[C@H]1O
REMARK SMILES IDX 6 1 5 2 3 3 22 4 4 5 20 6 18 7 2 8 1 9 23 11 21 13 19 15
REMARK SMILES IDX 7 17 16 18 10 19 14 20 11 21 8 22 9 23 17 25 15 27 12 29
REMARK SMILES IDX 13 30
REMARK H PARENT 1 10 23 12 21 14 19 16 9 24 17 26 15 28 13 31
REMARK Flexibility Score: inf
ROOT
ATOM      1  O   UNL     1      -2.199  27.926  17.352  1.00  0.00    -0.313 OA
ENDROOT
BRANCH   1   2
ATOM      2  C   UNL     1      -3.389  28.169  16.605  1.00  0.00     0.285 C 
ATOM      3  C   UNL     1      -4.683  26.443  17.648  1.00  0.00     0.178 C 
ATOM      4  C   UNL     1      -5.556  27.471  18.417  1.00  0.00     0.177 C 
ATOM      5  O   UNL     1      -4.137  26.970  16.439  1.00  0.00    -0.341 OA
ATOM      6  C   UNL     1      -4.814  28.806  18.610  1.00  0.00     0.179 C 
ATOM      7  C   UNL     1      -4.232  29.277  17.269  1.00  0.00     0.202 C 
BRANCH   3   8
ATOM      8  C   UNL     1      -3.620  25.753  18.526  1.00  0.00     0.191 C 
BRANCH   8   9
ATOM      9  O   UNL     1      -3.088  26.661  19.455  1.00  0.00    -0.394 OA
ATOM     10  H   UNL     1      -3.592  26.539  20.300  1.00  0.00     0.210 HD
ENDBRANCH   8   9
ENDBRANCH   3   8
BRANCH   4  11
ATOM     11  O   UNL     1      -6.788  27.681  17.768  1.00  0.00    -0.387 OA
ATOM     12  H   UNL     1      -6.888  28.655  17.593  1.00  0.00     0.211 HD
ENDBRANCH   4  11
BRANCH   6  13
ATOM     13  O   UNL     1      -5.689  29.785  19.111  1.00  0.00    -0.387 OA
ATOM     14  H   UNL     1      -6.017  30.300  18.328  1.00  0.00     0.211 HD
ENDBRANCH   6  13
BRANCH   7  15
ATOM     15  O   UNL     1      -3.482  30.454  17.423  1.00  0.00    -0.385 OA
ATOM     16  H   UNL     1      -4.095  31.225  17.320  1.00  0.00     0.211 HD
ENDBRANCH   7  15
ENDBRANCH   1   2
BRANCH   1  17
ATOM     17  C   UNL     1      -1.292  26.988  16.771  1.00  0.00     0.224 C 
ATOM     18  C   UNL     1      -2.004  25.711  16.257  1.00  0.00     0.208 C 
ATOM     19  O   UNL     1      -0.411  26.585  17.805  1.00  0.00    -0.337 OA
ATOM     20  C   UNL     1      -1.068  24.590  16.629  1.00  0.00     0.180 C 
ATOM     21  C   UNL     1      -0.305  25.176  17.827  1.00  0.00     0.179 C 
BRANCH  17  22
ATOM     22  C   UNL     1      -0.417  27.679  15.688  1.00  0.00     0.225 C 
BRANCH  22  23
ATOM     23  O   UNL     1      -0.353  29.063  15.911  1.00  0.00    -0.391 OA
ATOM     24  H   UNL     1       0.600  29.283  16.076  1.00  0.00     0.210 HD
ENDBRANCH  22  23
ENDBRANCH  17  22
BRANCH  18  25
ATOM     25  O   UNL     1      -2.255  25.749  14.873  1.00  0.00    -0.385 OA
ATOM     26  H   UNL     1      -2.715  24.901  14.648  1.00  0.00     0.211 HD
ENDBRANCH  18  25
BRANCH  20  27
ATOM     27  O   UNL     1      -0.237  24.232  15.542  1.00  0.00    -0.387 OA
ATOM     28  H   UNL     1      -0.767  24.225  14.702  1.00  0.00     0.211 HD
ENDBRANCH  20  27
BRANCH  21  29
ATOM     29  C   UNL     1      -0.846  24.660  19.170  1.00  0.00     0.191 C 
BRANCH  29  30
ATOM     30  O   UNL     1      -0.696  25.629  20.174  1.00  0.00    -0.394 OA
ATOM     31  H   UNL     1       0.246  25.583  20.475  1.00  0.00     0.210 HD
ENDBRANCH  29  30
ENDBRANCH  21  29
ENDBRANCH   1  17
TORSDOF 13
ENDMDL
MODEL 3
REMARK VINA RESULT:    15.489      2.035      5.160
REMARK INTER + INTRA:          26.798
REMARK INTER:                  26.037
REMARK INTRA:                   0.761
REMARK UNBOUND:                 3.159
REMARK SMILES OC[C@@H]1O[C@H](O[C@@]2(CO)O[C@@H](CO)[C@H](O)[C@@H]2O)[C@H](O)[C@@H](O)[C@H]1O
REMARK SMILES IDX 6 1 5 2 3 3 22 4 4 5 20 6 18 7 2 8 1 9 23 11 21 13 19 15
REMARK SMILES IDX 7 17 16 18 10 19 14 20 11 21 8 22 9 23 17 25 15 27 12 29
REMARK SMILES IDX 13 30
REMARK H PARENT 1 10 23 12 21 14 19 16 9 24 17 26 15 28 13 31
REMARK Flexibility Score: inf
ROOT
ATOM      1  O   UNL     1      -1.349  25.421  17.482  1.00  0.00    -0.313 OA
ENDROOT
BRANCH   1   2
ATOM      2  C   UNL     1      -0.723  26.338  18.377  1.00  0.00     0.285 C 
ATOM      3  C   UNL     1      -2.759  27.243  19.257  1.00  0.00     0.178 C 
ATOM      4  C   UNL     1      -2.554  26.544  20.628  1.00  0.00     0.177 C 
ATOM      5  O   UNL     1      -1.533  27.492  18.570  1.00  0.00    -0.341 OA
ATOM      6  C   UNL     1      -1.661  25.297  20.496  1.00  0.00     0.179 C 
ATOM      7  C   UNL     1      -0.386  25.650  19.715  1.00  0.00     0.202 C 
BRANCH   3   8
ATOM      8  C   UNL     1      -3.810  26.556  18.362  1.00  0.00     0.191 C 
BRANCH   8   9
ATOM      9  O   UNL     1      -4.594  27.516  17.702  1.00  0.00    -0.394 OA
ATOM     10  H   UNL     1      -4.763  27.172  16.788  1.00  0.00     0.210 HD
ENDBRANCH   8   9
ENDBRANCH   3   8
BRANCH   4  11
ATOM     11  O   UNL     1      -2.020  27.434  21.580  1.00  0.00    -0.387 OA
ATOM     12  H   UNL     1      -2.512  27.310  22.436  1.00  0.00     0.211 HD
ENDBRANCH   4  11
BRANCH   6  13
ATOM     13  O   UNL     1      -1.313  24.807  21.766  1.00  0.00    -0.387 OA
ATOM     14  H   UNL     1      -2.006  24.139  22.011  1.00  0.00     0.211 HD
ENDBRANCH   6  13
BRANCH   7  15
ATOM     15  O   UNL     1       0.416  24.517  19.509  1.00  0.00    -0.385 OA
ATOM     16  H   UNL     1       0.250  24.185  18.591  1.00  0.00     0.211 HD
ENDBRANCH   7  15
ENDBRANCH   1   2
BRANCH   1  17
ATOM     17  C   UNL     1      -1.379  25.826  16.112  1.00  0.00     0.224 C 
ATOM     18  C   UNL     1      -2.575  25.216  15.338  1.00  0.00     0.208 C 
ATOM     19  O   UNL     1      -0.197  25.320  15.517  1.00  0.00    -0.337 OA
ATOM     20  C   UNL     1      -2.001  24.861  13.990  1.00  0.00     0.180 C 
ATOM     21  C   UNL     1      -0.510  24.665  14.304  1.00  0.00     0.179 C 
BRANCH  17  22
ATOM     22  C   UNL     1      -1.304  27.374  16.002  1.00  0.00     0.225 C 
BRANCH  22  23
ATOM     23  O   UNL     1       0.002  27.826  16.246  1.00  0.00    -0.391 OA
ATOM     24  H   UNL     1       0.112  28.672  15.739  1.00  0.00     0.210 HD
ENDBRANCH  22  23
ENDBRANCH  17  22
BRANCH  18  25
ATOM     25  O   UNL     1      -3.661  26.105  15.229  1.00  0.00    -0.385 OA
ATOM     26  H   UNL     1      -4.452  25.628  15.589  1.00  0.00     0.211 HD
ENDBRANCH  18  25
BRANCH  20  27
ATOM     27  O   UNL     1      -2.256  25.876  13.039  1.00  0.00    -0.387 OA
ATOM     28  H   UNL     1      -2.965  26.483  13.378  1.00  0.00     0.211 HD
ENDBRANCH  20  27
BRANCH  21  29
ATOM     29  C   UNL     1      -0.133  23.181  14.431  1.00  0.00     0.191 C 
BRANCH  29  30
ATOM     30  O   UNL     1       1.031  22.896  13.698  1.00  0.00    -0.394 OA
ATOM     31  H   UNL     1       0.736  22.600  12.802  1.00  0.00     0.210 HD
ENDBRANCH  29  30
ENDBRANCH  21  29
ENDBRANCH   1  17
TORSDOF 13
ENDMDL
MODEL 4
REMARK VINA RESULT:    15.660      1.824      4.174
REMARK INTER + INTRA:          27.058
REMARK INTER:                  26.502
REMARK INTRA:                   0.555
REMARK UNBOUND:                 3.159
REMARK SMILES OC[C@@H]1O[C@H](O[C@@]2(CO)O[C@@H](CO)[C@H](O)[C@@H]2O)[C@H](O)[C@@H](O)[C@H]1O
REMARK SMILES IDX 6 1 5 2 3 3 22 4 4 5 20 6 18 7 2 8 1 9 23 11 21 13 19 15
REMARK SMILES IDX 7 17 16 18 10 19 14 20 11 21 8 22 9 23 17 25 15 27 12 29
REMARK SMILES IDX 13 30
REMARK H PARENT 1 10 23 12 21 14 19 16 9 24 17 26 15 28 13 31
REMARK Flexibility Score: inf
ROOT
ATOM      1  O   UNL     1      -1.438  25.501  17.813  1.00  0.00    -0.313 OA
ENDROOT
BRANCH   1   2
ATOM      2  C   UNL     1      -2.372  25.189  16.782  1.00  0.00     0.285 C 
ATOM      3  C   UNL     1      -1.574  26.830  15.230  1.00  0.00     0.178 C 
ATOM      4  C   UNL     1      -0.955  25.749  14.303  1.00  0.00     0.177 C 
ATOM      5  O   UNL     1      -2.670  26.341  16.001  1.00  0.00    -0.341 OA
ATOM      6  C   UNL     1      -0.631  24.461  15.081  1.00  0.00     0.179 C 
ATOM      7  C   UNL     1      -1.852  24.030  15.907  1.00  0.00     0.202 C 
BRANCH   3   8
ATOM      8  C   UNL     1      -0.535  27.581  16.086  1.00  0.00     0.191 C 
BRANCH   8   9
ATOM      9  O   UNL     1      -0.927  28.916  16.272  1.00  0.00    -0.394 OA
ATOM     10  H   UNL     1      -1.795  29.030  15.807  1.00  0.00     0.210 HD
ENDBRANCH   8   9
ENDBRANCH   3   8
BRANCH   4  11
ATOM     11  O   UNL     1      -1.800  25.467  13.213  1.00  0.00    -0.387 OA
ATOM     12  H   UNL     1      -1.699  24.505  12.978  1.00  0.00     0.211 HD
ENDBRANCH   4  11
BRANCH   6  13
ATOM     13  O   UNL     1      -0.277  23.429  14.195  1.00  0.00    -0.387 OA
ATOM     14  H   UNL     1       0.662  23.184  14.407  1.00  0.00     0.211 HD
ENDBRANCH   6  13
BRANCH   7  15
ATOM     15  O   UNL     1      -1.566  22.900  16.690  1.00  0.00    -0.385 OA
ATOM     16  H   UNL     1      -2.412  22.587  17.098  1.00  0.00     0.211 HD
ENDBRANCH   7  15
ENDBRANCH   1   2
BRANCH   1  17
ATOM     17  C   UNL     1      -1.961  26.259  18.905  1.00  0.00     0.224 C 
ATOM     18  C   UNL     1      -0.876  27.110  19.613  1.00  0.00     0.208 C 
ATOM     19  O   UNL     1      -2.440  25.321  19.853  1.00  0.00    -0.337 OA
ATOM     20  C   UNL     1      -1.211  26.991  21.078  1.00  0.00     0.180 C 
ATOM     21  C   UNL     1      -1.961  25.651  21.142  1.00  0.00     0.179 C 
BRANCH  17  22
ATOM     22  C   UNL     1      -3.190  27.093  18.446  1.00  0.00     0.225 C 
BRANCH  22  23
ATOM     23  O   UNL     1      -4.318  26.273  18.296  1.00  0.00    -0.391 OA
ATOM     24  H   UNL     1      -4.142  25.445  18.814  1.00  0.00     0.210 HD
ENDBRANCH  22  23
ENDBRANCH  17  22
BRANCH  18  25
ATOM     25  O   UNL     1      -0.870  28.449  19.183  1.00  0.00    -0.385 OA
ATOM     26  H   UNL     1      -1.715  28.853  19.507  1.00  0.00     0.211 HD
ENDBRANCH  18  25
BRANCH  20  27
ATOM     27  O   UNL     1      -1.976  28.095  21.522  1.00  0.00    -0.387 OA
ATOM     28  H   UNL     1      -1.455  28.620  22.184  1.00  0.00     0.211 HD
ENDBRANCH  20  27
BRANCH  21  29
ATOM     29  C   UNL     1      -1.065  24.507  21.644  1.00  0.00     0.191 C 
BRANCH  29  30
ATOM     30  O   UNL     1      -1.682  23.817  22.700  1.00  0.00    -0.394 OA
ATOM     31  H   UNL     1      -2.657  23.940  22.588  1.00  0.00     0.210 HD
ENDBRANCH  29  30
ENDBRANCH  21  29
ENDBRANCH   1  17
TORSDOF 13
ENDMDL
MODEL 5
REMARK VINA RESULT:    15.909      1.536      5.425
REMARK INTER + INTRA:          27.438
REMARK INTER:                  27.991
REMARK INTRA:                  -0.554
REMARK UNBOUND:                 3.159
REMARK SMILES OC[C@@H]1O[C@H](O[C@@]2(CO)O[C@@H](CO)[C@H](O)[C@@H]2O)[C@H](O)[C@@H](O)[C@H]1O
REMARK SMILES IDX 6 1 5 2 3 3 22 4 4 5 20 6 18 7 2 8 1 9 23 11 21 13 19 15
REMARK SMILES IDX 7 17 16 18 10 19 14 20 11 21 8 22 9 23 17 25 15 27 12 29
REMARK SMILES IDX 13 30
REMARK H PARENT 1 10 23 12 21 14 19 16 9 24 17 26 15 28 13 31
REMARK Flexibility Score: inf
ROOT
ATOM      1  O   UNL     1      -1.117  27.668  16.771  1.00  0.00    -0.313 OA
ENDROOT
BRANCH   1   2
ATOM      2  C   UNL     1      -2.119  26.965  17.503  1.00  0.00     0.285 C 
ATOM      3  C   UNL     1      -2.289  25.128  15.974  1.00  0.00     0.178 C 
ATOM      4  C   UNL     1      -1.595  24.154  16.965  1.00  0.00     0.177 C 
ATOM      5  O   UNL     1      -2.950  26.210  16.628  1.00  0.00    -0.341 OA
ATOM      6  C   UNL     1      -0.697  24.910  17.960  1.00  0.00     0.179 C 
ATOM      7  C   UNL     1      -1.479  26.075  18.587  1.00  0.00     0.202 C 
BRANCH   3   8
ATOM      8  C   UNL     1      -1.373  25.600  14.827  1.00  0.00     0.191 C 
BRANCH   8   9
ATOM      9  O   UNL     1      -0.626  24.523  14.322  1.00  0.00    -0.394 OA
ATOM     10  H   UNL     1       0.137  24.387  14.939  1.00  0.00     0.210 HD
ENDBRANCH   8   9
ENDBRANCH   3   8
BRANCH   4  11
ATOM     11  O   UNL     1      -2.539  23.367  17.652  1.00  0.00    -0.387 OA
ATOM     12  H   UNL     1      -2.124  22.486  17.856  1.00  0.00     0.211 HD
ENDBRANCH   4  11
BRANCH   6  13
ATOM     13  O   UNL     1      -0.253  24.044  18.974  1.00  0.00    -0.387 OA
ATOM     14  H   UNL     1      -1.047  23.826  19.529  1.00  0.00     0.211 HD
ENDBRANCH   6  13
BRANCH   7  15
ATOM     15  O   UNL     1      -0.666  26.833  19.443  1.00  0.00    -0.385 OA
ATOM     16  H   UNL     1      -0.415  26.265  20.214  1.00  0.00     0.211 HD
ENDBRANCH   7  15
ENDBRANCH   1   2
BRANCH   1  17
ATOM     17  C   UNL     1      -1.417  29.033  16.477  1.00  0.00     0.224 C 
ATOM     18  C   UNL     1      -2.887  29.237  16.032  1.00  0.00     0.208 C 
ATOM     19  O   UNL     1      -0.596  29.399  15.382  1.00  0.00    -0.337 OA
ATOM     20  C   UNL     1      -2.800  30.251  14.920  1.00  0.00     0.180 C 
ATOM     21  C   UNL     1      -1.371  30.046  14.393  1.00  0.00     0.179 C 
BRANCH  17  22
ATOM     22  C   UNL     1      -1.005  29.946  17.666  1.00  0.00     0.225 C 
BRANCH  22  23
ATOM     23  O   UNL     1       0.302  30.426  17.493  1.00  0.00    -0.391 OA
ATOM     24  H   UNL     1       0.237  31.239  16.928  1.00  0.00     0.210 HD
ENDBRANCH  22  23
ENDBRANCH  17  22
BRANCH  18  25
ATOM     25  O   UNL     1      -3.716  29.677  17.081  1.00  0.00    -0.385 OA
ATOM     26  H   UNL     1      -4.628  29.761  16.701  1.00  0.00     0.211 HD
ENDBRANCH  18  25
BRANCH  20  27
ATOM     27  O   UNL     1      -3.051  31.559  15.397  1.00  0.00    -0.387 OA
ATOM     28  H   UNL     1      -3.165  32.180  14.630  1.00  0.00     0.211 HD
ENDBRANCH  20  27
BRANCH  21  29
ATOM     29  C   UNL     1      -1.341  29.201  13.110  1.00  0.00     0.191 C 
BRANCH  29  30
ATOM     30  O   UNL     1      -1.413  30.019  11.971  1.00  0.00    -0.394 OA
ATOM     31  H   UNL     1      -0.726  29.689  11.340  1.00  0.00     0.210 HD
ENDBRANCH  29  30
ENDBRANCH  21  29
ENDBRANCH   1  17
TORSDOF 13
ENDMDL
MODEL 6
REMARK VINA RESULT:    15.948      1.746      5.252
REMARK INTER + INTRA:          27.497
REMARK INTER:                  25.116
REMARK INTRA:                   2.381
REMARK UNBOUND:                 3.159
REMARK SMILES OC[C@@H]1O[C@H](O[C@@]2(CO)O[C@@H](CO)[C@H](O)[C@@H]2O)[C@H](O)[C@@H](O)[C@H]1O
REMARK SMILES IDX 6 1 5 2 3 3 22 4 4 5 20 6 18 7 2 8 1 9 23 11 21 13 19 15
REMARK SMILES IDX 7 17 16 18 10 19 14 20 11 21 8 22 9 23 17 25 15 27 12 29
REMARK SMILES IDX 13 30
REMARK H PARENT 1 10 23 12 21 14 19 16 9 24 17 26 15 28 13 31
REMARK Flexibility Score: inf
ROOT
ATOM      1  O   UNL     1      -1.606  25.010  17.899  1.00  0.00    -0.313 OA
ENDROOT
BRANCH   1   2
ATOM      2  C   UNL     1      -0.854  25.968  18.640  1.00  0.00     0.285 C 
ATOM      3  C   UNL     1      -2.748  27.219  19.406  1.00  0.00     0.178 C 
ATOM      4  C   UNL     1      -2.580  26.707  20.862  1.00  0.00     0.177 C 
ATOM      5  O   UNL     1      -1.524  27.223  18.673  1.00  0.00    -0.341 OA
ATOM      6  C   UNL     1      -1.836  25.360  20.902  1.00  0.00     0.179 C 
ATOM      7  C   UNL     1      -0.554  25.447  20.060  1.00  0.00     0.202 C 
BRANCH   3   8
ATOM      8  C   UNL     1      -3.897  26.535  18.638  1.00  0.00     0.191 C 
BRANCH   8   9
ATOM      9  O   UNL     1      -4.640  27.486  17.920  1.00  0.00    -0.394 OA
ATOM     10  H   UNL     1      -4.017  27.914  17.278  1.00  0.00     0.210 HD
ENDBRANCH   8   9
ENDBRANCH   3   8
BRANCH   4  11
ATOM     11  O   UNL     1      -1.921  27.658  21.664  1.00  0.00    -0.387 OA
ATOM     12  H   UNL     1      -2.509  27.879  22.436  1.00  0.00     0.211 HD
ENDBRANCH   4  11
BRANCH   6  13
ATOM     13  O   UNL     1      -1.506  25.022  22.225  1.00  0.00    -0.387 OA
ATOM     14  H   UNL     1      -0.714  24.424  22.176  1.00  0.00     0.211 HD
ENDBRANCH   6  13
BRANCH   7  15
ATOM     15  O   UNL     1       0.110  24.212  20.011  1.00  0.00    -0.385 OA
ATOM     16  H   UNL     1       1.084  24.386  19.992  1.00  0.00     0.211 HD
ENDBRANCH   7  15
ENDBRANCH   1   2
BRANCH   1  17
ATOM     17  C   UNL     1      -1.958  25.401  16.571  1.00  0.00     0.224 C 
ATOM     18  C   UNL     1      -0.907  24.958  15.521  1.00  0.00     0.208 C 
ATOM     19  O   UNL     1      -1.984  26.817  16.561  1.00  0.00    -0.337 OA
ATOM     20  C   UNL     1      -0.817  26.126  14.572  1.00  0.00     0.180 C 
ATOM     21  C   UNL     1      -1.256  27.306  15.453  1.00  0.00     0.179 C 
BRANCH  17  22
ATOM     22  C   UNL     1      -3.399  24.928  16.231  1.00  0.00     0.225 C 
BRANCH  22  23
ATOM     23  O   UNL     1      -4.122  25.953  15.603  1.00  0.00    -0.391 OA
ATOM     24  H   UNL     1      -4.439  26.562  16.320  1.00  0.00     0.210 HD
ENDBRANCH  22  23
ENDBRANCH  17  22
BRANCH  18  25
ATOM     25  O   UNL     1      -1.268  23.770  14.859  1.00  0.00    -0.385 OA
ATOM     26  H   UNL     1      -1.037  23.900  13.904  1.00  0.00     0.211 HD
ENDBRANCH  18  25
BRANCH  20  27
ATOM     27  O   UNL     1      -1.634  25.928  13.435  1.00  0.00    -0.387 OA
ATOM     28  H   UNL     1      -1.753  26.788  12.954  1.00  0.00     0.211 HD
ENDBRANCH  20  27
BRANCH  21  29
ATOM     29  C   UNL     1      -0.060  28.122  15.969  1.00  0.00     0.191 C 
BRANCH  29  30
ATOM     30  O   UNL     1      -0.495  29.286  16.624  1.00  0.00    -0.394 OA
ATOM     31  H   UNL     1       0.293  29.659  17.092  1.00  0.00     0.210 HD
ENDBRANCH  29  30
ENDBRANCH  21  29
ENDBRANCH   1  17
TORSDOF 13
ENDMDL
MODEL 7
REMARK VINA RESULT:    16.136      1.813      4.223
REMARK INTER + INTRA:          27.784
REMARK INTER:                  25.228
REMARK INTRA:                   2.557
REMARK UNBOUND:                 3.159
REMARK SMILES OC[C@@H]1O[C@H](O[C@@]2(CO)O[C@@H](CO)[C@H](O)[C@@H]2O)[C@H](O)[C@@H](O)[C@H]1O
REMARK SMILES IDX 6 1 5 2 3 3 22 4 4 5 20 6 18 7 2 8 1 9 23 11 21 13 19 15
REMARK SMILES IDX 7 17 16 18 10 19 14 20 11 21 8 22 9 23 17 25 15 27 12 29
REMARK SMILES IDX 13 30
REMARK H PARENT 1 10 23 12 21 14 19 16 9 24 17 26 15 28 13 31
REMARK Flexibility Score: inf
ROOT
ATOM      1  O   UNL     1      -0.906  25.272  17.584  1.00  0.00    -0.313 OA
ENDROOT
BRANCH   1   2
ATOM      2  C   UNL     1      -1.980  24.970  16.695  1.00  0.00     0.285 C 
ATOM      3  C   UNL     1      -1.565  26.789  15.191  1.00  0.00     0.178 C 
ATOM      4  C   UNL     1      -1.043  25.838  14.080  1.00  0.00     0.177 C 
ATOM      5  O   UNL     1      -2.480  26.154  16.083  1.00  0.00    -0.341 OA
ATOM      6  C   UNL     1      -0.508  24.522  14.672  1.00  0.00     0.179 C 
ATOM      7  C   UNL     1      -1.541  23.930  15.644  1.00  0.00     0.202 C 
BRANCH   3   8
ATOM      8  C   UNL     1      -0.447  27.549  15.932  1.00  0.00     0.191 C 
BRANCH   8   9
ATOM      9  O   UNL     1      -0.777  28.908  16.055  1.00  0.00    -0.394 OA
ATOM     10  H   UNL     1      -0.013  29.425  15.693  1.00  0.00     0.210 HD
ENDBRANCH   8   9
ENDBRANCH   3   8
BRANCH   4  11
ATOM     11  O   UNL     1      -2.040  25.578  13.121  1.00  0.00    -0.387 OA
ATOM     12  H   UNL     1      -2.876  26.037  13.405  1.00  0.00     0.211 HD
ENDBRANCH   4  11
BRANCH   6  13
ATOM     13  O   UNL     1      -0.243  23.597  13.649  1.00  0.00    -0.387 OA
ATOM     14  H   UNL     1       0.745  23.500  13.604  1.00  0.00     0.211 HD
ENDBRANCH   6  13
BRANCH   7  15
ATOM     15  O   UNL     1      -1.053  22.768  16.261  1.00  0.00    -0.385 OA
ATOM     16  H   UNL     1      -1.012  22.932  17.237  1.00  0.00     0.211 HD
ENDBRANCH   7  15
ENDBRANCH   1   2
BRANCH   1  17
ATOM     17  C   UNL     1      -1.192  26.260  18.575  1.00  0.00     0.224 C 
ATOM     18  C   UNL     1      -1.711  25.642  19.899  1.00  0.00     0.208 C 
ATOM     19  O   UNL     1      -2.235  27.064  18.054  1.00  0.00    -0.337 OA
ATOM     20  C   UNL     1      -2.799  26.585  20.346  1.00  0.00     0.180 C 
ATOM     21  C   UNL     1      -3.253  27.221  19.023  1.00  0.00     0.179 C 
BRANCH  17  22
ATOM     22  C   UNL     1       0.032  27.196  18.777  1.00  0.00     0.225 C 
BRANCH  22  23
ATOM     23  O   UNL     1      -0.373  28.538  18.833  1.00  0.00    -0.391 OA
ATOM     24  H   UNL     1      -0.811  28.743  17.966  1.00  0.00     0.210 HD
ENDBRANCH  22  23
ENDBRANCH  17  22
BRANCH  18  25
ATOM     25  O   UNL     1      -0.700  25.508  20.869  1.00  0.00    -0.385 OA
ATOM     26  H   UNL     1       0.069  25.078  20.416  1.00  0.00     0.211 HD
ENDBRANCH  18  25
BRANCH  20  27
ATOM     27  O   UNL     1      -2.314  27.518  21.292  1.00  0.00    -0.387 OA
ATOM     28  H   UNL     1      -2.634  28.429  21.059  1.00  0.00     0.211 HD
ENDBRANCH  20  27
BRANCH  21  29
ATOM     29  C   UNL     1      -4.547  26.588  18.487  1.00  0.00     0.191 C 
BRANCH  29  30
ATOM     30  O   UNL     1      -4.985  27.251  17.329  1.00  0.00    -0.394 OA
ATOM     31  H   UNL     1      -4.251  27.854  17.053  1.00  0.00     0.210 HD
ENDBRANCH  29  30
ENDBRANCH  21  29
ENDBRANCH   1  17
TORSDOF 13
ENDMDL
MODEL 8
REMARK VINA RESULT:    16.173      1.450      2.897
REMARK INTER + INTRA:          27.841
REMARK INTER:                  26.657
REMARK INTRA:                   1.184
REMARK UNBOUND:                 3.159
REMARK SMILES OC[C@@H]1O[C@H](O[C@@]2(CO)O[C@@H](CO)[C@H](O)[C@@H]2O)[C@H](O)[C@@H](O)[C@H]1O
REMARK SMILES IDX 6 1 5 2 3 3 22 4 4 5 20 6 18 7 2 8 1 9 23 11 21 13 19 15
REMARK SMILES IDX 7 17 16 18 10 19 14 20 11 21 8 22 9 23 17 25 15 27 12 29
REMARK SMILES IDX 13 30
REMARK H PARENT 1 10 23 12 21 14 19 16 9 24 17 26 15 28 13 31
REMARK Flexibility Score: inf
ROOT
ATOM      1  O   UNL     1      -2.817  27.147  18.095  1.00  0.00    -0.313 OA
ENDROOT
BRANCH   1   2
ATOM      2  C   UNL     1      -2.927  27.305  16.682  1.00  0.00     0.285 C 
ATOM      3  C   UNL     1      -4.199  29.333  16.766  1.00  0.00     0.178 C 
ATOM      4  C   UNL     1      -3.001  30.183  16.262  1.00  0.00     0.177 C 
ATOM      5  O   UNL     1      -4.135  27.973  16.339  1.00  0.00    -0.341 OA
ATOM      6  C   UNL     1      -1.657  29.503  16.578  1.00  0.00     0.179 C 
ATOM      7  C   UNL     1      -1.693  28.038  16.117  1.00  0.00     0.202 C 
BRANCH   3   8
ATOM      8  C   UNL     1      -4.460  29.467  18.279  1.00  0.00     0.191 C 
BRANCH   8   9
ATOM      9  O   UNL     1      -5.448  28.556  18.688  1.00  0.00    -0.394 OA
ATOM     10  H   UNL     1      -6.119  29.071  19.205  1.00  0.00     0.210 HD
ENDBRANCH   8   9
ENDBRANCH   3   8
BRANCH   4  11
ATOM     11  O   UNL     1      -3.107  30.447  14.883  1.00  0.00    -0.387 OA
ATOM     12  H   UNL     1      -2.319  30.987  14.605  1.00  0.00     0.211 HD
ENDBRANCH   4  11
BRANCH   6  13
ATOM     13  O   UNL     1      -0.605  30.173  15.931  1.00  0.00    -0.387 OA
ATOM     14  H   UNL     1      -1.022  30.863  15.352  1.00  0.00     0.211 HD
ENDBRANCH   6  13
BRANCH   7  15
ATOM     15  O   UNL     1      -0.510  27.366  16.460  1.00  0.00    -0.385 OA
ATOM     16  H   UNL     1      -0.503  27.236  17.442  1.00  0.00     0.211 HD
ENDBRANCH   7  15
ENDBRANCH   1   2
BRANCH   1  17
ATOM     17  C   UNL     1      -2.113  25.981  18.528  1.00  0.00     0.224 C 
ATOM     18  C   UNL     1      -0.618  26.002  18.118  1.00  0.00     0.208 C 
ATOM     19  O   UNL     1      -2.711  24.880  17.866  1.00  0.00    -0.337 OA
ATOM     20  C   UNL     1      -0.327  24.580  17.710  1.00  0.00     0.180 C 
ATOM     21  C   UNL     1      -1.712  24.063  17.290  1.00  0.00     0.179 C 
BRANCH  17  22
ATOM     22  C   UNL     1      -2.327  25.754  20.050  1.00  0.00     0.225 C 
BRANCH  22  23
ATOM     23  O   UNL     1      -2.043  26.924  20.771  1.00  0.00    -0.391 OA
ATOM     24  H   UNL     1      -1.542  26.647  21.582  1.00  0.00     0.210 HD
ENDBRANCH  22  23
ENDBRANCH  17  22
BRANCH  18  25
ATOM     25  O   UNL     1       0.225  26.433  19.159  1.00  0.00    -0.385 OA
ATOM     26  H   UNL     1       1.084  26.688  18.737  1.00  0.00     0.211 HD
ENDBRANCH  18  25
BRANCH  20  27
ATOM     27  O   UNL     1       0.257  23.850  18.772  1.00  0.00    -0.387 OA
ATOM     28  H   UNL     1       0.549  24.474  19.487  1.00  0.00     0.211 HD
ENDBRANCH  20  27
BRANCH  21  29
ATOM     29  C   UNL     1      -1.893  24.061  15.764  1.00  0.00     0.191 C 
BRANCH  29  30
ATOM     30  O   UNL     1      -0.890  24.821  15.141  1.00  0.00    -0.394 OA
ATOM     31  H   UNL     1      -0.679  24.367  14.288  1.00  0.00     0.210 HD
ENDBRANCH  29  30
ENDBRANCH  21  29
ENDBRANCH   1  17
TORSDOF 13
ENDMDL
MODEL 9
REMARK VINA RESULT:    16.318      1.468      3.725
REMARK INTER + INTRA:          28.062
REMARK INTER:                  25.551
REMARK INTRA:                   2.511
REMARK UNBOUND:                 3.159
REMARK SMILES OC[C@@H]1O[C@H](O[C@@]2(CO)O[C@@H](CO)[C@H](O)[C@@H]2O)[C@H](O)[C@@H](O)[C@H]1O
REMARK SMILES IDX 6 1 5 2 3 3 22 4 4 5 20 6 18 7 2 8 1 9 23 11 21 13 19 15
REMARK SMILES IDX 7 17 16 18 10 19 14 20 11 21 8 22 9 23 17 25 15 27 12 29
REMARK SMILES IDX 13 30
REMARK H PARENT 1 10 23 12 21 14 19 16 9 24 17 26 15 28 13 31
REMARK Flexibility Score: inf
ROOT
ATOM      1  O   UNL     1      -1.583  27.328  16.227  1.00  0.00    -0.313 OA
ENDROOT
BRANCH   1   2
ATOM      2  C   UNL     1      -1.815  28.038  17.442  1.00  0.00     0.285 C 
ATOM      3  C   UNL     1      -2.563  30.060  16.399  1.00  0.00     0.178 C 
ATOM      4  C   UNL     1      -4.032  29.824  16.844  1.00  0.00     0.177 C 
ATOM      5  O   UNL     1      -1.613  29.434  17.259  1.00  0.00    -0.341 OA
ATOM      6  C   UNL     1      -4.313  28.330  17.085  1.00  0.00     0.179 C 
ATOM      7  C   UNL     1      -3.224  27.734  17.990  1.00  0.00     0.202 C 
BRANCH   3   8
ATOM      8  C   UNL     1      -2.310  29.748  14.910  1.00  0.00     0.191 C 
BRANCH   8   9
ATOM      9  O   UNL     1      -0.950  29.908  14.601  1.00  0.00    -0.394 OA
ATOM     10  H   UNL     1      -0.460  29.184  15.070  1.00  0.00     0.210 HD
ENDBRANCH   8   9
ENDBRANCH   3   8
BRANCH   4  11
ATOM     11  O   UNL     1      -4.344  30.576  17.993  1.00  0.00    -0.387 OA
ATOM     12  H   UNL     1      -3.496  30.922  18.382  1.00  0.00     0.211 HD
ENDBRANCH   4  11
BRANCH   6  13
ATOM     13  O   UNL     1      -5.570  28.159  17.690  1.00  0.00    -0.387 OA
ATOM     14  H   UNL     1      -5.607  27.218  18.006  1.00  0.00     0.211 HD
ENDBRANCH   6  13
BRANCH   7  15
ATOM     15  O   UNL     1      -3.406  26.354  18.168  1.00  0.00    -0.385 OA
ATOM     16  H   UNL     1      -2.711  25.882  17.645  1.00  0.00     0.211 HD
ENDBRANCH   7  15
ENDBRANCH   1   2
BRANCH   1  17
ATOM     17  C   UNL     1      -1.213  25.956  16.380  1.00  0.00     0.224 C 
ATOM     18  C   UNL     1      -2.310  25.120  17.086  1.00  0.00     0.208 C 
ATOM     19  O   UNL     1      -0.071  25.938  17.218  1.00  0.00    -0.337 OA
ATOM     20  C   UNL     1      -1.542  24.199  18.001  1.00  0.00     0.180 C 
ATOM     21  C   UNL     1      -0.242  24.981  18.244  1.00  0.00     0.179 C 
BRANCH  17  22
ATOM     22  C   UNL     1      -0.771  25.359  15.015  1.00  0.00     0.225 C 
BRANCH  22  23
ATOM     23  O   UNL     1      -0.848  23.958  15.039  1.00  0.00    -0.391 OA
ATOM     24  H   UNL     1      -1.812  23.723  15.041  1.00  0.00     0.210 HD
ENDBRANCH  22  23
ENDBRANCH  17  22
BRANCH  18  25
ATOM     25  O   UNL     1      -3.117  24.406  16.180  1.00  0.00    -0.385 OA
ATOM     26  H   UNL     1      -3.555  23.686  16.701  1.00  0.00     0.211 HD
ENDBRANCH  18  25
BRANCH  20  27
ATOM     27  O   UNL     1      -1.343  22.932  17.406  1.00  0.00    -0.387 OA
ATOM     28  H   UNL     1      -1.166  23.041  16.435  1.00  0.00     0.211 HD
ENDBRANCH  20  27
BRANCH  21  29
ATOM     29  C   UNL     1      -0.244  25.705  19.600  1.00  0.00     0.191 C 
BRANCH  29  30
ATOM     30  O   UNL     1      -1.520  25.666  20.185  1.00  0.00    -0.394 OA
ATOM     31  H   UNL     1      -1.441  25.114  21.002  1.00  0.00     0.210 HD
ENDBRANCH  29  30
ENDBRANCH  21  29
ENDBRANCH   1  17
TORSDOF 13
ENDMDL
