MODEL 1
REMARK VINA RESULT:    -6.133      0.000      0.000
REMARK INTER + INTRA:          -9.552
REMARK INTER:                  -8.104
REMARK INTRA:                  -1.448
REMARK UNBOUND:                -1.448
REMARK SMILES CC[C@H](C=C[C@H](C)[C@@H]1CC[C@H]2[C@@H]3CC=C4C[C@H](O)CC[C@]4(C)[C@@H]3CC[C@]21C)C(C)C
REMARK SMILES IDX 6 1 7 2 5 3 4 4 3 5 2 6 1 7 28 8 29 9 30 10 8 11 9 12 26 13
REMARK SMILES IDX 10 14 11 15 25 16 27 17 12 18 24 19 23 20 13 21 21 22 14 23
REMARK SMILES IDX 15 24 20 25 22 26 16 27 19 28 17 29 18 30
REMARK H PARENT 18 31
REMARK Flexibility Score: inf
ROOT
ATOM      1  C   UNL     1      24.249 -13.159  46.628  1.00  0.00     0.012 C 
ATOM      2  C   UNL     1      25.122 -12.488  47.713  1.00  0.00     0.012 C 
ENDROOT
BRANCH   1   3
ATOM      3  C   UNL     1      24.354 -14.653  46.875  1.00  0.00    -0.028 C 
ATOM      4  C   UNL     1      24.642 -15.518  45.889  1.00  0.00    -0.027 C 
BRANCH   4   5
ATOM      5  C   UNL     1      24.772 -17.005  46.162  1.00  0.00     0.014 C 
BRANCH   5   6
ATOM      6  C   UNL     1      24.660 -17.250  47.697  1.00  0.00     0.004 C 
ATOM      7  C   UNL     1      25.034 -18.681  48.090  1.00  0.00     0.004 C 
ENDBRANCH   5   6
BRANCH   5   8
ATOM      8  C   UNL     1      23.711 -17.806  45.340  1.00  0.00    -0.011 C 
ATOM      9  C   UNL     1      22.911 -16.877  44.407  1.00  0.00     0.008 C 
ATOM     10  C   UNL     1      24.345 -18.921  44.493  1.00  0.00     0.008 C 
ENDBRANCH   5   8
ENDBRANCH   4   5
ENDBRANCH   1   3
BRANCH   1  11
ATOM     11  C   UNL     1      22.741 -12.691  46.657  1.00  0.00     0.002 C 
ATOM     12  C   UNL     1      21.769 -13.895  46.795  1.00  0.00     0.005 C 
ATOM     13  C   UNL     1      22.195 -11.917  45.398  1.00  0.00    -0.026 C 
ATOM     14  C   UNL     1      21.013 -14.048  45.479  1.00  0.00     0.005 C 
ATOM     15  C   UNL     1      21.627 -13.041  44.507  1.00  0.00    -0.001 C 
ATOM     16  C   UNL     1      21.048 -10.974  45.861  1.00  0.00     0.007 C 
ATOM     17  C   UNL     1      23.259 -11.083  44.649  1.00  0.00     0.012 C 
ATOM     18  C   UNL     1      20.624 -12.602  43.394  1.00  0.00     0.000 C 
ATOM     19  C   UNL     1      20.184 -10.439  44.715  1.00  0.00     0.005 C 
ATOM     20  C   UNL     1      19.545 -11.575  43.872  1.00  0.00     0.003 C 
ATOM     21  C   UNL     1      21.350 -12.200  42.072  1.00  0.00     0.031 C 
ATOM     22  C   UNL     1      18.701 -11.050  42.648  1.00  0.00    -0.008 C 
ATOM     23  C   UNL     1      20.873 -10.921  41.431  1.00  0.00    -0.027 C 
ATOM     24  C   UNL     1      19.643 -10.411  41.635  1.00  0.00    -0.065 C 
ATOM     25  C   UNL     1      17.638  -9.997  43.095  1.00  0.00     0.014 C 
ATOM     26  C   UNL     1      17.958 -12.238  41.976  1.00  0.00     0.016 C 
ATOM     27  C   UNL     1      19.256  -9.109  40.966  1.00  0.00     0.063 C 
ATOM     28  C   UNL     1      16.868  -9.346  41.926  1.00  0.00     0.033 C 
ATOM     29  C   UNL     1      17.745  -9.076  40.673  1.00  0.00     0.118 C 
BRANCH  29  30
ATOM     30  O   UNL     1      17.386  -7.859  40.068  1.00  0.00    -0.393 OA
ATOM     31  H   UNL     1      16.453  -7.950  39.742  1.00  0.00     0.210 HD
ENDBRANCH  29  30
ENDBRANCH   1  11
TORSDOF 6
ENDMDL
MODEL 2
REMARK VINA RESULT:    -5.896      1.369      1.996
REMARK INTER + INTRA:          -9.239
REMARK INTER:                  -7.257
REMARK INTRA:                  -1.982
REMARK UNBOUND:                -1.448
REMARK SMILES CC[C@H](C=C[C@H](C)[C@@H]1CC[C@H]2[C@@H]3CC=C4C[C@H](O)CC[C@]4(C)[C@@H]3CC[C@]21C)C(C)C
REMARK SMILES IDX 6 1 7 2 5 3 4 4 3 5 2 6 1 7 28 8 29 9 30 10 8 11 9 12 26 13
REMARK SMILES IDX 10 14 11 15 25 16 27 17 12 18 24 19 23 20 13 21 21 22 14 23
REMARK SMILES IDX 15 24 20 25 22 26 16 27 19 28 17 29 18 30
REMARK H PARENT 18 31
REMARK Flexibility Score: inf
ROOT
ATOM      1  C   UNL     1      23.386 -14.175  45.630  1.00  0.00     0.012 C 
ATOM      2  C   UNL     1      24.254 -14.355  46.897  1.00  0.00     0.012 C 
ENDROOT
BRANCH   1   3
ATOM      3  C   UNL     1      23.079 -15.576  45.132  1.00  0.00    -0.028 C 
ATOM      4  C   UNL     1      23.285 -15.939  43.856  1.00  0.00    -0.027 C 
BRANCH   4   5
ATOM      5  C   UNL     1      23.001 -17.353  43.385  1.00  0.00     0.014 C 
BRANCH   5   6
ATOM      6  C   UNL     1      22.887 -18.287  44.628  1.00  0.00     0.004 C 
ATOM      7  C   UNL     1      24.148 -19.125  44.847  1.00  0.00     0.004 C 
ENDBRANCH   5   6
BRANCH   5   8
ATOM      8  C   UNL     1      21.725 -17.382  42.484  1.00  0.00    -0.011 C 
ATOM      9  C   UNL     1      20.450 -17.580  43.327  1.00  0.00     0.008 C 
ATOM     10  C   UNL     1      21.566 -16.100  41.650  1.00  0.00     0.008 C 
ENDBRANCH   5   8
ENDBRANCH   4   5
ENDBRANCH   1   3
BRANCH   1  11
ATOM     11  C   UNL     1      22.053 -13.369  45.890  1.00  0.00     0.002 C 
ATOM     12  C   UNL     1      20.859 -14.317  46.192  1.00  0.00     0.005 C 
ATOM     13  C   UNL     1      21.515 -12.457  44.724  1.00  0.00    -0.026 C 
ATOM     14  C   UNL     1      19.894 -14.255  45.014  1.00  0.00     0.005 C 
ATOM     15  C   UNL     1      20.568 -13.393  43.946  1.00  0.00    -0.001 C 
ATOM     16  C   UNL     1      20.707 -11.284  45.351  1.00  0.00     0.007 C 
ATOM     17  C   UNL     1      22.615 -11.874  43.808  1.00  0.00     0.012 C 
ATOM     18  C   UNL     1      19.536 -12.702  43.000  1.00  0.00     0.000 C 
ATOM     19  C   UNL     1      19.825 -10.533  44.350  1.00  0.00     0.005 C 
ATOM     20  C   UNL     1      18.815 -11.466  43.631  1.00  0.00     0.003 C 
ATOM     21  C   UNL     1      20.121 -12.446  41.576  1.00  0.00     0.031 C 
ATOM     22  C   UNL     1      17.938 -10.725  42.549  1.00  0.00    -0.008 C 
ATOM     23  C   UNL     1      19.863 -11.074  41.004  1.00  0.00    -0.027 C 
ATOM     24  C   UNL     1      18.834 -10.297  41.394  1.00  0.00    -0.065 C 
ATOM     25  C   UNL     1      17.234  -9.466  43.146  1.00  0.00     0.014 C 
ATOM     26  C   UNL     1      16.842 -11.689  42.015  1.00  0.00     0.016 C 
ATOM     27  C   UNL     1      18.664  -8.923  40.780  1.00  0.00     0.063 C 
ATOM     28  C   UNL     1      16.466  -8.623  42.106  1.00  0.00     0.033 C 
ATOM     29  C   UNL     1      17.176  -8.531  40.728  1.00  0.00     0.118 C 
BRANCH  29  30
ATOM     30  O   UNL     1      17.023  -7.249  40.174  1.00  0.00    -0.393 OA
ATOM     31  H   UNL     1      16.343  -7.313  39.452  1.00  0.00     0.210 HD
ENDBRANCH  29  30
ENDBRANCH   1  11
TORSDOF 6
ENDMDL
MODEL 3
REMARK VINA RESULT:    -5.798      1.477      3.921
REMARK INTER + INTRA:          -9.111
REMARK INTER:                  -7.775
REMARK INTRA:                  -1.335
REMARK UNBOUND:                -1.448
REMARK SMILES CC[C@H](C=C[C@H](C)[C@@H]1CC[C@H]2[C@@H]3CC=C4C[C@H](O)CC[C@]4(C)[C@@H]3CC[C@]21C)C(C)C
REMARK SMILES IDX 6 1 7 2 5 3 4 4 3 5 2 6 1 7 28 8 29 9 30 10 8 11 9 12 26 13
REMARK SMILES IDX 10 14 11 15 25 16 27 17 12 18 24 19 23 20 13 21 21 22 14 23
REMARK SMILES IDX 15 24 20 25 22 26 16 27 19 28 17 29 18 30
REMARK H PARENT 18 31
REMARK Flexibility Score: inf
ROOT
ATOM      1  C   UNL     1      22.085 -15.935  44.161  1.00  0.00     0.012 C 
ATOM      2  C   UNL     1      22.900 -17.229  43.931  1.00  0.00     0.012 C 
ENDROOT
BRANCH   1   3
ATOM      3  C   UNL     1      22.991 -15.008  44.951  1.00  0.00    -0.028 C 
ATOM      4  C   UNL     1      22.713 -14.650  46.215  1.00  0.00    -0.027 C 
BRANCH   4   5
ATOM      5  C   UNL     1      23.646 -13.747  46.999  1.00  0.00     0.014 C 
BRANCH   5   6
ATOM      6  C   UNL     1      25.089 -14.335  46.939  1.00  0.00     0.004 C 
ATOM      7  C   UNL     1      25.125 -15.831  47.258  1.00  0.00     0.004 C 
ENDBRANCH   5   6
BRANCH   5   8
ATOM      8  C   UNL     1      23.565 -12.281  46.463  1.00  0.00    -0.011 C 
ATOM      9  C   UNL     1      22.210 -11.635  46.809  1.00  0.00     0.008 C 
ATOM     10  C   UNL     1      24.688 -11.390  47.019  1.00  0.00     0.008 C 
ENDBRANCH   5   8
ENDBRANCH   4   5
ENDBRANCH   1   3
BRANCH   1  11
ATOM     11  C   UNL     1      21.609 -15.247  42.823  1.00  0.00     0.002 C 
ATOM     12  C   UNL     1      22.776 -14.511  42.109  1.00  0.00     0.005 C 
ATOM     13  C   UNL     1      20.487 -14.145  42.930  1.00  0.00    -0.026 C 
ATOM     14  C   UNL     1      22.519 -13.010  42.203  1.00  0.00     0.005 C 
ATOM     15  C   UNL     1      21.287 -12.836  43.091  1.00  0.00    -0.001 C 
ATOM     16  C   UNL     1      19.692 -14.122  41.593  1.00  0.00     0.007 C 
ATOM     17  C   UNL     1      19.497 -14.352  44.099  1.00  0.00     0.012 C 
ATOM     18  C   UNL     1      20.517 -11.513  42.787  1.00  0.00     0.000 C 
ATOM     19  C   UNL     1      18.825 -12.873  41.409  1.00  0.00     0.005 C 
ATOM     20  C   UNL     1      19.649 -11.560  41.487  1.00  0.00     0.003 C 
ATOM     21  C   UNL     1      19.765 -10.967  44.042  1.00  0.00     0.031 C 
ATOM     22  C   UNL     1      18.767 -10.258  41.363  1.00  0.00    -0.008 C 
ATOM     23  C   UNL     1      18.342 -10.524  43.804  1.00  0.00    -0.027 C 
ATOM     24  C   UNL     1      17.884 -10.139  42.598  1.00  0.00    -0.065 C 
ATOM     25  C   UNL     1      17.865 -10.297  40.089  1.00  0.00     0.014 C 
ATOM     26  C   UNL     1      19.688  -9.010  41.271  1.00  0.00     0.016 C 
ATOM     27  C   UNL     1      16.434  -9.728  42.449  1.00  0.00     0.063 C 
ATOM     28  C   UNL     1      16.882  -9.112  39.979  1.00  0.00     0.033 C 
ATOM     29  C   UNL     1      16.280  -8.671  41.340  1.00  0.00     0.118 C 
BRANCH  29  30
ATOM     30  O   UNL     1      14.930  -8.305  41.192  1.00  0.00    -0.393 OA
ATOM     31  H   UNL     1      14.768  -7.516  41.773  1.00  0.00     0.210 HD
ENDBRANCH  29  30
ENDBRANCH   1  11
TORSDOF 6
ENDMDL
MODEL 4
REMARK VINA RESULT:    -5.743      2.322      4.157
REMARK INTER + INTRA:          -9.038
REMARK INTER:                  -7.051
REMARK INTRA:                  -1.987
REMARK UNBOUND:                -1.448
REMARK SMILES CC[C@H](C=C[C@H](C)[C@@H]1CC[C@H]2[C@@H]3CC=C4C[C@H](O)CC[C@]4(C)[C@@H]3CC[C@]21C)C(C)C
REMARK SMILES IDX 6 1 7 2 5 3 4 4 3 5 2 6 1 7 28 8 29 9 30 10 8 11 9 12 26 13
REMARK SMILES IDX 10 14 11 15 25 16 27 17 12 18 24 19 23 20 13 21 21 22 14 23
REMARK SMILES IDX 15 24 20 25 22 26 16 27 19 28 17 29 18 30
REMARK H PARENT 18 31
REMARK Flexibility Score: inf
ROOT
ATOM      1  C   UNL     1      20.138 -13.847  45.966  1.00  0.00     0.012 C 
ATOM      2  C   UNL     1      19.153 -14.930  46.465  1.00  0.00     0.012 C 
ENDROOT
BRANCH   1   3
ATOM      3  C   UNL     1      21.527 -14.420  46.178  1.00  0.00    -0.028 C 
ATOM      4  C   UNL     1      22.508 -13.710  46.760  1.00  0.00    -0.027 C 
BRANCH   4   5
ATOM      5  C   UNL     1      23.882 -14.311  46.991  1.00  0.00     0.014 C 
BRANCH   5   6
ATOM      6  C   UNL     1      23.879 -15.788  46.492  1.00  0.00     0.004 C 
ATOM      7  C   UNL     1      24.723 -16.705  47.379  1.00  0.00     0.004 C 
ENDBRANCH   5   6
BRANCH   5   8
ATOM      8  C   UNL     1      24.981 -13.439  46.302  1.00  0.00    -0.011 C 
ATOM      9  C   UNL     1      25.124 -13.798  44.810  1.00  0.00     0.008 C 
ATOM     10  C   UNL     1      24.693 -11.933  46.417  1.00  0.00     0.008 C 
ENDBRANCH   5   8
ENDBRANCH   4   5
ENDBRANCH   1   3
BRANCH   1  11
ATOM     11  C   UNL     1      19.921 -13.449  44.454  1.00  0.00     0.002 C 
ATOM     12  C   UNL     1      20.534 -14.501  43.490  1.00  0.00     0.005 C 
ATOM     13  C   UNL     1      20.545 -12.089  43.963  1.00  0.00    -0.026 C 
ATOM     14  C   UNL     1      21.740 -13.869  42.802  1.00  0.00     0.005 C 
ATOM     15  C   UNL     1      21.941 -12.501  43.452  1.00  0.00    -0.001 C 
ATOM     16  C   UNL     1      19.685 -11.551  42.783  1.00  0.00     0.007 C 
ATOM     17  C   UNL     1      20.639 -10.997  45.053  1.00  0.00     0.012 C 
ATOM     18  C   UNL     1      22.656 -11.490  42.501  1.00  0.00     0.000 C 
ATOM     19  C   UNL     1      20.366 -10.446  41.971  1.00  0.00     0.005 C 
ATOM     20  C   UNL     1      21.733 -10.894  41.388  1.00  0.00     0.003 C 
ATOM     21  C   UNL     1      23.483 -10.425  43.288  1.00  0.00     0.031 C 
ATOM     22  C   UNL     1      22.484  -9.751  40.600  1.00  0.00    -0.008 C 
ATOM     23  C   UNL     1      23.309  -8.998  42.828  1.00  0.00    -0.027 C 
ATOM     24  C   UNL     1      22.911  -8.670  41.584  1.00  0.00    -0.065 C 
ATOM     25  C   UNL     1      21.570  -9.116  39.505  1.00  0.00     0.014 C 
ATOM     26  C   UNL     1      23.744 -10.337  39.905  1.00  0.00     0.016 C 
ATOM     27  C   UNL     1      22.743  -7.210  41.216  1.00  0.00     0.063 C 
ATOM     28  C   UNL     1      22.200  -7.904  38.787  1.00  0.00     0.033 C 
ATOM     29  C   UNL     1      23.037  -6.989  39.721  1.00  0.00     0.118 C 
BRANCH  29  30
ATOM     30  O   UNL     1      22.864  -5.637  39.380  1.00  0.00    -0.393 OA
ATOM     31  H   UNL     1      21.888  -5.464  39.322  1.00  0.00     0.210 HD
ENDBRANCH  29  30
ENDBRANCH   1  11
TORSDOF 6
ENDMDL
MODEL 5
REMARK VINA RESULT:    -5.710      2.960      8.485
REMARK INTER + INTRA:          -8.994
REMARK INTER:                  -7.623
REMARK INTRA:                  -1.371
REMARK UNBOUND:                -1.448
REMARK SMILES CC[C@H](C=C[C@H](C)[C@@H]1CC[C@H]2[C@@H]3CC=C4C[C@H](O)CC[C@]4(C)[C@@H]3CC[C@]21C)C(C)C
REMARK SMILES IDX 6 1 7 2 5 3 4 4 3 5 2 6 1 7 28 8 29 9 30 10 8 11 9 12 26 13
REMARK SMILES IDX 10 14 11 15 25 16 27 17 12 18 24 19 23 20 13 21 21 22 14 23
REMARK SMILES IDX 15 24 20 25 22 26 16 27 19 28 17 29 18 30
REMARK H PARENT 18 31
REMARK Flexibility Score: inf
ROOT
ATOM      1  C   UNL     1      18.525 -11.604  38.856  1.00  0.00     0.012 C 
ATOM      2  C   UNL     1      17.450 -12.171  37.900  1.00  0.00     0.012 C 
ENDROOT
BRANCH   1   3
ATOM      3  C   UNL     1      17.782 -10.714  39.836  1.00  0.00    -0.028 C 
ATOM      4  C   UNL     1      16.452 -10.792  40.001  1.00  0.00    -0.027 C 
BRANCH   4   5
ATOM      5  C   UNL     1      15.732  -9.913  41.006  1.00  0.00     0.014 C 
BRANCH   5   6
ATOM      6  C   UNL     1      14.898 -10.818  41.962  1.00  0.00     0.004 C 
ATOM      7  C   UNL     1      14.959 -12.296  41.571  1.00  0.00     0.004 C 
ENDBRANCH   5   6
BRANCH   5   8
ATOM      8  C   UNL     1      16.750  -9.004  41.765  1.00  0.00    -0.011 C 
ATOM      9  C   UNL     1      16.304  -7.529  41.746  1.00  0.00     0.008 C 
ATOM     10  C   UNL     1      16.947  -9.436  43.228  1.00  0.00     0.008 C 
ENDBRANCH   5   8
ENDBRANCH   4   5
ENDBRANCH   1   3
BRANCH   1  11
ATOM     11  C   UNL     1      19.338 -12.721  39.620  1.00  0.00     0.002 C 
ATOM     12  C   UNL     1      18.439 -13.930  39.998  1.00  0.00     0.005 C 
ATOM     13  C   UNL     1      20.015 -12.322  40.986  1.00  0.00    -0.026 C 
ATOM     14  C   UNL     1      18.268 -13.939  41.514  1.00  0.00     0.005 C 
ATOM     15  C   UNL     1      18.936 -12.666  42.033  1.00  0.00    -0.001 C 
ATOM     16  C   UNL     1      21.266 -13.224  41.196  1.00  0.00     0.007 C 
ATOM     17  C   UNL     1      20.445 -10.840  41.079  1.00  0.00     0.012 C 
ATOM     18  C   UNL     1      19.424 -12.810  43.509  1.00  0.00     0.000 C 
ATOM     19  C   UNL     1      21.807 -13.211  42.629  1.00  0.00     0.005 C 
ATOM     20  C   UNL     1      20.740 -13.640  43.671  1.00  0.00     0.003 C 
ATOM     21  C   UNL     1      19.430 -11.443  44.263  1.00  0.00     0.031 C 
ATOM     22  C   UNL     1      21.256 -13.573  45.160  1.00  0.00    -0.008 C 
ATOM     23  C   UNL     1      20.672 -11.152  45.070  1.00  0.00    -0.027 C 
ATOM     24  C   UNL     1      21.486 -12.116  45.540  1.00  0.00    -0.065 C 
ATOM     25  C   UNL     1      22.588 -14.366  45.340  1.00  0.00     0.014 C 
ATOM     26  C   UNL     1      20.191 -14.186  46.110  1.00  0.00     0.016 C 
ATOM     27  C   UNL     1      22.723 -11.729  46.324  1.00  0.00     0.063 C 
ATOM     28  C   UNL     1      23.215 -14.231  46.744  1.00  0.00     0.033 C 
ATOM     29  C   UNL     1      23.070 -12.814  47.360  1.00  0.00     0.118 C 
BRANCH  29  30
ATOM     30  O   UNL     1      24.228 -12.460  48.074  1.00  0.00    -0.393 OA
ATOM     31  H   UNL     1      24.373 -11.486  47.947  1.00  0.00     0.210 HD
ENDBRANCH  29  30
ENDBRANCH   1  11
TORSDOF 6
ENDMDL
MODEL 6
REMARK VINA RESULT:    -5.579      3.009      8.803
REMARK INTER + INTRA:          -8.820
REMARK INTER:                  -6.902
REMARK INTRA:                  -1.919
REMARK UNBOUND:                -1.448
REMARK SMILES CC[C@H](C=C[C@H](C)[C@@H]1CC[C@H]2[C@@H]3CC=C4C[C@H](O)CC[C@]4(C)[C@@H]3CC[C@]21C)C(C)C
REMARK SMILES IDX 6 1 7 2 5 3 4 4 3 5 2 6 1 7 28 8 29 9 30 10 8 11 9 12 26 13
REMARK SMILES IDX 10 14 11 15 25 16 27 17 12 18 24 19 23 20 13 21 21 22 14 23
REMARK SMILES IDX 15 24 20 25 22 26 16 27 19 28 17 29 18 30
REMARK H PARENT 18 31
REMARK Flexibility Score: inf
ROOT
ATOM      1  C   UNL     1      18.541 -11.466  38.666  1.00  0.00     0.012 C 
ATOM      2  C   UNL     1      18.469 -11.744  37.147  1.00  0.00     0.012 C 
ENDROOT
BRANCH   1   3
ATOM      3  C   UNL     1      17.105 -11.282  39.124  1.00  0.00    -0.028 C 
ATOM      4  C   UNL     1      16.685 -10.150  39.711  1.00  0.00    -0.027 C 
BRANCH   4   5
ATOM      5  C   UNL     1      15.239  -9.975  40.134  1.00  0.00     0.014 C 
BRANCH   5   6
ATOM      6  C   UNL     1      14.340 -10.905  39.264  1.00  0.00     0.004 C 
ATOM      7  C   UNL     1      13.742 -10.178  38.057  1.00  0.00     0.004 C 
ENDBRANCH   5   6
BRANCH   5   8
ATOM      8  C   UNL     1      15.082 -10.239  41.666  1.00  0.00    -0.011 C 
ATOM      9  C   UNL     1      14.808 -11.728  41.951  1.00  0.00     0.008 C 
ATOM     10  C   UNL     1      16.323  -9.809  42.466  1.00  0.00     0.008 C 
ENDBRANCH   5   8
ENDBRANCH   4   5
ENDBRANCH   1   3
BRANCH   1  11
ATOM     11  C   UNL     1      19.246 -12.617  39.483  1.00  0.00     0.002 C 
ATOM     12  C   UNL     1      18.244 -13.735  39.882  1.00  0.00     0.005 C 
ATOM     13  C   UNL     1      19.929 -12.228  40.849  1.00  0.00    -0.026 C 
ATOM     14  C   UNL     1      18.046 -13.678  41.394  1.00  0.00     0.005 C 
ATOM     15  C   UNL     1      18.807 -12.446  41.884  1.00  0.00    -0.001 C 
ATOM     16  C   UNL     1      21.098 -13.221  41.114  1.00  0.00     0.007 C 
ATOM     17  C   UNL     1      20.477 -10.784  40.901  1.00  0.00     0.012 C 
ATOM     18  C   UNL     1      19.256 -12.578  43.373  1.00  0.00     0.000 C 
ATOM     19  C   UNL     1      21.613 -13.202  42.556  1.00  0.00     0.005 C 
ATOM     20  C   UNL     1      20.496 -13.506  43.590  1.00  0.00     0.003 C 
ATOM     21  C   UNL     1      19.360 -11.191  44.082  1.00  0.00     0.031 C 
ATOM     22  C   UNL     1      20.989 -13.430  45.087  1.00  0.00    -0.008 C 
ATOM     23  C   UNL     1      20.606 -10.974  44.904  1.00  0.00    -0.027 C 
ATOM     24  C   UNL     1      21.331 -11.984  45.422  1.00  0.00    -0.065 C 
ATOM     25  C   UNL     1      22.249 -14.322  45.320  1.00  0.00     0.014 C 
ATOM     26  C   UNL     1      19.860 -13.921  46.034  1.00  0.00     0.016 C 
ATOM     27  C   UNL     1      22.581 -11.672  46.218  1.00  0.00     0.063 C 
ATOM     28  C   UNL     1      22.859 -14.190  46.731  1.00  0.00     0.033 C 
ATOM     29  C   UNL     1      22.820 -12.744  47.297  1.00  0.00     0.118 C 
BRANCH  29  30
ATOM     30  O   UNL     1      23.990 -12.461  48.022  1.00  0.00    -0.393 OA
ATOM     31  H   UNL     1      23.964 -13.000  48.856  1.00  0.00     0.210 HD
ENDBRANCH  29  30
ENDBRANCH   1  11
TORSDOF 6
ENDMDL
MODEL 7
REMARK VINA RESULT:    -5.423      2.082      4.762
REMARK INTER + INTRA:          -8.614
REMARK INTER:                  -6.798
REMARK INTRA:                  -1.816
REMARK UNBOUND:                -1.448
REMARK SMILES CC[C@H](C=C[C@H](C)[C@@H]1CC[C@H]2[C@@H]3CC=C4C[C@H](O)CC[C@]4(C)[C@@H]3CC[C@]21C)C(C)C
REMARK SMILES IDX 6 1 7 2 5 3 4 4 3 5 2 6 1 7 28 8 29 9 30 10 8 11 9 12 26 13
REMARK SMILES IDX 10 14 11 15 25 16 27 17 12 18 24 19 23 20 13 21 21 22 14 23
REMARK SMILES IDX 15 24 20 25 22 26 16 27 19 28 17 29 18 30
REMARK H PARENT 18 31
REMARK Flexibility Score: inf
ROOT
ATOM      1  C   UNL     1      21.928 -14.231  42.920  1.00  0.00     0.012 C 
ATOM      2  C   UNL     1      22.781 -15.452  42.502  1.00  0.00     0.012 C 
ENDROOT
BRANCH   1   3
ATOM      3  C   UNL     1      22.739 -13.499  43.974  1.00  0.00    -0.028 C 
ATOM      4  C   UNL     1      22.286 -13.327  45.226  1.00  0.00    -0.027 C 
BRANCH   4   5
ATOM      5  C   UNL     1      23.124 -12.618  46.274  1.00  0.00     0.014 C 
BRANCH   5   6
ATOM      6  C   UNL     1      24.629 -12.930  46.014  1.00  0.00     0.004 C 
ATOM      7  C   UNL     1      25.124 -14.133  46.819  1.00  0.00     0.004 C 
ENDBRANCH   5   6
BRANCH   5   8
ATOM      8  C   UNL     1      22.812 -11.087  46.278  1.00  0.00    -0.011 C 
ATOM      9  C   UNL     1      23.784 -10.317  45.363  1.00  0.00     0.008 C 
ATOM     10  C   UNL     1      21.373 -10.779  45.832  1.00  0.00     0.008 C 
ENDBRANCH   5   8
ENDBRANCH   4   5
ENDBRANCH   1   3
BRANCH   1  11
ATOM     11  C   UNL     1      21.574 -13.271  41.718  1.00  0.00     0.002 C 
ATOM     12  C   UNL     1      22.566 -12.078  41.625  1.00  0.00     0.005 C 
ATOM     13  C   UNL     1      20.160 -12.576  41.733  1.00  0.00    -0.026 C 
ATOM     14  C   UNL     1      21.815 -10.806  42.005  1.00  0.00     0.005 C 
ATOM     15  C   UNL     1      20.425 -11.244  42.466  1.00  0.00    -0.001 C 
ATOM     16  C   UNL     1      19.733 -12.299  40.263  1.00  0.00     0.007 C 
ATOM     17  C   UNL     1      19.052 -13.397  42.431  1.00  0.00     0.012 C 
ATOM     18  C   UNL     1      19.354 -10.125  42.273  1.00  0.00     0.000 C 
ATOM     19  C   UNL     1      18.571 -11.311  40.130  1.00  0.00     0.005 C 
ATOM     20  C   UNL     1      18.875  -9.942  40.795  1.00  0.00     0.003 C 
ATOM     21  C   UNL     1      18.196 -10.232  43.314  1.00  0.00     0.031 C 
ATOM     22  C   UNL     1      17.668  -8.929  40.726  1.00  0.00    -0.008 C 
ATOM     23  C   UNL     1      16.803 -10.093  42.753  1.00  0.00    -0.027 C 
ATOM     24  C   UNL     1      16.535  -9.449  41.601  1.00  0.00    -0.065 C 
ATOM     25  C   UNL     1      17.149  -8.756  39.264  1.00  0.00     0.014 C 
ATOM     26  C   UNL     1      18.122  -7.539  41.251  1.00  0.00     0.016 C 
ATOM     27  C   UNL     1      15.107  -9.377  41.103  1.00  0.00     0.063 C 
ATOM     28  C   UNL     1      15.885  -7.879  39.145  1.00  0.00     0.033 C 
ATOM     29  C   UNL     1      14.873  -8.080  40.306  1.00  0.00     0.118 C 
BRANCH  29  30
ATOM     30  O   UNL     1      13.552  -8.025  39.830  1.00  0.00    -0.393 OA
ATOM     31  H   UNL     1      13.277  -8.951  39.600  1.00  0.00     0.210 HD
ENDBRANCH  29  30
ENDBRANCH   1  11
TORSDOF 6
ENDMDL
MODEL 8
REMARK VINA RESULT:    -5.358      3.366      8.200
REMARK INTER + INTRA:          -8.528
REMARK INTER:                  -7.008
REMARK INTRA:                  -1.521
REMARK UNBOUND:                -1.448
REMARK SMILES CC[C@H](C=C[C@H](C)[C@@H]1CC[C@H]2[C@@H]3CC=C4C[C@H](O)CC[C@]4(C)[C@@H]3CC[C@]21C)C(C)C
REMARK SMILES IDX 6 1 7 2 5 3 4 4 3 5 2 6 1 7 28 8 29 9 30 10 8 11 9 12 26 13
REMARK SMILES IDX 10 14 11 15 25 16 27 17 12 18 24 19 23 20 13 21 21 22 14 23
REMARK SMILES IDX 15 24 20 25 22 26 16 27 19 28 17 29 18 30
REMARK H PARENT 18 31
REMARK Flexibility Score: inf
ROOT
ATOM      1  C   UNL     1      16.798 -10.937  41.281  1.00  0.00     0.012 C 
ATOM      2  C   UNL     1      16.156  -9.664  40.683  1.00  0.00     0.012 C 
ENDROOT
BRANCH   1   3
ATOM      3  C   UNL     1      16.268 -12.097  40.457  1.00  0.00    -0.028 C 
ATOM      4  C   UNL     1      15.789 -13.214  41.028  1.00  0.00    -0.027 C 
BRANCH   4   5
ATOM      5  C   UNL     1      15.236 -14.350  40.188  1.00  0.00     0.014 C 
BRANCH   5   6
ATOM      6  C   UNL     1      16.127 -15.611  40.394  1.00  0.00     0.004 C 
ATOM      7  C   UNL     1      17.031 -15.495  41.623  1.00  0.00     0.004 C 
ENDBRANCH   5   6
BRANCH   5   8
ATOM      8  C   UNL     1      13.733 -14.604  40.535  1.00  0.00    -0.011 C 
ATOM      9  C   UNL     1      12.801 -13.886  39.540  1.00  0.00     0.008 C 
ATOM     10  C   UNL     1      13.379 -16.100  40.545  1.00  0.00     0.008 C 
ENDBRANCH   5   8
ENDBRANCH   4   5
ENDBRANCH   1   3
BRANCH   1  11
ATOM     11  C   UNL     1      18.377 -10.912  41.263  1.00  0.00     0.002 C 
ATOM     12  C   UNL     1      18.956 -11.982  40.297  1.00  0.00     0.005 C 
ATOM     13  C   UNL     1      19.125 -11.196  42.620  1.00  0.00    -0.026 C 
ATOM     14  C   UNL     1      19.636 -13.060  41.135  1.00  0.00     0.005 C 
ATOM     15  C   UNL     1      19.342 -12.723  42.596  1.00  0.00    -0.001 C 
ATOM     16  C   UNL     1      20.497 -10.463  42.587  1.00  0.00     0.007 C 
ATOM     17  C   UNL     1      18.350 -10.753  43.882  1.00  0.00     0.012 C 
ATOM     18  C   UNL     1      20.430 -13.282  43.566  1.00  0.00     0.000 C 
ATOM     19  C   UNL     1      21.480 -10.937  43.662  1.00  0.00     0.005 C 
ATOM     20  C   UNL     1      21.760 -12.461  43.580  1.00  0.00     0.003 C 
ATOM     21  C   UNL     1      19.852 -13.593  44.983  1.00  0.00     0.031 C 
ATOM     22  C   UNL     1      22.721 -12.984  44.716  1.00  0.00    -0.008 C 
ATOM     23  C   UNL     1      20.682 -13.103  46.144  1.00  0.00    -0.027 C 
ATOM     24  C   UNL     1      22.006 -12.876  46.057  1.00  0.00    -0.065 C 
ATOM     25  C   UNL     1      24.044 -12.156  44.773  1.00  0.00     0.014 C 
ATOM     26  C   UNL     1      23.086 -14.470  44.449  1.00  0.00     0.016 C 
ATOM     27  C   UNL     1      22.756 -12.365  47.270  1.00  0.00     0.063 C 
ATOM     28  C   UNL     1      24.971 -12.532  45.949  1.00  0.00     0.033 C 
ATOM     29  C   UNL     1      24.211 -12.867  47.261  1.00  0.00     0.118 C 
BRANCH  29  30
ATOM     30  O   UNL     1      24.909 -12.377  48.379  1.00  0.00    -0.393 OA
ATOM     31  H   UNL     1      24.397 -12.636  49.189  1.00  0.00     0.210 HD
ENDBRANCH  29  30
ENDBRANCH   1  11
TORSDOF 6
ENDMDL
