MODEL 1
REMARK VINA RESULT:    -6.438      0.000      0.000
REMARK INTER + INTRA:         -10.856
REMARK INTER:                  -9.825
REMARK INTRA:                  -1.031
REMARK UNBOUND:                -1.031
REMARK SMILES C[C@@H]1O[C@@H](Oc2c(-c3ccc(O)cc3)oc3cc(O[C@@H]4O[C@H](C)[C@H](O)[C@H](O)[C@H]4O)cc(O)c3c2=O)[C@@H](O)[C@H](O)[C@H]1O
REMARK SMILES IDX 18 1 30 2 31 3 33 4 16 5 17 6 15 7 7 8 6 9 34 10 35 11 19 12
REMARK SMILES IDX 20 13 23 14 22 15 24 16 21 17 26 18 28 19 25 20 27 22 29 24
REMARK SMILES IDX 32 26 8 28 9 29 14 30 10 31 13 32 11 33 12 34 5 36 4 37
REMARK SMILES IDX 36 38 3 39 38 40 2 41 40 42 1 43 37 44 39 46 41 48
REMARK H PARENT 25 21 27 23 29 25 32 27 12 35 37 45 39 47 41 49
REMARK Flexibility Score: inf
ROOT
ATOM      1  C   UNL     1      -9.921  36.187   7.854  1.00  0.00     0.130 A 
ATOM      2  C   UNL     1      -8.978  36.203   6.827  1.00  0.00     0.093 A 
ATOM      3  C   UNL     1      -8.599  35.033   6.158  1.00  0.00     0.134 A 
ATOM      4  C   UNL     1      -9.227  33.795   6.491  1.00  0.00     0.111 A 
ATOM      5  C   UNL     1     -10.173  33.786   7.549  1.00  0.00     0.146 A 
ATOM      6  C   UNL     1     -10.515  34.967   8.212  1.00  0.00     0.094 A 
ATOM      7  O   UNL     1     -10.750  32.656   7.937  1.00  0.00    -0.452 OA
ATOM      8  C   UNL     1     -10.518  31.483   7.363  1.00  0.00     0.180 A 
ATOM      9  C   UNL     1      -9.675  31.406   6.244  1.00  0.00     0.214 A 
ATOM     10  C   UNL     1      -8.999  32.565   5.825  1.00  0.00     0.239 A 
ATOM     11  O   UNL     1      -8.193  32.481   4.864  1.00  0.00    -0.285 OA
ENDROOT
BRANCH   1  12
ATOM     12  O   UNL     1     -10.228  37.409   8.481  1.00  0.00    -0.462 OA
BRANCH  12  13
ATOM     13  C   UNL     1     -11.495  38.069   8.491  1.00  0.00     0.339 C 
ATOM     14  C   UNL     1     -12.735  40.549   6.084  1.00  0.00     0.042 C 
ATOM     15  C   UNL     1     -12.742  39.661   7.329  1.00  0.00     0.151 C 
ATOM     16  C   UNL     1     -13.096  40.474   8.598  1.00  0.00     0.174 C 
ATOM     17  O   UNL     1     -11.472  39.049   7.466  1.00  0.00    -0.335 OA
ATOM     18  C   UNL     1     -13.027  39.561   9.841  1.00  0.00     0.180 C 
ATOM     19  C   UNL     1     -11.722  38.748   9.864  1.00  0.00     0.214 C 
BRANCH  16  20
ATOM     20  O   UNL     1     -12.268  41.606   8.751  1.00  0.00    -0.388 OA
ATOM     21  H   UNL     1     -11.474  41.488   8.170  1.00  0.00     0.211 HD
ENDBRANCH  16  20
BRANCH  18  22
ATOM     22  O   UNL     1     -13.125  40.325  11.016  1.00  0.00    -0.387 OA
ATOM     23  H   UNL     1     -12.773  41.228  10.802  1.00  0.00     0.211 HD
ENDBRANCH  18  22
BRANCH  19  24
ATOM     24  O   UNL     1     -11.810  37.788  10.884  1.00  0.00    -0.384 OA
ATOM     25  H   UNL     1     -12.681  37.324  10.777  1.00  0.00     0.211 HD
ENDBRANCH  19  24
ENDBRANCH  12  13
ENDBRANCH   1  12
BRANCH   3  26
ATOM     26  O   UNL     1      -7.592  35.173   5.198  1.00  0.00    -0.507 OA
ATOM     27  H   UNL     1      -7.579  35.855   4.456  1.00  0.00     0.293 HD
ENDBRANCH   3  26
BRANCH   8  28
ATOM     28  C   UNL     1     -11.187  30.288   7.915  1.00  0.00     0.021 A 
ATOM     29  C   UNL     1     -10.736  29.691   9.107  1.00  0.00     0.016 A 
ATOM     30  C   UNL     1     -12.307  29.752   7.258  1.00  0.00     0.016 A 
ATOM     31  C   UNL     1     -11.378  28.557   9.612  1.00  0.00     0.047 A 
ATOM     32  C   UNL     1     -12.944  28.615   7.765  1.00  0.00     0.047 A 
ATOM     33  C   UNL     1     -12.481  28.013   8.940  1.00  0.00     0.115 A 
BRANCH  33  34
ATOM     34  O   UNL     1     -13.125  26.880   9.432  1.00  0.00    -0.508 OA
ATOM     35  H   UNL     1     -12.646  25.990   9.510  1.00  0.00     0.293 HD
ENDBRANCH  33  34
ENDBRANCH   8  28
BRANCH   9  36
ATOM     36  O   UNL     1      -9.513  30.184   5.572  1.00  0.00    -0.454 OA
BRANCH  36  37
ATOM     37  C   UNL     1      -8.848  29.048   6.142  1.00  0.00     0.339 C 
ATOM     38  C   UNL     1      -8.918  27.834   5.194  1.00  0.00     0.214 C 
ATOM     39  O   UNL     1      -7.506  29.361   6.482  1.00  0.00    -0.335 OA
ATOM     40  C   UNL     1      -8.053  28.063   3.937  1.00  0.00     0.180 C 
ATOM     41  C   UNL     1      -6.731  29.689   5.336  1.00  0.00     0.151 C 
ATOM     42  C   UNL     1      -6.639  28.493   4.361  1.00  0.00     0.174 C 
ATOM     43  C   UNL     1      -5.341  30.121   5.806  1.00  0.00     0.042 C 
BRANCH  38  44
ATOM     44  O   UNL     1     -10.251  27.536   4.856  1.00  0.00    -0.384 OA
ATOM     45  H   UNL     1     -10.816  28.302   5.142  1.00  0.00     0.211 HD
ENDBRANCH  38  44
BRANCH  40  46
ATOM     46  O   UNL     1      -7.978  26.876   3.187  1.00  0.00    -0.387 OA
ATOM     47  H   UNL     1      -8.142  26.127   3.817  1.00  0.00     0.211 HD
ENDBRANCH  40  46
BRANCH  42  48
ATOM     48  O   UNL     1      -5.889  28.864   3.232  1.00  0.00    -0.388 OA
ATOM     49  H   UNL     1      -6.528  29.205   2.555  1.00  0.00     0.211 HD
ENDBRANCH  42  48
ENDBRANCH  36  37
ENDBRANCH   9  36
TORSDOF 13
ENDMDL
MODEL 2
REMARK VINA RESULT:    -5.981      1.755      2.634
REMARK INTER + INTRA:         -10.160
REMARK INTER:                 -10.144
REMARK INTRA:                  -0.015
REMARK UNBOUND:                -1.031
REMARK SMILES C[C@@H]1O[C@@H](Oc2c(-c3ccc(O)cc3)oc3cc(O[C@@H]4O[C@H](C)[C@H](O)[C@H](O)[C@H]4O)cc(O)c3c2=O)[C@@H](O)[C@H](O)[C@H]1O
REMARK SMILES IDX 18 1 30 2 31 3 33 4 16 5 17 6 15 7 7 8 6 9 34 10 35 11 19 12
REMARK SMILES IDX 20 13 23 14 22 15 24 16 21 17 26 18 28 19 25 20 27 22 29 24
REMARK SMILES IDX 32 26 8 28 9 29 14 30 10 31 13 32 11 33 12 34 5 36 4 37
REMARK SMILES IDX 36 38 3 39 38 40 2 41 40 42 1 43 37 44 39 46 41 48
REMARK H PARENT 25 21 27 23 29 25 32 27 12 35 37 45 39 47 41 49
REMARK Flexibility Score: inf
ROOT
ATOM      1  C   UNL     1     -10.075  37.491   6.485  1.00  0.00     0.130 A 
ATOM      2  C   UNL     1      -9.024  37.111   5.651  1.00  0.00     0.093 A 
ATOM      3  C   UNL     1      -8.542  35.797   5.627  1.00  0.00     0.134 A 
ATOM      4  C   UNL     1      -9.170  34.801   6.434  1.00  0.00     0.111 A 
ATOM      5  C   UNL     1     -10.228  35.202   7.293  1.00  0.00     0.146 A 
ATOM      6  C   UNL     1     -10.672  36.526   7.309  1.00  0.00     0.094 A 
ATOM      7  O   UNL     1     -10.814  34.330   8.103  1.00  0.00    -0.452 OA
ATOM      8  C   UNL     1     -10.488  33.045   8.152  1.00  0.00     0.180 A 
ATOM      9  C   UNL     1      -9.524  32.533   7.271  1.00  0.00     0.214 A 
ATOM     10  C   UNL     1      -8.837  33.424   6.428  1.00  0.00     0.239 A 
ATOM     11  O   UNL     1      -7.927  32.974   5.687  1.00  0.00    -0.285 OA
ENDROOT
BRANCH   1  12
ATOM     12  O   UNL     1     -10.481  38.839   6.453  1.00  0.00    -0.462 OA
BRANCH  12  13
ATOM     13  C   UNL     1     -11.653  39.392   7.056  1.00  0.00     0.339 C 
ATOM     14  C   UNL     1     -13.125  42.698   6.442  1.00  0.00     0.042 C 
ATOM     15  C   UNL     1     -12.959  41.323   7.090  1.00  0.00     0.151 C 
ATOM     16  C   UNL     1     -12.968  41.425   8.634  1.00  0.00     0.174 C 
ATOM     17  O   UNL     1     -11.749  40.742   6.635  1.00  0.00    -0.335 OA
ATOM     18  C   UNL     1     -12.731  40.030   9.253  1.00  0.00     0.180 C 
ATOM     19  C   UNL     1     -11.530  39.327   8.598  1.00  0.00     0.214 C 
BRANCH  16  20
ATOM     20  O   UNL     1     -12.025  42.360   9.111  1.00  0.00    -0.388 OA
ATOM     21  H   UNL     1     -12.312  42.656  10.012  1.00  0.00     0.211 HD
ENDBRANCH  16  20
BRANCH  18  22
ATOM     22  O   UNL     1     -12.515  40.137  10.637  1.00  0.00    -0.387 OA
ATOM     23  H   UNL     1     -12.329  41.094  10.825  1.00  0.00     0.211 HD
ENDBRANCH  18  22
BRANCH  19  24
ATOM     24  O   UNL     1     -11.496  37.995   9.038  1.00  0.00    -0.384 OA
ATOM     25  H   UNL     1     -10.563  37.672   8.929  1.00  0.00     0.211 HD
ENDBRANCH  19  24
ENDBRANCH  12  13
ENDBRANCH   1  12
BRANCH   3  26
ATOM     26  O   UNL     1      -7.438  35.562   4.802  1.00  0.00    -0.507 OA
ATOM     27  H   UNL     1      -7.459  35.506   3.796  1.00  0.00     0.293 HD
ENDBRANCH   3  26
BRANCH   8  28
ATOM     28  C   UNL     1     -11.183  32.183   9.130  1.00  0.00     0.021 A 
ATOM     29  C   UNL     1     -12.341  31.468   8.771  1.00  0.00     0.016 A 
ATOM     30  C   UNL     1     -10.668  32.051  10.430  1.00  0.00     0.016 A 
ATOM     31  C   UNL     1     -12.989  30.662   9.711  1.00  0.00     0.047 A 
ATOM     32  C   UNL     1     -11.322  31.246  11.368  1.00  0.00     0.047 A 
ATOM     33  C   UNL     1     -12.484  30.552  11.013  1.00  0.00     0.115 A 
BRANCH  33  34
ATOM     34  O   UNL     1     -13.124  29.755  11.959  1.00  0.00    -0.508 OA
ATOM     35  H   UNL     1     -13.957  29.225  11.728  1.00  0.00     0.293 HD
ENDBRANCH  33  34
ENDBRANCH   8  28
BRANCH   9  36
ATOM     36  O   UNL     1      -9.257  31.155   7.250  1.00  0.00    -0.454 OA
BRANCH  36  37
ATOM     37  C   UNL     1      -9.953  30.224   6.410  1.00  0.00     0.339 C 
ATOM     38  C   UNL     1      -8.988  29.545   5.418  1.00  0.00     0.214 C 
ATOM     39  O   UNL     1     -10.656  29.265   7.186  1.00  0.00    -0.335 OA
ATOM     40  C   UNL     1      -8.023  28.591   6.152  1.00  0.00     0.180 C 
ATOM     41  C   UNL     1      -9.775  28.458   7.957  1.00  0.00     0.151 C 
ATOM     42  C   UNL     1      -8.829  27.638   7.050  1.00  0.00     0.174 C 
ATOM     43  C   UNL     1     -10.620  27.539   8.841  1.00  0.00     0.042 C 
BRANCH  38  44
ATOM     44  O   UNL     1      -8.291  30.503   4.660  1.00  0.00    -0.384 OA
ATOM     45  H   UNL     1      -8.574  31.402   4.970  1.00  0.00     0.211 HD
ENDBRANCH  38  44
BRANCH  40  46
ATOM     46  O   UNL     1      -7.288  27.843   5.214  1.00  0.00    -0.387 OA
ATOM     47  H   UNL     1      -6.539  28.419   4.910  1.00  0.00     0.211 HD
ENDBRANCH  40  46
BRANCH  42  48
ATOM     48  O   UNL     1      -7.959  26.875   7.848  1.00  0.00    -0.388 OA
ATOM     49  H   UNL     1      -8.517  26.242   8.367  1.00  0.00     0.211 HD
ENDBRANCH  42  48
ENDBRANCH  36  37
ENDBRANCH   9  36
TORSDOF 13
ENDMDL
MODEL 3
REMARK VINA RESULT:    -5.938      1.956     10.247
REMARK INTER + INTRA:         -10.094
REMARK INTER:                  -9.740
REMARK INTRA:                  -0.355
REMARK UNBOUND:                -1.031
REMARK SMILES C[C@@H]1O[C@@H](Oc2c(-c3ccc(O)cc3)oc3cc(O[C@@H]4O[C@H](C)[C@H](O)[C@H](O)[C@H]4O)cc(O)c3c2=O)[C@@H](O)[C@H](O)[C@H]1O
REMARK SMILES IDX 18 1 30 2 31 3 33 4 16 5 17 6 15 7 7 8 6 9 34 10 35 11 19 12
REMARK SMILES IDX 20 13 23 14 22 15 24 16 21 17 26 18 28 19 25 20 27 22 29 24
REMARK SMILES IDX 32 26 8 28 9 29 14 30 10 31 13 32 11 33 12 34 5 36 4 37
REMARK SMILES IDX 36 38 3 39 38 40 2 41 40 42 1 43 37 44 39 46 41 48
REMARK H PARENT 25 21 27 23 29 25 32 27 12 35 37 45 39 47 41 49
REMARK Flexibility Score: inf
ROOT
ATOM      1  C   UNL     1      -9.318  29.244   5.864  1.00  0.00     0.130 A 
ATOM      2  C   UNL     1     -10.193  28.920   6.900  1.00  0.00     0.093 A 
ATOM      3  C   UNL     1     -10.725  29.899   7.747  1.00  0.00     0.134 A 
ATOM      4  C   UNL     1     -10.412  31.273   7.520  1.00  0.00     0.111 A 
ATOM      5  C   UNL     1      -9.507  31.592   6.474  1.00  0.00     0.146 A 
ATOM      6  C   UNL     1      -8.977  30.589   5.659  1.00  0.00     0.094 A 
ATOM      7  O   UNL     1      -9.139  32.847   6.251  1.00  0.00    -0.452 OA
ATOM      8  C   UNL     1      -9.599  33.878   6.947  1.00  0.00     0.180 A 
ATOM      9  C   UNL     1     -10.574  33.676   7.936  1.00  0.00     0.214 A 
ATOM     10  C   UNL     1     -10.959  32.360   8.247  1.00  0.00     0.239 A 
ATOM     11  O   UNL     1     -11.783  32.176   9.178  1.00  0.00    -0.285 OA
ENDROOT
BRANCH   1  12
ATOM     12  O   UNL     1      -8.821  28.191   5.074  1.00  0.00    -0.462 OA
BRANCH  12  13
ATOM     13  C   UNL     1      -7.482  27.691   5.062  1.00  0.00     0.339 C 
ATOM     14  C   UNL     1      -5.382  26.875   7.961  1.00  0.00     0.042 C 
ATOM     15  C   UNL     1      -5.745  27.068   6.488  1.00  0.00     0.151 C 
ATOM     16  C   UNL     1      -4.686  27.927   5.755  1.00  0.00     0.174 C 
ATOM     17  O   UNL     1      -7.024  27.673   6.403  1.00  0.00    -0.335 OA
ATOM     18  C   UNL     1      -5.119  28.157   4.291  1.00  0.00     0.180 C 
ATOM     19  C   UNL     1      -6.583  28.620   4.209  1.00  0.00     0.214 C 
BRANCH  16  20
ATOM     20  O   UNL     1      -4.447  29.151   6.414  1.00  0.00    -0.388 OA
ATOM     21  H   UNL     1      -4.046  28.953   7.299  1.00  0.00     0.211 HD
ENDBRANCH  16  20
BRANCH  18  22
ATOM     22  O   UNL     1      -4.289  29.111   3.679  1.00  0.00    -0.387 OA
ATOM     23  H   UNL     1      -4.220  29.877   4.307  1.00  0.00     0.211 HD
ENDBRANCH  18  22
BRANCH  19  24
ATOM     24  O   UNL     1      -6.984  28.602   2.864  1.00  0.00    -0.384 OA
ATOM     25  H   UNL     1      -6.444  29.284   2.386  1.00  0.00     0.211 HD
ENDBRANCH  19  24
ENDBRANCH  12  13
ENDBRANCH   1  12
BRANCH   3  26
ATOM     26  O   UNL     1     -11.532  29.437   8.791  1.00  0.00    -0.507 OA
ATOM     27  H   UNL     1     -12.514  29.634   8.906  1.00  0.00     0.293 HD
ENDBRANCH   3  26
BRANCH   8  28
ATOM     28  C   UNL     1      -9.079  35.224   6.633  1.00  0.00     0.021 A 
ATOM     29  C   UNL     1      -8.352  35.462   5.452  1.00  0.00     0.016 A 
ATOM     30  C   UNL     1      -9.334  36.291   7.510  1.00  0.00     0.016 A 
ATOM     31  C   UNL     1      -7.862  36.741   5.173  1.00  0.00     0.047 A 
ATOM     32  C   UNL     1      -8.838  37.568   7.230  1.00  0.00     0.047 A 
ATOM     33  C   UNL     1      -8.100  37.797   6.063  1.00  0.00     0.115 A 
BRANCH  33  34
ATOM     34  O   UNL     1      -7.613  39.073   5.798  1.00  0.00    -0.508 OA
ATOM     35  H   UNL     1      -6.655  39.224   5.502  1.00  0.00     0.293 HD
ENDBRANCH  33  34
ENDBRANCH   8  28
BRANCH   9  36
ATOM     36  O   UNL     1     -11.138  34.778   8.599  1.00  0.00    -0.454 OA
BRANCH  36  37
ATOM     37  C   UNL     1     -12.534  35.102   8.552  1.00  0.00     0.339 C 
ATOM     38  C   UNL     1     -13.065  35.461   9.955  1.00  0.00     0.214 C 
ATOM     39  O   UNL     1     -12.784  36.145   7.623  1.00  0.00    -0.335 OA
ATOM     40  C   UNL     1     -12.481  36.805  10.439  1.00  0.00     0.180 C 
ATOM     41  C   UNL     1     -12.149  37.359   8.004  1.00  0.00     0.151 C 
ATOM     42  C   UNL     1     -12.693  37.875   9.356  1.00  0.00     0.174 C 
ATOM     43  C   UNL     1     -12.376  38.387   6.894  1.00  0.00     0.042 C 
BRANCH  38  44
ATOM     44  O   UNL     1     -12.805  34.426  10.871  1.00  0.00    -0.384 OA
ATOM     45  H   UNL     1     -12.868  34.806  11.787  1.00  0.00     0.211 HD
ENDBRANCH  38  44
BRANCH  40  46
ATOM     46  O   UNL     1     -13.124  37.203  11.625  1.00  0.00    -0.387 OA
ATOM     47  H   UNL     1     -13.147  38.196  11.620  1.00  0.00     0.211 HD
ENDBRANCH  40  46
BRANCH  42  48
ATOM     48  O   UNL     1     -12.024  39.059   9.710  1.00  0.00    -0.388 OA
ATOM     49  H   UNL     1     -12.086  39.674   8.935  1.00  0.00     0.211 HD
ENDBRANCH  42  48
ENDBRANCH  36  37
ENDBRANCH   9  36
TORSDOF 13
ENDMDL
MODEL 4
REMARK VINA RESULT:    -5.431      2.499      4.310
REMARK INTER + INTRA:          -9.319
REMARK INTER:                  -8.997
REMARK INTRA:                  -0.323
REMARK UNBOUND:                -1.031
REMARK SMILES C[C@@H]1O[C@@H](Oc2c(-c3ccc(O)cc3)oc3cc(O[C@@H]4O[C@H](C)[C@H](O)[C@H](O)[C@H]4O)cc(O)c3c2=O)[C@@H](O)[C@H](O)[C@H]1O
REMARK SMILES IDX 18 1 30 2 31 3 33 4 16 5 17 6 15 7 7 8 6 9 34 10 35 11 19 12
REMARK SMILES IDX 20 13 23 14 22 15 24 16 21 17 26 18 28 19 25 20 27 22 29 24
REMARK SMILES IDX 32 26 8 28 9 29 14 30 10 31 13 32 11 33 12 34 5 36 4 37
REMARK SMILES IDX 36 38 3 39 38 40 2 41 40 42 1 43 37 44 39 46 41 48
REMARK H PARENT 25 21 27 23 29 25 32 27 12 35 37 45 39 47 41 49
REMARK Flexibility Score: inf
ROOT
ATOM      1  C   UNL     1     -12.304  39.558   9.867  1.00  0.00     0.130 A 
ATOM      2  C   UNL     1     -11.636  39.804   8.667  1.00  0.00     0.093 A 
ATOM      3  C   UNL     1     -11.076  38.766   7.913  1.00  0.00     0.134 A 
ATOM      4  C   UNL     1     -11.231  37.415   8.346  1.00  0.00     0.111 A 
ATOM      5  C   UNL     1     -11.897  37.177   9.576  1.00  0.00     0.146 A 
ATOM      6  C   UNL     1     -12.428  38.236  10.317  1.00  0.00     0.094 A 
ATOM      7  O   UNL     1     -12.025  35.946  10.055  1.00  0.00    -0.452 OA
ATOM      8  C   UNL     1     -11.581  34.867   9.423  1.00  0.00     0.180 A 
ATOM      9  C   UNL     1     -10.999  34.991   8.152  1.00  0.00     0.214 A 
ATOM     10  C   UNL     1     -10.792  36.277   7.624  1.00  0.00     0.239 A 
ATOM     11  O   UNL     1     -10.210  36.389   6.516  1.00  0.00    -0.285 OA
ENDROOT
BRANCH   1  12
ATOM     12  O   UNL     1     -12.821  40.665  10.566  1.00  0.00    -0.462 OA
BRANCH  12  13
ATOM     13  C   UNL     1     -13.125  41.952  10.023  1.00  0.00     0.339 C 
ATOM     14  C   UNL     1     -12.752  43.044   6.538  1.00  0.00     0.042 C 
ATOM     15  C   UNL     1     -13.061  43.162   8.030  1.00  0.00     0.151 C 
ATOM     16  C   UNL     1     -12.334  44.375   8.660  1.00  0.00     0.174 C 
ATOM     17  O   UNL     1     -12.679  41.960   8.678  1.00  0.00    -0.335 OA
ATOM     18  C   UNL     1     -12.613  44.423  10.178  1.00  0.00     0.180 C 
ATOM     19  C   UNL     1     -12.389  43.049  10.830  1.00  0.00     0.214 C 
BRANCH  16  20
ATOM     20  O   UNL     1     -10.948  44.358   8.398  1.00  0.00    -0.388 OA
ATOM     21  H   UNL     1     -10.605  43.452   8.608  1.00  0.00     0.211 HD
ENDBRANCH  16  20
BRANCH  18  22
ATOM     22  O   UNL     1     -11.789  45.377  10.798  1.00  0.00    -0.387 OA
ATOM     23  H   UNL     1     -12.385  45.970  11.327  1.00  0.00     0.211 HD
ENDBRANCH  18  22
BRANCH  19  24
ATOM     24  O   UNL     1     -12.863  43.096  12.150  1.00  0.00    -0.384 OA
ATOM     25  H   UNL     1     -12.213  42.601  12.715  1.00  0.00     0.211 HD
ENDBRANCH  19  24
ENDBRANCH  12  13
ENDBRANCH   1  12
BRANCH   3  26
ATOM     26  O   UNL     1     -10.370  39.151   6.768  1.00  0.00    -0.507 OA
ATOM     27  H   UNL     1      -9.377  39.315   6.718  1.00  0.00     0.293 HD
ENDBRANCH   3  26
BRANCH   8  28
ATOM     28  C   UNL     1     -11.743  33.554  10.079  1.00  0.00     0.021 A 
ATOM     29  C   UNL     1     -10.754  33.050  10.943  1.00  0.00     0.016 A 
ATOM     30  C   UNL     1     -12.913  32.808   9.861  1.00  0.00     0.016 A 
ATOM     31  C   UNL     1     -10.921  31.803  11.552  1.00  0.00     0.047 A 
ATOM     32  C   UNL     1     -13.075  31.559  10.469  1.00  0.00     0.047 A 
ATOM     33  C   UNL     1     -12.081  31.052  11.313  1.00  0.00     0.115 A 
BRANCH  33  34
ATOM     34  O   UNL     1     -12.256  29.806  11.910  1.00  0.00    -0.508 OA
ATOM     35  H   UNL     1     -13.003  29.182  11.626  1.00  0.00     0.293 HD
ENDBRANCH  33  34
ENDBRANCH   8  28
BRANCH   9  36
ATOM     36  O   UNL     1     -10.626  33.840   7.439  1.00  0.00    -0.454 OA
BRANCH  36  37
ATOM     37  C   UNL     1      -9.483  33.039   7.768  1.00  0.00     0.339 C 
ATOM     38  C   UNL     1      -9.666  31.587   7.280  1.00  0.00     0.214 C 
ATOM     39  O   UNL     1      -8.292  33.611   7.250  1.00  0.00    -0.335 OA
ATOM     40  C   UNL     1      -9.625  31.513   5.740  1.00  0.00     0.180 C 
ATOM     41  C   UNL     1      -8.300  33.654   5.828  1.00  0.00     0.151 C 
ATOM     42  C   UNL     1      -8.366  32.232   5.226  1.00  0.00     0.174 C 
ATOM     43  C   UNL     1      -7.038  34.386   5.365  1.00  0.00     0.042 C 
BRANCH  38  44
ATOM     44  O   UNL     1     -10.853  31.031   7.792  1.00  0.00    -0.384 OA
ATOM     45  H   UNL     1     -10.701  30.820   8.751  1.00  0.00     0.211 HD
ENDBRANCH  38  44
BRANCH  40  46
ATOM     46  O   UNL     1      -9.600  30.169   5.328  1.00  0.00    -0.387 OA
ATOM     47  H   UNL     1      -8.694  29.820   5.540  1.00  0.00     0.211 HD
ENDBRANCH  40  46
BRANCH  42  48
ATOM     48  O   UNL     1      -8.398  32.317   3.823  1.00  0.00    -0.388 OA
ATOM     49  H   UNL     1      -8.172  31.418   3.471  1.00  0.00     0.211 HD
ENDBRANCH  42  48
ENDBRANCH  36  37
ENDBRANCH   9  36
TORSDOF 13
ENDMDL
MODEL 5
REMARK VINA RESULT:    -4.528      2.011      3.595
REMARK INTER + INTRA:          -7.941
REMARK INTER:                  -7.801
REMARK INTRA:                  -0.140
REMARK UNBOUND:                -1.031
REMARK SMILES C[C@@H]1O[C@@H](Oc2c(-c3ccc(O)cc3)oc3cc(O[C@@H]4O[C@H](C)[C@H](O)[C@H](O)[C@H]4O)cc(O)c3c2=O)[C@@H](O)[C@H](O)[C@H]1O
REMARK SMILES IDX 18 1 30 2 31 3 33 4 16 5 17 6 15 7 7 8 6 9 34 10 35 11 19 12
REMARK SMILES IDX 20 13 23 14 22 15 24 16 21 17 26 18 28 19 25 20 27 22 29 24
REMARK SMILES IDX 32 26 8 28 9 29 14 30 10 31 13 32 11 33 12 34 5 36 4 37
REMARK SMILES IDX 36 38 3 39 38 40 2 41 40 42 1 43 37 44 39 46 41 48
REMARK H PARENT 25 21 27 23 29 25 32 27 12 35 37 45 39 47 41 49
REMARK Flexibility Score: inf
ROOT
ATOM      1  C   UNL     1     -11.739  38.922   6.272  1.00  0.00     0.130 A 
ATOM      2  C   UNL     1     -10.466  39.146   5.747  1.00  0.00     0.093 A 
ATOM      3  C   UNL     1      -9.478  38.154   5.766  1.00  0.00     0.134 A 
ATOM      4  C   UNL     1      -9.787  36.861   6.285  1.00  0.00     0.111 A 
ATOM      5  C   UNL     1     -11.079  36.648   6.832  1.00  0.00     0.146 A 
ATOM      6  C   UNL     1     -12.038  37.665   6.817  1.00  0.00     0.094 A 
ATOM      7  O   UNL     1     -11.406  35.483   7.376  1.00  0.00    -0.452 OA
ATOM      8  C   UNL     1     -10.583  34.442   7.422  1.00  0.00     0.180 A 
ATOM      9  C   UNL     1      -9.319  34.522   6.817  1.00  0.00     0.214 A 
ATOM     10  C   UNL     1      -8.906  35.751   6.274  1.00  0.00     0.239 A 
ATOM     11  O   UNL     1      -7.748  35.840   5.792  1.00  0.00    -0.285 OA
ENDROOT
BRANCH   1  12
ATOM     12  O   UNL     1     -12.662  39.983   6.224  1.00  0.00    -0.462 OA
BRANCH  12  13
ATOM     13  C   UNL     1     -13.097  40.787   7.322  1.00  0.00     0.339 C 
ATOM     14  C   UNL     1     -12.771  44.426   7.687  1.00  0.00     0.042 C 
ATOM     15  C   UNL     1     -13.125  42.992   8.082  1.00  0.00     0.151 C 
ATOM     16  C   UNL     1     -12.554  42.636   9.477  1.00  0.00     0.174 C 
ATOM     17  O   UNL     1     -12.624  42.104   7.097  1.00  0.00    -0.335 OA
ATOM     18  C   UNL     1     -12.872  41.163   9.813  1.00  0.00     0.180 C 
ATOM     19  C   UNL     1     -12.508  40.233   8.643  1.00  0.00     0.214 C 
BRANCH  16  20
ATOM     20  O   UNL     1     -11.170  42.891   9.565  1.00  0.00    -0.388 OA
ATOM     21  H   UNL     1     -11.044  43.857   9.745  1.00  0.00     0.211 HD
ENDBRANCH  16  20
BRANCH  18  22
ATOM     22  O   UNL     1     -12.176  40.762  10.965  1.00  0.00    -0.387 OA
ATOM     23  H   UNL     1     -11.838  39.844  10.792  1.00  0.00     0.211 HD
ENDBRANCH  18  22
BRANCH  19  24
ATOM     24  O   UNL     1     -13.015  38.953   8.914  1.00  0.00    -0.384 OA
ATOM     25  H   UNL     1     -12.874  38.402   8.100  1.00  0.00     0.211 HD
ENDBRANCH  19  24
ENDBRANCH  12  13
ENDBRANCH   1  12
BRANCH   3  26
ATOM     26  O   UNL     1      -8.223  38.527   5.276  1.00  0.00    -0.507 OA
ATOM     27  H   UNL     1      -7.789  39.429   5.400  1.00  0.00     0.293 HD
ENDBRANCH   3  26
BRANCH   8  28
ATOM     28  C   UNL     1     -11.046  33.212   8.095  1.00  0.00     0.021 A 
ATOM     29  C   UNL     1     -11.672  32.182   7.370  1.00  0.00     0.016 A 
ATOM     30  C   UNL     1     -10.836  33.053   9.474  1.00  0.00     0.016 A 
ATOM     31  C   UNL     1     -12.110  31.027   8.023  1.00  0.00     0.047 A 
ATOM     32  C   UNL     1     -11.279  31.898  10.126  1.00  0.00     0.047 A 
ATOM     33  C   UNL     1     -11.918  30.883   9.404  1.00  0.00     0.115 A 
BRANCH  33  34
ATOM     34  O   UNL     1     -12.354  29.738  10.067  1.00  0.00    -0.508 OA
ATOM     35  H   UNL     1     -11.710  29.002  10.334  1.00  0.00     0.293 HD
ENDBRANCH  33  34
ENDBRANCH   8  28
BRANCH   9  36
ATOM     36  O   UNL     1      -8.492  33.389   6.773  1.00  0.00    -0.454 OA
BRANCH  36  37
ATOM     37  C   UNL     1      -7.881  32.899   5.572  1.00  0.00     0.339 C 
ATOM     38  C   UNL     1      -6.457  32.377   5.848  1.00  0.00     0.214 C 
ATOM     39  O   UNL     1      -8.687  31.903   4.960  1.00  0.00    -0.335 OA
ATOM     40  C   UNL     1      -6.496  31.084   6.689  1.00  0.00     0.180 C 
ATOM     41  C   UNL     1      -8.824  30.752   5.784  1.00  0.00     0.151 C 
ATOM     42  C   UNL     1      -7.456  30.077   6.035  1.00  0.00     0.174 C 
ATOM     43  C   UNL     1      -9.794  29.787   5.100  1.00  0.00     0.042 C 
BRANCH  38  44
ATOM     44  O   UNL     1      -5.669  33.368   6.462  1.00  0.00    -0.384 OA
ATOM     45  H   UNL     1      -4.867  33.515   5.893  1.00  0.00     0.211 HD
ENDBRANCH  38  44
BRANCH  40  46
ATOM     46  O   UNL     1      -5.208  30.525   6.763  1.00  0.00    -0.387 OA
ATOM     47  H   UNL     1      -4.715  31.030   7.461  1.00  0.00     0.211 HD
ENDBRANCH  40  46
BRANCH  42  48
ATOM     48  O   UNL     1      -7.629  28.962   6.872  1.00  0.00    -0.388 OA
ATOM     49  H   UNL     1      -6.971  28.277   6.588  1.00  0.00     0.211 HD
ENDBRANCH  42  48
ENDBRANCH  36  37
ENDBRANCH   9  36
TORSDOF 13
ENDMDL
MODEL 6
REMARK VINA RESULT:    -3.872      1.934      4.715
REMARK INTER + INTRA:          -6.941
REMARK INTER:                  -8.019
REMARK INTRA:                   1.077
REMARK UNBOUND:                -1.031
REMARK SMILES C[C@@H]1O[C@@H](Oc2c(-c3ccc(O)cc3)oc3cc(O[C@@H]4O[C@H](C)[C@H](O)[C@H](O)[C@H]4O)cc(O)c3c2=O)[C@@H](O)[C@H](O)[C@H]1O
REMARK SMILES IDX 18 1 30 2 31 3 33 4 16 5 17 6 15 7 7 8 6 9 34 10 35 11 19 12
REMARK SMILES IDX 20 13 23 14 22 15 24 16 21 17 26 18 28 19 25 20 27 22 29 24
REMARK SMILES IDX 32 26 8 28 9 29 14 30 10 31 13 32 11 33 12 34 5 36 4 37
REMARK SMILES IDX 36 38 3 39 38 40 2 41 40 42 1 43 37 44 39 46 41 48
REMARK H PARENT 25 21 27 23 29 25 32 27 12 35 37 45 39 47 41 49
REMARK Flexibility Score: inf
ROOT
ATOM      1  C   UNL     1     -11.301  37.406   8.409  1.00  0.00     0.130 A 
ATOM      2  C   UNL     1     -12.105  37.065   9.497  1.00  0.00     0.093 A 
ATOM      3  C   UNL     1     -12.233  35.740   9.930  1.00  0.00     0.134 A 
ATOM      4  C   UNL     1     -11.486  34.711   9.281  1.00  0.00     0.111 A 
ATOM      5  C   UNL     1     -10.685  35.065   8.164  1.00  0.00     0.146 A 
ATOM      6  C   UNL     1     -10.593  36.394   7.744  1.00  0.00     0.094 A 
ATOM      7  O   UNL     1     -10.010  34.143   7.490  1.00  0.00    -0.452 OA
ATOM      8  C   UNL     1     -10.006  32.857   7.817  1.00  0.00     0.180 A 
ATOM      9  C   UNL     1     -10.687  32.424   8.965  1.00  0.00     0.214 A 
ATOM     10  C   UNL     1     -11.460  33.353   9.684  1.00  0.00     0.239 A 
ATOM     11  O   UNL     1     -12.122  32.950  10.673  1.00  0.00    -0.285 OA
ENDROOT
BRANCH   1  12
ATOM     12  O   UNL     1     -11.246  38.762   8.036  1.00  0.00    -0.462 OA
BRANCH  12  13
ATOM     13  C   UNL     1     -12.247  39.754   8.271  1.00  0.00     0.339 C 
ATOM     14  C   UNL     1     -12.896  42.778   6.293  1.00  0.00     0.042 C 
ATOM     15  C   UNL     1     -13.057  41.775   7.436  1.00  0.00     0.151 C 
ATOM     16  C   UNL     1     -13.029  42.484   8.812  1.00  0.00     0.174 C 
ATOM     17  O   UNL     1     -12.023  40.809   7.351  1.00  0.00    -0.335 OA
ATOM     18  C   UNL     1     -13.125  41.436   9.943  1.00  0.00     0.180 C 
ATOM     19  C   UNL     1     -12.131  40.284   9.721  1.00  0.00     0.214 C 
BRANCH  16  20
ATOM     20  O   UNL     1     -11.887  43.297   8.968  1.00  0.00    -0.388 OA
ATOM     21  H   UNL     1     -12.102  44.010   9.622  1.00  0.00     0.211 HD
ENDBRANCH  16  20
BRANCH  18  22
ATOM     22  O   UNL     1     -12.879  42.035  11.189  1.00  0.00    -0.387 OA
ATOM     23  H   UNL     1     -12.603  42.972  11.008  1.00  0.00     0.211 HD
ENDBRANCH  18  22
BRANCH  19  24
ATOM     24  O   UNL     1     -12.411  39.266  10.646  1.00  0.00    -0.384 OA
ATOM     25  H   UNL     1     -11.704  38.576  10.548  1.00  0.00     0.211 HD
ENDBRANCH  19  24
ENDBRANCH  12  13
ENDBRANCH   1  12
BRANCH   3  26
ATOM     26  O   UNL     1     -13.125  35.522  10.984  1.00  0.00    -0.507 OA
ATOM     27  H   UNL     1     -14.097  35.790  10.996  1.00  0.00     0.293 HD
ENDBRANCH   3  26
BRANCH   8  28
ATOM     28  C   UNL     1      -9.251  31.919   6.961  1.00  0.00     0.021 A 
ATOM     29  C   UNL     1      -9.864  30.768   6.431  1.00  0.00     0.016 A 
ATOM     30  C   UNL     1      -7.910  32.191   6.646  1.00  0.00     0.016 A 
ATOM     31  C   UNL     1      -9.133  29.889   5.628  1.00  0.00     0.047 A 
ATOM     32  C   UNL     1      -7.181  31.306   5.846  1.00  0.00     0.047 A 
ATOM     33  C   UNL     1      -7.788  30.153   5.336  1.00  0.00     0.115 A 
BRANCH  33  34
ATOM     34  O   UNL     1      -7.050  29.281   4.541  1.00  0.00    -0.508 OA
ATOM     35  H   UNL     1      -7.216  28.281   4.555  1.00  0.00     0.293 HD
ENDBRANCH  33  34
ENDBRANCH   8  28
BRANCH   9  36
ATOM     36  O   UNL     1     -10.595  31.082   9.369  1.00  0.00    -0.454 OA
BRANCH  36  37
ATOM     37  C   UNL     1     -11.700  30.336   9.896  1.00  0.00     0.339 C 
ATOM     38  C   UNL     1     -12.039  29.135   8.989  1.00  0.00     0.214 C 
ATOM     39  O   UNL     1     -11.444  29.920  11.229  1.00  0.00    -0.335 OA
ATOM     40  C   UNL     1     -10.927  28.068   9.047  1.00  0.00     0.180 C 
ATOM     41  C   UNL     1     -10.342  29.025  11.303  1.00  0.00     0.151 C 
ATOM     42  C   UNL     1     -10.622  27.725  10.515  1.00  0.00     0.174 C 
ATOM     43  C   UNL     1     -10.069  28.723  12.778  1.00  0.00     0.042 C 
BRANCH  38  44
ATOM     44  O   UNL     1     -12.282  29.556   7.669  1.00  0.00    -0.384 OA
ATOM     45  H   UNL     1     -12.178  30.543   7.640  1.00  0.00     0.211 HD
ENDBRANCH  38  44
BRANCH  40  46
ATOM     46  O   UNL     1     -11.345  26.907   8.371  1.00  0.00    -0.387 OA
ATOM     47  H   UNL     1     -11.345  27.124   7.402  1.00  0.00     0.211 HD
ENDBRANCH  40  46
BRANCH  42  48
ATOM     48  O   UNL     1      -9.502  26.879  10.591  1.00  0.00    -0.388 OA
ATOM     49  H   UNL     1      -9.057  27.060  11.457  1.00  0.00     0.211 HD
ENDBRANCH  42  48
ENDBRANCH  36  37
ENDBRANCH   9  36
TORSDOF 13
ENDMDL
MODEL 7
REMARK VINA RESULT:    -3.440      2.843      5.787
REMARK INTER + INTRA:          -6.281
REMARK INTER:                  -7.192
REMARK INTRA:                   0.911
REMARK UNBOUND:                -1.031
REMARK SMILES C[C@@H]1O[C@@H](Oc2c(-c3ccc(O)cc3)oc3cc(O[C@@H]4O[C@H](C)[C@H](O)[C@H](O)[C@H]4O)cc(O)c3c2=O)[C@@H](O)[C@H](O)[C@H]1O
REMARK SMILES IDX 18 1 30 2 31 3 33 4 16 5 17 6 15 7 7 8 6 9 34 10 35 11 19 12
REMARK SMILES IDX 20 13 23 14 22 15 24 16 21 17 26 18 28 19 25 20 27 22 29 24
REMARK SMILES IDX 32 26 8 28 9 29 14 30 10 31 13 32 11 33 12 34 5 36 4 37
REMARK SMILES IDX 36 38 3 39 38 40 2 41 40 42 1 43 37 44 39 46 41 48
REMARK H PARENT 25 21 27 23 29 25 32 27 12 35 37 45 39 47 41 49
REMARK Flexibility Score: inf
ROOT
ATOM      1  C   UNL     1     -11.786  36.248   7.834  1.00  0.00     0.130 A 
ATOM      2  C   UNL     1     -12.352  36.337   9.105  1.00  0.00     0.093 A 
ATOM      3  C   UNL     1     -12.474  35.217   9.936  1.00  0.00     0.134 A 
ATOM      4  C   UNL     1     -11.962  33.957   9.501  1.00  0.00     0.111 A 
ATOM      5  C   UNL     1     -11.404  33.873   8.199  1.00  0.00     0.146 A 
ATOM      6  C   UNL     1     -11.314  35.005   7.385  1.00  0.00     0.094 A 
ATOM      7  O   UNL     1     -10.960  32.717   7.721  1.00  0.00    -0.452 OA
ATOM      8  C   UNL     1     -10.973  31.587   8.416  1.00  0.00     0.180 A 
ATOM      9  C   UNL     1     -11.413  31.589   9.748  1.00  0.00     0.214 A 
ATOM     10  C   UNL     1     -11.942  32.776  10.284  1.00  0.00     0.239 A 
ATOM     11  O   UNL     1     -12.397  32.760  11.456  1.00  0.00    -0.285 OA
ENDROOT
BRANCH   1  12
ATOM     12  O   UNL     1     -11.720  37.424   7.063  1.00  0.00    -0.462 OA
BRANCH  12  13
ATOM     13  C   UNL     1     -10.606  37.877   6.290  1.00  0.00     0.339 C 
ATOM     14  C   UNL     1      -8.071  35.815   4.617  1.00  0.00     0.042 C 
ATOM     15  C   UNL     1      -8.761  37.091   5.099  1.00  0.00     0.151 C 
ATOM     16  C   UNL     1      -7.761  38.040   5.804  1.00  0.00     0.174 C 
ATOM     17  O   UNL     1      -9.819  36.741   5.975  1.00  0.00    -0.335 OA
ATOM     18  C   UNL     1      -8.505  39.284   6.337  1.00  0.00     0.180 C 
ATOM     19  C   UNL     1      -9.770  38.885   7.116  1.00  0.00     0.214 C 
BRANCH  16  20
ATOM     20  O   UNL     1      -7.051  37.391   6.836  1.00  0.00    -0.388 OA
ATOM     21  H   UNL     1      -6.274  37.956   7.078  1.00  0.00     0.211 HD
ENDBRANCH  16  20
BRANCH  18  22
ATOM     22  O   UNL     1      -7.662  40.041   7.166  1.00  0.00    -0.387 OA
ATOM     23  H   UNL     1      -7.410  39.458   7.929  1.00  0.00     0.211 HD
ENDBRANCH  18  22
BRANCH  19  24
ATOM     24  O   UNL     1     -10.515  40.045   7.384  1.00  0.00    -0.384 OA
ATOM     25  H   UNL     1      -9.878  40.807   7.398  1.00  0.00     0.211 HD
ENDBRANCH  19  24
ENDBRANCH  12  13
ENDBRANCH   1  12
BRANCH   3  26
ATOM     26  O   UNL     1     -13.124  35.424  11.156  1.00  0.00    -0.507 OA
ATOM     27  H   UNL     1     -13.940  34.927  11.478  1.00  0.00     0.293 HD
ENDBRANCH   3  26
BRANCH   8  28
ATOM     28  C   UNL     1     -10.493  30.355   7.758  1.00  0.00     0.021 A 
ATOM     29  C   UNL     1     -11.214  29.151   7.859  1.00  0.00     0.016 A 
ATOM     30  C   UNL     1      -9.313  30.388   6.997  1.00  0.00     0.016 A 
ATOM     31  C   UNL     1     -10.742  27.993   7.235  1.00  0.00     0.047 A 
ATOM     32  C   UNL     1      -8.841  29.226   6.377  1.00  0.00     0.047 A 
ATOM     33  C   UNL     1      -9.552  28.027   6.496  1.00  0.00     0.115 A 
BRANCH  33  34
ATOM     34  O   UNL     1      -9.070  26.878   5.874  1.00  0.00    -0.508 OA
ATOM     35  H   UNL     1      -8.974  26.821   4.866  1.00  0.00     0.293 HD
ENDBRANCH  33  34
ENDBRANCH   8  28
BRANCH   9  36
ATOM     36  O   UNL     1     -11.328  30.416  10.515  1.00  0.00    -0.454 OA
BRANCH  36  37
ATOM     37  C   UNL     1     -11.816  30.311  11.859  1.00  0.00     0.339 C 
ATOM     38  C   UNL     1     -11.971  28.834  12.277  1.00  0.00     0.214 C 
ATOM     39  O   UNL     1     -10.980  31.018  12.763  1.00  0.00    -0.335 OA
ATOM     40  C   UNL     1     -10.594  28.155  12.426  1.00  0.00     0.180 C 
ATOM     41  C   UNL     1      -9.670  30.466  12.815  1.00  0.00     0.151 C 
ATOM     42  C   UNL     1      -9.696  29.011  13.335  1.00  0.00     0.174 C 
ATOM     43  C   UNL     1      -8.813  31.355  13.718  1.00  0.00     0.042 C 
BRANCH  38  44
ATOM     44  O   UNL     1     -12.794  28.140  11.372  1.00  0.00    -0.384 OA
ATOM     45  H   UNL     1     -12.252  27.416  10.961  1.00  0.00     0.211 HD
ENDBRANCH  38  44
BRANCH  40  46
ATOM     46  O   UNL     1     -10.752  26.877  12.990  1.00  0.00    -0.387 OA
ATOM     47  H   UNL     1     -11.263  26.334  12.335  1.00  0.00     0.211 HD
ENDBRANCH  40  46
BRANCH  42  48
ATOM     48  O   UNL     1      -8.389  28.493  13.348  1.00  0.00    -0.388 OA
ATOM     49  H   UNL     1      -8.085  28.443  12.405  1.00  0.00     0.211 HD
ENDBRANCH  42  48
ENDBRANCH  36  37
ENDBRANCH   9  36
TORSDOF 13
ENDMDL
