MODEL 1
REMARK VINA RESULT:    -5.666      0.000      0.000
REMARK INTER + INTRA:          -5.666
REMARK INTER:                  -5.666
REMARK INTRA:                   0.000
REMARK UNBOUND:                 0.000
REMARK SMILES CC(C)=C1CC[C@@H](C)CC1=O
REMARK SMILES IDX 8 1 7 2 6 3 5 4 4 5 2 6 1 7 3 8 10 9 11 10 9 11
REMARK H PARENT
REMARK Flexibility Score: inf
ROOT
ATOM      1  C   UNL     1     212.191 151.224 179.759  1.00  0.00     0.008 C 
ATOM      2  C   UNL     1     211.564 150.439 180.923  1.00  0.00    -0.006 C 
ATOM      3  C   UNL     1     210.394 151.197 181.574  1.00  0.00     0.008 C 
ATOM      4  C   UNL     1     210.836 152.479 182.300  1.00  0.00     0.039 C 
ATOM      5  C   UNL     1     212.014 152.254 183.238  1.00  0.00    -0.006 C 
ATOM      6  C   UNL     1     212.176 153.011 184.362  1.00  0.00    -0.070 C 
ATOM      7  C   UNL     1     211.203 154.114 184.711  1.00  0.00     0.039 C 
ATOM      8  C   UNL     1     213.309 152.765 185.332  1.00  0.00     0.039 C 
ATOM      9  C   UNL     1     213.030 151.253 182.796  1.00  0.00     0.159 C 
ATOM     10  O   UNL     1     214.250 151.389 183.081  1.00  0.00    -0.295 OA
ATOM     11  C   UNL     1     212.610 150.062 181.984  1.00  0.00     0.084 C 
ENDROOT
TORSDOF 0
ENDMDL
MODEL 2
REMARK VINA RESULT:    -5.255      1.580      2.744
REMARK INTER + INTRA:          -5.255
REMARK INTER:                  -5.255
REMARK INTRA:                   0.000
REMARK UNBOUND:                 0.000
REMARK SMILES CC(C)=C1CC[C@@H](C)CC1=O
REMARK SMILES IDX 8 1 7 2 6 3 5 4 4 5 2 6 1 7 3 8 10 9 11 10 9 11
REMARK H PARENT
REMARK Flexibility Score: inf
ROOT
ATOM      1  C   UNL     1     209.824 151.000 181.408  1.00  0.00     0.008 C 
ATOM      2  C   UNL     1     211.176 151.616 181.013  1.00  0.00    -0.006 C 
ATOM      3  C   UNL     1     212.323 150.590 181.070  1.00  0.00     0.008 C 
ATOM      4  C   UNL     1     212.633 150.112 182.498  1.00  0.00     0.039 C 
ATOM      5  C   UNL     1     212.791 151.259 183.487  1.00  0.00    -0.006 C 
ATOM      6  C   UNL     1     213.612 151.147 184.572  1.00  0.00    -0.070 C 
ATOM      7  C   UNL     1     214.382 149.875 184.845  1.00  0.00     0.039 C 
ATOM      8  C   UNL     1     213.823 152.295 185.533  1.00  0.00     0.039 C 
ATOM      9  C   UNL     1     211.917 152.448 183.267  1.00  0.00     0.159 C 
ATOM     10  O   UNL     1     211.488 153.134 184.233  1.00  0.00    -0.295 OA
ATOM     11  C   UNL     1     211.518 152.842 181.874  1.00  0.00     0.084 C 
ENDROOT
TORSDOF 0
ENDMDL
MODEL 3
REMARK VINA RESULT:    -5.168      1.073      3.865
REMARK INTER + INTRA:          -5.168
REMARK INTER:                  -5.168
REMARK INTRA:                   0.000
REMARK UNBOUND:                 0.000
REMARK SMILES CC(C)=C1CC[C@@H](C)CC1=O
REMARK SMILES IDX 8 1 7 2 6 3 5 4 4 5 2 6 1 7 3 8 10 9 11 10 9 11
REMARK H PARENT
REMARK Flexibility Score: inf
ROOT
ATOM      1  C   UNL     1     213.725 151.858 185.875  1.00  0.00     0.008 C 
ATOM      2  C   UNL     1     213.852 152.862 184.716  1.00  0.00    -0.006 C 
ATOM      3  C   UNL     1     212.486 153.414 184.272  1.00  0.00     0.008 C 
ATOM      4  C   UNL     1     211.586 152.346 183.627  1.00  0.00     0.039 C 
ATOM      5  C   UNL     1     212.298 151.540 182.550  1.00  0.00    -0.006 C 
ATOM      6  C   UNL     1     211.613 151.016 181.492  1.00  0.00    -0.070 C 
ATOM      7  C   UNL     1     210.118 151.199 181.357  1.00  0.00     0.039 C 
ATOM      8  C   UNL     1     212.313 150.261 180.385  1.00  0.00     0.039 C 
ATOM      9  C   UNL     1     213.746 151.261 182.780  1.00  0.00     0.159 C 
ATOM     10  O   UNL     1     214.279 150.193 182.379  1.00  0.00    -0.295 OA
ATOM     11  C   UNL     1     214.596 152.256 183.516  1.00  0.00     0.084 C 
ENDROOT
TORSDOF 0
ENDMDL
MODEL 4
REMARK VINA RESULT:    -5.013      1.947      3.189
REMARK INTER + INTRA:          -5.013
REMARK INTER:                  -5.013
REMARK INTRA:                   0.000
REMARK UNBOUND:                 0.000
REMARK SMILES CC(C)=C1CC[C@@H](C)CC1=O
REMARK SMILES IDX 8 1 7 2 6 3 5 4 4 5 2 6 1 7 3 8 10 9 11 10 9 11
REMARK H PARENT
REMARK Flexibility Score: inf
ROOT
ATOM      1  C   UNL     1     215.259 151.855 179.039  1.00  0.00     0.008 C 
ATOM      2  C   UNL     1     215.141 150.832 180.181  1.00  0.00    -0.006 C 
ATOM      3  C   UNL     1     213.952 149.875 179.986  1.00  0.00     0.008 C 
ATOM      4  C   UNL     1     212.589 150.579 180.091  1.00  0.00     0.039 C 
ATOM      5  C   UNL     1     212.468 151.457 181.329  1.00  0.00    -0.006 C 
ATOM      6  C   UNL     1     211.260 151.668 181.930  1.00  0.00    -0.070 C 
ATOM      7  C   UNL     1     209.993 151.053 181.380  1.00  0.00     0.039 C 
ATOM      8  C   UNL     1     211.131 152.492 183.190  1.00  0.00     0.039 C 
ATOM      9  C   UNL     1     213.711 152.159 181.767  1.00  0.00     0.159 C 
ATOM     10  O   UNL     1     213.665 153.296 182.307  1.00  0.00    -0.295 OA
ATOM     11  C   UNL     1     215.052 151.518 181.553  1.00  0.00     0.084 C 
ENDROOT
TORSDOF 0
ENDMDL
MODEL 5
REMARK VINA RESULT:    -4.975      1.888      4.300
REMARK INTER + INTRA:          -4.975
REMARK INTER:                  -4.975
REMARK INTRA:                   0.000
REMARK UNBOUND:                 0.000
REMARK SMILES CC(C)=C1CC[C@@H](C)CC1=O
REMARK SMILES IDX 8 1 7 2 6 3 5 4 4 5 2 6 1 7 3 8 10 9 11 10 9 11
REMARK H PARENT
REMARK Flexibility Score: inf
ROOT
ATOM      1  C   UNL     1     212.473 152.514 184.348  1.00  0.00     0.008 C 
ATOM      2  C   UNL     1     211.468 153.252 183.449  1.00  0.00    -0.006 C 
ATOM      3  C   UNL     1     210.678 152.289 182.544  1.00  0.00     0.008 C 
ATOM      4  C   UNL     1     211.556 151.602 181.486  1.00  0.00     0.039 C 
ATOM      5  C   UNL     1     212.434 152.578 180.716  1.00  0.00    -0.006 C 
ATOM      6  C   UNL     1     212.799 152.333 179.424  1.00  0.00    -0.070 C 
ATOM      7  C   UNL     1     212.362 151.073 178.712  1.00  0.00     0.039 C 
ATOM      8  C   UNL     1     213.624 153.318 178.629  1.00  0.00     0.039 C 
ATOM      9  C   UNL     1     212.961 153.743 181.488  1.00  0.00     0.159 C 
ATOM     10  O   UNL     1     214.091 154.239 181.232  1.00  0.00    -0.295 OA
ATOM     11  C   UNL     1     212.150 154.337 182.602  1.00  0.00     0.084 C 
ENDROOT
TORSDOF 0
ENDMDL
MODEL 6
REMARK VINA RESULT:    -4.903      2.621      3.134
REMARK INTER + INTRA:          -4.903
REMARK INTER:                  -4.903
REMARK INTRA:                   0.000
REMARK UNBOUND:                 0.000
REMARK SMILES CC(C)=C1CC[C@@H](C)CC1=O
REMARK SMILES IDX 8 1 7 2 6 3 5 4 4 5 2 6 1 7 3 8 10 9 11 10 9 11
REMARK H PARENT
REMARK Flexibility Score: inf
ROOT
ATOM      1  C   UNL     1     209.977 151.258 181.376  1.00  0.00     0.008 C 
ATOM      2  C   UNL     1     211.325 151.099 182.098  1.00  0.00    -0.006 C 
ATOM      3  C   UNL     1     211.530 152.161 183.192  1.00  0.00     0.008 C 
ATOM      4  C   UNL     1     211.675 153.584 182.630  1.00  0.00     0.039 C 
ATOM      5  C   UNL     1     212.686 153.675 181.495  1.00  0.00    -0.006 C 
ATOM      6  C   UNL     1     213.397 154.819 181.271  1.00  0.00    -0.070 C 
ATOM      7  C   UNL     1     213.194 156.047 182.129  1.00  0.00     0.039 C 
ATOM      8  C   UNL     1     214.443 154.907 180.185  1.00  0.00     0.039 C 
ATOM      9  C   UNL     1     212.765 152.495 180.583  1.00  0.00     0.159 C 
ATOM     10  O   UNL     1     213.035 152.631 179.360  1.00  0.00    -0.295 OA
ATOM     11  C   UNL     1     212.505 151.115 181.113  1.00  0.00     0.084 C 
ENDROOT
TORSDOF 0
ENDMDL
MODEL 7
REMARK VINA RESULT:    -4.832      2.568      3.756
REMARK INTER + INTRA:          -4.832
REMARK INTER:                  -4.832
REMARK INTRA:                   0.000
REMARK UNBOUND:                 0.000
REMARK SMILES CC(C)=C1CC[C@@H](C)CC1=O
REMARK SMILES IDX 8 1 7 2 6 3 5 4 4 5 2 6 1 7 3 8 10 9 11 10 9 11
REMARK H PARENT
REMARK Flexibility Score: inf
ROOT
ATOM      1  C   UNL     1     215.622 152.126 179.171  1.00  0.00     0.008 C 
ATOM      2  C   UNL     1     214.620 153.292 179.156  1.00  0.00    -0.006 C 
ATOM      3  C   UNL     1     214.546 154.015 180.513  1.00  0.00     0.008 C 
ATOM      4  C   UNL     1     213.951 153.141 181.629  1.00  0.00     0.039 C 
ATOM      5  C   UNL     1     212.646 152.468 181.226  1.00  0.00    -0.006 C 
ATOM      6  C   UNL     1     211.685 152.179 182.151  1.00  0.00    -0.070 C 
ATOM      7  C   UNL     1     211.884 152.499 183.615  1.00  0.00     0.039 C 
ATOM      8  C   UNL     1     210.362 151.562 181.759  1.00  0.00     0.039 C 
ATOM      9  C   UNL     1     212.535 152.042 179.799  1.00  0.00     0.159 C 
ATOM     10  O   UNL     1     211.884 151.014 179.472  1.00  0.00    -0.295 OA
ATOM     11  C   UNL     1     213.219 152.833 178.722  1.00  0.00     0.084 C 
ENDROOT
TORSDOF 0
ENDMDL
MODEL 8
REMARK VINA RESULT:    -4.816      1.986      4.425
REMARK INTER + INTRA:          -4.816
REMARK INTER:                  -4.816
REMARK INTRA:                   0.000
REMARK UNBOUND:                 0.000
REMARK SMILES CC(C)=C1CC[C@@H](C)CC1=O
REMARK SMILES IDX 8 1 7 2 6 3 5 4 4 5 2 6 1 7 3 8 10 9 11 10 9 11
REMARK H PARENT
REMARK Flexibility Score: inf
ROOT
ATOM      1  C   UNL     1     213.728 150.792 185.534  1.00  0.00     0.008 C 
ATOM      2  C   UNL     1     213.786 152.017 184.606  1.00  0.00    -0.006 C 
ATOM      3  C   UNL     1     212.619 152.044 183.603  1.00  0.00     0.008 C 
ATOM      4  C   UNL     1     212.684 150.904 182.573  1.00  0.00     0.039 C 
ATOM      5  C   UNL     1     214.051 150.774 181.916  1.00  0.00    -0.006 C 
ATOM      6  C   UNL     1     214.179 150.303 180.641  1.00  0.00    -0.070 C 
ATOM      7  C   UNL     1     212.972 149.875 179.838  1.00  0.00     0.039 C 
ATOM      8  C   UNL     1     215.523 150.220 179.954  1.00  0.00     0.039 C 
ATOM      9  C   UNL     1     215.232 151.074 182.778  1.00  0.00     0.159 C 
ATOM     10  O   UNL     1     216.325 150.467 182.626  1.00  0.00    -0.295 OA
ATOM     11  C   UNL     1     215.128 152.106 183.863  1.00  0.00     0.084 C 
ENDROOT
TORSDOF 0
ENDMDL
