MODEL 1
REMARK VINA RESULT:    -6.378      0.000      0.000
REMARK INTER + INTRA:          -7.584
REMARK INTER:                  -7.497
REMARK INTRA:                  -0.086
REMARK UNBOUND:                -0.086
REMARK SMILES O=c1c(O)c(-c2ccc(O)cc2)oc2cc(O)cc(O)c12
REMARK SMILES IDX 5 1 3 2 2 3 1 4 21 5 19 6 18 7 16 8 15 9 14 10 13 11 6 12
REMARK SMILES IDX 7 13 8 14 9 15 12 16 11 17 10 18 4 20 20 22 17 24
REMARK H PARENT 10 19 4 21 20 23 17 25
REMARK Flexibility Score: inf
ROOT
ATOM      1  C   UNL     1      18.810  -1.236 -16.887  1.00  0.00     0.180 A 
ATOM      2  C   UNL     1      18.377  -0.344 -15.890  1.00  0.00     0.208 A 
ATOM      3  C   UNL     1      17.683  -0.849 -14.779  1.00  0.00     0.238 A 
ATOM      4  O   UNL     1      17.346  -0.052 -13.864  1.00  0.00    -0.285 OA
ATOM      5  C   UNL     1      17.417  -2.236 -14.685  1.00  0.00     0.111 A 
ATOM      6  C   UNL     1      16.688  -2.852 -13.623  1.00  0.00     0.134 A 
ATOM      7  C   UNL     1      16.598  -4.247 -13.566  1.00  0.00     0.093 A 
ATOM      8  C   UNL     1      17.155  -5.047 -14.567  1.00  0.00     0.123 A 
ATOM      9  C   UNL     1      17.817  -4.453 -15.638  1.00  0.00     0.094 A 
ATOM     10  C   UNL     1      17.955  -3.065 -15.704  1.00  0.00     0.146 A 
ATOM     11  O   UNL     1      18.602  -2.539 -16.737  1.00  0.00    -0.452 OA
ENDROOT
BRANCH   1  12
ATOM     12  C   UNL     1      19.524  -0.777 -18.100  1.00  0.00     0.021 A 
ATOM     13  C   UNL     1      20.760  -0.112 -18.015  1.00  0.00     0.016 A 
ATOM     14  C   UNL     1      21.403   0.335 -19.173  1.00  0.00     0.047 A 
ATOM     15  C   UNL     1      20.814   0.134 -20.429  1.00  0.00     0.115 A 
ATOM     16  C   UNL     1      18.929  -0.955 -19.361  1.00  0.00     0.016 A 
ATOM     17  C   UNL     1      19.576  -0.508 -20.517  1.00  0.00     0.047 A 
BRANCH  15  18
ATOM     18  O   UNL     1      21.447   0.573 -21.589  1.00  0.00    -0.508 OA
ATOM     19  H   UNL     1      21.585   1.559 -21.777  1.00  0.00     0.293 HD
ENDBRANCH  15  18
ENDBRANCH   1  12
BRANCH   2  20
ATOM     20  O   UNL     1      18.668   1.019 -15.992  1.00  0.00    -0.502 OA
ATOM     21  H   UNL     1      18.605   1.525 -16.867  1.00  0.00     0.293 HD
ENDBRANCH   2  20
BRANCH   6  22
ATOM     22  O   UNL     1      16.016  -2.141 -12.623  1.00  0.00    -0.507 OA
ATOM     23  H   UNL     1      16.373  -1.316 -12.166  1.00  0.00     0.293 HD
ENDBRANCH   6  22
BRANCH   8  24
ATOM     24  O   UNL     1      17.047  -6.435 -14.510  1.00  0.00    -0.508 OA
ATOM     25  H   UNL     1      17.280  -6.951 -13.669  1.00  0.00     0.293 HD
ENDBRANCH   8  24
TORSDOF 5
ENDMDL
MODEL 2
REMARK VINA RESULT:    -6.073      7.224      9.652
REMARK INTER + INTRA:          -7.224
REMARK INTER:                  -6.953
REMARK INTRA:                  -0.271
REMARK UNBOUND:                -0.086
REMARK SMILES O=c1c(O)c(-c2ccc(O)cc2)oc2cc(O)cc(O)c12
REMARK SMILES IDX 5 1 3 2 2 3 1 4 21 5 19 6 18 7 16 8 15 9 14 10 13 11 6 12
REMARK SMILES IDX 7 13 8 14 9 15 12 16 11 17 10 18 4 20 20 22 17 24
REMARK H PARENT 10 19 4 21 20 23 17 25
REMARK Flexibility Score: inf
ROOT
ATOM      1  C   UNL     1      18.908  -2.656  -8.508  1.00  0.00     0.180 A 
ATOM      2  C   UNL     1      18.863  -2.882  -7.121  1.00  0.00     0.208 A 
ATOM      3  C   UNL     1      20.068  -3.021  -6.415  1.00  0.00     0.238 A 
ATOM      4  O   UNL     1      20.023  -3.169  -5.165  1.00  0.00    -0.285 OA
ATOM      5  C   UNL     1      21.302  -2.948  -7.105  1.00  0.00     0.111 A 
ATOM      6  C   UNL     1      22.583  -3.115  -6.496  1.00  0.00     0.134 A 
ATOM      7  C   UNL     1      23.740  -2.893  -7.252  1.00  0.00     0.093 A 
ATOM      8  C   UNL     1      23.664  -2.574  -8.610  1.00  0.00     0.123 A 
ATOM      9  C   UNL     1      22.420  -2.468  -9.226  1.00  0.00     0.094 A 
ATOM     10  C   UNL     1      21.246  -2.648  -8.491  1.00  0.00     0.146 A 
ATOM     11  O   UNL     1      20.081  -2.528  -9.115  1.00  0.00    -0.452 OA
ENDROOT
BRANCH   1  12
ATOM     12  C   UNL     1      17.679  -2.525  -9.325  1.00  0.00     0.021 A 
ATOM     13  C   UNL     1      16.943  -3.654  -9.728  1.00  0.00     0.016 A 
ATOM     14  C   UNL     1      15.800  -3.506 -10.520  1.00  0.00     0.047 A 
ATOM     15  C   UNL     1      15.386  -2.232 -10.929  1.00  0.00     0.115 A 
ATOM     16  C   UNL     1      17.270  -1.252  -9.758  1.00  0.00     0.016 A 
ATOM     17  C   UNL     1      16.126  -1.108 -10.549  1.00  0.00     0.047 A 
BRANCH  15  18
ATOM     18  O   UNL     1      14.249  -2.073 -11.717  1.00  0.00    -0.508 OA
ATOM     19  H   UNL     1      14.231  -1.427 -12.498  1.00  0.00     0.293 HD
ENDBRANCH  15  18
ENDBRANCH   1  12
BRANCH   2  20
ATOM     20  O   UNL     1      17.635  -2.929  -6.455  1.00  0.00    -0.502 OA
ATOM     21  H   UNL     1      17.142  -2.095  -6.161  1.00  0.00     0.293 HD
ENDBRANCH   2  20
BRANCH   6  22
ATOM     22  O   UNL     1      22.770  -3.521  -5.171  1.00  0.00    -0.507 OA
ATOM     23  H   UNL     1      23.184  -2.952  -4.448  1.00  0.00     0.293 HD
ENDBRANCH   6  22
BRANCH   8  24
ATOM     24  O   UNL     1      24.822  -2.370  -9.358  1.00  0.00    -0.508 OA
ATOM     25  H   UNL     1      25.665  -1.996  -8.938  1.00  0.00     0.293 HD
ENDBRANCH   8  24
TORSDOF 5
ENDMDL
MODEL 3
REMARK VINA RESULT:    -5.992      7.376     12.472
REMARK INTER + INTRA:          -7.129
REMARK INTER:                  -6.858
REMARK INTRA:                  -0.271
REMARK UNBOUND:                -0.086
REMARK SMILES O=c1c(O)c(-c2ccc(O)cc2)oc2cc(O)cc(O)c12
REMARK SMILES IDX 5 1 3 2 2 3 1 4 21 5 19 6 18 7 16 8 15 9 14 10 13 11 6 12
REMARK SMILES IDX 7 13 8 14 9 15 12 16 11 17 10 18 4 20 20 22 17 24
REMARK H PARENT 10 19 4 21 20 23 17 25
REMARK Flexibility Score: inf
ROOT
ATOM      1  C   UNL     1      11.080  -6.501  -9.701  1.00  0.00     0.180 A 
ATOM      2  C   UNL     1      11.043  -7.710 -10.417  1.00  0.00     0.208 A 
ATOM      3  C   UNL     1      12.055  -7.979 -11.352  1.00  0.00     0.238 A 
ATOM      4  O   UNL     1      12.046  -9.087 -11.951  1.00  0.00    -0.285 OA
ATOM      5  C   UNL     1      13.082  -7.030 -11.571  1.00  0.00     0.111 A 
ATOM      6  C   UNL     1      14.136  -7.180 -12.523  1.00  0.00     0.134 A 
ATOM      7  C   UNL     1      15.170  -6.238 -12.562  1.00  0.00     0.093 A 
ATOM      8  C   UNL     1      15.156  -5.117 -11.729  1.00  0.00     0.123 A 
ATOM      9  C   UNL     1      14.102  -4.931 -10.839  1.00  0.00     0.094 A 
ATOM     10  C   UNL     1      13.073  -5.872 -10.750  1.00  0.00     0.146 A 
ATOM     11  O   UNL     1      12.092  -5.661  -9.882  1.00  0.00    -0.452 OA
ENDROOT
BRANCH   1  12
ATOM     12  C   UNL     1      10.035  -6.135  -8.718  1.00  0.00     0.021 A 
ATOM     13  C   UNL     1       8.786  -5.634  -9.128  1.00  0.00     0.016 A 
ATOM     14  C   UNL     1       7.824  -5.272  -8.179  1.00  0.00     0.047 A 
ATOM     15  C   UNL     1       8.102  -5.394  -6.812  1.00  0.00     0.115 A 
ATOM     16  C   UNL     1      10.313  -6.235  -7.344  1.00  0.00     0.016 A 
ATOM     17  C   UNL     1       9.349  -5.873  -6.399  1.00  0.00     0.047 A 
BRANCH  15  18
ATOM     18  O   UNL     1       7.151  -5.039  -5.858  1.00  0.00    -0.508 OA
ATOM     19  H   UNL     1       6.223  -5.448  -5.858  1.00  0.00     0.293 HD
ENDBRANCH  15  18
ENDBRANCH   1  12
BRANCH   2  20
ATOM     20  O   UNL     1      10.031  -8.643 -10.171  1.00  0.00    -0.502 OA
ATOM     21  H   UNL     1      10.087  -9.602 -10.487  1.00  0.00     0.293 HD
ENDBRANCH   2  20
BRANCH   6  22
ATOM     22  O   UNL     1      14.197  -8.214 -13.462  1.00  0.00    -0.507 OA
ATOM     23  H   UNL     1      13.448  -8.467 -14.089  1.00  0.00     0.293 HD
ENDBRANCH   6  22
BRANCH   8  24
ATOM     24  O   UNL     1      16.182  -4.176 -11.786  1.00  0.00    -0.508 OA
ATOM     25  H   UNL     1      16.012  -3.223 -12.088  1.00  0.00     0.293 HD
ENDBRANCH   8  24
TORSDOF 5
ENDMDL
MODEL 4
REMARK VINA RESULT:    -5.811      9.725     11.853
REMARK INTER + INTRA:          -6.917
REMARK INTER:                  -6.626
REMARK INTRA:                  -0.291
REMARK UNBOUND:                -0.086
REMARK SMILES O=c1c(O)c(-c2ccc(O)cc2)oc2cc(O)cc(O)c12
REMARK SMILES IDX 5 1 3 2 2 3 1 4 21 5 19 6 18 7 16 8 15 9 14 10 13 11 6 12
REMARK SMILES IDX 7 13 8 14 9 15 12 16 11 17 10 18 4 20 20 22 17 24
REMARK H PARENT 10 19 4 21 20 23 17 25
REMARK Flexibility Score: inf
ROOT
ATOM      1  C   UNL     1      10.800   4.244 -18.837  1.00  0.00     0.180 A 
ATOM      2  C   UNL     1      11.893   3.473 -18.405  1.00  0.00     0.208 A 
ATOM      3  C   UNL     1      13.142   4.094 -18.241  1.00  0.00     0.238 A 
ATOM      4  O   UNL     1      14.104   3.410 -17.802  1.00  0.00    -0.285 OA
ATOM      5  C   UNL     1      13.287   5.473 -18.526  1.00  0.00     0.111 A 
ATOM      6  C   UNL     1      14.514   6.196 -18.434  1.00  0.00     0.134 A 
ATOM      7  C   UNL     1      14.513   7.584 -18.614  1.00  0.00     0.093 A 
ATOM      8  C   UNL     1      13.340   8.266 -18.947  1.00  0.00     0.123 A 
ATOM      9  C   UNL     1      12.150   7.561 -19.098  1.00  0.00     0.094 A 
ATOM     10  C   UNL     1      12.111   6.181 -18.889  1.00  0.00     0.146 A 
ATOM     11  O   UNL     1      10.953   5.548 -19.033  1.00  0.00    -0.452 OA
ENDROOT
BRANCH   1  12
ATOM     12  C   UNL     1       9.459   3.656 -19.058  1.00  0.00     0.021 A 
ATOM     13  C   UNL     1       9.129   3.016 -20.266  1.00  0.00     0.016 A 
ATOM     14  C   UNL     1       7.848   2.490 -20.459  1.00  0.00     0.047 A 
ATOM     15  C   UNL     1       6.878   2.608 -19.455  1.00  0.00     0.115 A 
ATOM     16  C   UNL     1       8.474   3.789 -18.064  1.00  0.00     0.016 A 
ATOM     17  C   UNL     1       7.195   3.261 -18.261  1.00  0.00     0.047 A 
BRANCH  15  18
ATOM     18  O   UNL     1       5.600   2.086 -19.637  1.00  0.00    -0.508 OA
ATOM     19  H   UNL     1       5.366   1.144 -19.347  1.00  0.00     0.293 HD
ENDBRANCH  15  18
ENDBRANCH   1  12
BRANCH   2  20
ATOM     20  O   UNL     1      11.724   2.118 -18.108  1.00  0.00    -0.502 OA
ATOM     21  H   UNL     1      10.909   1.594 -18.401  1.00  0.00     0.293 HD
ENDBRANCH   2  20
BRANCH   6  22
ATOM     22  O   UNL     1      15.756   5.598 -18.197  1.00  0.00    -0.507 OA
ATOM     23  H   UNL     1      16.145   4.845 -18.743  1.00  0.00     0.293 HD
ENDBRANCH   6  22
BRANCH   8  24
ATOM     24  O   UNL     1      13.351   9.646 -19.140  1.00  0.00    -0.508 OA
ATOM     25  H   UNL     1      12.796  10.267 -18.562  1.00  0.00     0.293 HD
ENDBRANCH   8  24
TORSDOF 5
ENDMDL
MODEL 5
REMARK VINA RESULT:    -5.778      1.142      3.093
REMARK INTER + INTRA:          -6.878
REMARK INTER:                  -6.813
REMARK INTRA:                  -0.065
REMARK UNBOUND:                -0.086
REMARK SMILES O=c1c(O)c(-c2ccc(O)cc2)oc2cc(O)cc(O)c12
REMARK SMILES IDX 5 1 3 2 2 3 1 4 21 5 19 6 18 7 16 8 15 9 14 10 13 11 6 12
REMARK SMILES IDX 7 13 8 14 9 15 12 16 11 17 10 18 4 20 20 22 17 24
REMARK H PARENT 10 19 4 21 20 23 17 25
REMARK Flexibility Score: inf
ROOT
ATOM      1  C   UNL     1      18.796  -2.033 -17.372  1.00  0.00     0.180 A 
ATOM      2  C   UNL     1      18.646  -3.420 -17.542  1.00  0.00     0.208 A 
ATOM      3  C   UNL     1      18.000  -4.163 -16.540  1.00  0.00     0.238 A 
ATOM      4  O   UNL     1      17.820  -5.396 -16.723  1.00  0.00    -0.285 OA
ATOM      5  C   UNL     1      17.526  -3.512 -15.376  1.00  0.00     0.111 A 
ATOM      6  C   UNL     1      16.892  -4.172 -14.280  1.00  0.00     0.134 A 
ATOM      7  C   UNL     1      16.346  -3.412 -13.239  1.00  0.00     0.093 A 
ATOM      8  C   UNL     1      16.469  -2.020 -13.222  1.00  0.00     0.123 A 
ATOM      9  C   UNL     1      17.138  -1.372 -14.257  1.00  0.00     0.094 A 
ATOM     10  C   UNL     1      17.661  -2.100 -15.328  1.00  0.00     0.146 A 
ATOM     11  O   UNL     1      18.282  -1.443 -16.299  1.00  0.00    -0.452 OA
ENDROOT
BRANCH   1  12
ATOM     12  C   UNL     1      19.489  -1.187 -18.371  1.00  0.00     0.021 A 
ATOM     13  C   UNL     1      19.040  -1.108 -19.702  1.00  0.00     0.016 A 
ATOM     14  C   UNL     1      19.725  -0.322 -20.633  1.00  0.00     0.047 A 
ATOM     15  C   UNL     1      20.873   0.384 -20.250  1.00  0.00     0.115 A 
ATOM     16  C   UNL     1      20.653  -0.492 -18.001  1.00  0.00     0.016 A 
ATOM     17  C   UNL     1      21.335   0.293 -18.934  1.00  0.00     0.047 A 
BRANCH  15  18
ATOM     18  O   UNL     1      21.562   1.172 -21.169  1.00  0.00    -0.508 OA
ATOM     19  H   UNL     1      22.504   0.940 -21.465  1.00  0.00     0.293 HD
ENDBRANCH  15  18
ENDBRANCH   1  12
BRANCH   2  20
ATOM     20  O   UNL     1      19.102  -4.039 -18.709  1.00  0.00    -0.502 OA
ATOM     21  H   UNL     1      19.626  -4.906 -18.696  1.00  0.00     0.293 HD
ENDBRANCH   2  20
BRANCH   6  22
ATOM     22  O   UNL     1      16.798  -5.561 -14.154  1.00  0.00    -0.507 OA
ATOM     23  H   UNL     1      15.945  -6.091 -14.255  1.00  0.00     0.293 HD
ENDBRANCH   6  22
BRANCH   8  24
ATOM     24  O   UNL     1      15.937  -1.272 -12.173  1.00  0.00    -0.508 OA
ATOM     25  H   UNL     1      15.009  -0.868 -12.228  1.00  0.00     0.293 HD
ENDBRANCH   8  24
TORSDOF 5
ENDMDL
MODEL 6
REMARK VINA RESULT:    -5.777      9.065     10.854
REMARK INTER + INTRA:          -6.877
REMARK INTER:                  -6.596
REMARK INTRA:                  -0.281
REMARK UNBOUND:                -0.086
REMARK SMILES O=c1c(O)c(-c2ccc(O)cc2)oc2cc(O)cc(O)c12
REMARK SMILES IDX 5 1 3 2 2 3 1 4 21 5 19 6 18 7 16 8 15 9 14 10 13 11 6 12
REMARK SMILES IDX 7 13 8 14 9 15 12 16 11 17 10 18 4 20 20 22 17 24
REMARK H PARENT 10 19 4 21 20 23 17 25
REMARK Flexibility Score: inf
ROOT
ATOM      1  C   UNL     1      20.704  -1.431  -7.396  1.00  0.00     0.180 A 
ATOM      2  C   UNL     1      19.428  -1.858  -7.804  1.00  0.00     0.208 A 
ATOM      3  C   UNL     1      18.442  -0.896  -8.074  1.00  0.00     0.238 A 
ATOM      4  O   UNL     1      17.318  -1.283  -8.491  1.00  0.00    -0.285 OA
ATOM      5  C   UNL     1      18.738   0.479  -7.918  1.00  0.00     0.111 A 
ATOM      6  C   UNL     1      17.803   1.538  -8.125  1.00  0.00     0.134 A 
ATOM      7  C   UNL     1      18.241   2.866  -8.068  1.00  0.00     0.093 A 
ATOM      8  C   UNL     1      19.566   3.175  -7.747  1.00  0.00     0.123 A 
ATOM      9  C   UNL     1      20.470   2.150  -7.485  1.00  0.00     0.094 A 
ATOM     10  C   UNL     1      20.073   0.814  -7.570  1.00  0.00     0.146 A 
ATOM     11  O   UNL     1      20.969  -0.132  -7.322  1.00  0.00    -0.452 OA
ENDROOT
BRANCH   1  12
ATOM     12  C   UNL     1      21.787  -2.387  -7.069  1.00  0.00     0.021 A 
ATOM     13  C   UNL     1      21.853  -3.019  -5.814  1.00  0.00     0.016 A 
ATOM     14  C   UNL     1      22.899  -3.898  -5.520  1.00  0.00     0.047 A 
ATOM     15  C   UNL     1      23.899  -4.146  -6.470  1.00  0.00     0.115 A 
ATOM     16  C   UNL     1      22.806  -2.624  -8.008  1.00  0.00     0.016 A 
ATOM     17  C   UNL     1      23.850  -3.505  -7.711  1.00  0.00     0.047 A 
BRANCH  15  18
ATOM     18  O   UNL     1      24.945  -5.022  -6.188  1.00  0.00    -0.508 OA
ATOM     19  H   UNL     1      25.833  -4.959  -6.672  1.00  0.00     0.293 HD
ENDBRANCH  15  18
ENDBRANCH   1  12
BRANCH   2  20
ATOM     20  O   UNL     1      19.163  -3.220  -7.973  1.00  0.00    -0.502 OA
ATOM     21  H   UNL     1      19.216  -3.884  -7.210  1.00  0.00     0.293 HD
ENDBRANCH   2  20
BRANCH   6  22
ATOM     22  O   UNL     1      16.439   1.340  -8.360  1.00  0.00    -0.507 OA
ATOM     23  H   UNL     1      15.947   0.475  -8.197  1.00  0.00     0.293 HD
ENDBRANCH   6  22
BRANCH   8  24
ATOM     24  O   UNL     1      19.989   4.501  -7.677  1.00  0.00    -0.508 OA
ATOM     25  H   UNL     1      19.623   5.139  -6.980  1.00  0.00     0.293 HD
ENDBRANCH   8  24
TORSDOF 5
ENDMDL
MODEL 7
REMARK VINA RESULT:    -5.723      6.535      8.873
REMARK INTER + INTRA:          -6.813
REMARK INTER:                  -6.551
REMARK INTRA:                  -0.262
REMARK UNBOUND:                -0.086
REMARK SMILES O=c1c(O)c(-c2ccc(O)cc2)oc2cc(O)cc(O)c12
REMARK SMILES IDX 5 1 3 2 2 3 1 4 21 5 19 6 18 7 16 8 15 9 14 10 13 11 6 12
REMARK SMILES IDX 7 13 8 14 9 15 12 16 11 17 10 18 4 20 20 22 17 24
REMARK H PARENT 10 19 4 21 20 23 17 25
REMARK Flexibility Score: inf
ROOT
ATOM      1  C   UNL     1      18.242  -2.111  -8.737  1.00  0.00     0.180 A 
ATOM      2  C   UNL     1      17.610  -0.856  -8.705  1.00  0.00     0.208 A 
ATOM      3  C   UNL     1      16.569  -0.594  -9.611  1.00  0.00     0.238 A 
ATOM      4  O   UNL     1      15.971   0.512  -9.542  1.00  0.00    -0.285 OA
ATOM      5  C   UNL     1      16.185  -1.584 -10.548  1.00  0.00     0.111 A 
ATOM      6  C   UNL     1      15.171  -1.412 -11.538  1.00  0.00     0.134 A 
ATOM      7  C   UNL     1      14.784  -2.503 -12.325  1.00  0.00     0.093 A 
ATOM      8  C   UNL     1      15.420  -3.741 -12.203  1.00  0.00     0.123 A 
ATOM      9  C   UNL     1      16.450  -3.902 -11.281  1.00  0.00     0.094 A 
ATOM     10  C   UNL     1      16.834  -2.843 -10.455  1.00  0.00     0.146 A 
ATOM     11  O   UNL     1      17.814  -3.040  -9.583  1.00  0.00    -0.452 OA
ENDROOT
BRANCH   1  12
ATOM     12  C   UNL     1      19.363  -2.451  -7.831  1.00  0.00     0.021 A 
ATOM     13  C   UNL     1      19.136  -2.855  -6.503  1.00  0.00     0.016 A 
ATOM     14  C   UNL     1      20.212  -3.147  -5.660  1.00  0.00     0.047 A 
ATOM     15  C   UNL     1      21.527  -3.029  -6.128  1.00  0.00     0.115 A 
ATOM     16  C   UNL     1      20.686  -2.314  -8.287  1.00  0.00     0.016 A 
ATOM     17  C   UNL     1      21.759  -2.609  -7.441  1.00  0.00     0.047 A 
BRANCH  15  18
ATOM     18  O   UNL     1      22.607  -3.320  -5.298  1.00  0.00    -0.508 OA
ATOM     19  H   UNL     1      22.920  -4.272  -5.150  1.00  0.00     0.293 HD
ENDBRANCH  15  18
ENDBRANCH   1  12
BRANCH   2  20
ATOM     20  O   UNL     1      17.991   0.100  -7.759  1.00  0.00    -0.502 OA
ATOM     21  H   UNL     1      18.954   0.382  -7.627  1.00  0.00     0.293 HD
ENDBRANCH   2  20
BRANCH   6  22
ATOM     22  O   UNL     1      14.538  -0.194 -11.804  1.00  0.00    -0.507 OA
ATOM     23  H   UNL     1      14.975   0.711 -11.722  1.00  0.00     0.293 HD
ENDBRANCH   6  22
BRANCH   8  24
ATOM     24  O   UNL     1      15.039  -4.818 -13.002  1.00  0.00    -0.508 OA
ATOM     25  H   UNL     1      15.725  -5.412 -13.454  1.00  0.00     0.293 HD
ENDBRANCH   8  24
TORSDOF 5
ENDMDL
MODEL 8
REMARK VINA RESULT:    -5.667      6.784      9.176
REMARK INTER + INTRA:          -6.748
REMARK INTER:                  -6.454
REMARK INTRA:                  -0.294
REMARK UNBOUND:                -0.086
REMARK SMILES O=c1c(O)c(-c2ccc(O)cc2)oc2cc(O)cc(O)c12
REMARK SMILES IDX 5 1 3 2 2 3 1 4 21 5 19 6 18 7 16 8 15 9 14 10 13 11 6 12
REMARK SMILES IDX 7 13 8 14 9 15 12 16 11 17 10 18 4 20 20 22 17 24
REMARK H PARENT 10 19 4 21 20 23 17 25
REMARK Flexibility Score: inf
ROOT
ATOM      1  C   UNL     1      13.572   2.704 -16.306  1.00  0.00     0.180 A 
ATOM      2  C   UNL     1      13.843   4.062 -16.065  1.00  0.00     0.208 A 
ATOM      3  C   UNL     1      13.361   5.023 -16.968  1.00  0.00     0.238 A 
ATOM      4  O   UNL     1      13.561   6.241 -16.719  1.00  0.00    -0.285 OA
ATOM      5  C   UNL     1      12.628   4.613 -18.108  1.00  0.00     0.111 A 
ATOM      6  C   UNL     1      12.126   5.498 -19.110  1.00  0.00     0.134 A 
ATOM      7  C   UNL     1      11.303   4.996 -20.124  1.00  0.00     0.093 A 
ATOM      8  C   UNL     1      11.016   3.632 -20.211  1.00  0.00     0.123 A 
ATOM      9  C   UNL     1      11.550   2.753 -19.272  1.00  0.00     0.094 A 
ATOM     10  C   UNL     1      12.345   3.228 -18.227  1.00  0.00     0.146 A 
ATOM     11  O   UNL     1      12.825   2.357 -17.348  1.00  0.00    -0.452 OA
ENDROOT
BRANCH   1  12
ATOM     12  C   UNL     1      14.068   1.631 -15.413  1.00  0.00     0.021 A 
ATOM     13  C   UNL     1      15.359   1.092 -15.562  1.00  0.00     0.016 A 
ATOM     14  C   UNL     1      15.796   0.062 -14.723  1.00  0.00     0.047 A 
ATOM     15  C   UNL     1      14.945  -0.450 -13.734  1.00  0.00     0.115 A 
ATOM     16  C   UNL     1      13.214   1.097 -14.433  1.00  0.00     0.016 A 
ATOM     17  C   UNL     1      13.655   0.068 -13.595  1.00  0.00     0.047 A 
BRANCH  15  18
ATOM     18  O   UNL     1      15.371  -1.474 -12.892  1.00  0.00    -0.508 OA
ATOM     19  H   UNL     1      15.016  -2.419 -12.985  1.00  0.00     0.293 HD
ENDBRANCH  15  18
ENDBRANCH   1  12
BRANCH   2  20
ATOM     20  O   UNL     1      14.551   4.446 -14.923  1.00  0.00    -0.502 OA
ATOM     21  H   UNL     1      14.294   5.253 -14.369  1.00  0.00     0.293 HD
ENDBRANCH   2  20
BRANCH   6  22
ATOM     22  O   UNL     1      12.428   6.862 -19.168  1.00  0.00    -0.507 OA
ATOM     23  H   UNL     1      12.529   7.393 -20.019  1.00  0.00     0.293 HD
ENDBRANCH   6  22
BRANCH   8  24
ATOM     24  O   UNL     1      10.209   3.138 -21.233  1.00  0.00    -0.508 OA
ATOM     25  H   UNL     1       9.667   3.757 -21.826  1.00  0.00     0.293 HD
ENDBRANCH   8  24
TORSDOF 5
ENDMDL
MODEL 9
REMARK VINA RESULT:    -5.490      9.999     11.062
REMARK INTER + INTRA:          -6.539
REMARK INTER:                  -6.354
REMARK INTRA:                  -0.185
REMARK UNBOUND:                -0.086
REMARK SMILES O=c1c(O)c(-c2ccc(O)cc2)oc2cc(O)cc(O)c12
REMARK SMILES IDX 5 1 3 2 2 3 1 4 21 5 19 6 18 7 16 8 15 9 14 10 13 11 6 12
REMARK SMILES IDX 7 13 8 14 9 15 12 16 11 17 10 18 4 20 20 22 17 24
REMARK H PARENT 10 19 4 21 20 23 17 25
REMARK Flexibility Score: inf
ROOT
ATOM      1  C   UNL     1      24.190   7.286 -17.704  1.00  0.00     0.180 A 
ATOM      2  C   UNL     1      24.189   8.656 -17.391  1.00  0.00     0.208 A 
ATOM      3  C   UNL     1      24.329   9.049 -16.051  1.00  0.00     0.238 A 
ATOM      4  O   UNL     1      24.382  10.279 -15.783  1.00  0.00    -0.285 OA
ATOM      5  C   UNL     1      24.453   8.068 -15.038  1.00  0.00     0.111 A 
ATOM      6  C   UNL     1      24.560   8.351 -13.643  1.00  0.00     0.134 A 
ATOM      7  C   UNL     1      24.810   7.308 -12.744  1.00  0.00     0.093 A 
ATOM      8  C   UNL     1      24.891   5.984 -13.181  1.00  0.00     0.123 A 
ATOM      9  C   UNL     1      24.728   5.691 -14.532  1.00  0.00     0.094 A 
ATOM     10  C   UNL     1      24.514   6.714 -15.459  1.00  0.00     0.146 A 
ATOM     11  O   UNL     1      24.375   6.392 -16.739  1.00  0.00    -0.452 OA
ENDROOT
BRANCH   1  12
ATOM     12  C   UNL     1      24.022   6.794 -19.091  1.00  0.00     0.021 A 
ATOM     13  C   UNL     1      25.096   6.235 -19.806  1.00  0.00     0.016 A 
ATOM     14  C   UNL     1      24.918   5.800 -21.123  1.00  0.00     0.047 A 
ATOM     15  C   UNL     1      23.669   5.929 -21.745  1.00  0.00     0.115 A 
ATOM     16  C   UNL     1      22.778   6.939 -19.729  1.00  0.00     0.016 A 
ATOM     17  C   UNL     1      22.603   6.502 -21.045  1.00  0.00     0.047 A 
BRANCH  15  18
ATOM     18  O   UNL     1      23.480   5.497 -23.055  1.00  0.00    -0.508 OA
ATOM     19  H   UNL     1      22.597   5.105 -23.362  1.00  0.00     0.293 HD
ENDBRANCH  15  18
ENDBRANCH   1  12
BRANCH   2  20
ATOM     20  O   UNL     1      24.087   9.610 -18.409  1.00  0.00    -0.502 OA
ATOM     21  H   UNL     1      24.700  10.413 -18.465  1.00  0.00     0.293 HD
ENDBRANCH   2  20
BRANCH   6  22
ATOM     22  O   UNL     1      24.404   9.627 -13.092  1.00  0.00    -0.507 OA
ATOM     23  H   UNL     1      24.676   9.886 -12.156  1.00  0.00     0.293 HD
ENDBRANCH   6  22
BRANCH   8  24
ATOM     24  O   UNL     1      25.123   4.949 -12.277  1.00  0.00    -0.508 OA
ATOM     25  H   UNL     1      25.676   5.092 -11.439  1.00  0.00     0.293 HD
ENDBRANCH   8  24
TORSDOF 5
ENDMDL
