MODEL 1
REMARK VINA RESULT:    -6.769      0.000      0.000
REMARK INTER + INTRA:          -8.097
REMARK INTER:                  -7.956
REMARK INTRA:                  -0.140
REMARK UNBOUND:                -0.140
REMARK SMILES O=C([O-])C=Cc1ccc(O)c(O)c1
REMARK SMILES IDX 6 1 13 2 7 3 11 4 8 5 9 6 5 7 4 8 2 9 1 10 3 11 12 12 10 14
REMARK H PARENT 12 13 10 15
REMARK Flexibility Score: inf
ROOT
ATOM      1  C   UNL     1     -31.376  -3.003 -18.158  1.00  0.00    -0.022 A 
ATOM      2  C   UNL     1     -32.401  -2.493 -18.975  1.00  0.00     0.058 A 
ATOM      3  C   UNL     1     -30.068  -3.068 -18.657  1.00  0.00     0.012 A 
ATOM      4  C   UNL     1     -32.131  -2.101 -20.291  1.00  0.00     0.157 A 
ATOM      5  C   UNL     1     -29.795  -2.679 -19.971  1.00  0.00     0.051 A 
ATOM      6  C   UNL     1     -30.822  -2.199 -20.795  1.00  0.00     0.157 A 
ENDROOT
BRANCH   1   7
ATOM      7  C   UNL     1     -31.632  -3.371 -16.750  1.00  0.00     0.010 C 
ATOM      8  C   UNL     1     -32.460  -4.344 -16.340  1.00  0.00     0.025 C 
BRANCH   8   9
ATOM      9  C   UNL     1     -33.112  -5.337 -17.213  1.00  0.00     0.064 C 
ATOM     10  O   UNL     1     -32.490  -6.386 -17.525  1.00  0.00    -0.545 OA
ATOM     11  O   UNL     1     -34.370  -5.109 -17.759  1.00  0.00    -0.545 OA
ENDBRANCH   8   9
ENDBRANCH   1   7
BRANCH   4  12
ATOM     12  O   UNL     1     -33.173  -1.614 -21.080  1.00  0.00    -0.504 OA
ATOM     13  H   UNL     1     -33.008  -1.173 -21.976  1.00  0.00     0.293 HD
ENDBRANCH   4  12
BRANCH   6  14
ATOM     14  O   UNL     1     -30.547  -1.815 -22.107  1.00  0.00    -0.504 OA
ATOM     15  H   UNL     1     -29.862  -1.099 -22.318  1.00  0.00     0.293 HD
ENDBRANCH   6  14
TORSDOF 4
ENDMDL
MODEL 2
REMARK VINA RESULT:    -5.597      5.879      9.175
REMARK INTER + INTRA:          -6.719
REMARK INTER:                  -6.441
REMARK INTRA:                  -0.278
REMARK UNBOUND:                -0.140
REMARK SMILES O=C([O-])C=Cc1ccc(O)c(O)c1
REMARK SMILES IDX 6 1 13 2 7 3 11 4 8 5 9 6 5 7 4 8 2 9 1 10 3 11 12 12 10 14
REMARK H PARENT 12 13 10 15
REMARK Flexibility Score: inf
ROOT
ATOM      1  C   UNL     1     -37.194  -6.557 -13.624  1.00  0.00    -0.022 A 
ATOM      2  C   UNL     1     -38.490  -6.027 -13.748  1.00  0.00     0.058 A 
ATOM      3  C   UNL     1     -37.012  -7.946 -13.666  1.00  0.00     0.012 A 
ATOM      4  C   UNL     1     -39.597  -6.877 -13.861  1.00  0.00     0.157 A 
ATOM      5  C   UNL     1     -38.114  -8.798 -13.777  1.00  0.00     0.051 A 
ATOM      6  C   UNL     1     -39.409  -8.270 -13.870  1.00  0.00     0.157 A 
ENDROOT
BRANCH   1   7
ATOM      7  C   UNL     1     -36.010  -5.675 -13.558  1.00  0.00     0.010 C 
ATOM      8  C   UNL     1     -35.330  -5.208 -14.616  1.00  0.00     0.025 C 
BRANCH   8   9
ATOM      9  C   UNL     1     -35.748  -5.332 -16.025  1.00  0.00     0.064 C 
ATOM     10  O   UNL     1     -36.373  -4.384 -16.568  1.00  0.00    -0.545 OA
ATOM     11  O   UNL     1     -35.530  -6.500 -16.746  1.00  0.00    -0.545 OA
ENDBRANCH   8   9
ENDBRANCH   1   7
BRANCH   4  12
ATOM     12  O   UNL     1     -40.871  -6.321 -13.966  1.00  0.00    -0.504 OA
ATOM     13  H   UNL     1     -41.688  -6.767 -13.568  1.00  0.00     0.293 HD
ENDBRANCH   4  12
BRANCH   6  14
ATOM     14  O   UNL     1     -40.507  -9.123 -13.978  1.00  0.00    -0.504 OA
ATOM     15  H   UNL     1     -40.715  -9.813 -13.265  1.00  0.00     0.293 HD
ENDBRANCH   6  14
TORSDOF 4
ENDMDL
MODEL 3
REMARK VINA RESULT:    -5.354      6.393      9.627
REMARK INTER + INTRA:          -6.434
REMARK INTER:                  -6.171
REMARK INTRA:                  -0.263
REMARK UNBOUND:                -0.140
REMARK SMILES O=C([O-])C=Cc1ccc(O)c(O)c1
REMARK SMILES IDX 6 1 13 2 7 3 11 4 8 5 9 6 5 7 4 8 2 9 1 10 3 11 12 12 10 14
REMARK H PARENT 12 13 10 15
REMARK Flexibility Score: inf
ROOT
ATOM      1  C   UNL     1     -37.895  -6.343 -13.609  1.00  0.00    -0.022 A 
ATOM      2  C   UNL     1     -38.377  -7.605 -13.999  1.00  0.00     0.058 A 
ATOM      3  C   UNL     1     -38.802  -5.363 -13.183  1.00  0.00     0.012 A 
ATOM      4  C   UNL     1     -39.752  -7.868 -14.012  1.00  0.00     0.157 A 
ATOM      5  C   UNL     1     -40.175  -5.621 -13.194  1.00  0.00     0.051 A 
ATOM      6  C   UNL     1     -40.657  -6.869 -13.611  1.00  0.00     0.157 A 
ENDROOT
BRANCH   1   7
ATOM      7  C   UNL     1     -36.446  -6.066 -13.540  1.00  0.00     0.010 C 
ATOM      8  C   UNL     1     -35.657  -5.785 -14.589  1.00  0.00     0.025 C 
BRANCH   8   9
ATOM      9  C   UNL     1     -36.123  -5.517 -15.962  1.00  0.00     0.064 C 
ATOM     10  O   UNL     1     -35.881  -6.356 -16.869  1.00  0.00    -0.545 OA
ATOM     11  O   UNL     1     -36.761  -4.328 -16.293  1.00  0.00    -0.545 OA
ENDBRANCH   8   9
ENDBRANCH   1   7
BRANCH   4  12
ATOM     12  O   UNL     1     -40.198  -9.125 -14.418  1.00  0.00    -0.504 OA
ATOM     13  H   UNL     1     -40.975  -9.239 -15.057  1.00  0.00     0.293 HD
ENDBRANCH   4  12
BRANCH   6  14
ATOM     14  O   UNL     1     -42.028  -7.122 -13.625  1.00  0.00    -0.504 OA
ATOM     15  H   UNL     1     -42.690  -6.489 -13.191  1.00  0.00     0.293 HD
ENDBRANCH   6  14
TORSDOF 4
ENDMDL
MODEL 4
REMARK VINA RESULT:    -5.251      1.616      2.003
REMARK INTER + INTRA:          -6.312
REMARK INTER:                  -7.114
REMARK INTRA:                   0.802
REMARK UNBOUND:                -0.140
REMARK SMILES O=C([O-])C=Cc1ccc(O)c(O)c1
REMARK SMILES IDX 6 1 13 2 7 3 11 4 8 5 9 6 5 7 4 8 2 9 1 10 3 11 12 12 10 14
REMARK H PARENT 12 13 10 15
REMARK Flexibility Score: inf
ROOT
ATOM      1  C   UNL     1     -32.572  -3.404 -18.018  1.00  0.00    -0.022 A 
ATOM      2  C   UNL     1     -33.155  -2.779 -19.135  1.00  0.00     0.058 A 
ATOM      3  C   UNL     1     -31.176  -3.443 -17.903  1.00  0.00     0.012 A 
ATOM      4  C   UNL     1     -32.352  -2.246 -20.149  1.00  0.00     0.157 A 
ATOM      5  C   UNL     1     -30.371  -2.913 -18.914  1.00  0.00     0.051 A 
ATOM      6  C   UNL     1     -30.952  -2.317 -20.042  1.00  0.00     0.157 A 
ENDROOT
BRANCH   1   7
ATOM      7  C   UNL     1     -33.403  -3.924 -16.912  1.00  0.00     0.010 C 
ATOM      8  C   UNL     1     -34.743  -4.007 -16.919  1.00  0.00     0.025 C 
BRANCH   8   9
ATOM      9  C   UNL     1     -35.608  -3.773 -18.091  1.00  0.00     0.064 C 
ATOM     10  O   UNL     1     -35.764  -4.695 -18.934  1.00  0.00    -0.545 OA
ATOM     11  O   UNL     1     -36.197  -2.536 -18.323  1.00  0.00    -0.545 OA
ENDBRANCH   8   9
ENDBRANCH   1   7
BRANCH   4  12
ATOM     12  O   UNL     1     -32.962  -1.647 -21.252  1.00  0.00    -0.504 OA
ATOM     13  H   UNL     1     -33.288  -0.689 -21.231  1.00  0.00     0.293 HD
ENDBRANCH   4  12
BRANCH   6  14
ATOM     14  O   UNL     1     -30.146  -1.792 -21.052  1.00  0.00    -0.504 OA
ATOM     15  H   UNL     1     -30.212  -2.119 -22.008  1.00  0.00     0.293 HD
ENDBRANCH   6  14
TORSDOF 4
ENDMDL
MODEL 5
REMARK VINA RESULT:    -5.231      4.110      6.064
REMARK INTER + INTRA:          -6.289
REMARK INTER:                  -6.001
REMARK INTRA:                  -0.288
REMARK UNBOUND:                -0.140
REMARK SMILES O=C([O-])C=Cc1ccc(O)c(O)c1
REMARK SMILES IDX 6 1 13 2 7 3 11 4 8 5 9 6 5 7 4 8 2 9 1 10 3 11 12 12 10 14
REMARK H PARENT 12 13 10 15
REMARK Flexibility Score: inf
ROOT
ATOM      1  C   UNL     1     -36.304  -5.440 -16.339  1.00  0.00    -0.022 A 
ATOM      2  C   UNL     1     -35.241  -5.820 -17.177  1.00  0.00     0.058 A 
ATOM      3  C   UNL     1     -36.079  -4.495 -15.329  1.00  0.00     0.012 A 
ATOM      4  C   UNL     1     -33.957  -5.301 -16.975  1.00  0.00     0.157 A 
ATOM      5  C   UNL     1     -34.799  -3.975 -15.123  1.00  0.00     0.051 A 
ATOM      6  C   UNL     1     -33.733  -4.377 -15.939  1.00  0.00     0.157 A 
ENDROOT
BRANCH   1   7
ATOM      7  C   UNL     1     -37.677  -5.936 -16.572  1.00  0.00     0.010 C 
ATOM      8  C   UNL     1     -38.210  -7.035 -16.014  1.00  0.00     0.025 C 
BRANCH   8   9
ATOM      9  C   UNL     1     -37.596  -7.830 -14.935  1.00  0.00     0.064 C 
ATOM     10  O   UNL     1     -37.882  -7.569 -13.738  1.00  0.00    -0.545 OA
ATOM     11  O   UNL     1     -36.653  -8.816 -15.206  1.00  0.00    -0.545 OA
ENDBRANCH   8   9
ENDBRANCH   1   7
BRANCH   4  12
ATOM     12  O   UNL     1     -32.921  -5.710 -17.813  1.00  0.00    -0.504 OA
ATOM     13  H   UNL     1     -33.080  -6.316 -18.609  1.00  0.00     0.293 HD
ENDBRANCH   4  12
BRANCH   6  14
ATOM     14  O   UNL     1     -32.455  -3.859 -15.729  1.00  0.00    -0.504 OA
ATOM     15  H   UNL     1     -32.243  -2.883 -15.900  1.00  0.00     0.293 HD
ENDBRANCH   6  14
TORSDOF 4
ENDMDL
MODEL 6
REMARK VINA RESULT:    -5.213      3.691      7.106
REMARK INTER + INTRA:          -6.268
REMARK INTER:                  -6.050
REMARK INTRA:                  -0.217
REMARK UNBOUND:                -0.140
REMARK SMILES O=C([O-])C=Cc1ccc(O)c(O)c1
REMARK SMILES IDX 6 1 13 2 7 3 11 4 8 5 9 6 5 7 4 8 2 9 1 10 3 11 12 12 10 14
REMARK H PARENT 12 13 10 15
REMARK Flexibility Score: inf
ROOT
ATOM      1  C   UNL     1     -35.724  -5.204 -15.911  1.00  0.00    -0.022 A 
ATOM      2  C   UNL     1     -36.077  -6.478 -16.388  1.00  0.00     0.058 A 
ATOM      3  C   UNL     1     -35.690  -4.973 -14.529  1.00  0.00     0.012 A 
ATOM      4  C   UNL     1     -36.440  -7.495 -15.497  1.00  0.00     0.157 A 
ATOM      5  C   UNL     1     -36.052  -5.984 -13.636  1.00  0.00     0.051 A 
ATOM      6  C   UNL     1     -36.433  -7.246 -14.114  1.00  0.00     0.157 A 
ENDROOT
BRANCH   1   7
ATOM      7  C   UNL     1     -35.287  -4.136 -16.834  1.00  0.00     0.010 C 
ATOM      8  C   UNL     1     -34.019  -3.903 -17.207  1.00  0.00     0.025 C 
BRANCH   8   9
ATOM      9  C   UNL     1     -32.868  -4.779 -16.920  1.00  0.00     0.064 C 
ATOM     10  O   UNL     1     -31.906  -4.330 -16.243  1.00  0.00    -0.545 OA
ATOM     11  O   UNL     1     -32.787  -6.066 -17.439  1.00  0.00    -0.545 OA
ENDBRANCH   8   9
ENDBRANCH   1   7
BRANCH   4  12
ATOM     12  O   UNL     1     -36.799  -8.744 -16.003  1.00  0.00    -0.504 OA
ATOM     13  H   UNL     1     -37.458  -9.348 -15.527  1.00  0.00     0.293 HD
ENDBRANCH   4  12
BRANCH   6  14
ATOM     14  O   UNL     1     -36.798  -8.253 -13.220  1.00  0.00    -0.504 OA
ATOM     15  H   UNL     1     -36.778  -9.231 -13.485  1.00  0.00     0.293 HD
ENDBRANCH   6  14
TORSDOF 4
ENDMDL
MODEL 7
REMARK VINA RESULT:    -5.174      5.571      7.904
REMARK INTER + INTRA:          -6.222
REMARK INTER:                  -6.306
REMARK INTRA:                   0.084
REMARK UNBOUND:                -0.140
REMARK SMILES O=C([O-])C=Cc1ccc(O)c(O)c1
REMARK SMILES IDX 6 1 13 2 7 3 11 4 8 5 9 6 5 7 4 8 2 9 1 10 3 11 12 12 10 14
REMARK H PARENT 12 13 10 15
REMARK Flexibility Score: inf
ROOT
ATOM      1  C   UNL     1     -36.753  -7.212 -14.616  1.00  0.00    -0.022 A 
ATOM      2  C   UNL     1     -36.357  -6.308 -13.615  1.00  0.00     0.058 A 
ATOM      3  C   UNL     1     -36.330  -7.003 -15.936  1.00  0.00     0.012 A 
ATOM      4  C   UNL     1     -35.591  -5.182 -13.937  1.00  0.00     0.157 A 
ATOM      5  C   UNL     1     -35.566  -5.880 -16.262  1.00  0.00     0.051 A 
ATOM      6  C   UNL     1     -35.197  -4.963 -15.268  1.00  0.00     0.157 A 
ENDROOT
BRANCH   1   7
ATOM      7  C   UNL     1     -37.517  -8.433 -14.286  1.00  0.00     0.010 C 
ATOM      8  C   UNL     1     -38.764  -8.459 -13.791  1.00  0.00     0.025 C 
BRANCH   8   9
ATOM      9  C   UNL     1     -39.659  -7.295 -13.666  1.00  0.00     0.064 C 
ATOM     10  O   UNL     1     -40.453  -7.231 -12.691  1.00  0.00    -0.545 OA
ATOM     11  O   UNL     1     -39.699  -6.302 -14.637  1.00  0.00    -0.545 OA
ENDBRANCH   8   9
ENDBRANCH   1   7
BRANCH   4  12
ATOM     12  O   UNL     1     -35.228  -4.296 -12.923  1.00  0.00    -0.504 OA
ATOM     13  H   UNL     1     -34.463  -3.642 -13.028  1.00  0.00     0.293 HD
ENDBRANCH   4  12
BRANCH   6  14
ATOM     14  O   UNL     1     -34.437  -3.841 -15.597  1.00  0.00    -0.504 OA
ATOM     15  H   UNL     1     -34.151  -3.654 -16.551  1.00  0.00     0.293 HD
ENDBRANCH   6  14
TORSDOF 4
ENDMDL
MODEL 8
REMARK VINA RESULT:    -5.121      2.372      3.340
REMARK INTER + INTRA:          -6.159
REMARK INTER:                  -5.889
REMARK INTRA:                  -0.270
REMARK UNBOUND:                -0.140
REMARK SMILES O=C([O-])C=Cc1ccc(O)c(O)c1
REMARK SMILES IDX 6 1 13 2 7 3 11 4 8 5 9 6 5 7 4 8 2 9 1 10 3 11 12 12 10 14
REMARK H PARENT 12 13 10 15
REMARK Flexibility Score: inf
ROOT
ATOM      1  C   UNL     1     -33.895  -4.929 -17.420  1.00  0.00    -0.022 A 
ATOM      2  C   UNL     1     -34.242  -4.092 -18.494  1.00  0.00     0.058 A 
ATOM      3  C   UNL     1     -32.629  -4.803 -16.831  1.00  0.00     0.012 A 
ATOM      4  C   UNL     1     -33.318  -3.175 -19.008  1.00  0.00     0.157 A 
ATOM      5  C   UNL     1     -31.703  -3.890 -17.341  1.00  0.00     0.051 A 
ATOM      6  C   UNL     1     -32.039  -3.076 -18.432  1.00  0.00     0.157 A 
ENDROOT
BRANCH   1   7
ATOM      7  C   UNL     1     -34.876  -5.865 -16.831  1.00  0.00     0.010 C 
ATOM      8  C   UNL     1     -35.624  -5.623 -15.744  1.00  0.00     0.025 C 
BRANCH   8   9
ATOM      9  C   UNL     1     -35.741  -4.323 -15.058  1.00  0.00     0.064 C 
ATOM     10  O   UNL     1     -35.193  -4.166 -13.936  1.00  0.00    -0.545 OA
ATOM     11  O   UNL     1     -36.504  -3.289 -15.588  1.00  0.00    -0.545 OA
ENDBRANCH   8   9
ENDBRANCH   1   7
BRANCH   4  12
ATOM     12  O   UNL     1     -33.688  -2.369 -20.084  1.00  0.00    -0.504 OA
ATOM     13  H   UNL     1     -34.467  -1.725 -20.031  1.00  0.00     0.293 HD
ENDBRANCH   4  12
BRANCH   6  14
ATOM     14  O   UNL     1     -31.111  -2.168 -18.941  1.00  0.00    -0.504 OA
ATOM     15  H   UNL     1     -31.059  -1.962 -19.932  1.00  0.00     0.293 HD
ENDBRANCH   6  14
TORSDOF 4
ENDMDL
MODEL 9
REMARK VINA RESULT:    -5.103      3.474      5.043
REMARK INTER + INTRA:          -6.139
REMARK INTER:                  -5.859
REMARK INTRA:                  -0.280
REMARK UNBOUND:                -0.140
REMARK SMILES O=C([O-])C=Cc1ccc(O)c(O)c1
REMARK SMILES IDX 6 1 13 2 7 3 11 4 8 5 9 6 5 7 4 8 2 9 1 10 3 11 12 12 10 14
REMARK H PARENT 12 13 10 15
REMARK Flexibility Score: inf
ROOT
ATOM      1  C   UNL     1     -35.393  -4.761 -15.775  1.00  0.00    -0.022 A 
ATOM      2  C   UNL     1     -34.323  -5.044 -16.641  1.00  0.00     0.058 A 
ATOM      3  C   UNL     1     -36.328  -3.781 -16.135  1.00  0.00     0.012 A 
ATOM      4  C   UNL     1     -34.160  -4.321 -17.829  1.00  0.00     0.157 A 
ATOM      5  C   UNL     1     -36.169  -3.056 -17.319  1.00  0.00     0.051 A 
ATOM      6  C   UNL     1     -35.085  -3.318 -18.168  1.00  0.00     0.157 A 
ENDROOT
BRANCH   1   7
ATOM      7  C   UNL     1     -35.611  -5.549 -14.544  1.00  0.00     0.010 C 
ATOM      8  C   UNL     1     -36.372  -6.650 -14.452  1.00  0.00     0.025 C 
BRANCH   8   9
ATOM      9  C   UNL     1     -36.970  -7.375 -15.589  1.00  0.00     0.064 C 
ATOM     10  O   UNL     1     -36.374  -8.378 -16.061  1.00  0.00    -0.545 OA
ATOM     11  O   UNL     1     -38.139  -6.935 -16.197  1.00  0.00    -0.545 OA
ENDBRANCH   8   9
ENDBRANCH   1   7
BRANCH   4  12
ATOM     12  O   UNL     1     -33.079  -4.616 -18.659  1.00  0.00    -0.504 OA
ATOM     13  H   UNL     1     -33.178  -5.192 -19.486  1.00  0.00     0.293 HD
ENDBRANCH   4  12
BRANCH   6  14
ATOM     14  O   UNL     1     -34.926  -2.591 -19.348  1.00  0.00    -0.504 OA
ATOM     15  H   UNL     1     -34.521  -3.008 -20.178  1.00  0.00     0.293 HD
ENDBRANCH   6  14
TORSDOF 4
ENDMDL
