MODEL 1
REMARK VINA RESULT:    -4.688      0.000      0.000
REMARK INTER + INTRA:          -6.500
REMARK INTER:                  -5.922
REMARK INTRA:                  -0.578
REMARK UNBOUND:                -0.578
REMARK SMILES CC(C)=CCCC(C)=CCO
REMARK SMILES IDX 7 1 9 2 8 3 6 4 5 5 4 6 1 7 2 8 3 9 10 10 11 11
REMARK H PARENT 11 12
REMARK Flexibility Score: inf
ROOT
ATOM      1  C   UNL     1      29.226 -21.923 -35.001  1.00  0.00    -0.075 C 
ATOM      2  C   UNL     1      28.945 -21.268 -36.149  1.00  0.00    -0.000 C 
ATOM      3  C   UNL     1      30.554 -21.751 -34.302  1.00  0.00     0.039 C 
ENDROOT
BRANCH   1   4
ATOM      4  C   UNL     1      28.188 -22.847 -34.402  1.00  0.00     0.034 C 
BRANCH   4   5
ATOM      5  C   UNL     1      27.267 -22.084 -33.443  1.00  0.00     0.032 C 
BRANCH   5   6
ATOM      6  C   UNL     1      27.676 -22.318 -32.011  1.00  0.00    -0.028 C 
ATOM      7  C   UNL     1      28.538 -21.744 -29.782  1.00  0.00     0.039 C 
ATOM      8  C   UNL     1      28.214 -21.374 -31.206  1.00  0.00    -0.080 C 
ATOM      9  C   UNL     1      28.511 -19.976 -31.698  1.00  0.00     0.039 C 
ENDBRANCH   5   6
ENDBRANCH   4   5
ENDBRANCH   1   4
BRANCH   2  10
ATOM     10  C   UNL     1      29.912 -20.329 -36.822  1.00  0.00     0.183 C 
BRANCH  10  11
ATOM     11  O   UNL     1      29.367 -19.844 -38.019  1.00  0.00    -0.392 OA
ATOM     12  H   UNL     1      29.911 -19.056 -38.280  1.00  0.00     0.210 HD
ENDBRANCH  10  11
ENDBRANCH   2  10
TORSDOF 5
ENDMDL
MODEL 2
REMARK VINA RESULT:    -4.265      1.084      1.879
REMARK INTER + INTRA:          -5.966
REMARK INTER:                  -5.698
REMARK INTRA:                  -0.268
REMARK UNBOUND:                -0.578
REMARK SMILES CC(C)=CCCC(C)=CCO
REMARK SMILES IDX 7 1 9 2 8 3 6 4 5 5 4 6 1 7 2 8 3 9 10 10 11 11
REMARK H PARENT 11 12
REMARK Flexibility Score: inf
ROOT
ATOM      1  C   UNL     1      28.933 -21.608 -34.829  1.00  0.00    -0.075 C 
ATOM      2  C   UNL     1      29.577 -20.959 -35.824  1.00  0.00    -0.000 C 
ATOM      3  C   UNL     1      27.699 -22.436 -35.102  1.00  0.00     0.039 C 
ENDROOT
BRANCH   1   4
ATOM      4  C   UNL     1      29.459 -21.507 -33.415  1.00  0.00     0.034 C 
BRANCH   4   5
ATOM      5  C   UNL     1      28.385 -20.955 -32.472  1.00  0.00     0.032 C 
BRANCH   5   6
ATOM      6  C   UNL     1      28.945 -20.747 -31.087  1.00  0.00    -0.028 C 
ATOM      7  C   UNL     1      29.427 -21.284 -28.737  1.00  0.00     0.039 C 
ATOM      8  C   UNL     1      28.774 -21.606 -30.057  1.00  0.00    -0.080 C 
ATOM      9  C   UNL     1      27.939 -22.858 -30.189  1.00  0.00     0.039 C 
ENDBRANCH   5   6
ENDBRANCH   4   5
ENDBRANCH   1   4
BRANCH   2  10
ATOM     10  C   UNL     1      29.131 -20.999 -37.262  1.00  0.00     0.183 C 
BRANCH  10  11
ATOM     11  O   UNL     1      29.443 -19.792 -37.903  1.00  0.00    -0.392 OA
ATOM     12  H   UNL     1      30.338 -19.518 -37.572  1.00  0.00     0.210 HD
ENDBRANCH  10  11
ENDBRANCH   2  10
TORSDOF 5
ENDMDL
MODEL 3
REMARK VINA RESULT:    -4.186      3.041      5.300
REMARK INTER + INTRA:          -5.865
REMARK INTER:                  -5.221
REMARK INTRA:                  -0.645
REMARK UNBOUND:                -0.578
REMARK SMILES CC(C)=CCCC(C)=CCO
REMARK SMILES IDX 7 1 9 2 8 3 6 4 5 5 4 6 1 7 2 8 3 9 10 10 11 11
REMARK H PARENT 11 12
REMARK Flexibility Score: inf
ROOT
ATOM      1  C   UNL     1      28.146 -21.199 -31.271  1.00  0.00    -0.075 C 
ATOM      2  C   UNL     1      28.580 -21.883 -30.189  1.00  0.00    -0.000 C 
ATOM      3  C   UNL     1      28.686 -19.827 -31.601  1.00  0.00     0.039 C 
ENDROOT
BRANCH   1   4
ATOM      4  C   UNL     1      27.102 -21.821 -32.171  1.00  0.00     0.034 C 
BRANCH   4   5
ATOM      5  C   UNL     1      27.750 -22.768 -33.187  1.00  0.00     0.032 C 
BRANCH   5   6
ATOM      6  C   UNL     1      27.997 -22.059 -34.495  1.00  0.00    -0.028 C 
ATOM      7  C   UNL     1      29.313 -21.030 -36.298  1.00  0.00     0.039 C 
ATOM      8  C   UNL     1      29.218 -21.699 -34.950  1.00  0.00    -0.080 C 
ATOM      9  C   UNL     1      30.474 -21.931 -34.144  1.00  0.00     0.039 C 
ENDBRANCH   5   6
ENDBRANCH   4   5
ENDBRANCH   1   4
BRANCH   2  10
ATOM     10  C   UNL     1      29.616 -21.349 -29.235  1.00  0.00     0.183 C 
BRANCH  10  11
ATOM     11  O   UNL     1      28.999 -20.651 -28.187  1.00  0.00    -0.392 OA
ATOM     12  H   UNL     1      28.838 -19.729 -28.516  1.00  0.00     0.210 HD
ENDBRANCH  10  11
ENDBRANCH   2  10
TORSDOF 5
ENDMDL
MODEL 4
REMARK VINA RESULT:    -4.158      0.905      1.029
REMARK INTER + INTRA:          -5.830
REMARK INTER:                  -5.177
REMARK INTRA:                  -0.652
REMARK UNBOUND:                -0.578
REMARK SMILES CC(C)=CCCC(C)=CCO
REMARK SMILES IDX 7 1 9 2 8 3 6 4 5 5 4 6 1 7 2 8 3 9 10 10 11 11
REMARK H PARENT 11 12
REMARK Flexibility Score: inf
ROOT
ATOM      1  C   UNL     1      28.776 -22.700 -34.343  1.00  0.00    -0.075 C 
ATOM      2  C   UNL     1      28.360 -21.797 -35.257  1.00  0.00    -0.000 C 
ATOM      3  C   UNL     1      30.243 -23.016 -34.162  1.00  0.00     0.039 C 
ENDROOT
BRANCH   1   4
ATOM      4  C   UNL     1      27.754 -23.408 -33.481  1.00  0.00     0.034 C 
BRANCH   4   5
ATOM      5  C   UNL     1      27.043 -22.417 -32.553  1.00  0.00     0.032 C 
BRANCH   5   6
ATOM      6  C   UNL     1      27.758 -22.318 -31.229  1.00  0.00    -0.028 C 
ATOM      7  C   UNL     1      29.083 -21.265 -29.447  1.00  0.00     0.039 C 
ATOM      8  C   UNL     1      28.450 -21.234 -30.814  1.00  0.00    -0.080 C 
ATOM      9  C   UNL     1      28.619 -20.011 -31.685  1.00  0.00     0.039 C 
ENDBRANCH   5   6
ENDBRANCH   4   5
ENDBRANCH   1   4
BRANCH   2  10
ATOM     10  C   UNL     1      29.300 -21.042 -36.160  1.00  0.00     0.183 C 
BRANCH  10  11
ATOM     11  O   UNL     1      28.860 -21.112 -37.489  1.00  0.00    -0.392 OA
ATOM     12  H   UNL     1      29.202 -21.968 -37.857  1.00  0.00     0.210 HD
ENDBRANCH  10  11
ENDBRANCH   2  10
TORSDOF 5
ENDMDL
MODEL 5
REMARK VINA RESULT:    -4.053      1.666      2.277
REMARK INTER + INTRA:          -5.697
REMARK INTER:                  -5.222
REMARK INTRA:                  -0.476
REMARK UNBOUND:                -0.578
REMARK SMILES CC(C)=CCCC(C)=CCO
REMARK SMILES IDX 7 1 9 2 8 3 6 4 5 5 4 6 1 7 2 8 3 9 10 10 11 11
REMARK H PARENT 11 12
REMARK Flexibility Score: inf
ROOT
ATOM      1  C   UNL     1      28.983 -22.135 -35.072  1.00  0.00    -0.075 C 
ATOM      2  C   UNL     1      27.760 -22.623 -35.376  1.00  0.00    -0.000 C 
ATOM      3  C   UNL     1      29.607 -21.020 -35.879  1.00  0.00     0.039 C 
ENDROOT
BRANCH   1   4
ATOM      4  C   UNL     1      29.741 -22.714 -33.898  1.00  0.00     0.034 C 
BRANCH   4   5
ATOM      5  C   UNL     1      30.529 -21.623 -33.165  1.00  0.00     0.032 C 
BRANCH   5   6
ATOM      6  C   UNL     1      30.292 -21.702 -31.677  1.00  0.00    -0.028 C 
ATOM      7  C   UNL     1      29.190 -21.223 -29.533  1.00  0.00     0.039 C 
ATOM      8  C   UNL     1      29.333 -21.014 -31.019  1.00  0.00    -0.080 C 
ATOM      9  C   UNL     1      28.421 -20.036 -31.724  1.00  0.00     0.039 C 
ENDBRANCH   5   6
ENDBRANCH   4   5
ENDBRANCH   1   4
BRANCH   2  10
ATOM     10  C   UNL     1      26.929 -22.112 -36.524  1.00  0.00     0.183 C 
BRANCH  10  11
ATOM     11  O   UNL     1      27.197 -22.850 -37.685  1.00  0.00    -0.392 OA
ATOM     12  H   UNL     1      27.884 -23.523 -37.441  1.00  0.00     0.210 HD
ENDBRANCH  10  11
ENDBRANCH   2  10
TORSDOF 5
ENDMDL
MODEL 6
REMARK VINA RESULT:    -4.024      3.186      5.580
REMARK INTER + INTRA:          -5.661
REMARK INTER:                  -5.065
REMARK INTRA:                  -0.596
REMARK UNBOUND:                -0.578
REMARK SMILES CC(C)=CCCC(C)=CCO
REMARK SMILES IDX 7 1 9 2 8 3 6 4 5 5 4 6 1 7 2 8 3 9 10 10 11 11
REMARK H PARENT 11 12
REMARK Flexibility Score: inf
ROOT
ATOM      1  C   UNL     1      29.771 -20.872 -31.325  1.00  0.00    -0.075 C 
ATOM      2  C   UNL     1      29.838 -21.559 -30.164  1.00  0.00    -0.000 C 
ATOM      3  C   UNL     1      28.610 -19.953 -31.629  1.00  0.00     0.039 C 
ENDROOT
BRANCH   1   4
ATOM      4  C   UNL     1      30.881 -21.024 -32.342  1.00  0.00     0.034 C 
BRANCH   4   5
ATOM      5  C   UNL     1      30.636 -22.242 -33.239  1.00  0.00     0.032 C 
BRANCH   5   6
ATOM      6  C   UNL     1      30.269 -21.810 -34.637  1.00  0.00    -0.028 C 
ATOM      7  C   UNL     1      28.793 -21.338 -36.545  1.00  0.00     0.039 C 
ATOM      8  C   UNL     1      29.015 -21.838 -35.141  1.00  0.00    -0.080 C 
ATOM      9  C   UNL     1      27.845 -22.370 -34.347  1.00  0.00     0.039 C 
ENDBRANCH   5   6
ENDBRANCH   4   5
ENDBRANCH   1   4
BRANCH   2  10
ATOM     10  C   UNL     1      28.783 -21.474 -29.091  1.00  0.00     0.183 C 
BRANCH  10  11
ATOM     11  O   UNL     1      29.164 -20.553 -28.106  1.00  0.00    -0.392 OA
ATOM     12  H   UNL     1      28.403 -19.924 -27.996  1.00  0.00     0.210 HD
ENDBRANCH  10  11
ENDBRANCH   2  10
TORSDOF 5
ENDMDL
MODEL 7
REMARK VINA RESULT:    -3.895      3.505      5.431
REMARK INTER + INTRA:          -5.497
REMARK INTER:                  -4.907
REMARK INTRA:                  -0.590
REMARK UNBOUND:                -0.578
REMARK SMILES CC(C)=CCCC(C)=CCO
REMARK SMILES IDX 7 1 9 2 8 3 6 4 5 5 4 6 1 7 2 8 3 9 10 10 11 11
REMARK H PARENT 11 12
REMARK Flexibility Score: inf
ROOT
ATOM      1  C   UNL     1      29.582 -22.044 -30.359  1.00  0.00    -0.075 C 
ATOM      2  C   UNL     1      29.759 -21.116 -31.325  1.00  0.00    -0.000 C 
ATOM      3  C   UNL     1      28.200 -22.432 -29.886  1.00  0.00     0.039 C 
ENDROOT
BRANCH   1   4
ATOM      4  C   UNL     1      30.791 -22.710 -29.740  1.00  0.00     0.034 C 
BRANCH   4   5
ATOM      5  C   UNL     1      30.548 -23.009 -28.256  1.00  0.00     0.032 C 
BRANCH   5   6
ATOM      6  C   UNL     1      31.392 -22.111 -27.386  1.00  0.00    -0.028 C 
ATOM      7  C   UNL     1      31.877 -20.253 -25.853  1.00  0.00     0.039 C 
ATOM      8  C   UNL     1      30.921 -21.035 -26.716  1.00  0.00    -0.080 C 
ATOM      9  C   UNL     1      29.481 -20.592 -26.824  1.00  0.00     0.039 C 
ENDBRANCH   5   6
ENDBRANCH   4   5
ENDBRANCH   1   4
BRANCH   2  10
ATOM     10  C   UNL     1      28.619 -20.399 -32.001  1.00  0.00     0.183 C 
BRANCH  10  11
ATOM     11  O   UNL     1      28.441 -19.128 -31.437  1.00  0.00    -0.392 OA
ATOM     12  H   UNL     1      28.994 -18.500 -31.973  1.00  0.00     0.210 HD
ENDBRANCH  10  11
ENDBRANCH   2  10
TORSDOF 5
ENDMDL
MODEL 8
REMARK VINA RESULT:    -3.886      6.819      9.989
REMARK INTER + INTRA:          -5.487
REMARK INTER:                  -4.920
REMARK INTRA:                  -0.567
REMARK UNBOUND:                -0.578
REMARK SMILES CC(C)=CCCC(C)=CCO
REMARK SMILES IDX 7 1 9 2 8 3 6 4 5 5 4 6 1 7 2 8 3 9 10 10 11 11
REMARK H PARENT 11 12
REMARK Flexibility Score: inf
ROOT
ATOM      1  C   UNL     1      27.591 -22.209 -24.238  1.00  0.00    -0.075 C 
ATOM      2  C   UNL     1      26.271 -22.500 -24.249  1.00  0.00    -0.000 C 
ATOM      3  C   UNL     1      28.611 -23.210 -23.745  1.00  0.00     0.039 C 
ENDROOT
BRANCH   1   4
ATOM      4  C   UNL     1      28.057 -20.857 -24.730  1.00  0.00     0.034 C 
BRANCH   4   5
ATOM      5  C   UNL     1      29.422 -20.969 -25.419  1.00  0.00     0.032 C 
BRANCH   5   6
ATOM      6  C   UNL     1      29.298 -20.689 -26.896  1.00  0.00    -0.028 C 
ATOM      7  C   UNL     1      29.119 -21.212 -29.291  1.00  0.00     0.039 C 
ATOM      8  C   UNL     1      29.288 -21.640 -27.855  1.00  0.00    -0.080 C 
ATOM      9  C   UNL     1      29.459 -23.106 -27.531  1.00  0.00     0.039 C 
ENDBRANCH   5   6
ENDBRANCH   4   5
ENDBRANCH   1   4
BRANCH   2  10
ATOM     10  C   UNL     1      25.710 -23.817 -23.780  1.00  0.00     0.183 C 
BRANCH  10  11
ATOM     11  O   UNL     1      24.932 -23.632 -22.628  1.00  0.00    -0.392 OA
ATOM     12  H   UNL     1      25.134 -24.394 -22.024  1.00  0.00     0.210 HD
ENDBRANCH  10  11
ENDBRANCH   2  10
TORSDOF 5
ENDMDL
MODEL 9
REMARK VINA RESULT:    -3.809      5.187      8.331
REMARK INTER + INTRA:          -5.390
REMARK INTER:                  -4.889
REMARK INTRA:                  -0.501
REMARK UNBOUND:                -0.578
REMARK SMILES CC(C)=CCCC(C)=CCO
REMARK SMILES IDX 7 1 9 2 8 3 6 4 5 5 4 6 1 7 2 8 3 9 10 10 11 11
REMARK H PARENT 11 12
REMARK Flexibility Score: inf
ROOT
ATOM      1  C   UNL     1      28.721 -21.441 -25.830  1.00  0.00    -0.075 C 
ATOM      2  C   UNL     1      28.661 -22.789 -25.903  1.00  0.00    -0.000 C 
ATOM      3  C   UNL     1      28.063 -20.686 -24.699  1.00  0.00     0.039 C 
ENDROOT
BRANCH   1   4
ATOM      4  C   UNL     1      29.465 -20.674 -26.900  1.00  0.00     0.034 C 
BRANCH   4   5
ATOM      5  C   UNL     1      29.894 -21.604 -28.040  1.00  0.00     0.032 C 
BRANCH   5   6
ATOM      6  C   UNL     1      29.328 -21.132 -29.356  1.00  0.00    -0.028 C 
ATOM      7  C   UNL     1      27.922 -21.204 -31.371  1.00  0.00     0.039 C 
ATOM      8  C   UNL     1      28.427 -21.821 -30.092  1.00  0.00    -0.080 C 
ATOM      9  C   UNL     1      27.933 -23.187 -29.678  1.00  0.00     0.039 C 
ENDBRANCH   5   6
ENDBRANCH   4   5
ENDBRANCH   1   4
BRANCH   2  10
ATOM     10  C   UNL     1      27.945 -23.641 -24.887  1.00  0.00     0.183 C 
BRANCH  10  11
ATOM     11  O   UNL     1      26.657 -23.960 -25.340  1.00  0.00    -0.392 OA
ATOM     12  H   UNL     1      26.684 -23.909 -26.331  1.00  0.00     0.210 HD
ENDBRANCH  10  11
ENDBRANCH   2  10
TORSDOF 5
ENDMDL
