MODEL 1
REMARK VINA RESULT:    -3.778      0.000      0.000
REMARK INTER + INTRA:          -4.922
REMARK INTER:                  -4.662
REMARK INTRA:                  -0.260
REMARK UNBOUND:                -0.260
REMARK SMILES CCCCC=CC(C)=O
REMARK SMILES IDX 4 1 3 2 2 3 1 4 5 5 6 6 7 7 9 8 8 9
REMARK H PARENT
REMARK Flexibility Score: inf
ROOT
ATOM      1  C   UNL     1       5.866   3.652 108.609  1.00  0.00     0.027 C 
ENDROOT
BRANCH   1   2
ATOM      2  C   UNL     1       5.421   3.612 110.079  1.00  0.00     0.004 C 
BRANCH   2   3
ATOM      3  C   UNL     1       5.355   2.181 110.635  1.00  0.00    -0.003 C 
ATOM      4  C   UNL     1       4.850   1.170 109.606  1.00  0.00     0.004 C 
ENDBRANCH   2   3
ENDBRANCH   1   2
BRANCH   1   5
ATOM      5  C   UNL     1       5.043   4.631 107.822  1.00  0.00    -0.023 C 
ATOM      6  C   UNL     1       3.954   5.206 108.342  1.00  0.00     0.042 C 
BRANCH   6   7
ATOM      7  C   UNL     1       3.139   6.180 107.591  1.00  0.00     0.152 C 
ATOM      8  O   UNL     1       3.205   7.412 107.851  1.00  0.00    -0.295 OA
ATOM      9  C   UNL     1       2.227   5.702 106.507  1.00  0.00     0.093 C 
ENDBRANCH   6   7
ENDBRANCH   1   5
TORSDOF 4
ENDMDL
MODEL 2
REMARK VINA RESULT:    -3.738      1.063      1.229
REMARK INTER + INTRA:          -4.872
REMARK INTER:                  -4.588
REMARK INTRA:                  -0.284
REMARK UNBOUND:                -0.260
REMARK SMILES CCCCC=CC(C)=O
REMARK SMILES IDX 4 1 3 2 2 3 1 4 5 5 6 6 7 7 9 8 8 9
REMARK H PARENT
REMARK Flexibility Score: inf
ROOT
ATOM      1  C   UNL     1       5.866   3.552 108.333  1.00  0.00     0.027 C 
ENDROOT
BRANCH   1   2
ATOM      2  C   UNL     1       6.094   3.531 109.852  1.00  0.00     0.004 C 
BRANCH   2   3
ATOM      3  C   UNL     1       5.388   2.351 110.537  1.00  0.00    -0.003 C 
ATOM      4  C   UNL     1       4.962   1.265 109.550  1.00  0.00     0.004 C 
ENDBRANCH   2   3
ENDBRANCH   1   2
BRANCH   1   5
ATOM      5  C   UNL     1       5.013   4.720 107.929  1.00  0.00    -0.023 C 
ATOM      6  C   UNL     1       3.717   4.571 107.639  1.00  0.00     0.042 C 
BRANCH   6   7
ATOM      7  C   UNL     1       2.858   5.707 107.253  1.00  0.00     0.152 C 
ATOM      8  O   UNL     1       1.886   5.543 106.465  1.00  0.00    -0.295 OA
ATOM      9  C   UNL     1       3.138   7.067 107.805  1.00  0.00     0.093 C 
ENDBRANCH   6   7
ENDBRANCH   1   5
TORSDOF 4
ENDMDL
MODEL 3
REMARK VINA RESULT:    -3.550      2.268      4.905
REMARK INTER + INTRA:          -4.640
REMARK INTER:                  -4.469
REMARK INTRA:                  -0.172
REMARK UNBOUND:                -0.260
REMARK SMILES CCCCC=CC(C)=O
REMARK SMILES IDX 4 1 3 2 2 3 1 4 5 5 6 6 7 7 9 8 8 9
REMARK H PARENT
REMARK Flexibility Score: inf
ROOT
ATOM      1  C   UNL     1       4.215   5.570 107.694  1.00  0.00     0.027 C 
ENDROOT
BRANCH   1   2
ATOM      2  C   UNL     1       2.760   5.108 107.519  1.00  0.00     0.004 C 
BRANCH   2   3
ATOM      3  C   UNL     1       2.175   5.506 106.155  1.00  0.00    -0.003 C 
ATOM      4  C   UNL     1       3.215   5.478 105.036  1.00  0.00     0.004 C 
ENDBRANCH   2   3
ENDBRANCH   1   2
BRANCH   1   5
ATOM      5  C   UNL     1       5.086   4.444 108.170  1.00  0.00    -0.023 C 
ATOM      6  C   UNL     1       5.071   4.040 109.445  1.00  0.00     0.042 C 
BRANCH   6   7
ATOM      7  C   UNL     1       5.909   2.928 109.931  1.00  0.00     0.152 C 
ATOM      8  O   UNL     1       7.105   2.807 109.549  1.00  0.00    -0.295 OA
ATOM      9  C   UNL     1       5.337   1.934 110.891  1.00  0.00     0.093 C 
ENDBRANCH   6   7
ENDBRANCH   1   5
TORSDOF 4
ENDMDL
MODEL 4
REMARK VINA RESULT:    -3.468      1.708      2.308
REMARK INTER + INTRA:          -4.539
REMARK INTER:                  -4.289
REMARK INTRA:                  -0.250
REMARK UNBOUND:                -0.260
REMARK SMILES CCCCC=CC(C)=O
REMARK SMILES IDX 4 1 3 2 2 3 1 4 5 5 6 6 7 7 9 8 8 9
REMARK H PARENT
REMARK Flexibility Score: inf
ROOT
ATOM      1  C   UNL     1       3.819   1.526 107.399  1.00  0.00     0.027 C 
ENDROOT
BRANCH   1   2
ATOM      2  C   UNL     1       4.560   0.973 108.626  1.00  0.00     0.004 C 
BRANCH   2   3
ATOM      3  C   UNL     1       5.332   2.061 109.388  1.00  0.00    -0.003 C 
ATOM      4  C   UNL     1       5.157   1.959 110.902  1.00  0.00     0.004 C 
ENDBRANCH   2   3
ENDBRANCH   1   2
BRANCH   1   5
ATOM      5  C   UNL     1       3.665   3.017 107.487  1.00  0.00    -0.023 C 
ATOM      6  C   UNL     1       2.711   3.663 106.808  1.00  0.00     0.042 C 
BRANCH   6   7
ATOM      7  C   UNL     1       2.535   5.125 106.890  1.00  0.00     0.152 C 
ATOM      8  O   UNL     1       1.615   5.701 106.246  1.00  0.00    -0.295 OA
ATOM      9  C   UNL     1       3.453   5.934 107.748  1.00  0.00     0.093 C 
ENDBRANCH   6   7
ENDBRANCH   1   5
TORSDOF 4
ENDMDL
MODEL 5
REMARK VINA RESULT:    -3.434      2.424      4.883
REMARK INTER + INTRA:          -4.498
REMARK INTER:                  -4.267
REMARK INTRA:                  -0.230
REMARK UNBOUND:                -0.260
REMARK SMILES CCCCC=CC(C)=O
REMARK SMILES IDX 4 1 3 2 2 3 1 4 5 5 6 6 7 7 9 8 8 9
REMARK H PARENT
REMARK Flexibility Score: inf
ROOT
ATOM      1  C   UNL     1       3.162   3.557 106.517  1.00  0.00     0.027 C 
ENDROOT
BRANCH   1   2
ATOM      2  C   UNL     1       2.362   4.733 107.097  1.00  0.00     0.004 C 
BRANCH   2   3
ATOM      3  C   UNL     1       2.913   6.097 106.652  1.00  0.00    -0.003 C 
ATOM      4  C   UNL     1       3.135   7.055 107.822  1.00  0.00     0.004 C 
ENDBRANCH   2   3
ENDBRANCH   1   2
BRANCH   1   5
ATOM      5  C   UNL     1       3.937   2.848 107.590  1.00  0.00    -0.023 C 
ATOM      6  C   UNL     1       4.932   3.453 108.248  1.00  0.00     0.042 C 
BRANCH   6   7
ATOM      7  C   UNL     1       5.697   2.780 109.314  1.00  0.00     0.152 C 
ATOM      8  O   UNL     1       5.157   2.504 110.421  1.00  0.00    -0.295 OA
ATOM      9  C   UNL     1       7.128   2.414 109.081  1.00  0.00     0.093 C 
ENDBRANCH   6   7
ENDBRANCH   1   5
TORSDOF 4
ENDMDL
MODEL 6
REMARK VINA RESULT:    -3.359      3.100      5.427
REMARK INTER + INTRA:          -4.404
REMARK INTER:                  -4.312
REMARK INTRA:                  -0.093
REMARK UNBOUND:                -0.260
REMARK SMILES CCCCC=CC(C)=O
REMARK SMILES IDX 4 1 3 2 2 3 1 4 5 5 6 6 7 7 9 8 8 9
REMARK H PARENT
REMARK Flexibility Score: inf
ROOT
ATOM      1  C   UNL     1       4.992   4.345 108.868  1.00  0.00     0.027 C 
ENDROOT
BRANCH   1   2
ATOM      2  C   UNL     1       4.538   5.172 107.656  1.00  0.00     0.004 C 
BRANCH   2   3
ATOM      3  C   UNL     1       3.126   5.751 107.832  1.00  0.00    -0.003 C 
ATOM      4  C   UNL     1       3.107   7.279 107.807  1.00  0.00     0.004 C 
ENDBRANCH   2   3
ENDBRANCH   1   2
BRANCH   1   5
ATOM      5  C   UNL     1       5.938   3.254 108.456  1.00  0.00    -0.023 C 
ATOM      6  C   UNL     1       6.870   2.784 109.293  1.00  0.00     0.042 C 
BRANCH   6   7
ATOM      7  C   UNL     1       7.800   1.705 108.913  1.00  0.00     0.152 C 
ATOM      8  O   UNL     1       9.046   1.902 108.898  1.00  0.00    -0.295 OA
ATOM      9  C   UNL     1       7.263   0.359 108.544  1.00  0.00     0.093 C 
ENDBRANCH   6   7
ENDBRANCH   1   5
TORSDOF 4
ENDMDL
MODEL 7
REMARK VINA RESULT:    -3.283      2.958      4.032
REMARK INTER + INTRA:          -4.312
REMARK INTER:                  -4.037
REMARK INTRA:                  -0.274
REMARK UNBOUND:                -0.260
REMARK SMILES CCCCC=CC(C)=O
REMARK SMILES IDX 4 1 3 2 2 3 1 4 5 5 6 6 7 7 9 8 8 9
REMARK H PARENT
REMARK Flexibility Score: inf
ROOT
ATOM      1  C   UNL     1       2.544   4.820 106.764  1.00  0.00     0.027 C 
ENDROOT
BRANCH   1   2
ATOM      2  C   UNL     1       3.119   3.395 106.755  1.00  0.00     0.004 C 
BRANCH   2   3
ATOM      3  C   UNL     1       4.254   3.212 107.774  1.00  0.00    -0.003 C 
ATOM      4  C   UNL     1       4.585   4.499 108.527  1.00  0.00     0.004 C 
ENDBRANCH   2   3
ENDBRANCH   1   2
BRANCH   1   5
ATOM      5  C   UNL     1       2.805   5.516 105.460  1.00  0.00    -0.023 C 
ATOM      6  C   UNL     1       3.784   5.119 104.639  1.00  0.00     0.042 C 
BRANCH   6   7
ATOM      7  C   UNL     1       4.049   5.780 103.348  1.00  0.00     0.152 C 
ATOM      8  O   UNL     1       5.229   5.916 102.922  1.00  0.00    -0.295 OA
ATOM      9  C   UNL     1       2.907   6.292 102.530  1.00  0.00     0.093 C 
ENDBRANCH   6   7
ENDBRANCH   1   5
TORSDOF 4
ENDMDL
MODEL 8
REMARK VINA RESULT:    -3.249      2.129      2.600
REMARK INTER + INTRA:          -4.269
REMARK INTER:                  -4.034
REMARK INTRA:                  -0.236
REMARK UNBOUND:                -0.260
REMARK SMILES CCCCC=CC(C)=O
REMARK SMILES IDX 4 1 3 2 2 3 1 4 5 5 6 6 7 7 9 8 8 9
REMARK H PARENT
REMARK Flexibility Score: inf
ROOT
ATOM      1  C   UNL     1       6.427   3.319 109.775  1.00  0.00     0.027 C 
ENDROOT
BRANCH   1   2
ATOM      2  C   UNL     1       6.782   1.955 109.165  1.00  0.00     0.004 C 
BRANCH   2   3
ATOM      3  C   UNL     1       8.278   1.826 108.839  1.00  0.00    -0.003 C 
ATOM      4  C   UNL     1       8.545   1.662 107.344  1.00  0.00     0.004 C 
ENDBRANCH   2   3
ENDBRANCH   1   2
BRANCH   1   5
ATOM      5  C   UNL     1       5.299   3.969 109.029  1.00  0.00    -0.023 C 
ATOM      6  C   UNL     1       5.488   4.541 107.835  1.00  0.00     0.042 C 
BRANCH   6   7
ATOM      7  C   UNL     1       4.391   5.174 107.079  1.00  0.00     0.152 C 
ATOM      8  O   UNL     1       4.155   4.843 105.884  1.00  0.00    -0.295 OA
ATOM      9  C   UNL     1       3.544   6.216 107.736  1.00  0.00     0.093 C 
ENDBRANCH   6   7
ENDBRANCH   1   5
TORSDOF 4
ENDMDL
MODEL 9
REMARK VINA RESULT:    -3.232      3.718      5.444
REMARK INTER + INTRA:          -4.248
REMARK INTER:                  -4.041
REMARK INTRA:                  -0.207
REMARK UNBOUND:                -0.260
REMARK SMILES CCCCC=CC(C)=O
REMARK SMILES IDX 4 1 3 2 2 3 1 4 5 5 6 6 7 7 9 8 8 9
REMARK H PARENT
REMARK Flexibility Score: inf
ROOT
ATOM      1  C   UNL     1       6.102   2.892 110.119  1.00  0.00     0.027 C 
ENDROOT
BRANCH   1   2
ATOM      2  C   UNL     1       5.146   4.061 109.838  1.00  0.00     0.004 C 
BRANCH   2   3
ATOM      3  C   UNL     1       5.058   4.405 108.343  1.00  0.00    -0.003 C 
ATOM      4  C   UNL     1       4.039   5.506 108.050  1.00  0.00     0.004 C 
ENDBRANCH   2   3
ENDBRANCH   1   2
BRANCH   1   5
ATOM      5  C   UNL     1       6.944   2.582 108.915  1.00  0.00    -0.023 C 
ATOM      6  C   UNL     1       8.103   1.922 109.024  1.00  0.00     0.042 C 
BRANCH   6   7
ATOM      7  C   UNL     1       8.939   1.596 107.853  1.00  0.00     0.152 C 
ATOM      8  O   UNL     1      10.194   1.709 107.905  1.00  0.00    -0.295 OA
ATOM      9  C   UNL     1       8.293   1.122 106.591  1.00  0.00     0.093 C 
ENDBRANCH   6   7
ENDBRANCH   1   5
TORSDOF 4
ENDMDL
