MODEL 1
REMARK VINA RESULT:    -3.311      0.000      0.000
REMARK INTER + INTRA:          -3.919
REMARK INTER:                  -3.891
REMARK INTRA:                  -0.028
REMARK UNBOUND:                -0.028
REMARK SMILES O=C([O-])CCC(=O)[O-]
REMARK SMILES IDX 4 1 2 2 1 3 3 4 5 5 6 6 7 7 8 8
REMARK H PARENT
REMARK Flexibility Score: inf
ROOT
ATOM      1  C   UNL     1     -16.164 -14.253  -4.021  1.00  0.00     0.059 C 
ENDROOT
BRANCH   1   2
ATOM      2  C   UNL     1     -16.068 -15.538  -3.256  1.00  0.00     0.042 C 
ATOM      3  O   UNL     1     -14.968 -16.145  -3.171  1.00  0.00    -0.550 OA
ATOM      4  O   UNL     1     -17.185 -16.043  -2.604  1.00  0.00    -0.550 OA
ENDBRANCH   1   2
BRANCH   1   5
ATOM      5  C   UNL     1     -16.282 -14.503  -5.529  1.00  0.00     0.059 C 
BRANCH   5   6
ATOM      6  C   UNL     1     -16.530 -13.231  -6.281  1.00  0.00     0.042 C 
ATOM      7  O   UNL     1     -15.787 -12.230  -6.096  1.00  0.00    -0.550 OA
ATOM      8  O   UNL     1     -17.604 -13.137  -7.155  1.00  0.00    -0.550 OA
ENDBRANCH   5   6
ENDBRANCH   1   5
TORSDOF 3
ENDMDL
MODEL 2
REMARK VINA RESULT:    -3.257      0.206      4.211
REMARK INTER + INTRA:          -3.856
REMARK INTER:                  -3.828
REMARK INTRA:                  -0.028
REMARK UNBOUND:                -0.028
REMARK SMILES O=C([O-])CCC(=O)[O-]
REMARK SMILES IDX 4 1 2 2 1 3 3 4 5 5 6 6 7 7 8 8
REMARK H PARENT
REMARK Flexibility Score: inf
ROOT
ATOM      1  C   UNL     1     -16.061 -14.480  -5.543  1.00  0.00     0.059 C 
ENDROOT
BRANCH   1   2
ATOM      2  C   UNL     1     -16.412 -13.195  -6.227  1.00  0.00     0.042 C 
ATOM      3  O   UNL     1     -15.664 -12.189  -6.111  1.00  0.00    -0.550 OA
ATOM      4  O   UNL     1     -17.546 -13.120  -7.026  1.00  0.00    -0.550 OA
ENDBRANCH   1   2
BRANCH   1   5
ATOM      5  C   UNL     1     -16.201 -14.365  -4.021  1.00  0.00     0.059 C 
BRANCH   5   6
ATOM      6  C   UNL     1     -15.988 -15.686  -3.346  1.00  0.00     0.042 C 
ATOM      7  O   UNL     1     -14.878 -16.274  -3.441  1.00  0.00    -0.550 OA
ATOM      8  O   UNL     1     -17.027 -16.285  -2.645  1.00  0.00    -0.550 OA
ENDBRANCH   5   6
ENDBRANCH   1   5
TORSDOF 3
ENDMDL
MODEL 3
REMARK VINA RESULT:    -3.227      2.563      3.366
REMARK INTER + INTRA:          -3.821
REMARK INTER:                  -3.742
REMARK INTRA:                  -0.078
REMARK UNBOUND:                -0.028
REMARK SMILES O=C([O-])CCC(=O)[O-]
REMARK SMILES IDX 4 1 2 2 1 3 3 4 5 5 6 6 7 7 8 8
REMARK H PARENT
REMARK Flexibility Score: inf
ROOT
ATOM      1  C   UNL     1     -17.494 -17.016  -3.030  1.00  0.00     0.059 C 
ENDROOT
BRANCH   1   2
ATOM      2  C   UNL     1     -17.903 -18.218  -3.824  1.00  0.00     0.042 C 
ATOM      3  O   UNL     1     -17.294 -18.515  -4.886  1.00  0.00    -0.550 OA
ATOM      4  O   UNL     1     -18.932 -19.034  -3.371  1.00  0.00    -0.550 OA
ENDBRANCH   1   2
BRANCH   1   5
ATOM      5  C   UNL     1     -16.031 -16.642  -3.287  1.00  0.00     0.059 C 
BRANCH   5   6
ATOM      6  C   UNL     1     -15.913 -15.483  -4.228  1.00  0.00     0.042 C 
ATOM      7  O   UNL     1     -16.281 -14.333  -3.867  1.00  0.00    -0.550 OA
ATOM      8  O   UNL     1     -15.436 -15.678  -5.518  1.00  0.00    -0.550 OA
ENDBRANCH   5   6
ENDBRANCH   1   5
TORSDOF 3
ENDMDL
MODEL 4
REMARK VINA RESULT:    -3.221      2.527      4.530
REMARK INTER + INTRA:          -3.814
REMARK INTER:                  -3.734
REMARK INTRA:                  -0.080
REMARK UNBOUND:                -0.028
REMARK SMILES O=C([O-])CCC(=O)[O-]
REMARK SMILES IDX 4 1 2 2 1 3 3 4 5 5 6 6 7 7 8 8
REMARK H PARENT
REMARK Flexibility Score: inf
ROOT
ATOM      1  C   UNL     1     -16.048 -16.479  -3.300  1.00  0.00     0.059 C 
ENDROOT
BRANCH   1   2
ATOM      2  C   UNL     1     -15.953 -15.369  -4.302  1.00  0.00     0.042 C 
ATOM      3  O   UNL     1     -16.315 -14.203  -3.993  1.00  0.00    -0.550 OA
ATOM      4  O   UNL     1     -15.427 -15.615  -5.564  1.00  0.00    -0.550 OA
ENDBRANCH   1   2
BRANCH   1   5
ATOM      5  C   UNL     1     -17.503 -16.885  -3.045  1.00  0.00     0.059 C 
BRANCH   5   6
ATOM      6  C   UNL     1     -17.874 -18.120  -3.807  1.00  0.00     0.042 C 
ATOM      7  O   UNL     1     -18.836 -18.837  -3.423  1.00  0.00    -0.550 OA
ATOM      8  O   UNL     1     -17.132 -18.502  -4.917  1.00  0.00    -0.550 OA
ENDBRANCH   5   6
ENDBRANCH   1   5
TORSDOF 3
ENDMDL
MODEL 5
REMARK VINA RESULT:    -3.206      2.505      3.432
REMARK INTER + INTRA:          -3.796
REMARK INTER:                  -3.708
REMARK INTRA:                  -0.088
REMARK UNBOUND:                -0.028
REMARK SMILES O=C([O-])CCC(=O)[O-]
REMARK SMILES IDX 4 1 2 2 1 3 3 4 5 5 6 6 7 7 8 8
REMARK H PARENT
REMARK Flexibility Score: inf
ROOT
ATOM      1  C   UNL     1     -17.487 -16.906  -2.991  1.00  0.00     0.059 C 
ENDROOT
BRANCH   1   2
ATOM      2  C   UNL     1     -17.850 -18.140  -3.759  1.00  0.00     0.042 C 
ATOM      3  O   UNL     1     -18.838 -18.839  -3.407  1.00  0.00    -0.550 OA
ATOM      4  O   UNL     1     -17.123 -18.497  -4.887  1.00  0.00    -0.550 OA
ENDBRANCH   1   2
BRANCH   1   5
ATOM      5  C   UNL     1     -16.034 -16.492  -3.245  1.00  0.00     0.059 C 
BRANCH   5   6
ATOM      6  C   UNL     1     -15.946 -15.350  -4.211  1.00  0.00     0.042 C 
ATOM      7  O   UNL     1     -16.338 -14.202  -3.873  1.00  0.00    -0.550 OA
ATOM      8  O   UNL     1     -15.470 -15.563  -5.498  1.00  0.00    -0.550 OA
ENDBRANCH   5   6
ENDBRANCH   1   5
TORSDOF 3
ENDMDL
MODEL 6
REMARK VINA RESULT:    -3.193      2.599      4.476
REMARK INTER + INTRA:          -3.781
REMARK INTER:                  -3.690
REMARK INTRA:                  -0.091
REMARK UNBOUND:                -0.028
REMARK SMILES O=C([O-])CCC(=O)[O-]
REMARK SMILES IDX 4 1 2 2 1 3 3 4 5 5 6 6 7 7 8 8
REMARK H PARENT
REMARK Flexibility Score: inf
ROOT
ATOM      1  C   UNL     1     -16.041 -16.665  -3.372  1.00  0.00     0.059 C 
ENDROOT
BRANCH   1   2
ATOM      2  C   UNL     1     -15.904 -15.510  -4.315  1.00  0.00     0.042 C 
ATOM      3  O   UNL     1     -15.457 -15.690  -5.479  1.00  0.00    -0.550 OA
ATOM      4  O   UNL     1     -16.307 -14.240  -3.922  1.00  0.00    -0.550 OA
ENDBRANCH   1   2
BRANCH   1   5
ATOM      5  C   UNL     1     -17.511 -17.018  -3.122  1.00  0.00     0.059 C 
BRANCH   5   6
ATOM      6  C   UNL     1     -17.915 -18.257  -3.861  1.00  0.00     0.042 C 
ATOM      7  O   UNL     1     -17.305 -18.597  -4.909  1.00  0.00    -0.550 OA
ATOM      8  O   UNL     1     -18.990 -19.014  -3.414  1.00  0.00    -0.550 OA
ENDBRANCH   5   6
ENDBRANCH   1   5
TORSDOF 3
ENDMDL
MODEL 7
REMARK VINA RESULT:    -3.151      2.884      4.072
REMARK INTER + INTRA:          -3.732
REMARK INTER:                  -3.701
REMARK INTRA:                  -0.031
REMARK UNBOUND:                -0.028
REMARK SMILES O=C([O-])CCC(=O)[O-]
REMARK SMILES IDX 4 1 2 2 1 3 3 4 5 5 6 6 7 7 8 8
REMARK H PARENT
REMARK Flexibility Score: inf
ROOT
ATOM      1  C   UNL     1     -17.786 -17.477  -3.473  1.00  0.00     0.059 C 
ENDROOT
BRANCH   1   2
ATOM      2  C   UNL     1     -18.361 -18.781  -3.933  1.00  0.00     0.042 C 
ATOM      3  O   UNL     1     -19.298 -19.323  -3.290  1.00  0.00    -0.550 OA
ATOM      4  O   UNL     1     -17.890 -19.377  -5.096  1.00  0.00    -0.550 OA
ENDBRANCH   1   2
BRANCH   1   5
ATOM      5  C   UNL     1     -16.600 -17.046  -4.343  1.00  0.00     0.059 C 
BRANCH   5   6
ATOM      6  C   UNL     1     -15.959 -15.796  -3.822  1.00  0.00     0.042 C 
ATOM      7  O   UNL     1     -15.080 -15.862  -2.921  1.00  0.00    -0.550 OA
ATOM      8  O   UNL     1     -16.360 -14.556  -4.301  1.00  0.00    -0.550 OA
ENDBRANCH   5   6
ENDBRANCH   1   5
TORSDOF 3
ENDMDL
MODEL 8
REMARK VINA RESULT:    -3.072      1.812      4.062
REMARK INTER + INTRA:          -3.638
REMARK INTER:                  -3.528
REMARK INTRA:                  -0.110
REMARK UNBOUND:                -0.028
REMARK SMILES O=C([O-])CCC(=O)[O-]
REMARK SMILES IDX 4 1 2 2 1 3 3 4 5 5 6 6 7 7 8 8
REMARK H PARENT
REMARK Flexibility Score: inf
ROOT
ATOM      1  C   UNL     1     -16.086 -14.823  -3.848  1.00  0.00     0.059 C 
ENDROOT
BRANCH   1   2
ATOM      2  C   UNL     1     -16.015 -14.672  -5.336  1.00  0.00     0.042 C 
ATOM      3  O   UNL     1     -15.240 -15.400  -6.011  1.00  0.00    -0.550 OA
ATOM      4  O   UNL     1     -16.835 -13.756  -5.983  1.00  0.00    -0.550 OA
ENDBRANCH   1   2
BRANCH   1   5
ATOM      5  C   UNL     1     -15.754 -16.253  -3.409  1.00  0.00     0.059 C 
BRANCH   5   6
ATOM      6  C   UNL     1     -16.904 -17.184  -3.647  1.00  0.00     0.042 C 
ATOM      7  O   UNL     1     -17.919 -17.141  -2.902  1.00  0.00    -0.550 OA
ATOM      8  O   UNL     1     -16.837 -18.127  -4.664  1.00  0.00    -0.550 OA
ENDBRANCH   5   6
ENDBRANCH   1   5
TORSDOF 3
ENDMDL
MODEL 9
REMARK VINA RESULT:    -2.962      9.813     11.154
REMARK INTER + INTRA:          -3.510
REMARK INTER:                  -3.471
REMARK INTRA:                  -0.039
REMARK UNBOUND:                -0.028
REMARK SMILES O=C([O-])CCC(=O)[O-]
REMARK SMILES IDX 4 1 2 2 1 3 3 4 5 5 6 6 7 7 8 8
REMARK H PARENT
REMARK Flexibility Score: inf
ROOT
ATOM      1  C   UNL     1     -20.965 -12.356   3.910  1.00  0.00     0.059 C 
ENDROOT
BRANCH   1   2
ATOM      2  C   UNL     1     -20.075 -11.154   3.839  1.00  0.00     0.042 C 
ATOM      3  O   UNL     1     -18.877 -11.272   3.469  1.00  0.00    -0.550 OA
ATOM      4  O   UNL     1     -20.580  -9.896   4.144  1.00  0.00    -0.550 OA
ENDBRANCH   1   2
BRANCH   1   5
ATOM      5  C   UNL     1     -22.278 -12.044   4.636  1.00  0.00     0.059 C 
BRANCH   5   6
ATOM      6  C   UNL     1     -23.345 -13.042   4.303  1.00  0.00     0.042 C 
ATOM      7  O   UNL     1     -24.461 -12.994   4.884  1.00  0.00    -0.550 OA
ATOM      8  O   UNL     1     -23.093 -14.048   3.380  1.00  0.00    -0.550 OA
ENDBRANCH   5   6
ENDBRANCH   1   5
TORSDOF 3
ENDMDL
