MODEL 1
REMARK VINA RESULT:    -6.768      0.000      0.000
REMARK INTER + INTRA:          -6.768
REMARK INTER:                  -6.768
REMARK INTRA:                   0.000
REMARK UNBOUND:                 0.000
REMARK SMILES O=c1ccc2ccccc2o1
REMARK SMILES IDX 7 1 8 2 9 3 10 4 5 5 6 6 4 7 3 8 2 9 1 10 11 11
REMARK H PARENT
REMARK Flexibility Score: inf
ROOT
ATOM      1  C   UNL     1      10.309  55.926   8.986  1.00  0.00     0.001 A 
ATOM      2  C   UNL     1      11.660  56.139   8.689  1.00  0.00     0.004 A 
ATOM      3  C   UNL     1      12.148  55.883   7.403  1.00  0.00     0.048 A 
ATOM      4  C   UNL     1      11.284  55.413   6.408  1.00  0.00     0.138 A 
ATOM      5  C   UNL     1       9.920  55.198   6.706  1.00  0.00     0.018 A 
ATOM      6  C   UNL     1       9.437  55.456   7.998  1.00  0.00     0.012 A 
ATOM      7  C   UNL     1       9.082  54.728   5.690  1.00  0.00     0.019 A 
ATOM      8  C   UNL     1       9.611  54.487   4.423  1.00  0.00     0.094 A 
ATOM      9  C   UNL     1      10.973  54.722   4.200  1.00  0.00     0.336 A 
ATOM     10  O   UNL     1      11.469  54.511   3.063  1.00  0.00    -0.246 OA
ATOM     11  O   UNL     1      11.749  55.171   5.184  1.00  0.00    -0.423 OA
ENDROOT
TORSDOF 0
ENDMDL
MODEL 2
REMARK VINA RESULT:    -6.667     11.020     12.330
REMARK INTER + INTRA:          -6.667
REMARK INTER:                  -6.667
REMARK INTRA:                   0.000
REMARK UNBOUND:                 0.000
REMARK SMILES O=c1ccc2ccccc2o1
REMARK SMILES IDX 7 1 8 2 9 3 10 4 5 5 6 6 4 7 3 8 2 9 1 10 11 11
REMARK H PARENT
REMARK Flexibility Score: inf
ROOT
ATOM      1  C   UNL     1      13.461  51.685  -5.840  1.00  0.00     0.001 A 
ATOM      2  C   UNL     1      13.668  52.073  -4.511  1.00  0.00     0.004 A 
ATOM      3  C   UNL     1      13.155  51.300  -3.463  1.00  0.00     0.048 A 
ATOM      4  C   UNL     1      12.433  50.134  -3.742  1.00  0.00     0.138 A 
ATOM      5  C   UNL     1      12.223  49.742  -5.083  1.00  0.00     0.018 A 
ATOM      6  C   UNL     1      12.739  50.522  -6.129  1.00  0.00     0.012 A 
ATOM      7  C   UNL     1      11.498  48.572  -5.330  1.00  0.00     0.019 A 
ATOM      8  C   UNL     1      11.006  47.833  -4.255  1.00  0.00     0.094 A 
ATOM      9  C   UNL     1      11.252  48.282  -2.952  1.00  0.00     0.336 A 
ATOM     10  O   UNL     1      10.816  47.628  -1.969  1.00  0.00    -0.246 OA
ATOM     11  O   UNL     1      11.946  49.399  -2.745  1.00  0.00    -0.423 OA
ENDROOT
TORSDOF 0
ENDMDL
MODEL 3
REMARK VINA RESULT:    -6.564     11.460     12.607
REMARK INTER + INTRA:          -6.564
REMARK INTER:                  -6.564
REMARK INTRA:                   0.000
REMARK UNBOUND:                 0.000
REMARK SMILES O=c1ccc2ccccc2o1
REMARK SMILES IDX 7 1 8 2 9 3 10 4 5 5 6 6 4 7 3 8 2 9 1 10 11 11
REMARK H PARENT
REMARK Flexibility Score: inf
ROOT
ATOM      1  C   UNL     1      11.015  47.837  -3.107  1.00  0.00     0.001 A 
ATOM      2  C   UNL     1      10.831  47.506  -4.455  1.00  0.00     0.004 A 
ATOM      3  C   UNL     1      11.355  48.327  -5.459  1.00  0.00     0.048 A 
ATOM      4  C   UNL     1      12.066  49.482  -5.119  1.00  0.00     0.138 A 
ATOM      5  C   UNL     1      12.253  49.817  -3.759  1.00  0.00     0.018 A 
ATOM      6  C   UNL     1      11.725  48.990  -2.756  1.00  0.00     0.012 A 
ATOM      7  C   UNL     1      12.968  50.978  -3.450  1.00  0.00     0.019 A 
ATOM      8  C   UNL     1      13.473  51.766  -4.485  1.00  0.00     0.094 A 
ATOM      9  C   UNL     1      13.249  51.373  -5.809  1.00  0.00     0.336 A 
ATOM     10  O   UNL     1      13.696  52.071  -6.756  1.00  0.00    -0.246 OA
ATOM     11  O   UNL     1      12.565  50.262  -6.075  1.00  0.00    -0.423 OA
ENDROOT
TORSDOF 0
ENDMDL
MODEL 4
REMARK VINA RESULT:    -6.479     10.902     12.170
REMARK INTER + INTRA:          -6.479
REMARK INTER:                  -6.479
REMARK INTRA:                   0.000
REMARK UNBOUND:                 0.000
REMARK SMILES O=c1ccc2ccccc2o1
REMARK SMILES IDX 7 1 8 2 9 3 10 4 5 5 6 6 4 7 3 8 2 9 1 10 11 11
REMARK H PARENT
REMARK Flexibility Score: inf
ROOT
ATOM      1  C   UNL     1      10.953  47.786  -4.730  1.00  0.00     0.001 A 
ATOM      2  C   UNL     1      10.976  47.891  -3.334  1.00  0.00     0.004 A 
ATOM      3  C   UNL     1      11.652  48.949  -2.718  1.00  0.00     0.048 A 
ATOM      4  C   UNL     1      12.308  49.909  -3.497  1.00  0.00     0.138 A 
ATOM      5  C   UNL     1      12.285  49.804  -4.906  1.00  0.00     0.018 A 
ATOM      6  C   UNL     1      11.606  48.740  -5.518  1.00  0.00     0.012 A 
ATOM      7  C   UNL     1      12.950  50.778  -5.658  1.00  0.00     0.019 A 
ATOM      8  C   UNL     1      13.610  51.816  -5.001  1.00  0.00     0.094 A 
ATOM      9  C   UNL     1      13.591  51.856  -3.602  1.00  0.00     0.336 A 
ATOM     10  O   UNL     1      14.182  52.785  -2.992  1.00  0.00    -0.246 OA
ATOM     11  O   UNL     1      12.950  50.916  -2.910  1.00  0.00    -0.423 OA
ENDROOT
TORSDOF 0
ENDMDL
MODEL 5
REMARK VINA RESULT:    -6.477      1.472      3.662
REMARK INTER + INTRA:          -6.477
REMARK INTER:                  -6.477
REMARK INTRA:                   0.000
REMARK UNBOUND:                 0.000
REMARK SMILES O=c1ccc2ccccc2o1
REMARK SMILES IDX 7 1 8 2 9 3 10 4 5 5 6 6 4 7 3 8 2 9 1 10 11 11
REMARK H PARENT
REMARK Flexibility Score: inf
ROOT
ATOM      1  C   UNL     1       9.189  54.429   5.306  1.00  0.00     0.001 A 
ATOM      2  C   UNL     1      10.125  54.568   4.275  1.00  0.00     0.004 A 
ATOM      3  C   UNL     1      11.394  55.094   4.542  1.00  0.00     0.048 A 
ATOM      4  C   UNL     1      11.731  55.483   5.842  1.00  0.00     0.138 A 
ATOM      5  C   UNL     1      10.787  55.344   6.884  1.00  0.00     0.018 A 
ATOM      6  C   UNL     1       9.516  54.816   6.610  1.00  0.00     0.012 A 
ATOM      7  C   UNL     1      11.153  55.742   8.173  1.00  0.00     0.019 A 
ATOM      8  C   UNL     1      12.429  56.260   8.393  1.00  0.00     0.094 A 
ATOM      9  C   UNL     1      13.313  56.370   7.313  1.00  0.00     0.336 A 
ATOM     10  O   UNL     1      14.468  56.836   7.491  1.00  0.00    -0.246 OA
ATOM     11  O   UNL     1      12.939  55.983   6.095  1.00  0.00    -0.423 OA
ENDROOT
TORSDOF 0
ENDMDL
MODEL 6
REMARK VINA RESULT:    -6.398     10.844     12.427
REMARK INTER + INTRA:          -6.398
REMARK INTER:                  -6.398
REMARK INTRA:                   0.000
REMARK UNBOUND:                 0.000
REMARK SMILES O=c1ccc2ccccc2o1
REMARK SMILES IDX 7 1 8 2 9 3 10 4 5 5 6 6 4 7 3 8 2 9 1 10 11 11
REMARK H PARENT
REMARK Flexibility Score: inf
ROOT
ATOM      1  C   UNL     1      12.214  49.399  -4.394  1.00  0.00     0.001 A 
ATOM      2  C   UNL     1      12.488  50.084  -3.204  1.00  0.00     0.004 A 
ATOM      3  C   UNL     1      13.014  51.380  -3.243  1.00  0.00     0.048 A 
ATOM      4  C   UNL     1      13.268  51.996  -4.474  1.00  0.00     0.138 A 
ATOM      5  C   UNL     1      12.992  51.305  -5.675  1.00  0.00     0.018 A 
ATOM      6  C   UNL     1      12.465  50.006  -5.629  1.00  0.00     0.012 A 
ATOM      7  C   UNL     1      13.257  51.946  -6.889  1.00  0.00     0.019 A 
ATOM      8  C   UNL     1      13.780  53.239  -6.880  1.00  0.00     0.094 A 
ATOM      9  C   UNL     1      14.030  53.862  -5.651  1.00  0.00     0.336 A 
ATOM     10  O   UNL     1      14.503  55.028  -5.623  1.00  0.00    -0.246 OA
ATOM     11  O   UNL     1      13.768  53.229  -4.510  1.00  0.00    -0.423 OA
ENDROOT
TORSDOF 0
ENDMDL
MODEL 7
REMARK VINA RESULT:    -6.238     11.390     12.677
REMARK INTER + INTRA:          -6.238
REMARK INTER:                  -6.238
REMARK INTRA:                   0.000
REMARK UNBOUND:                 0.000
REMARK SMILES O=c1ccc2ccccc2o1
REMARK SMILES IDX 7 1 8 2 9 3 10 4 5 5 6 6 4 7 3 8 2 9 1 10 11 11
REMARK H PARENT
REMARK Flexibility Score: inf
ROOT
ATOM      1  C   UNL     1      14.359  53.193  -5.371  1.00  0.00     0.001 A 
ATOM      2  C   UNL     1      13.988  52.725  -6.637  1.00  0.00     0.004 A 
ATOM      3  C   UNL     1      13.237  51.551  -6.761  1.00  0.00     0.048 A 
ATOM      4  C   UNL     1      12.854  50.841  -5.619  1.00  0.00     0.138 A 
ATOM      5  C   UNL     1      13.228  51.312  -4.340  1.00  0.00     0.018 A 
ATOM      6  C   UNL     1      13.982  52.490  -4.222  1.00  0.00     0.012 A 
ATOM      7  C   UNL     1      12.831  50.581  -3.217  1.00  0.00     0.019 A 
ATOM      8  C   UNL     1      12.082  49.417  -3.389  1.00  0.00     0.094 A 
ATOM      9  C   UNL     1      11.748  49.009  -4.685  1.00  0.00     0.336 A 
ATOM     10  O   UNL     1      11.073  47.961  -4.860  1.00  0.00    -0.246 OA
ATOM     11  O   UNL     1      12.139  49.725  -5.738  1.00  0.00    -0.423 OA
ENDROOT
TORSDOF 0
ENDMDL
MODEL 8
REMARK VINA RESULT:    -6.160      1.405      2.712
REMARK INTER + INTRA:          -6.160
REMARK INTER:                  -6.160
REMARK INTRA:                   0.000
REMARK UNBOUND:                 0.000
REMARK SMILES O=c1ccc2ccccc2o1
REMARK SMILES IDX 7 1 8 2 9 3 10 4 5 5 6 6 4 7 3 8 2 9 1 10 11 11
REMARK H PARENT
REMARK Flexibility Score: inf
ROOT
ATOM      1  C   UNL     1      11.098  55.506   7.402  1.00  0.00     0.001 A 
ATOM      2  C   UNL     1       9.815  55.057   7.067  1.00  0.00     0.004 A 
ATOM      3  C   UNL     1       9.483  54.808   5.731  1.00  0.00     0.048 A 
ATOM      4  C   UNL     1      10.434  55.007   4.724  1.00  0.00     0.138 A 
ATOM      5  C   UNL     1      11.729  55.460   5.062  1.00  0.00     0.018 A 
ATOM      6  C   UNL     1      12.056  55.708   6.403  1.00  0.00     0.012 A 
ATOM      7  C   UNL     1      12.658  55.649   4.034  1.00  0.00     0.019 A 
ATOM      8  C   UNL     1      12.283  55.388   2.716  1.00  0.00     0.094 A 
ATOM      9  C   UNL     1      10.982  54.942   2.456  1.00  0.00     0.336 A 
ATOM     10  O   UNL     1      10.625  54.701   1.274  1.00  0.00    -0.246 OA
ATOM     11  O   UNL     1      10.117  54.769   3.454  1.00  0.00    -0.423 OA
ENDROOT
TORSDOF 0
ENDMDL
MODEL 9
REMARK VINA RESULT:    -6.142      1.416      2.188
REMARK INTER + INTRA:          -6.142
REMARK INTER:                  -6.142
REMARK INTRA:                   0.000
REMARK UNBOUND:                 0.000
REMARK SMILES O=c1ccc2ccccc2o1
REMARK SMILES IDX 7 1 8 2 9 3 10 4 5 5 6 6 4 7 3 8 2 9 1 10 11 11
REMARK H PARENT
REMARK Flexibility Score: inf
ROOT
ATOM      1  C   UNL     1       9.606  54.957   6.847  1.00  0.00     0.001 A 
ATOM      2  C   UNL     1      10.933  55.321   7.105  1.00  0.00     0.004 A 
ATOM      3  C   UNL     1      11.813  55.569   6.047  1.00  0.00     0.048 A 
ATOM      4  C   UNL     1      11.370  55.454   4.725  1.00  0.00     0.138 A 
ATOM      5  C   UNL     1      10.031  55.087   4.463  1.00  0.00     0.018 A 
ATOM      6  C   UNL     1       9.152  54.840   5.529  1.00  0.00     0.012 A 
ATOM      7  C   UNL     1       9.617  54.981   3.132  1.00  0.00     0.019 A 
ATOM      8  C   UNL     1      10.529  55.239   2.110  1.00  0.00     0.094 A 
ATOM      9  C   UNL     1      11.840  55.597   2.443  1.00  0.00     0.336 A 
ATOM     10  O   UNL     1      12.678  55.832   1.534  1.00  0.00    -0.246 OA
ATOM     11  O   UNL     1      12.208  55.691   3.719  1.00  0.00    -0.423 OA
ENDROOT
TORSDOF 0
ENDMDL
