MODEL 1
REMARK VINA RESULT:     6.179      0.000      0.000
REMARK INTER + INTRA:           9.652
REMARK INTER:                   9.069
REMARK INTRA:                   0.582
REMARK UNBOUND:                 0.582
REMARK SMILES Cc1cc2c(C(C)C)c(O)c(O)c(C=O)c2c(O)c1-c1c(C)cc2c(C(C)C)c(O)c(O)c(C=O)c2c1O
REMARK SMILES IDX 1 1 2 2 3 3 4 4 16 5 13 6 11 7 9 8 5 9 17 10 19 11 20 12
REMARK SMILES IDX 37 13 21 14 36 15 23 16 22 17 24 18 33 19 25 20 31 21 29 22
REMARK SMILES IDX 38 23 34 25 35 26 26 27 27 28 28 29 32 30 30 32 18 34 6 36
REMARK SMILES IDX 7 37 8 38 14 39 15 40 10 41 12 43
REMARK H PARENT 38 24 32 31 30 33 18 35 10 42 12 44
REMARK Flexibility Score: inf
ROOT
ATOM      1  C   UNL     1       1.280   4.401  18.773  1.00  0.00     0.045 C 
ATOM      2  C   UNL     1       2.117   5.545  18.253  1.00  0.00    -0.039 A 
ATOM      3  C   UNL     1       1.877   6.837  18.723  1.00  0.00     0.013 A 
ATOM      4  C   UNL     1       2.611   7.950  18.262  1.00  0.00    -0.006 A 
ATOM      5  C   UNL     1       3.706   7.717  17.378  1.00  0.00     0.039 A 
ATOM      6  C   UNL     1       4.598   8.788  17.085  1.00  0.00     0.072 A 
ATOM      7  C   UNL     1       4.333  10.079  17.573  1.00  0.00     0.169 A 
ATOM      8  C   UNL     1       3.157  10.339  18.302  1.00  0.00     0.162 A 
ATOM      9  C   UNL     1       2.281   9.285  18.659  1.00  0.00     0.008 A 
ATOM     10  C   UNL     1       3.861   6.424  16.798  1.00  0.00     0.132 A 
ATOM     11  C   UNL     1       3.081   5.341  17.253  1.00  0.00     0.031 A 
ENDROOT
BRANCH  11  12
ATOM     12  C   UNL     1       3.271   3.986  16.673  1.00  0.00     0.031 A 
ATOM     13  C   UNL     1       3.744   2.930  17.479  1.00  0.00     0.132 A 
ATOM     14  C   UNL     1       2.983   3.758  15.319  1.00  0.00    -0.039 A 
ATOM     15  C   UNL     1       3.893   1.622  16.934  1.00  0.00     0.039 A 
ATOM     16  C   UNL     1       3.251   2.506  14.761  1.00  0.00     0.013 A 
ATOM     17  C   UNL     1       2.415   4.853  14.450  1.00  0.00     0.045 C 
ATOM     18  C   UNL     1       3.774   1.443  15.525  1.00  0.00    -0.006 A 
ATOM     19  C   UNL     1       4.197   0.496  17.750  1.00  0.00     0.072 A 
ATOM     20  C   UNL     1       4.166   0.204  14.924  1.00  0.00     0.008 A 
ATOM     21  C   UNL     1       4.530  -0.734  17.163  1.00  0.00     0.169 A 
ATOM     22  C   UNL     1       4.505  -0.886  15.763  1.00  0.00     0.162 A 
BRANCH  13  23
ATOM     23  O   UNL     1       4.115   3.186  18.804  1.00  0.00    -0.507 OA
ATOM     24  H   UNL     1       3.462   3.444  19.533  1.00  0.00     0.293 HD
ENDBRANCH  13  23
BRANCH  19  25
ATOM     25  C   UNL     1       4.063   0.514  19.225  1.00  0.00     0.264 C 
ATOM     26  O   UNL     1       5.023   0.167  19.963  1.00  0.00    -0.298 OA
ENDBRANCH  19  25
BRANCH  20  27
ATOM     27  C   UNL     1       4.264  -0.012  13.399  1.00  0.00     0.017 C 
ATOM     28  C   UNL     1       5.690   0.199  12.875  1.00  0.00     0.012 C 
ATOM     29  C   UNL     1       3.623  -1.324  12.898  1.00  0.00     0.012 C 
ENDBRANCH  20  27
BRANCH  21  30
ATOM     30  O   UNL     1       4.872  -1.793  18.014  1.00  0.00    -0.504 OA
ATOM     31  H   UNL     1       4.447  -2.708  18.002  1.00  0.00     0.293 HD
ENDBRANCH  21  30
BRANCH  22  32
ATOM     32  O   UNL     1       4.786  -2.125  15.171  1.00  0.00    -0.504 OA
ATOM     33  H   UNL     1       5.629  -2.351  14.666  1.00  0.00     0.293 HD
ENDBRANCH  22  32
ENDBRANCH  11  12
BRANCH  10  34
ATOM     34  O   UNL     1       4.754   6.229  15.736  1.00  0.00    -0.507 OA
ATOM     35  H   UNL     1       5.627   6.728  15.637  1.00  0.00     0.293 HD
ENDBRANCH  10  34
BRANCH   9  36
ATOM     36  C   UNL     1       0.995   9.655  19.430  1.00  0.00     0.017 C 
ATOM     37  C   UNL     1       0.213  10.783  18.744  1.00  0.00     0.012 C 
ATOM     38  C   UNL     1       1.204   9.892  20.939  1.00  0.00     0.012 C 
ENDBRANCH   9  36
BRANCH   6  39
ATOM     39  C   UNL     1       5.896   8.561  16.402  1.00  0.00     0.264 C 
ATOM     40  O   UNL     1       6.027   8.779  15.169  1.00  0.00    -0.298 OA
ENDBRANCH   6  39
BRANCH   8  41
ATOM     41  O   UNL     1       2.839  11.647  18.687  1.00  0.00    -0.504 OA
ATOM     42  H   UNL     1       1.920  11.949  18.977  1.00  0.00     0.293 HD
ENDBRANCH   8  41
BRANCH   7  43
ATOM     43  O   UNL     1       5.280  11.084  17.348  1.00  0.00    -0.504 OA
ATOM     44  H   UNL     1       5.093  12.074  17.425  1.00  0.00     0.293 HD
ENDBRANCH   7  43
TORSDOF 11
ENDMDL
MODEL 2
REMARK VINA RESULT:     6.283      2.009      2.441
REMARK INTER + INTRA:           9.804
REMARK INTER:                   2.182
REMARK INTRA:                   7.622
REMARK UNBOUND:                 0.582
REMARK SMILES Cc1cc2c(C(C)C)c(O)c(O)c(C=O)c2c(O)c1-c1c(C)cc2c(C(C)C)c(O)c(O)c(C=O)c2c1O
REMARK SMILES IDX 1 1 2 2 3 3 4 4 16 5 13 6 11 7 9 8 5 9 17 10 19 11 20 12
REMARK SMILES IDX 37 13 21 14 36 15 23 16 22 17 24 18 33 19 25 20 31 21 29 22
REMARK SMILES IDX 38 23 34 25 35 26 26 27 27 28 28 29 32 30 30 32 18 34 6 36
REMARK SMILES IDX 7 37 8 38 14 39 15 40 10 41 12 43
REMARK H PARENT 38 24 32 31 30 33 18 35 10 42 12 44
REMARK Flexibility Score: inf
ROOT
ATOM      1  C   UNL     1       2.583   3.638  18.314  1.00  0.00     0.045 C 
ATOM      2  C   UNL     1       2.963   4.961  17.695  1.00  0.00    -0.039 A 
ATOM      3  C   UNL     1       2.725   6.141  18.404  1.00  0.00     0.013 A 
ATOM      4  C   UNL     1       3.040   7.409  17.873  1.00  0.00    -0.006 A 
ATOM      5  C   UNL     1       3.728   7.467  16.625  1.00  0.00     0.039 A 
ATOM      6  C   UNL     1       4.258   8.714  16.184  1.00  0.00     0.072 A 
ATOM      7  C   UNL     1       4.004   9.885  16.918  1.00  0.00     0.169 A 
ATOM      8  C   UNL     1       3.178   9.849  18.057  1.00  0.00     0.162 A 
ATOM      9  C   UNL     1       2.685   8.618  18.554  1.00  0.00     0.008 A 
ATOM     10  C   UNL     1       3.846   6.278  15.847  1.00  0.00     0.132 A 
ATOM     11  C   UNL     1       3.483   5.030  16.394  1.00  0.00     0.031 A 
ENDROOT
BRANCH  11  12
ATOM     12  C   UNL     1       3.642   3.788  15.594  1.00  0.00     0.031 A 
ATOM     13  C   UNL     1       2.739   2.717  15.760  1.00  0.00     0.132 A 
ATOM     14  C   UNL     1       4.696   3.678  14.674  1.00  0.00    -0.039 A 
ATOM     15  C   UNL     1       2.869   1.539  14.970  1.00  0.00     0.039 A 
ATOM     16  C   UNL     1       4.892   2.473  13.995  1.00  0.00     0.013 A 
ATOM     17  C   UNL     1       5.638   4.832  14.430  1.00  0.00     0.045 C 
ATOM     18  C   UNL     1       4.040   1.365  14.176  1.00  0.00    -0.006 A 
ATOM     19  C   UNL     1       1.883   0.513  14.978  1.00  0.00     0.072 A 
ATOM     20  C   UNL     1       4.318   0.095  13.577  1.00  0.00     0.008 A 
ATOM     21  C   UNL     1       2.132  -0.714  14.345  1.00  0.00     0.169 A 
ATOM     22  C   UNL     1       3.333  -0.922  13.640  1.00  0.00     0.162 A 
BRANCH  13  23
ATOM     23  O   UNL     1       1.746   2.798  16.743  1.00  0.00    -0.507 OA
ATOM     24  H   UNL     1       1.911   3.129  17.686  1.00  0.00     0.293 HD
ENDBRANCH  13  23
BRANCH  19  25
ATOM     25  C   UNL     1       0.523   0.712  15.530  1.00  0.00     0.264 C 
ATOM     26  O   UNL     1      -0.498   0.437  14.845  1.00  0.00    -0.298 OA
ENDBRANCH  19  25
BRANCH  20  27
ATOM     27  C   UNL     1       5.649  -0.245  12.875  1.00  0.00     0.017 C 
ATOM     28  C   UNL     1       6.659   0.907  12.959  1.00  0.00     0.012 C 
ATOM     29  C   UNL     1       6.253  -1.608  13.276  1.00  0.00     0.012 C 
ENDBRANCH  20  27
BRANCH  21  30
ATOM     30  O   UNL     1       1.147  -1.707  14.432  1.00  0.00    -0.504 OA
ATOM     31  H   UNL     1       0.434  -1.880  13.740  1.00  0.00     0.293 HD
ENDBRANCH  21  30
BRANCH  22  32
ATOM     32  O   UNL     1       3.568  -2.125  12.961  1.00  0.00    -0.504 OA
ATOM     33  H   UNL     1       2.875  -2.835  12.780  1.00  0.00     0.293 HD
ENDBRANCH  22  32
ENDBRANCH  11  12
BRANCH  10  34
ATOM     34  O   UNL     1       4.276   6.346  14.516  1.00  0.00    -0.507 OA
ATOM     35  H   UNL     1       4.969   5.728  14.116  1.00  0.00     0.293 HD
ENDBRANCH  10  34
BRANCH   9  36
ATOM     36  C   UNL     1       1.758   8.664  19.787  1.00  0.00     0.017 C 
ATOM     37  C   UNL     1       0.491   9.490  19.529  1.00  0.00     0.012 C 
ATOM     38  C   UNL     1       2.469   9.039  21.104  1.00  0.00     0.012 C 
ENDBRANCH   9  36
BRANCH   6  39
ATOM     39  C   UNL     1       5.207   8.803  15.048  1.00  0.00     0.264 C 
ATOM     40  O   UNL     1       4.860   9.313  13.950  1.00  0.00    -0.298 OA
ENDBRANCH   6  39
BRANCH   8  41
ATOM     41  O   UNL     1       2.834  11.035  18.719  1.00  0.00    -0.504 OA
ATOM     42  H   UNL     1       3.458  11.558  19.316  1.00  0.00     0.293 HD
ENDBRANCH   8  41
BRANCH   7  43
ATOM     43  O   UNL     1       4.621  11.074  16.510  1.00  0.00    -0.504 OA
ATOM     44  H   UNL     1       4.275  11.999  16.721  1.00  0.00     0.293 HD
ENDBRANCH   7  43
TORSDOF 11
ENDMDL
MODEL 3
REMARK VINA RESULT:     6.376      0.741      9.339
REMARK INTER + INTRA:           9.941
REMARK INTER:                   8.504
REMARK INTRA:                   1.437
REMARK UNBOUND:                 0.582
REMARK SMILES Cc1cc2c(C(C)C)c(O)c(O)c(C=O)c2c(O)c1-c1c(C)cc2c(C(C)C)c(O)c(O)c(C=O)c2c1O
REMARK SMILES IDX 1 1 2 2 3 3 4 4 16 5 13 6 11 7 9 8 5 9 17 10 19 11 20 12
REMARK SMILES IDX 37 13 21 14 36 15 23 16 22 17 24 18 33 19 25 20 31 21 29 22
REMARK SMILES IDX 38 23 34 25 35 26 26 27 27 28 28 29 32 30 30 32 18 34 6 36
REMARK SMILES IDX 7 37 8 38 14 39 15 40 10 41 12 43
REMARK H PARENT 38 24 32 31 30 33 18 35 10 42 12 44
REMARK Flexibility Score: inf
ROOT
ATOM      1  C   UNL     1       3.349   5.121  14.065  1.00  0.00     0.045 C 
ATOM      2  C   UNL     1       3.549   3.989  15.043  1.00  0.00    -0.039 A 
ATOM      3  C   UNL     1       3.685   2.685  14.563  1.00  0.00     0.013 A 
ATOM      4  C   UNL     1       3.855   1.583  15.426  1.00  0.00    -0.006 A 
ATOM      5  C   UNL     1       4.008   1.835  16.821  1.00  0.00     0.039 A 
ATOM      6  C   UNL     1       4.410   0.770  17.677  1.00  0.00     0.072 A 
ATOM      7  C   UNL     1       4.540  -0.532  17.166  1.00  0.00     0.169 A 
ATOM      8  C   UNL     1       4.220  -0.808  15.824  1.00  0.00     0.162 A 
ATOM      9  C   UNL     1       3.876   0.238  14.933  1.00  0.00     0.008 A 
ATOM     10  C   UNL     1       3.734   3.143  17.320  1.00  0.00     0.132 A 
ATOM     11  C   UNL     1       3.527   4.216  16.428  1.00  0.00     0.031 A 
ENDROOT
BRANCH  11  12
ATOM     12  C   UNL     1       3.279   5.584  16.949  1.00  0.00     0.031 A 
ATOM     13  C   UNL     1       4.144   6.643  16.604  1.00  0.00     0.132 A 
ATOM     14  C   UNL     1       2.183   5.825  17.792  1.00  0.00    -0.039 A 
ATOM     15  C   UNL     1       3.889   7.963  17.074  1.00  0.00     0.039 A 
ATOM     16  C   UNL     1       2.010   7.093  18.351  1.00  0.00     0.013 A 
ATOM     17  C   UNL     1       1.204   4.725  18.127  1.00  0.00     0.045 C 
ATOM     18  C   UNL     1       2.886   8.160  18.069  1.00  0.00    -0.006 A 
ATOM     19  C   UNL     1       4.629   9.086  16.609  1.00  0.00     0.072 A 
ATOM     20  C   UNL     1       2.781   9.420  18.741  1.00  0.00     0.008 A 
ATOM     21  C   UNL     1       4.488  10.335  17.232  1.00  0.00     0.169 A 
ATOM     22  C   UNL     1       3.565  10.508  18.283  1.00  0.00     0.162 A 
BRANCH  13  23
ATOM     23  O   UNL     1       5.286   6.379  15.838  1.00  0.00    -0.507 OA
ATOM     24  H   UNL     1       6.092   6.989  15.799  1.00  0.00     0.293 HD
ENDBRANCH  13  23
BRANCH  19  25
ATOM     25  C   UNL     1       5.478   9.041  15.396  1.00  0.00     0.264 C 
ATOM     26  O   UNL     1       4.965   8.889  14.256  1.00  0.00    -0.298 OA
ENDBRANCH  19  25
BRANCH  20  27
ATOM     27  C   UNL     1       1.870   9.663  19.962  1.00  0.00     0.017 C 
ATOM     28  C   UNL     1       0.386   9.465  19.625  1.00  0.00     0.012 C 
ATOM     29  C   UNL     1       2.305   8.917  21.242  1.00  0.00     0.012 C 
ENDBRANCH  20  27
BRANCH  21  30
ATOM     30  O   UNL     1       5.282  11.391  16.768  1.00  0.00    -0.504 OA
ATOM     31  H   UNL     1       6.289  11.430  16.826  1.00  0.00     0.293 HD
ENDBRANCH  21  30
BRANCH  22  32
ATOM     32  O   UNL     1       3.380  11.764  18.875  1.00  0.00    -0.504 OA
ATOM     33  H   UNL     1       2.930  11.927  19.763  1.00  0.00     0.293 HD
ENDBRANCH  22  32
ENDBRANCH  11  12
BRANCH  10  34
ATOM     34  O   UNL     1       3.618   3.363  18.698  1.00  0.00    -0.507 OA
ATOM     35  H   UNL     1       2.804   3.111  19.242  1.00  0.00     0.293 HD
ENDBRANCH  10  34
BRANCH   9  36
ATOM     36  C   UNL     1       3.504  -0.148  13.486  1.00  0.00     0.017 C 
ATOM     37  C   UNL     1       2.002  -0.419  13.326  1.00  0.00     0.012 C 
ATOM     38  C   UNL     1       4.389  -1.254  12.876  1.00  0.00     0.012 C 
ENDBRANCH   9  36
BRANCH   6  39
ATOM     39  C   UNL     1       4.848   1.011  19.074  1.00  0.00     0.264 C 
ATOM     40  O   UNL     1       4.669   0.143  19.969  1.00  0.00    -0.298 OA
ENDBRANCH   6  39
BRANCH   8  41
ATOM     41  O   UNL     1       4.241  -2.125  15.348  1.00  0.00    -0.504 OA
ATOM     42  H   UNL     1       4.843  -2.455  14.607  1.00  0.00     0.293 HD
ENDBRANCH   8  41
BRANCH   7  43
ATOM     43  O   UNL     1       5.030  -1.534  18.012  1.00  0.00    -0.504 OA
ATOM     44  H   UNL     1       5.704  -1.382  18.748  1.00  0.00     0.293 HD
ENDBRANCH   7  43
TORSDOF 11
ENDMDL
MODEL 4
REMARK VINA RESULT:     6.890      1.577      9.011
REMARK INTER + INTRA:          10.695
REMARK INTER:                   5.877
REMARK INTRA:                   4.819
REMARK UNBOUND:                 0.582
REMARK SMILES Cc1cc2c(C(C)C)c(O)c(O)c(C=O)c2c(O)c1-c1c(C)cc2c(C(C)C)c(O)c(O)c(C=O)c2c1O
REMARK SMILES IDX 1 1 2 2 3 3 4 4 16 5 13 6 11 7 9 8 5 9 17 10 19 11 20 12
REMARK SMILES IDX 37 13 21 14 36 15 23 16 22 17 24 18 33 19 25 20 31 21 29 22
REMARK SMILES IDX 38 23 34 25 35 26 26 27 27 28 28 29 32 30 30 32 18 34 6 36
REMARK SMILES IDX 7 37 8 38 14 39 15 40 10 41 12 43
REMARK H PARENT 38 24 32 31 30 33 18 35 10 42 12 44
REMARK Flexibility Score: inf
ROOT
ATOM      1  C   UNL     1       3.090   3.249  19.676  1.00  0.00     0.045 C 
ATOM      2  C   UNL     1       3.458   2.786  18.287  1.00  0.00    -0.039 A 
ATOM      3  C   UNL     1       3.861   1.464  18.091  1.00  0.00     0.013 A 
ATOM      4  C   UNL     1       4.236   0.976  16.822  1.00  0.00    -0.006 A 
ATOM      5  C   UNL     1       4.082   1.837  15.695  1.00  0.00     0.039 A 
ATOM      6  C   UNL     1       4.231   1.296  14.386  1.00  0.00     0.072 A 
ATOM      7  C   UNL     1       4.637  -0.039  14.218  1.00  0.00     0.169 A 
ATOM      8  C   UNL     1       4.956  -0.834  15.334  1.00  0.00     0.162 A 
ATOM      9  C   UNL     1       4.761  -0.345  16.649  1.00  0.00     0.008 A 
ATOM     10  C   UNL     1       3.802   3.217  15.915  1.00  0.00     0.132 A 
ATOM     11  C   UNL     1       3.471   3.680  17.206  1.00  0.00     0.031 A 
ENDROOT
BRANCH  11  12
ATOM     12  C   UNL     1       3.143   5.112  17.426  1.00  0.00     0.031 A 
ATOM     13  C   UNL     1       3.862   6.117  16.745  1.00  0.00     0.132 A 
ATOM     14  C   UNL     1       2.119   5.468  18.317  1.00  0.00    -0.039 A 
ATOM     15  C   UNL     1       3.526   7.490  16.927  1.00  0.00     0.039 A 
ATOM     16  C   UNL     1       1.880   6.817  18.587  1.00  0.00     0.013 A 
ATOM     17  C   UNL     1       1.292   4.412  19.010  1.00  0.00     0.045 C 
ATOM     18  C   UNL     1       2.614   7.846  17.964  1.00  0.00    -0.006 A 
ATOM     19  C   UNL     1       4.102   8.519  16.132  1.00  0.00     0.072 A 
ATOM     20  C   UNL     1       2.454   9.219  18.337  1.00  0.00     0.008 A 
ATOM     21  C   UNL     1       3.903   9.867  16.464  1.00  0.00     0.169 A 
ATOM     22  C   UNL     1       3.077  10.219  17.551  1.00  0.00     0.162 A 
BRANCH  13  23
ATOM     23  O   UNL     1       4.940   5.760  15.928  1.00  0.00    -0.507 OA
ATOM     24  H   UNL     1       5.368   4.843  15.926  1.00  0.00     0.293 HD
ENDBRANCH  13  23
BRANCH  19  25
ATOM     25  C   UNL     1       4.825   8.247  14.868  1.00  0.00     0.264 C 
ATOM     26  O   UNL     1       6.082   8.175  14.846  1.00  0.00    -0.298 OA
ENDBRANCH  19  25
BRANCH  20  27
ATOM     27  C   UNL     1       1.651   9.680  19.571  1.00  0.00     0.017 C 
ATOM     28  C   UNL     1       0.137   9.547  19.359  1.00  0.00     0.012 C 
ATOM     29  C   UNL     1       2.130   9.075  20.908  1.00  0.00     0.012 C 
ENDBRANCH  20  27
BRANCH  21  30
ATOM     30  O   UNL     1       4.539  10.837  15.678  1.00  0.00    -0.504 OA
ATOM     31  H   UNL     1       4.124  11.306  14.887  1.00  0.00     0.293 HD
ENDBRANCH  21  30
BRANCH  22  32
ATOM     32  O   UNL     1       2.830  11.564  17.858  1.00  0.00    -0.504 OA
ATOM     33  H   UNL     1       3.377  12.125  18.492  1.00  0.00     0.293 HD
ENDBRANCH  22  32
ENDBRANCH  11  12
BRANCH  10  34
ATOM     34  O   UNL     1       3.902   4.135  14.861  1.00  0.00    -0.507 OA
ATOM     35  H   UNL     1       4.415   5.004  14.919  1.00  0.00     0.293 HD
ENDBRANCH  10  34
BRANCH   9  36
ATOM     36  C   UNL     1       5.166  -1.264  17.822  1.00  0.00     0.017 C 
ATOM     37  C   UNL     1       3.976  -2.058  18.374  1.00  0.00     0.012 C 
ATOM     38  C   UNL     1       5.992  -0.565  18.921  1.00  0.00     0.012 C 
ENDBRANCH   9  36
BRANCH   6  39
ATOM     39  C   UNL     1       3.824   2.052  13.175  1.00  0.00     0.264 C 
ATOM     40  O   UNL     1       4.377   3.143  12.875  1.00  0.00    -0.298 OA
ENDBRANCH   6  39
BRANCH   8  41
ATOM     41  O   UNL     1       5.470  -2.125  15.160  1.00  0.00    -0.504 OA
ATOM     42  H   UNL     1       4.910  -2.965  15.143  1.00  0.00     0.293 HD
ENDBRANCH   8  41
BRANCH   7  43
ATOM     43  O   UNL     1       4.680  -0.564  12.921  1.00  0.00    -0.504 OA
ATOM     44  H   UNL     1       4.620  -0.011  12.078  1.00  0.00     0.293 HD
ENDBRANCH   7  43
TORSDOF 11
ENDMDL
