MODEL 1
REMARK VINA RESULT:    -2.686      0.000      0.000
REMARK INTER + INTRA:          -3.272
REMARK INTER:                  -3.157
REMARK INTRA:                  -0.115
REMARK UNBOUND:                -0.115
REMARK SMILES O=C([O-])CCC(=O)[O-]
REMARK SMILES IDX 4 1 2 2 1 3 3 4 5 5 6 6 7 7 8 8
REMARK H PARENT
REMARK Flexibility Score: inf
ROOT
ATOM      1  C   UNL     1      68.812  14.354  76.219  1.00  0.00     0.059 C 
ENDROOT
BRANCH   1   2
ATOM      2  C   UNL     1      67.435  14.929  76.112  1.00  0.00     0.042 C 
ATOM      3  O   UNL     1      67.259  16.173  76.192  1.00  0.00    -0.550 OA
ATOM      4  O   UNL     1      66.350  14.095  75.876  1.00  0.00    -0.550 OA
ENDBRANCH   1   2
BRANCH   1   5
ATOM      5  C   UNL     1      69.785  15.397  76.773  1.00  0.00     0.059 C 
BRANCH   5   6
ATOM      6  C   UNL     1      70.044  15.151  78.225  1.00  0.00     0.042 C 
ATOM      7  O   UNL     1      71.112  14.595  78.593  1.00  0.00    -0.550 OA
ATOM      8  O   UNL     1      69.085  15.493  79.170  1.00  0.00    -0.550 OA
ENDBRANCH   5   6
ENDBRANCH   1   5
TORSDOF 3
ENDMDL
MODEL 2
REMARK VINA RESULT:    -2.672      0.116      3.776
REMARK INTER + INTRA:          -3.255
REMARK INTER:                  -3.138
REMARK INTRA:                  -0.117
REMARK UNBOUND:                -0.115
REMARK SMILES O=C([O-])CCC(=O)[O-]
REMARK SMILES IDX 4 1 2 2 1 3 3 4 5 5 6 6 7 7 8 8
REMARK H PARENT
REMARK Flexibility Score: inf
ROOT
ATOM      1  C   UNL     1      69.811  15.447  76.709  1.00  0.00     0.059 C 
ENDROOT
BRANCH   1   2
ATOM      2  C   UNL     1      70.122  15.190  78.150  1.00  0.00     0.042 C 
ATOM      3  O   UNL     1      71.253  14.752  78.485  1.00  0.00    -0.550 OA
ATOM      4  O   UNL     1      69.179  15.480  79.127  1.00  0.00    -0.550 OA
ENDBRANCH   1   2
BRANCH   1   5
ATOM      5  C   UNL     1      68.865  14.374  76.167  1.00  0.00     0.059 C 
BRANCH   5   6
ATOM      6  C   UNL     1      67.468  14.902  76.086  1.00  0.00     0.042 C 
ATOM      7  O   UNL     1      67.246  16.132  76.232  1.00  0.00    -0.550 OA
ATOM      8  O   UNL     1      66.405  14.029  75.896  1.00  0.00    -0.550 OA
ENDBRANCH   5   6
ENDBRANCH   1   5
TORSDOF 3
ENDMDL
MODEL 3
REMARK VINA RESULT:    -2.664      0.146      1.153
REMARK INTER + INTRA:          -3.246
REMARK INTER:                  -3.134
REMARK INTRA:                  -0.112
REMARK UNBOUND:                -0.115
REMARK SMILES O=C([O-])CCC(=O)[O-]
REMARK SMILES IDX 4 1 2 2 1 3 3 4 5 5 6 6 7 7 8 8
REMARK H PARENT
REMARK Flexibility Score: inf
ROOT
ATOM      1  C   UNL     1      68.736  14.382  76.174  1.00  0.00     0.059 C 
ENDROOT
BRANCH   1   2
ATOM      2  C   UNL     1      67.339  14.900  76.046  1.00  0.00     0.042 C 
ATOM      3  O   UNL     1      67.120  16.140  76.049  1.00  0.00    -0.550 OA
ATOM      4  O   UNL     1      66.282  14.015  75.875  1.00  0.00    -0.550 OA
ENDBRANCH   1   2
BRANCH   1   5
ATOM      5  C   UNL     1      69.664  15.473  76.711  1.00  0.00     0.059 C 
BRANCH   5   6
ATOM      6  C   UNL     1      69.969  15.235  78.157  1.00  0.00     0.042 C 
ATOM      7  O   UNL     1      69.117  15.519  79.038  1.00  0.00    -0.550 OA
ATOM      8  O   UNL     1      71.213  14.745  78.533  1.00  0.00    -0.550 OA
ENDBRANCH   5   6
ENDBRANCH   1   5
TORSDOF 3
ENDMDL
MODEL 4
REMARK VINA RESULT:    -2.587      1.411      1.833
REMARK INTER + INTRA:          -3.156
REMARK INTER:                  -3.034
REMARK INTRA:                  -0.122
REMARK UNBOUND:                -0.115
REMARK SMILES O=C([O-])CCC(=O)[O-]
REMARK SMILES IDX 4 1 2 2 1 3 3 4 5 5 6 6 7 7 8 8
REMARK H PARENT
REMARK Flexibility Score: inf
ROOT
ATOM      1  C   UNL     1      69.797  15.851  76.548  1.00  0.00     0.059 C 
ENDROOT
BRANCH   1   2
ATOM      2  C   UNL     1      68.498  15.134  76.741  1.00  0.00     0.042 C 
ATOM      3  O   UNL     1      68.307  14.013  76.202  1.00  0.00    -0.550 OA
ATOM      4  O   UNL     1      67.516  15.683  77.556  1.00  0.00    -0.550 OA
ENDBRANCH   1   2
BRANCH   1   5
ATOM      5  C   UNL     1      70.316  16.387  77.883  1.00  0.00     0.059 C 
BRANCH   5   6
ATOM      6  C   UNL     1      71.117  15.341  78.591  1.00  0.00     0.042 C 
ATOM      7  O   UNL     1      71.756  14.479  77.932  1.00  0.00    -0.550 OA
ATOM      8  O   UNL     1      71.120  15.288  79.979  1.00  0.00    -0.550 OA
ENDBRANCH   5   6
ENDBRANCH   1   5
TORSDOF 3
ENDMDL
MODEL 5
REMARK VINA RESULT:    -2.571      0.989      1.925
REMARK INTER + INTRA:          -3.136
REMARK INTER:                  -3.015
REMARK INTRA:                  -0.121
REMARK UNBOUND:                -0.115
REMARK SMILES O=C([O-])CCC(=O)[O-]
REMARK SMILES IDX 4 1 2 2 1 3 3 4 5 5 6 6 7 7 8 8
REMARK H PARENT
REMARK Flexibility Score: inf
ROOT
ATOM      1  C   UNL     1      68.788  14.389  76.247  1.00  0.00     0.059 C 
ENDROOT
BRANCH   1   2
ATOM      2  C   UNL     1      67.615  15.249  76.596  1.00  0.00     0.042 C 
ATOM      3  O   UNL     1      66.449  14.776  76.558  1.00  0.00    -0.550 OA
ATOM      4  O   UNL     1      67.813  16.560  77.010  1.00  0.00    -0.550 OA
ENDBRANCH   1   2
BRANCH   1   5
ATOM      5  C   UNL     1      70.079  15.208  76.276  1.00  0.00     0.059 C 
BRANCH   5   6
ATOM      6  C   UNL     1      70.915  14.826  77.457  1.00  0.00     0.042 C 
ATOM      7  O   UNL     1      70.547  15.137  78.620  1.00  0.00    -0.550 OA
ATOM      8  O   UNL     1      72.124  14.168  77.269  1.00  0.00    -0.550 OA
ENDBRANCH   5   6
ENDBRANCH   1   5
TORSDOF 3
ENDMDL
MODEL 6
REMARK VINA RESULT:    -2.530      1.606      4.049
REMARK INTER + INTRA:          -3.088
REMARK INTER:                  -2.965
REMARK INTRA:                  -0.123
REMARK UNBOUND:                -0.115
REMARK SMILES O=C([O-])CCC(=O)[O-]
REMARK SMILES IDX 4 1 2 2 1 3 3 4 5 5 6 6 7 7 8 8
REMARK H PARENT
REMARK Flexibility Score: inf
ROOT
ATOM      1  C   UNL     1      70.996  14.753  78.073  1.00  0.00     0.059 C 
ENDROOT
BRANCH   1   2
ATOM      2  C   UNL     1      71.198  15.596  79.292  1.00  0.00     0.042 C 
ATOM      3  O   UNL     1      72.120  16.452  79.325  1.00  0.00    -0.550 OA
ATOM      4  O   UNL     1      70.337  15.470  80.375  1.00  0.00    -0.550 OA
ENDBRANCH   1   2
BRANCH   1   5
ATOM      5  C   UNL     1      70.197  15.520  77.019  1.00  0.00     0.059 C 
BRANCH   5   6
ATOM      6  C   UNL     1      68.766  15.083  77.026  1.00  0.00     0.042 C 
ATOM      7  O   UNL     1      67.933  15.654  77.777  1.00  0.00    -0.550 OA
ATOM      8  O   UNL     1      68.362  14.013  76.239  1.00  0.00    -0.550 OA
ENDBRANCH   5   6
ENDBRANCH   1   5
TORSDOF 3
ENDMDL
MODEL 7
REMARK VINA RESULT:    -2.502     22.909     23.761
REMARK INTER + INTRA:          -3.056
REMARK INTER:                  -2.934
REMARK INTRA:                  -0.122
REMARK UNBOUND:                -0.115
REMARK SMILES O=C([O-])CCC(=O)[O-]
REMARK SMILES IDX 4 1 2 2 1 3 3 4 5 5 6 6 7 7 8 8
REMARK H PARENT
REMARK Flexibility Score: inf
ROOT
ATOM      1  C   UNL     1      69.982  29.555  96.038  1.00  0.00     0.059 C 
ENDROOT
BRANCH   1   2
ATOM      2  C   UNL     1      70.905  30.192  95.048  1.00  0.00     0.042 C 
ATOM      3  O   UNL     1      70.654  30.127  93.816  1.00  0.00    -0.550 OA
ATOM      4  O   UNL     1      72.017  30.897  95.488  1.00  0.00    -0.550 OA
ENDBRANCH   1   2
BRANCH   1   5
ATOM      5  C   UNL     1      68.669  30.335  96.125  1.00  0.00     0.059 C 
BRANCH   5   6
ATOM      6  C   UNL     1      67.554  29.553  95.506  1.00  0.00     0.042 C 
ATOM      7  O   UNL     1      66.365  29.951  95.616  1.00  0.00    -0.550 OA
ATOM      8  O   UNL     1      67.823  28.360  94.849  1.00  0.00    -0.550 OA
ENDBRANCH   5   6
ENDBRANCH   1   5
TORSDOF 3
ENDMDL
