MODEL 1
REMARK VINA RESULT:    -3.393      0.000      0.000
REMARK INTER + INTRA:          -7.308
REMARK INTER:                  -6.170
REMARK INTRA:                  -1.138
REMARK UNBOUND:                -1.138
REMARK SMILES CCCCCCCCCCCCCCCC(=O)[O-]
REMARK SMILES IDX 9 1 10 2 11 3 12 4 13 5 14 6 15 7 16 8 17 9 18 10 8 11 7 12
REMARK SMILES IDX 6 13 5 14 4 15 3 16 2 17 1 18
REMARK H PARENT
REMARK Flexibility Score: inf
ROOT
ATOM      1  C   UNL     1      -8.854   0.502  -4.865  1.00  0.00     0.000 C 
ENDROOT
BRANCH   1   2
ATOM      2  C   UNL     1      -8.979   0.195  -6.368  1.00  0.00     0.000 C 
BRANCH   2   3
ATOM      3  C   UNL     1      -9.864   1.175  -7.159  1.00  0.00     0.000 C 
BRANCH   3   4
ATOM      4  C   UNL     1      -9.118   1.845  -8.324  1.00  0.00     0.000 C 
BRANCH   4   5
ATOM      5  C   UNL     1      -9.374   3.356  -8.339  1.00  0.00     0.000 C 
BRANCH   5   6
ATOM      6  C   UNL     1      -8.291   4.109  -7.556  1.00  0.00     0.006 C 
BRANCH   6   7
ATOM      7  C   UNL     1      -8.915   5.107  -6.576  1.00  0.00     0.053 C 
BRANCH   7   8
ATOM      8  C   UNL     1      -8.876   6.490  -7.142  1.00  0.00     0.041 C 
ATOM      9  O   UNL     1      -8.062   6.777  -8.060  1.00  0.00    -0.550 OA
ATOM     10  O   UNL     1      -9.763   7.455  -6.681  1.00  0.00    -0.550 OA
ENDBRANCH   7   8
ENDBRANCH   6   7
ENDBRANCH   5   6
ENDBRANCH   4   5
ENDBRANCH   3   4
ENDBRANCH   2   3
ENDBRANCH   1   2
BRANCH   1  11
ATOM     11  C   UNL     1      -8.685   2.002  -4.573  1.00  0.00     0.000 C 
BRANCH  11  12
ATOM     12  C   UNL     1      -7.796   2.277  -3.348  1.00  0.00    -0.000 C 
BRANCH  12  13
ATOM     13  C   UNL     1      -6.435   1.552  -3.401  1.00  0.00    -0.000 C 
BRANCH  13  14
ATOM     14  C   UNL     1      -5.531   1.938  -2.217  1.00  0.00    -0.000 C 
BRANCH  14  15
ATOM     15  C   UNL     1      -6.176   2.998  -1.309  1.00  0.00    -0.000 C 
BRANCH  15  16
ATOM     16  C   UNL     1      -5.316   3.304  -0.070  1.00  0.00    -0.000 C 
BRANCH  16  17
ATOM     17  C   UNL     1      -5.257   2.119   0.909  1.00  0.00    -0.003 C 
ATOM     18  C   UNL     1      -5.143   2.567   2.367  1.00  0.00     0.004 C 
ENDBRANCH  16  17
ENDBRANCH  15  16
ENDBRANCH  14  15
ENDBRANCH  13  14
ENDBRANCH  12  13
ENDBRANCH  11  12
ENDBRANCH   1  11
TORSDOF 14
ENDMDL
MODEL 2
REMARK VINA RESULT:    -3.341      2.352      3.126
REMARK INTER + INTRA:          -7.213
REMARK INTER:                  -6.159
REMARK INTRA:                  -1.055
REMARK UNBOUND:                -1.138
REMARK SMILES CCCCCCCCCCCCCCCC(=O)[O-]
REMARK SMILES IDX 9 1 10 2 11 3 12 4 13 5 14 6 15 7 16 8 17 9 18 10 8 11 7 12
REMARK SMILES IDX 6 13 5 14 4 15 3 16 2 17 1 18
REMARK H PARENT
REMARK Flexibility Score: inf
ROOT
ATOM      1  C   UNL     1      -9.341   2.265  -5.179  1.00  0.00     0.000 C 
ENDROOT
BRANCH   1   2
ATOM      2  C   UNL     1      -9.328   3.674  -4.557  1.00  0.00     0.000 C 
BRANCH   2   3
ATOM      3  C   UNL     1      -9.991   4.768  -5.413  1.00  0.00     0.000 C 
BRANCH   3   4
ATOM      4  C   UNL     1      -9.787   4.549  -6.921  1.00  0.00     0.000 C 
BRANCH   4   5
ATOM      5  C   UNL     1      -8.310   4.705  -7.301  1.00  0.00     0.000 C 
BRANCH   5   6
ATOM      6  C   UNL     1      -7.948   3.808  -8.491  1.00  0.00     0.006 C 
BRANCH   6   7
ATOM      7  C   UNL     1      -9.097   2.854  -8.829  1.00  0.00     0.053 C 
BRANCH   7   8
ATOM      8  C   UNL     1      -8.637   1.433  -8.756  1.00  0.00     0.041 C 
ATOM      9  O   UNL     1      -7.407   1.167  -8.716  1.00  0.00    -0.550 OA
ATOM     10  O   UNL     1      -9.568   0.403  -8.694  1.00  0.00    -0.550 OA
ENDBRANCH   7   8
ENDBRANCH   6   7
ENDBRANCH   5   6
ENDBRANCH   4   5
ENDBRANCH   3   4
ENDBRANCH   2   3
ENDBRANCH   1   2
BRANCH   1  11
ATOM     11  C   UNL     1      -8.381   1.293  -4.474  1.00  0.00     0.000 C 
BRANCH  11  12
ATOM     12  C   UNL     1      -7.526   1.976  -3.392  1.00  0.00    -0.000 C 
BRANCH  12  13
ATOM     13  C   UNL     1      -6.043   1.552  -3.422  1.00  0.00    -0.000 C 
BRANCH  13  14
ATOM     14  C   UNL     1      -5.363   1.739  -2.054  1.00  0.00    -0.000 C 
BRANCH  14  15
ATOM     15  C   UNL     1      -6.144   2.696  -1.138  1.00  0.00    -0.000 C 
BRANCH  15  16
ATOM     16  C   UNL     1      -5.245   3.336  -0.065  1.00  0.00    -0.000 C 
BRANCH  16  17
ATOM     17  C   UNL     1      -4.827   2.333   1.023  1.00  0.00    -0.003 C 
ATOM     18  C   UNL     1      -5.510   2.602   2.365  1.00  0.00     0.004 C 
ENDBRANCH  16  17
ENDBRANCH  15  16
ENDBRANCH  14  15
ENDBRANCH  13  14
ENDBRANCH  12  13
ENDBRANCH  11  12
ENDBRANCH   1  11
TORSDOF 14
ENDMDL
MODEL 3
REMARK VINA RESULT:    -3.321      1.895      2.678
REMARK INTER + INTRA:          -7.176
REMARK INTER:                  -6.310
REMARK INTRA:                  -0.867
REMARK UNBOUND:                -1.138
REMARK SMILES CCCCCCCCCCCCCCCC(=O)[O-]
REMARK SMILES IDX 9 1 10 2 11 3 12 4 13 5 14 6 15 7 16 8 17 9 18 10 8 11 7 12
REMARK SMILES IDX 6 13 5 14 4 15 3 16 2 17 1 18
REMARK H PARENT
REMARK Flexibility Score: inf
ROOT
ATOM      1  C   UNL     1      -9.602   2.190  -4.761  1.00  0.00     0.000 C 
ENDROOT
BRANCH   1   2
ATOM      2  C   UNL     1      -9.558   3.634  -4.232  1.00  0.00     0.000 C 
BRANCH   2   3
ATOM      3  C   UNL     1      -9.552   4.724  -5.319  1.00  0.00     0.000 C 
BRANCH   3   4
ATOM      4  C   UNL     1      -9.996   6.097  -4.788  1.00  0.00     0.000 C 
BRANCH   4   5
ATOM      5  C   UNL     1      -8.968   7.178  -5.142  1.00  0.00     0.000 C 
BRANCH   5   6
ATOM      6  C   UNL     1      -7.956   6.663  -6.173  1.00  0.00     0.006 C 
BRANCH   6   7
ATOM      7  C   UNL     1      -8.087   7.421  -7.497  1.00  0.00     0.053 C 
BRANCH   7   8
ATOM      8  C   UNL     1      -7.974   6.479  -8.653  1.00  0.00     0.041 C 
ATOM      9  O   UNL     1      -8.360   6.834  -9.799  1.00  0.00    -0.550 OA
ATOM     10  O   UNL     1      -7.409   5.222  -8.474  1.00  0.00    -0.550 OA
ENDBRANCH   7   8
ENDBRANCH   6   7
ENDBRANCH   5   6
ENDBRANCH   4   5
ENDBRANCH   3   4
ENDBRANCH   2   3
ENDBRANCH   1   2
BRANCH   1  11
ATOM     11  C   UNL     1      -8.312   1.406  -4.465  1.00  0.00     0.000 C 
BRANCH  11  12
ATOM     12  C   UNL     1      -7.416   2.102  -3.424  1.00  0.00    -0.000 C 
BRANCH  12  13
ATOM     13  C   UNL     1      -6.009   1.479  -3.310  1.00  0.00    -0.000 C 
BRANCH  13  14
ATOM     14  C   UNL     1      -5.316   1.862  -1.991  1.00  0.00    -0.000 C 
BRANCH  14  15
ATOM     15  C   UNL     1      -6.109   2.912  -1.195  1.00  0.00    -0.000 C 
BRANCH  15  16
ATOM     16  C   UNL     1      -5.374   3.349   0.085  1.00  0.00    -0.000 C 
BRANCH  16  17
ATOM     17  C   UNL     1      -5.240   2.204   1.102  1.00  0.00    -0.003 C 
ATOM     18  C   UNL     1      -5.016   2.708   2.528  1.00  0.00     0.004 C 
ENDBRANCH  16  17
ENDBRANCH  15  16
ENDBRANCH  14  15
ENDBRANCH  13  14
ENDBRANCH  12  13
ENDBRANCH  11  12
ENDBRANCH   1  11
TORSDOF 14
ENDMDL
MODEL 4
REMARK VINA RESULT:    -3.237     14.426     16.227
REMARK INTER + INTRA:          -7.024
REMARK INTER:                  -5.164
REMARK INTRA:                  -1.859
REMARK UNBOUND:                -1.138
REMARK SMILES CCCCCCCCCCCCCCCC(=O)[O-]
REMARK SMILES IDX 9 1 10 2 11 3 12 4 13 5 14 6 15 7 16 8 17 9 18 10 8 11 7 12
REMARK SMILES IDX 6 13 5 14 4 15 3 16 2 17 1 18
REMARK H PARENT
REMARK Flexibility Score: inf
ROOT
ATOM      1  C   UNL     1       4.803   7.665  -2.680  1.00  0.00     0.000 C 
ENDROOT
BRANCH   1   2
ATOM      2  C   UNL     1       4.067   8.487  -3.754  1.00  0.00     0.000 C 
BRANCH   2   3
ATOM      3  C   UNL     1       4.574   9.930  -3.927  1.00  0.00     0.000 C 
BRANCH   3   4
ATOM      4  C   UNL     1       5.401  10.121  -5.208  1.00  0.00     0.000 C 
BRANCH   4   5
ATOM      5  C   UNL     1       5.131   8.989  -6.207  1.00  0.00     0.000 C 
BRANCH   5   6
ATOM      6  C   UNL     1       6.313   8.806  -7.166  1.00  0.00     0.006 C 
BRANCH   6   7
ATOM      7  C   UNL     1       7.628   9.231  -6.507  1.00  0.00     0.053 C 
BRANCH   7   8
ATOM      8  C   UNL     1       8.719   8.264  -6.839  1.00  0.00     0.041 C 
ATOM      9  O   UNL     1       9.419   7.759  -5.922  1.00  0.00    -0.550 OA
ATOM     10  O   UNL     1       8.939   7.892  -8.160  1.00  0.00    -0.550 OA
ENDBRANCH   7   8
ENDBRANCH   6   7
ENDBRANCH   5   6
ENDBRANCH   4   5
ENDBRANCH   3   4
ENDBRANCH   2   3
ENDBRANCH   1   2
BRANCH   1  11
ATOM     11  C   UNL     1       6.122   7.061  -3.190  1.00  0.00     0.000 C 
BRANCH  11  12
ATOM     12  C   UNL     1       7.340   7.496  -2.356  1.00  0.00    -0.000 C 
BRANCH  12  13
ATOM     13  C   UNL     1       8.055   8.744  -2.917  1.00  0.00    -0.000 C 
BRANCH  13  14
ATOM     14  C   UNL     1       7.819   9.985  -2.039  1.00  0.00    -0.000 C 
BRANCH  14  15
ATOM     15  C   UNL     1       7.352   9.619  -0.620  1.00  0.00    -0.000 C 
BRANCH  15  16
ATOM     16  C   UNL     1       8.534   9.394   0.340  1.00  0.00    -0.000 C 
BRANCH  16  17
ATOM     17  C   UNL     1       8.323  10.084   1.698  1.00  0.00    -0.003 C 
ATOM     18  C   UNL     1       7.475   9.247   2.657  1.00  0.00     0.004 C 
ENDBRANCH  16  17
ENDBRANCH  15  16
ENDBRANCH  14  15
ENDBRANCH  13  14
ENDBRANCH  12  13
ENDBRANCH  11  12
ENDBRANCH   1  11
TORSDOF 14
ENDMDL
MODEL 5
REMARK VINA RESULT:    -3.230      3.314      6.560
REMARK INTER + INTRA:          -7.012
REMARK INTER:                  -5.419
REMARK INTRA:                  -1.593
REMARK UNBOUND:                -1.138
REMARK SMILES CCCCCCCCCCCCCCCC(=O)[O-]
REMARK SMILES IDX 9 1 10 2 11 3 12 4 13 5 14 6 15 7 16 8 17 9 18 10 8 11 7 12
REMARK SMILES IDX 6 13 5 14 4 15 3 16 2 17 1 18
REMARK H PARENT
REMARK Flexibility Score: inf
ROOT
ATOM      1  C   UNL     1      -9.429   1.565  -7.575  1.00  0.00     0.000 C 
ENDROOT
BRANCH   1   2
ATOM      2  C   UNL     1      -9.219   0.362  -6.638  1.00  0.00     0.000 C 
BRANCH   2   3
ATOM      3  C   UNL     1      -9.016   0.721  -5.155  1.00  0.00     0.000 C 
BRANCH   3   4
ATOM      4  C   UNL     1      -9.128   2.230  -4.887  1.00  0.00     0.000 C 
BRANCH   4   5
ATOM      5  C   UNL     1      -8.231   2.645  -3.715  1.00  0.00     0.000 C 
BRANCH   5   6
ATOM      6  C   UNL     1      -7.185   1.565  -3.411  1.00  0.00     0.006 C 
BRANCH   6   7
ATOM      7  C   UNL     1      -6.040   2.132  -2.566  1.00  0.00     0.053 C 
BRANCH   7   8
ATOM      8  C   UNL     1      -4.813   1.289  -2.713  1.00  0.00     0.041 C 
ATOM      9  O   UNL     1      -4.442   0.542  -1.769  1.00  0.00    -0.550 OA
ATOM     10  O   UNL     1      -4.101   1.300  -3.906  1.00  0.00    -0.550 OA
ENDBRANCH   7   8
ENDBRANCH   6   7
ENDBRANCH   5   6
ENDBRANCH   4   5
ENDBRANCH   3   4
ENDBRANCH   2   3
ENDBRANCH   1   2
BRANCH   1  11
ATOM     11  C   UNL     1      -8.496   1.540  -8.797  1.00  0.00     0.000 C 
BRANCH  11  12
ATOM     12  C   UNL     1      -8.787   2.676  -9.794  1.00  0.00    -0.000 C 
BRANCH  12  13
ATOM     13  C   UNL     1      -9.164   4.010  -9.115  1.00  0.00    -0.000 C 
BRANCH  13  14
ATOM     14  C   UNL     1      -7.932   4.727  -8.535  1.00  0.00    -0.000 C 
BRANCH  14  15
ATOM     15  C   UNL     1      -8.157   5.201  -7.089  1.00  0.00    -0.000 C 
BRANCH  15  16
ATOM     16  C   UNL     1      -9.651   5.270  -6.726  1.00  0.00    -0.000 C 
BRANCH  16  17
ATOM     17  C   UNL     1      -9.889   5.902  -5.344  1.00  0.00    -0.003 C 
ATOM     18  C   UNL     1      -8.979   7.103  -5.083  1.00  0.00     0.004 C 
ENDBRANCH  16  17
ENDBRANCH  15  16
ENDBRANCH  14  15
ENDBRANCH  13  14
ENDBRANCH  12  13
ENDBRANCH  11  12
ENDBRANCH   1  11
TORSDOF 14
ENDMDL
MODEL 6
REMARK VINA RESULT:    -3.178      1.536      2.157
REMARK INTER + INTRA:          -6.916
REMARK INTER:                  -6.092
REMARK INTRA:                  -0.825
REMARK UNBOUND:                -1.138
REMARK SMILES CCCCCCCCCCCCCCCC(=O)[O-]
REMARK SMILES IDX 9 1 10 2 11 3 12 4 13 5 14 6 15 7 16 8 17 9 18 10 8 11 7 12
REMARK SMILES IDX 6 13 5 14 4 15 3 16 2 17 1 18
REMARK H PARENT
REMARK Flexibility Score: inf
ROOT
ATOM      1  C   UNL     1      -9.405   2.041  -4.798  1.00  0.00     0.000 C 
ENDROOT
BRANCH   1   2
ATOM      2  C   UNL     1      -9.379   3.526  -4.391  1.00  0.00     0.000 C 
BRANCH   2   3
ATOM      3  C   UNL     1      -9.223   4.516  -5.559  1.00  0.00     0.000 C 
BRANCH   3   4
ATOM      4  C   UNL     1      -8.652   3.859  -6.826  1.00  0.00     0.000 C 
BRANCH   4   5
ATOM      5  C   UNL     1      -8.652   4.843  -8.001  1.00  0.00     0.000 C 
BRANCH   5   6
ATOM      6  C   UNL     1      -7.913   6.137  -7.638  1.00  0.00     0.006 C 
BRANCH   6   7
ATOM      7  C   UNL     1      -7.970   7.145  -8.789  1.00  0.00     0.053 C 
BRANCH   7   8
ATOM      8  C   UNL     1      -7.925   8.544  -8.264  1.00  0.00     0.041 C 
ATOM      9  O   UNL     1      -8.941   9.284  -8.346  1.00  0.00    -0.550 OA
ATOM     10  O   UNL     1      -6.772   9.019  -7.651  1.00  0.00    -0.550 OA
ENDBRANCH   7   8
ENDBRANCH   6   7
ENDBRANCH   5   6
ENDBRANCH   4   5
ENDBRANCH   3   4
ENDBRANCH   2   3
ENDBRANCH   1   2
BRANCH   1  11
ATOM     11  C   UNL     1      -8.236   1.239  -4.200  1.00  0.00     0.000 C 
BRANCH  11  12
ATOM     12  C   UNL     1      -7.297   2.103  -3.340  1.00  0.00    -0.000 C 
BRANCH  12  13
ATOM     13  C   UNL     1      -5.895   1.485  -3.151  1.00  0.00    -0.000 C 
BRANCH  13  14
ATOM     14  C   UNL     1      -5.279   1.861  -1.792  1.00  0.00    -0.000 C 
BRANCH  14  15
ATOM     15  C   UNL     1      -6.058   2.985  -1.087  1.00  0.00    -0.000 C 
BRANCH  15  16
ATOM     16  C   UNL     1      -5.427   3.369   0.264  1.00  0.00    -0.000 C 
BRANCH  16  17
ATOM     17  C   UNL     1      -5.480   2.220   1.283  1.00  0.00    -0.003 C 
ATOM     18  C   UNL     1      -5.011   2.647   2.675  1.00  0.00     0.004 C 
ENDBRANCH  16  17
ENDBRANCH  15  16
ENDBRANCH  14  15
ENDBRANCH  13  14
ENDBRANCH  12  13
ENDBRANCH  11  12
ENDBRANCH   1  11
TORSDOF 14
ENDMDL
MODEL 7
REMARK VINA RESULT:    -3.070     14.831     17.609
REMARK INTER + INTRA:          -6.721
REMARK INTER:                  -5.064
REMARK INTRA:                  -1.656
REMARK UNBOUND:                -1.138
REMARK SMILES CCCCCCCCCCCCCCCC(=O)[O-]
REMARK SMILES IDX 9 1 10 2 11 3 12 4 13 5 14 6 15 7 16 8 17 9 18 10 8 11 7 12
REMARK SMILES IDX 6 13 5 14 4 15 3 16 2 17 1 18
REMARK H PARENT
REMARK Flexibility Score: inf
ROOT
ATOM      1  C   UNL     1       6.932   7.120  -2.997  1.00  0.00     0.000 C 
ENDROOT
BRANCH   1   2
ATOM      2  C   UNL     1       7.492   8.075  -1.928  1.00  0.00     0.000 C 
BRANCH   2   3
ATOM      3  C   UNL     1       8.171   9.342  -2.479  1.00  0.00     0.000 C 
BRANCH   3   4
ATOM      4  C   UNL     1       9.255   9.894  -1.539  1.00  0.00     0.000 C 
BRANCH   4   5
ATOM      5  C   UNL     1       9.273   9.123  -0.214  1.00  0.00     0.000 C 
BRANCH   5   6
ATOM      6  C   UNL     1       8.783  10.002   0.943  1.00  0.00     0.006 C 
BRANCH   6   7
ATOM      7  C   UNL     1       7.379   9.588   1.393  1.00  0.00     0.053 C 
BRANCH   7   8
ATOM      8  C   UNL     1       7.365   9.288   2.857  1.00  0.00     0.041 C 
ATOM      9  O   UNL     1       8.436   9.318   3.521  1.00  0.00    -0.550 OA
ATOM     10  O   UNL     1       6.163   9.012   3.499  1.00  0.00    -0.550 OA
ENDBRANCH   7   8
ENDBRANCH   6   7
ENDBRANCH   5   6
ENDBRANCH   4   5
ENDBRANCH   3   4
ENDBRANCH   2   3
ENDBRANCH   1   2
BRANCH   1  11
ATOM     11  C   UNL     1       5.396   7.047  -2.986  1.00  0.00     0.000 C 
BRANCH  11  12
ATOM     12  C   UNL     1       4.735   8.398  -2.661  1.00  0.00    -0.000 C 
BRANCH  12  13
ATOM     13  C   UNL     1       4.094   9.080  -3.888  1.00  0.00    -0.000 C 
BRANCH  13  14
ATOM     14  C   UNL     1       5.152   9.555  -4.899  1.00  0.00    -0.000 C 
BRANCH  14  15
ATOM     15  C   UNL     1       5.001   8.872  -6.269  1.00  0.00    -0.000 C 
BRANCH  15  16
ATOM     16  C   UNL     1       6.311   8.895  -7.077  1.00  0.00    -0.000 C 
BRANCH  16  17
ATOM     17  C   UNL     1       7.483   9.484  -6.275  1.00  0.00    -0.003 C 
ATOM     18  C   UNL     1       8.612   8.475  -6.057  1.00  0.00     0.004 C 
ENDBRANCH  16  17
ENDBRANCH  15  16
ENDBRANCH  14  15
ENDBRANCH  13  14
ENDBRANCH  12  13
ENDBRANCH  11  12
ENDBRANCH   1  11
TORSDOF 14
ENDMDL
MODEL 8
REMARK VINA RESULT:    -2.959     14.991     17.320
REMARK INTER + INTRA:          -6.518
REMARK INTER:                  -4.747
REMARK INTRA:                  -1.771
REMARK UNBOUND:                -1.138
REMARK SMILES CCCCCCCCCCCCCCCC(=O)[O-]
REMARK SMILES IDX 9 1 10 2 11 3 12 4 13 5 14 6 15 7 16 8 17 9 18 10 8 11 7 12
REMARK SMILES IDX 6 13 5 14 4 15 3 16 2 17 1 18
REMARK H PARENT
REMARK Flexibility Score: inf
ROOT
ATOM      1  C   UNL     1       5.366   7.109  -3.008  1.00  0.00     0.000 C 
ENDROOT
BRANCH   1   2
ATOM      2  C   UNL     1       6.862   7.397  -2.783  1.00  0.00     0.000 C 
BRANCH   2   3
ATOM      3  C   UNL     1       7.167   8.408  -1.663  1.00  0.00     0.000 C 
BRANCH   3   4
ATOM      4  C   UNL     1       8.407   9.267  -1.958  1.00  0.00     0.000 C 
BRANCH   4   5
ATOM      5  C   UNL     1       8.528   9.555  -3.459  1.00  0.00     0.000 C 
BRANCH   5   6
ATOM      6  C   UNL     1       9.979   9.413  -3.933  1.00  0.00     0.006 C 
BRANCH   6   7
ATOM      7  C   UNL     1      10.039   9.014  -5.410  1.00  0.00     0.053 C 
BRANCH   7   8
ATOM      8  C   UNL     1      10.110   7.527  -5.548  1.00  0.00     0.041 C 
ATOM      9  O   UNL     1      10.125   6.795  -4.523  1.00  0.00    -0.550 OA
ATOM     10  O   UNL     1      10.125   6.946  -6.811  1.00  0.00    -0.550 OA
ENDBRANCH   7   8
ENDBRANCH   6   7
ENDBRANCH   5   6
ENDBRANCH   4   5
ENDBRANCH   3   4
ENDBRANCH   2   3
ENDBRANCH   1   2
BRANCH   1  11
ATOM     11  C   UNL     1       4.484   8.355  -2.822  1.00  0.00     0.000 C 
BRANCH  11  12
ATOM     12  C   UNL     1       3.901   8.878  -4.147  1.00  0.00    -0.000 C 
BRANCH  12  13
ATOM     13  C   UNL     1       4.862   9.810  -4.916  1.00  0.00    -0.000 C 
BRANCH  13  14
ATOM     14  C   UNL     1       4.463   9.952  -6.395  1.00  0.00    -0.000 C 
BRANCH  14  15
ATOM     15  C   UNL     1       5.187   8.937  -7.297  1.00  0.00    -0.000 C 
BRANCH  15  16
ATOM     16  C   UNL     1       6.677   8.800  -6.938  1.00  0.00    -0.000 C 
BRANCH  16  17
ATOM     17  C   UNL     1       7.594   9.011  -8.154  1.00  0.00    -0.003 C 
ATOM     18  C   UNL     1       6.823   9.443  -9.402  1.00  0.00     0.004 C 
ENDBRANCH  16  17
ENDBRANCH  15  16
ENDBRANCH  14  15
ENDBRANCH  13  14
ENDBRANCH  12  13
ENDBRANCH  11  12
ENDBRANCH   1  11
TORSDOF 14
ENDMDL
MODEL 9
REMARK VINA RESULT:    -2.953     14.755     16.551
REMARK INTER + INTRA:          -6.508
REMARK INTER:                  -4.719
REMARK INTRA:                  -1.789
REMARK UNBOUND:                -1.138
REMARK SMILES CCCCCCCCCCCCCCCC(=O)[O-]
REMARK SMILES IDX 9 1 10 2 11 3 12 4 13 5 14 6 15 7 16 8 17 9 18 10 8 11 7 12
REMARK SMILES IDX 6 13 5 14 4 15 3 16 2 17 1 18
REMARK H PARENT
REMARK Flexibility Score: inf
ROOT
ATOM      1  C   UNL     1       5.629   8.111  -2.360  1.00  0.00     0.000 C 
ENDROOT
BRANCH   1   2
ATOM      2  C   UNL     1       4.863   7.912  -3.680  1.00  0.00     0.000 C 
BRANCH   2   3
ATOM      3  C   UNL     1       4.424   9.212  -4.378  1.00  0.00     0.000 C 
BRANCH   3   4
ATOM      4  C   UNL     1       4.390   9.083  -5.909  1.00  0.00     0.000 C 
BRANCH   4   5
ATOM      5  C   UNL     1       5.689   9.610  -6.531  1.00  0.00     0.000 C 
BRANCH   5   6
ATOM      6  C   UNL     1       6.122   8.746  -7.721  1.00  0.00     0.006 C 
BRANCH   6   7
ATOM      7  C   UNL     1       7.405   9.290  -8.357  1.00  0.00     0.053 C 
BRANCH   7   8
ATOM      8  C   UNL     1       8.325   8.169  -8.721  1.00  0.00     0.041 C 
ATOM      9  O   UNL     1       9.148   7.726  -7.876  1.00  0.00    -0.550 OA
ATOM     10  O   UNL     1       8.250   7.589  -9.981  1.00  0.00    -0.550 OA
ENDBRANCH   7   8
ENDBRANCH   6   7
ENDBRANCH   5   6
ENDBRANCH   4   5
ENDBRANCH   3   4
ENDBRANCH   2   3
ENDBRANCH   1   2
BRANCH   1  11
ATOM     11  C   UNL     1       5.820   9.593  -1.998  1.00  0.00     0.000 C 
BRANCH  11  12
ATOM     12  C   UNL     1       7.252   9.916  -1.536  1.00  0.00    -0.000 C 
BRANCH  12  13
ATOM     13  C   UNL     1       7.911   8.775  -0.732  1.00  0.00    -0.000 C 
BRANCH  13  14
ATOM     14  C   UNL     1       9.445   8.887  -0.727  1.00  0.00    -0.000 C 
BRANCH  14  15
ATOM     15  C   UNL     1      10.123   7.684  -1.404  1.00  0.00    -0.000 C 
BRANCH  15  16
ATOM     16  C   UNL     1       9.227   7.040  -2.477  1.00  0.00    -0.000 C 
BRANCH  16  17
ATOM     17  C   UNL     1       9.621   7.466  -3.901  1.00  0.00    -0.003 C 
ATOM     18  C   UNL     1       8.510   8.240  -4.612  1.00  0.00     0.004 C 
ENDBRANCH  16  17
ENDBRANCH  15  16
ENDBRANCH  14  15
ENDBRANCH  13  14
ENDBRANCH  12  13
ENDBRANCH  11  12
ENDBRANCH   1  11
TORSDOF 14
ENDMDL
