MODEL 1
REMARK VINA RESULT:    -3.565      0.000      0.000
REMARK INTER + INTRA:          -5.569
REMARK INTER:                  -5.232
REMARK INTRA:                  -0.337
REMARK UNBOUND:                -0.337
REMARK SMILES O=C([O-])CCCCCCCC(=O)[O-]
REMARK SMILES IDX 7 1 6 2 5 3 4 4 2 5 1 6 3 7 8 8 9 9 10 10 11 11 12 12 13 13
REMARK H PARENT
REMARK Flexibility Score: inf
ROOT
ATOM      1  C   UNL     1      58.247  35.740  52.133  1.00  0.00     0.000 C 
ENDROOT
BRANCH   1   2
ATOM      2  C   UNL     1      58.609  35.859  50.644  1.00  0.00     0.000 C 
BRANCH   2   3
ATOM      3  C   UNL     1      59.878  35.073  50.279  1.00  0.00     0.006 C 
BRANCH   3   4
ATOM      4  C   UNL     1      60.229  35.258  48.800  1.00  0.00     0.053 C 
BRANCH   4   5
ATOM      5  C   UNL     1      60.846  36.603  48.573  1.00  0.00     0.041 C 
ATOM      6  O   UNL     1      62.027  36.830  48.948  1.00  0.00    -0.550 OA
ATOM      7  O   UNL     1      60.134  37.591  47.905  1.00  0.00    -0.550 OA
ENDBRANCH   4   5
ENDBRANCH   3   4
ENDBRANCH   2   3
ENDBRANCH   1   2
BRANCH   1   8
ATOM      8  C   UNL     1      57.138  36.717  52.552  1.00  0.00     0.000 C 
BRANCH   8   9
ATOM      9  C   UNL     1      57.525  37.470  53.831  1.00  0.00     0.006 C 
BRANCH   9  10
ATOM     10  C   UNL     1      58.649  36.745  54.577  1.00  0.00     0.053 C 
BRANCH  10  11
ATOM     11  C   UNL     1      59.296  37.662  55.567  1.00  0.00     0.041 C 
ATOM     12  O   UNL     1      58.589  38.355  56.344  1.00  0.00    -0.550 OA
ATOM     13  O   UNL     1      60.681  37.713  55.666  1.00  0.00    -0.550 OA
ENDBRANCH  10  11
ENDBRANCH   9  10
ENDBRANCH   8   9
ENDBRANCH   1   8
TORSDOF 8
ENDMDL
MODEL 2
REMARK VINA RESULT:    -3.377     11.753     14.093
REMARK INTER + INTRA:          -5.294
REMARK INTER:                  -4.925
REMARK INTRA:                  -0.369
REMARK UNBOUND:                -0.337
REMARK SMILES O=C([O-])CCCCCCCC(=O)[O-]
REMARK SMILES IDX 7 1 6 2 5 3 4 4 2 5 1 6 3 7 8 8 9 9 10 10 11 11 12 12 13 13
REMARK H PARENT
REMARK Flexibility Score: inf
ROOT
ATOM      1  C   UNL     1      66.138  46.582  58.261  1.00  0.00     0.000 C 
ENDROOT
BRANCH   1   2
ATOM      2  C   UNL     1      65.581  48.004  58.088  1.00  0.00     0.000 C 
BRANCH   2   3
ATOM      3  C   UNL     1      66.651  49.088  58.292  1.00  0.00     0.006 C 
BRANCH   3   4
ATOM      4  C   UNL     1      68.059  48.496  58.176  1.00  0.00     0.053 C 
BRANCH   4   5
ATOM      5  C   UNL     1      68.786  49.098  57.015  1.00  0.00     0.041 C 
ATOM      6  O   UNL     1      68.193  49.895  56.239  1.00  0.00    -0.550 OA
ATOM      7  O   UNL     1      70.131  48.817  56.815  1.00  0.00    -0.550 OA
ENDBRANCH   4   5
ENDBRANCH   3   4
ENDBRANCH   2   3
ENDBRANCH   1   2
BRANCH   1   8
ATOM      8  C   UNL     1      65.137  45.498  57.835  1.00  0.00     0.000 C 
BRANCH   8   9
ATOM      9  C   UNL     1      65.760  44.548  56.806  1.00  0.00     0.006 C 
BRANCH   9  10
ATOM     10  C   UNL     1      65.428  43.089  57.133  1.00  0.00     0.053 C 
BRANCH  10  11
ATOM     11  C   UNL     1      66.646  42.373  57.626  1.00  0.00     0.041 C 
ATOM     12  O   UNL     1      67.349  42.875  58.542  1.00  0.00    -0.550 OA
ATOM     13  O   UNL     1      66.978  41.127  57.109  1.00  0.00    -0.550 OA
ENDBRANCH  10  11
ENDBRANCH   9  10
ENDBRANCH   8   9
ENDBRANCH   1   8
TORSDOF 8
ENDMDL
MODEL 3
REMARK VINA RESULT:    -3.336     16.947     17.975
REMARK INTER + INTRA:          -5.233
REMARK INTER:                  -4.795
REMARK INTRA:                  -0.439
REMARK UNBOUND:                -0.337
REMARK SMILES O=C([O-])CCCCCCCC(=O)[O-]
REMARK SMILES IDX 7 1 6 2 5 3 4 4 2 5 1 6 3 7 8 8 9 9 10 10 11 11 12 12 13 13
REMARK H PARENT
REMARK Flexibility Score: inf
ROOT
ATOM      1  C   UNL     1      71.216  51.391  52.913  1.00  0.00     0.000 C 
ENDROOT
BRANCH   1   2
ATOM      2  C   UNL     1      70.745  52.820  52.599  1.00  0.00     0.000 C 
BRANCH   2   3
ATOM      3  C   UNL     1      70.538  53.058  51.095  1.00  0.00     0.006 C 
BRANCH   3   4
ATOM      4  C   UNL     1      70.316  51.735  50.357  1.00  0.00     0.053 C 
BRANCH   4   5
ATOM      5  C   UNL     1      68.853  51.461  50.202  1.00  0.00     0.041 C 
ATOM      6  O   UNL     1      68.369  50.365  50.590  1.00  0.00    -0.550 OA
ATOM      7  O   UNL     1      68.015  52.435  49.674  1.00  0.00    -0.550 OA
ENDBRANCH   4   5
ENDBRANCH   3   4
ENDBRANCH   2   3
ENDBRANCH   1   2
BRANCH   1   8
ATOM      8  C   UNL     1      71.317  51.119  54.422  1.00  0.00     0.000 C 
BRANCH   8   9
ATOM      9  C   UNL     1      70.052  51.590  55.150  1.00  0.00     0.006 C 
BRANCH   9  10
ATOM     10  C   UNL     1      68.879  50.644  54.882  1.00  0.00     0.053 C 
BRANCH  10  11
ATOM     11  C   UNL     1      68.470  49.946  56.141  1.00  0.00     0.041 C 
ATOM     12  O   UNL     1      69.054  48.890  56.498  1.00  0.00    -0.550 OA
ATOM     13  O   UNL     1      67.478  50.491  56.947  1.00  0.00    -0.550 OA
ENDBRANCH  10  11
ENDBRANCH   9  10
ENDBRANCH   8   9
ENDBRANCH   1   8
TORSDOF 8
ENDMDL
MODEL 4
REMARK VINA RESULT:    -3.320     17.511     18.455
REMARK INTER + INTRA:          -5.209
REMARK INTER:                  -4.644
REMARK INTRA:                  -0.565
REMARK UNBOUND:                -0.337
REMARK SMILES O=C([O-])CCCCCCCC(=O)[O-]
REMARK SMILES IDX 7 1 6 2 5 3 4 4 2 5 1 6 3 7 8 8 9 9 10 10 11 11 12 12 13 13
REMARK H PARENT
REMARK Flexibility Score: inf
ROOT
ATOM      1  C   UNL     1      70.673  51.481  51.421  1.00  0.00     0.000 C 
ENDROOT
BRANCH   1   2
ATOM      2  C   UNL     1      69.227  50.962  51.453  1.00  0.00     0.000 C 
BRANCH   2   3
ATOM      3  C   UNL     1      68.500  51.149  50.112  1.00  0.00     0.006 C 
BRANCH   3   4
ATOM      4  C   UNL     1      69.038  52.372  49.365  1.00  0.00     0.053 C 
BRANCH   4   5
ATOM      5  C   UNL     1      68.148  53.555  49.587  1.00  0.00     0.041 C 
ATOM      6  O   UNL     1      68.416  54.389  50.491  1.00  0.00    -0.550 OA
ATOM      7  O   UNL     1      67.048  53.762  48.763  1.00  0.00    -0.550 OA
ENDBRANCH   4   5
ENDBRANCH   3   4
ENDBRANCH   2   3
ENDBRANCH   1   2
BRANCH   1   8
ATOM      8  C   UNL     1      71.293  51.591  52.822  1.00  0.00     0.000 C 
BRANCH   8   9
ATOM      9  C   UNL     1      70.455  52.506  53.722  1.00  0.00     0.006 C 
BRANCH   9  10
ATOM     10  C   UNL     1      70.562  52.081  55.190  1.00  0.00     0.053 C 
BRANCH  10  11
ATOM     11  C   UNL     1      69.833  50.794  55.417  1.00  0.00     0.041 C 
ATOM     12  O   UNL     1      70.345  49.893  56.132  1.00  0.00    -0.550 OA
ATOM     13  O   UNL     1      68.565  50.609  54.879  1.00  0.00    -0.550 OA
ENDBRANCH  10  11
ENDBRANCH   9  10
ENDBRANCH   8   9
ENDBRANCH   1   8
TORSDOF 8
ENDMDL
MODEL 5
REMARK VINA RESULT:    -3.285     16.691     18.524
REMARK INTER + INTRA:          -5.158
REMARK INTER:                  -4.594
REMARK INTRA:                  -0.564
REMARK UNBOUND:                -0.337
REMARK SMILES O=C([O-])CCCCCCCC(=O)[O-]
REMARK SMILES IDX 7 1 6 2 5 3 4 4 2 5 1 6 3 7 8 8 9 9 10 10 11 11 12 12 13 13
REMARK H PARENT
REMARK Flexibility Score: inf
ROOT
ATOM      1  C   UNL     1      70.263  52.786  54.062  1.00  0.00     0.000 C 
ENDROOT
BRANCH   1   2
ATOM      2  C   UNL     1      70.189  51.287  54.395  1.00  0.00     0.000 C 
BRANCH   2   3
ATOM      3  C   UNL     1      68.756  50.816  54.690  1.00  0.00     0.006 C 
BRANCH   3   4
ATOM      4  C   UNL     1      68.523  50.688  56.198  1.00  0.00     0.053 C 
BRANCH   4   5
ATOM      5  C   UNL     1      68.796  49.289  56.654  1.00  0.00     0.041 C 
ATOM      6  O   UNL     1      67.887  48.418  56.609  1.00  0.00    -0.550 OA
ATOM      7  O   UNL     1      70.069  48.933  57.083  1.00  0.00    -0.550 OA
ENDBRANCH   4   5
ENDBRANCH   3   4
ENDBRANCH   2   3
ENDBRANCH   1   2
BRANCH   1   8
ATOM      8  C   UNL     1      70.452  53.050  52.561  1.00  0.00     0.000 C 
BRANCH   8   9
ATOM      9  C   UNL     1      71.046  51.823  51.859  1.00  0.00     0.006 C 
BRANCH   9  10
ATOM     10  C   UNL     1      70.506  51.692  50.431  1.00  0.00     0.053 C 
BRANCH  10  11
ATOM     11  C   UNL     1      69.044  51.372  50.451  1.00  0.00     0.041 C 
ATOM     12  O   UNL     1      68.619  50.396  51.124  1.00  0.00    -0.550 OA
ATOM     13  O   UNL     1      68.146  52.181  49.767  1.00  0.00    -0.550 OA
ENDBRANCH  10  11
ENDBRANCH   9  10
ENDBRANCH   8   9
ENDBRANCH   1   8
TORSDOF 8
ENDMDL
MODEL 6
REMARK VINA RESULT:    -3.284     10.477     12.894
REMARK INTER + INTRA:          -5.156
REMARK INTER:                  -4.760
REMARK INTRA:                  -0.397
REMARK UNBOUND:                -0.337
REMARK SMILES O=C([O-])CCCCCCCC(=O)[O-]
REMARK SMILES IDX 7 1 6 2 5 3 4 4 2 5 1 6 3 7 8 8 9 9 10 10 11 11 12 12 13 13
REMARK H PARENT
REMARK Flexibility Score: inf
ROOT
ATOM      1  C   UNL     1      65.031  44.520  58.149  1.00  0.00     0.000 C 
ENDROOT
BRANCH   1   2
ATOM      2  C   UNL     1      65.684  43.911  56.897  1.00  0.00     0.000 C 
BRANCH   2   3
ATOM      3  C   UNL     1      66.565  42.694  57.222  1.00  0.00     0.006 C 
BRANCH   3   4
ATOM      4  C   UNL     1      66.101  42.012  58.512  1.00  0.00     0.053 C 
BRANCH   4   5
ATOM      5  C   UNL     1      65.462  40.694  58.206  1.00  0.00     0.041 C 
ATOM      6  O   UNL     1      66.165  39.652  58.124  1.00  0.00    -0.550 OA
ATOM      7  O   UNL     1      64.083  40.608  58.059  1.00  0.00    -0.550 OA
ENDBRANCH   4   5
ENDBRANCH   3   4
ENDBRANCH   2   3
ENDBRANCH   1   2
BRANCH   1   8
ATOM      8  C   UNL     1      65.801  45.736  58.686  1.00  0.00     0.000 C 
BRANCH   8   9
ATOM      9  C   UNL     1      66.009  46.784  57.585  1.00  0.00     0.006 C 
BRANCH   9  10
ATOM     10  C   UNL     1      65.752  48.197  58.117  1.00  0.00     0.053 C 
BRANCH  10  11
ATOM     11  C   UNL     1      67.012  49.005  58.084  1.00  0.00     0.041 C 
ATOM     12  O   UNL     1      68.054  48.576  58.648  1.00  0.00    -0.550 OA
ATOM     13  O   UNL     1      67.049  50.208  57.390  1.00  0.00    -0.550 OA
ENDBRANCH  10  11
ENDBRANCH   9  10
ENDBRANCH   8   9
ENDBRANCH   1   8
TORSDOF 8
ENDMDL
MODEL 7
REMARK VINA RESULT:    -3.282     10.426     13.086
REMARK INTER + INTRA:          -5.153
REMARK INTER:                  -4.742
REMARK INTRA:                  -0.411
REMARK UNBOUND:                -0.337
REMARK SMILES O=C([O-])CCCCCCCC(=O)[O-]
REMARK SMILES IDX 7 1 6 2 5 3 4 4 2 5 1 6 3 7 8 8 9 9 10 10 11 11 12 12 13 13
REMARK H PARENT
REMARK Flexibility Score: inf
ROOT
ATOM      1  C   UNL     1      64.907  44.353  58.425  1.00  0.00     0.000 C 
ENDROOT
BRANCH   1   2
ATOM      2  C   UNL     1      64.952  45.817  58.893  1.00  0.00     0.000 C 
BRANCH   2   3
ATOM      3  C   UNL     1      66.197  46.562  58.388  1.00  0.00     0.006 C 
BRANCH   3   4
ATOM      4  C   UNL     1      65.879  48.033  58.109  1.00  0.00     0.053 C 
BRANCH   4   5
ATOM      5  C   UNL     1      67.141  48.816  57.921  1.00  0.00     0.041 C 
ATOM      6  O   UNL     1      67.564  49.566  58.840  1.00  0.00    -0.550 OA
ATOM      7  O   UNL     1      67.876  48.681  56.750  1.00  0.00    -0.550 OA
ENDBRANCH   4   5
ENDBRANCH   3   4
ENDBRANCH   2   3
ENDBRANCH   1   2
BRANCH   1   8
ATOM      8  C   UNL     1      65.643  44.134  57.095  1.00  0.00     0.000 C 
BRANCH   8   9
ATOM      9  C   UNL     1      66.381  42.790  57.091  1.00  0.00     0.006 C 
BRANCH   9  10
ATOM     10  C   UNL     1      66.248  42.086  58.445  1.00  0.00     0.053 C 
BRANCH  10  11
ATOM     11  C   UNL     1      65.543  40.776  58.287  1.00  0.00     0.041 C 
ATOM     12  O   UNL     1      66.164  39.696  58.471  1.00  0.00    -0.550 OA
ATOM     13  O   UNL     1      64.187  40.747  57.984  1.00  0.00    -0.550 OA
ENDBRANCH  10  11
ENDBRANCH   9  10
ENDBRANCH   8   9
ENDBRANCH   1   8
TORSDOF 8
ENDMDL
MODEL 8
REMARK VINA RESULT:    -3.266     11.850     14.145
REMARK INTER + INTRA:          -5.131
REMARK INTER:                  -4.789
REMARK INTRA:                  -0.341
REMARK UNBOUND:                -0.337
REMARK SMILES O=C([O-])CCCCCCCC(=O)[O-]
REMARK SMILES IDX 7 1 6 2 5 3 4 4 2 5 1 6 3 7 8 8 9 9 10 10 11 11 12 12 13 13
REMARK H PARENT
REMARK Flexibility Score: inf
ROOT
ATOM      1  C   UNL     1      66.045  47.039  57.660  1.00  0.00     0.000 C 
ENDROOT
BRANCH   1   2
ATOM      2  C   UNL     1      65.687  45.894  58.621  1.00  0.00     0.000 C 
BRANCH   2   3
ATOM      3  C   UNL     1      64.898  44.769  57.933  1.00  0.00     0.006 C 
BRANCH   3   4
ATOM      4  C   UNL     1      65.794  43.978  56.975  1.00  0.00     0.053 C 
BRANCH   4   5
ATOM      5  C   UNL     1      65.897  42.551  57.414  1.00  0.00     0.041 C 
ATOM      6  O   UNL     1      66.897  41.858  57.087  1.00  0.00    -0.550 OA
ATOM      7  O   UNL     1      64.913  41.999  58.223  1.00  0.00    -0.550 OA
ENDBRANCH   4   5
ENDBRANCH   3   4
ENDBRANCH   2   3
ENDBRANCH   1   2
BRANCH   1   8
ATOM      8  C   UNL     1      65.732  48.423  58.248  1.00  0.00     0.000 C 
BRANCH   8   9
ATOM      9  C   UNL     1      66.879  49.406  57.979  1.00  0.00     0.006 C 
BRANCH   9  10
ATOM     10  C   UNL     1      68.236  48.700  58.057  1.00  0.00     0.053 C 
BRANCH  10  11
ATOM     11  C   UNL     1      69.086  49.071  56.882  1.00  0.00     0.041 C 
ATOM     12  O   UNL     1      68.585  49.691  55.907  1.00  0.00    -0.550 OA
ATOM     13  O   UNL     1      70.444  48.776  56.885  1.00  0.00    -0.550 OA
ENDBRANCH  10  11
ENDBRANCH   9  10
ENDBRANCH   8   9
ENDBRANCH   1   8
TORSDOF 8
ENDMDL
MODEL 9
REMARK VINA RESULT:    -3.265     18.637     19.510
REMARK INTER + INTRA:          -5.129
REMARK INTER:                  -4.394
REMARK INTRA:                  -0.735
REMARK UNBOUND:                -0.337
REMARK SMILES O=C([O-])CCCCCCCC(=O)[O-]
REMARK SMILES IDX 7 1 6 2 5 3 4 4 2 5 1 6 3 7 8 8 9 9 10 10 11 11 12 12 13 13
REMARK H PARENT
REMARK Flexibility Score: inf
ROOT
ATOM      1  C   UNL     1      68.476  50.687  50.634  1.00  0.00     0.000 C 
ENDROOT
BRANCH   1   2
ATOM      2  C   UNL     1      69.047  51.801  49.742  1.00  0.00     0.000 C 
BRANCH   2   3
ATOM      3  C   UNL     1      68.028  52.917  49.462  1.00  0.00     0.006 C 
BRANCH   3   4
ATOM      4  C   UNL     1      68.722  54.279  49.366  1.00  0.00     0.053 C 
BRANCH   4   5
ATOM      5  C   UNL     1      69.637  54.317  48.182  1.00  0.00     0.041 C 
ATOM      6  O   UNL     1      70.856  54.595  48.332  1.00  0.00    -0.550 OA
ATOM      7  O   UNL     1      69.154  54.000  46.919  1.00  0.00    -0.550 OA
ENDBRANCH   4   5
ENDBRANCH   3   4
ENDBRANCH   2   3
ENDBRANCH   1   2
BRANCH   1   8
ATOM      8  C   UNL     1      69.080  50.692  52.046  1.00  0.00     0.000 C 
BRANCH   8   9
ATOM      9  C   UNL     1      70.403  51.466  52.074  1.00  0.00     0.006 C 
BRANCH   9  10
ATOM     10  C   UNL     1      70.393  52.530  53.176  1.00  0.00     0.053 C 
BRANCH  10  11
ATOM     11  C   UNL     1      70.458  53.902  52.580  1.00  0.00     0.041 C 
ATOM     12  O   UNL     1      69.686  54.808  52.991  1.00  0.00    -0.550 OA
ATOM     13  O   UNL     1      71.405  54.193  51.606  1.00  0.00    -0.550 OA
ENDBRANCH  10  11
ENDBRANCH   9  10
ENDBRANCH   8   9
ENDBRANCH   1   8
TORSDOF 8
ENDMDL
