MODEL 1
REMARK VINA RESULT:    -6.646      0.000      0.000
REMARK INTER + INTRA:          -7.273
REMARK INTER:                  -7.034
REMARK INTRA:                  -0.239
REMARK UNBOUND:                -0.239
REMARK SMILES O=c1cc(-c2ccccc2)oc2ccccc12
REMARK SMILES IDX 4 1 3 2 2 3 1 4 17 5 16 6 15 7 14 8 13 9 12 10 11 11 5 12
REMARK SMILES IDX 8 13 7 14 9 15 6 16 10 17
REMARK H PARENT
REMARK Flexibility Score: inf
ROOT
ATOM      1  C   UNL     1      23.674 -32.576  -8.116  1.00  0.00     0.138 A 
ATOM      2  C   UNL     1      22.728 -32.994  -7.156  1.00  0.00     0.100 A 
ATOM      3  C   UNL     1      21.439 -32.458  -7.181  1.00  0.00     0.193 A 
ATOM      4  O   UNL     1      20.593 -32.830  -6.323  1.00  0.00    -0.289 OA
ATOM      5  C   UNL     1      21.104 -31.513  -8.161  1.00  0.00     0.065 A 
ATOM      6  C   UNL     1      19.824 -30.934  -8.242  1.00  0.00     0.016 A 
ATOM      7  C   UNL     1      19.543 -29.995  -9.240  1.00  0.00     0.001 A 
ATOM      8  C   UNL     1      20.530 -29.628 -10.159  1.00  0.00     0.004 A 
ATOM      9  C   UNL     1      21.803 -30.199 -10.085  1.00  0.00     0.048 A 
ATOM     10  C   UNL     1      22.096 -31.139  -9.091  1.00  0.00     0.138 A 
ATOM     11  O   UNL     1      23.311 -31.675  -9.029  1.00  0.00    -0.456 OA
ENDROOT
BRANCH   1  12
ATOM     12  C   UNL     1      25.074 -33.101  -8.160  1.00  0.00     0.017 A 
ATOM     13  C   UNL     1      27.750 -33.997  -8.237  1.00  0.00     0.000 A 
ATOM     14  C   UNL     1      26.703 -34.918  -8.256  1.00  0.00     0.001 A 
ATOM     15  C   UNL     1      27.472 -32.632  -8.179  1.00  0.00     0.001 A 
ATOM     16  C   UNL     1      25.376 -34.481  -8.218  1.00  0.00     0.012 A 
ATOM     17  C   UNL     1      26.148 -32.185  -8.140  1.00  0.00     0.012 A 
ENDBRANCH   1  12
TORSDOF 1
ENDMDL
MODEL 2
REMARK VINA RESULT:    -6.321      1.647      6.413
REMARK INTER + INTRA:          -6.929
REMARK INTER:                  -6.700
REMARK INTRA:                  -0.229
REMARK UNBOUND:                -0.239
REMARK SMILES O=c1cc(-c2ccccc2)oc2ccccc12
REMARK SMILES IDX 4 1 3 2 2 3 1 4 17 5 16 6 15 7 14 8 13 9 12 10 11 11 5 12
REMARK SMILES IDX 8 13 7 14 9 15 6 16 10 17
REMARK H PARENT
REMARK Flexibility Score: inf
ROOT
ATOM      1  C   UNL     1      22.995 -30.693  -9.736  1.00  0.00     0.138 A 
ATOM      2  C   UNL     1      24.055 -29.810 -10.033  1.00  0.00     0.100 A 
ATOM      3  C   UNL     1      25.358 -30.151  -9.665  1.00  0.00     0.193 A 
ATOM      4  O   UNL     1      26.306 -29.361  -9.930  1.00  0.00    -0.289 OA
ATOM      5  C   UNL     1      25.594 -31.365  -9.006  1.00  0.00     0.065 A 
ATOM      6  C   UNL     1      26.882 -31.768  -8.607  1.00  0.00     0.016 A 
ATOM      7  C   UNL     1      27.061 -32.990  -7.952  1.00  0.00     0.001 A 
ATOM      8  C   UNL     1      25.963 -33.816  -7.691  1.00  0.00     0.004 A 
ATOM      9  C   UNL     1      24.681 -33.423  -8.083  1.00  0.00     0.048 A 
ATOM     10  C   UNL     1      24.490 -32.201  -8.739  1.00  0.00     0.138 A 
ATOM     11  O   UNL     1      23.266 -31.837  -9.108  1.00  0.00    -0.456 OA
ENDROOT
BRANCH   1  12
ATOM     12  C   UNL     1      21.572 -30.405 -10.096  1.00  0.00     0.017 A 
ATOM     13  C   UNL     1      18.910 -29.873 -10.872  1.00  0.00     0.000 A 
ATOM     14  C   UNL     1      19.253 -29.898  -9.520  1.00  0.00     0.001 A 
ATOM     15  C   UNL     1      19.885 -30.111 -11.840  1.00  0.00     0.001 A 
ATOM     16  C   UNL     1      20.569 -30.162  -9.130  1.00  0.00     0.012 A 
ATOM     17  C   UNL     1      21.204 -30.375 -11.459  1.00  0.00     0.012 A 
ENDBRANCH   1  12
TORSDOF 1
ENDMDL
MODEL 3
REMARK VINA RESULT:    -6.281      2.377      3.834
REMARK INTER + INTRA:          -6.886
REMARK INTER:                  -6.620
REMARK INTRA:                  -0.266
REMARK UNBOUND:                -0.239
REMARK SMILES O=c1cc(-c2ccccc2)oc2ccccc12
REMARK SMILES IDX 4 1 3 2 2 3 1 4 17 5 16 6 15 7 14 8 13 9 12 10 11 11 5 12
REMARK SMILES IDX 8 13 7 14 9 15 6 16 10 17
REMARK H PARENT
REMARK Flexibility Score: inf
ROOT
ATOM      1  C   UNL     1      23.600 -33.819  -7.571  1.00  0.00     0.138 A 
ATOM      2  C   UNL     1      22.674 -32.775  -7.365  1.00  0.00     0.100 A 
ATOM      3  C   UNL     1      21.333 -33.081  -7.125  1.00  0.00     0.193 A 
ATOM      4  O   UNL     1      20.505 -32.147  -6.942  1.00  0.00    -0.289 OA
ATOM      5  C   UNL     1      20.927 -34.422  -7.092  1.00  0.00     0.065 A 
ATOM      6  C   UNL     1      19.592 -34.799  -6.856  1.00  0.00     0.016 A 
ATOM      7  C   UNL     1      19.240 -36.152  -6.833  1.00  0.00     0.001 A 
ATOM      8  C   UNL     1      20.212 -37.135  -7.045  1.00  0.00     0.004 A 
ATOM      9  C   UNL     1      21.540 -36.769  -7.280  1.00  0.00     0.048 A 
ATOM     10  C   UNL     1      21.903 -35.417  -7.305  1.00  0.00     0.138 A 
ATOM     11  O   UNL     1      23.169 -35.080  -7.530  1.00  0.00    -0.456 OA
ENDROOT
BRANCH   1  12
ATOM     12  C   UNL     1      25.053 -33.578  -7.833  1.00  0.00     0.017 A 
ATOM     13  C   UNL     1      27.809 -33.223  -8.327  1.00  0.00     0.000 A 
ATOM     14  C   UNL     1      26.968 -32.114  -8.225  1.00  0.00     0.001 A 
ATOM     15  C   UNL     1      27.285 -34.506  -8.185  1.00  0.00     0.001 A 
ATOM     16  C   UNL     1      25.602 -32.284  -7.980  1.00  0.00     0.012 A 
ATOM     17  C   UNL     1      25.921 -34.686  -7.941  1.00  0.00     0.012 A 
ENDBRANCH   1  12
TORSDOF 1
ENDMDL
MODEL 4
REMARK VINA RESULT:    -6.258      4.844      7.477
REMARK INTER + INTRA:          -6.862
REMARK INTER:                  -6.620
REMARK INTRA:                  -0.242
REMARK UNBOUND:                -0.239
REMARK SMILES O=c1cc(-c2ccccc2)oc2ccccc12
REMARK SMILES IDX 4 1 3 2 2 3 1 4 17 5 16 6 15 7 14 8 13 9 12 10 11 11 5 12
REMARK SMILES IDX 8 13 7 14 9 15 6 16 10 17
REMARK H PARENT
REMARK Flexibility Score: inf
ROOT
ATOM      1  C   UNL     1      20.895 -36.817  -7.505  1.00  0.00     0.138 A 
ATOM      2  C   UNL     1      21.647 -35.688  -7.116  1.00  0.00     0.100 A 
ATOM      3  C   UNL     1      22.753 -35.301  -7.877  1.00  0.00     0.193 A 
ATOM      4  O   UNL     1      23.425 -34.292  -7.529  1.00  0.00    -0.289 OA
ATOM      5  C   UNL     1      23.098 -36.041  -9.016  1.00  0.00     0.065 A 
ATOM      6  C   UNL     1      24.199 -35.706  -9.826  1.00  0.00     0.016 A 
ATOM      7  C   UNL     1      24.500 -36.478 -10.952  1.00  0.00     0.001 A 
ATOM      8  C   UNL     1      23.710 -37.584 -11.278  1.00  0.00     0.004 A 
ATOM      9  C   UNL     1      22.615 -37.924 -10.479  1.00  0.00     0.048 A 
ATOM     10  C   UNL     1      22.305 -37.158  -9.349  1.00  0.00     0.138 A 
ATOM     11  O   UNL     1      21.261 -37.490  -8.596  1.00  0.00    -0.456 OA
ENDROOT
BRANCH   1  12
ATOM     12  C   UNL     1      19.698 -37.297  -6.747  1.00  0.00     0.017 A 
ATOM     13  C   UNL     1      17.479 -38.295  -5.317  1.00  0.00     0.000 A 
ATOM     14  C   UNL     1      17.548 -36.941  -5.645  1.00  0.00     0.001 A 
ATOM     15  C   UNL     1      18.508 -39.155  -5.698  1.00  0.00     0.001 A 
ATOM     16  C   UNL     1      18.645 -36.441  -6.353  1.00  0.00     0.012 A 
ATOM     17  C   UNL     1      19.609 -38.663  -6.405  1.00  0.00     0.012 A 
ENDBRANCH   1  12
TORSDOF 1
ENDMDL
MODEL 5
REMARK VINA RESULT:    -6.225      1.441      2.215
REMARK INTER + INTRA:          -6.827
REMARK INTER:                  -6.607
REMARK INTRA:                  -0.220
REMARK UNBOUND:                -0.239
REMARK SMILES O=c1cc(-c2ccccc2)oc2ccccc12
REMARK SMILES IDX 4 1 3 2 2 3 1 4 17 5 16 6 15 7 14 8 13 9 12 10 11 11 5 12
REMARK SMILES IDX 8 13 7 14 9 15 6 16 10 17
REMARK H PARENT
REMARK Flexibility Score: inf
ROOT
ATOM      1  C   UNL     1      22.965 -32.037  -9.066  1.00  0.00     0.138 A 
ATOM      2  C   UNL     1      21.994 -31.608  -8.136  1.00  0.00     0.100 A 
ATOM      3  C   UNL     1      20.907 -30.849  -8.576  1.00  0.00     0.193 A 
ATOM      4  O   UNL     1      20.039 -30.466  -7.745  1.00  0.00    -0.289 OA
ATOM      5  C   UNL     1      20.798 -30.524  -9.936  1.00  0.00     0.065 A 
ATOM      6  C   UNL     1      19.729 -29.763 -10.444  1.00  0.00     0.016 A 
ATOM      7  C   UNL     1      19.668 -29.467 -11.809  1.00  0.00     0.001 A 
ATOM      8  C   UNL     1      20.667 -29.925 -12.674  1.00  0.00     0.004 A 
ATOM      9  C   UNL     1      21.732 -30.682 -12.176  1.00  0.00     0.048 A 
ATOM     10  C   UNL     1      21.803 -30.984 -10.811  1.00  0.00     0.138 A 
ATOM     11  O   UNL     1      22.820 -31.704 -10.349  1.00  0.00    -0.456 OA
ENDROOT
BRANCH   1  12
ATOM     12  C   UNL     1      24.157 -32.853  -8.679  1.00  0.00     0.017 A 
ATOM     13  C   UNL     1      26.355 -34.475  -7.968  1.00  0.00     0.000 A 
ATOM     14  C   UNL     1      26.468 -33.086  -7.924  1.00  0.00     0.001 A 
ATOM     15  C   UNL     1      25.153 -35.061  -8.364  1.00  0.00     0.001 A 
ATOM     16  C   UNL     1      25.383 -32.277  -8.275  1.00  0.00     0.012 A 
ATOM     17  C   UNL     1      24.064 -34.260  -8.717  1.00  0.00     0.012 A 
ENDBRANCH   1  12
TORSDOF 1
ENDMDL
MODEL 6
REMARK VINA RESULT:    -6.200      2.608      4.276
REMARK INTER + INTRA:          -6.801
REMARK INTER:                  -6.576
REMARK INTRA:                  -0.225
REMARK UNBOUND:                -0.239
REMARK SMILES O=c1cc(-c2ccccc2)oc2ccccc12
REMARK SMILES IDX 4 1 3 2 2 3 1 4 17 5 16 6 15 7 14 8 13 9 12 10 11 11 5 12
REMARK SMILES IDX 8 13 7 14 9 15 6 16 10 17
REMARK H PARENT
REMARK Flexibility Score: inf
ROOT
ATOM      1  C   UNL     1      23.190 -32.947  -8.501  1.00  0.00     0.138 A 
ATOM      2  C   UNL     1      22.167 -32.629  -7.582  1.00  0.00     0.100 A 
ATOM      3  C   UNL     1      21.304 -33.634  -7.138  1.00  0.00     0.193 A 
ATOM      4  O   UNL     1      20.389 -33.351  -6.317  1.00  0.00    -0.289 OA
ATOM      5  C   UNL     1      21.469 -34.943  -7.612  1.00  0.00     0.065 A 
ATOM      6  C   UNL     1      20.634 -36.001  -7.205  1.00  0.00     0.016 A 
ATOM      7  C   UNL     1      20.842 -37.289  -7.709  1.00  0.00     0.001 A 
ATOM      8  C   UNL     1      21.877 -37.531  -8.617  1.00  0.00     0.004 A 
ATOM      9  C   UNL     1      22.709 -36.486  -9.026  1.00  0.00     0.048 A 
ATOM     10  C   UNL     1      22.511 -35.192  -8.528  1.00  0.00     0.138 A 
ATOM     11  O   UNL     1      23.308 -34.205  -8.924  1.00  0.00    -0.456 OA
ENDROOT
BRANCH   1  12
ATOM     12  C   UNL     1      24.155 -31.932  -9.025  1.00  0.00     0.017 A 
ATOM     13  C   UNL     1      26.047 -30.053  -9.953  1.00  0.00     0.000 A 
ATOM     14  C   UNL     1      24.761 -30.075 -10.493  1.00  0.00     0.001 A 
ATOM     15  C   UNL     1      26.396 -30.960  -8.954  1.00  0.00     0.001 A 
ATOM     16  C   UNL     1      23.820 -31.004 -10.037  1.00  0.00     0.012 A 
ATOM     17  C   UNL     1      25.462 -31.892  -8.493  1.00  0.00     0.012 A 
ENDBRANCH   1  12
TORSDOF 1
ENDMDL
MODEL 7
REMARK VINA RESULT:    -6.178      1.520      5.906
REMARK INTER + INTRA:          -6.777
REMARK INTER:                  -6.514
REMARK INTRA:                  -0.264
REMARK UNBOUND:                -0.239
REMARK SMILES O=c1cc(-c2ccccc2)oc2ccccc12
REMARK SMILES IDX 4 1 3 2 2 3 1 4 17 5 16 6 15 7 14 8 13 9 12 10 11 11 5 12
REMARK SMILES IDX 8 13 7 14 9 15 6 16 10 17
REMARK H PARENT
REMARK Flexibility Score: inf
ROOT
ATOM      1  C   UNL     1      22.454 -32.664  -8.920  1.00  0.00     0.138 A 
ATOM      2  C   UNL     1      22.348 -34.071  -8.881  1.00  0.00     0.100 A 
ATOM      3  C   UNL     1      23.487 -34.841  -8.635  1.00  0.00     0.193 A 
ATOM      4  O   UNL     1      23.392 -36.098  -8.601  1.00  0.00    -0.289 OA
ATOM      5  C   UNL     1      24.719 -34.204  -8.432  1.00  0.00     0.065 A 
ATOM      6  C   UNL     1      25.904 -34.921  -8.181  1.00  0.00     0.016 A 
ATOM      7  C   UNL     1      27.107 -34.236  -7.985  1.00  0.00     0.001 A 
ATOM      8  C   UNL     1      27.138 -32.839  -8.037  1.00  0.00     0.004 A 
ATOM      9  C   UNL     1      25.966 -32.121  -8.286  1.00  0.00     0.048 A 
ATOM     10  C   UNL     1      24.756 -32.796  -8.484  1.00  0.00     0.138 A 
ATOM     11  O   UNL     1      23.647 -32.102  -8.720  1.00  0.00    -0.456 OA
ENDROOT
BRANCH   1  12
ATOM     12  C   UNL     1      21.285 -31.767  -9.175  1.00  0.00     0.017 A 
ATOM     13  C   UNL     1      19.142 -29.998  -9.674  1.00  0.00     0.000 A 
ATOM     14  C   UNL     1      18.889 -31.335  -9.364  1.00  0.00     0.001 A 
ATOM     15  C   UNL     1      20.457 -29.538  -9.737  1.00  0.00     0.001 A 
ATOM     16  C   UNL     1      19.946 -32.215  -9.116  1.00  0.00     0.012 A 
ATOM     17  C   UNL     1      21.520 -30.412  -9.492  1.00  0.00     0.012 A 
ENDBRANCH   1  12
TORSDOF 1
ENDMDL
MODEL 8
REMARK VINA RESULT:    -6.098      2.970      4.379
REMARK INTER + INTRA:          -6.693
REMARK INTER:                  -6.464
REMARK INTRA:                  -0.229
REMARK UNBOUND:                -0.239
REMARK SMILES O=c1cc(-c2ccccc2)oc2ccccc12
REMARK SMILES IDX 4 1 3 2 2 3 1 4 17 5 16 6 15 7 14 8 13 9 12 10 11 11 5 12
REMARK SMILES IDX 8 13 7 14 9 15 6 16 10 17
REMARK H PARENT
REMARK Flexibility Score: inf
ROOT
ATOM      1  C   UNL     1      23.184 -34.011  -8.377  1.00  0.00     0.138 A 
ATOM      2  C   UNL     1      23.410 -35.326  -8.836  1.00  0.00     0.100 A 
ATOM      3  C   UNL     1      22.474 -36.324  -8.555  1.00  0.00     0.193 A 
ATOM      4  O   UNL     1      22.676 -37.500  -8.966  1.00  0.00    -0.289 OA
ATOM      5  C   UNL     1      21.324 -36.004  -7.821  1.00  0.00     0.065 A 
ATOM      6  C   UNL     1      20.342 -36.961  -7.503  1.00  0.00     0.016 A 
ATOM      7  C   UNL     1      19.213 -36.588  -6.767  1.00  0.00     0.001 A 
ATOM      8  C   UNL     1      19.055 -35.265  -6.344  1.00  0.00     0.004 A 
ATOM      9  C   UNL     1      20.025 -34.309  -6.656  1.00  0.00     0.048 A 
ATOM     10  C   UNL     1      21.159 -34.671  -7.392  1.00  0.00     0.138 A 
ATOM     11  O   UNL     1      22.076 -33.753  -7.682  1.00  0.00    -0.456 OA
ENDROOT
BRANCH   1  12
ATOM     12  C   UNL     1      24.134 -32.885  -8.635  1.00  0.00     0.017 A 
ATOM     13  C   UNL     1      25.995 -30.807  -9.065  1.00  0.00     0.000 A 
ATOM     14  C   UNL     1      24.739 -30.759  -9.672  1.00  0.00     0.001 A 
ATOM     15  C   UNL     1      26.328 -31.884  -8.246  1.00  0.00     0.001 A 
ATOM     16  C   UNL     1      23.814 -31.785  -9.463  1.00  0.00     0.012 A 
ATOM     17  C   UNL     1      25.409 -32.915  -8.032  1.00  0.00     0.012 A 
ENDBRANCH   1  12
TORSDOF 1
ENDMDL
MODEL 9
REMARK VINA RESULT:    -6.023      4.920      6.524
REMARK INTER + INTRA:          -6.614
REMARK INTER:                  -6.348
REMARK INTRA:                  -0.266
REMARK UNBOUND:                -0.239
REMARK SMILES O=c1cc(-c2ccccc2)oc2ccccc12
REMARK SMILES IDX 4 1 3 2 2 3 1 4 17 5 16 6 15 7 14 8 13 9 12 10 11 11 5 12
REMARK SMILES IDX 8 13 7 14 9 15 6 16 10 17
REMARK H PARENT
REMARK Flexibility Score: inf
ROOT
ATOM      1  C   UNL     1      20.483 -35.806  -6.991  1.00  0.00     0.138 A 
ATOM      2  C   UNL     1      19.256 -35.166  -6.715  1.00  0.00     0.100 A 
ATOM      3  C   UNL     1      18.120 -35.937  -6.458  1.00  0.00     0.193 A 
ATOM      4  O   UNL     1      17.023 -35.365  -6.211  1.00  0.00    -0.289 OA
ATOM      5  C   UNL     1      18.216 -37.335  -6.478  1.00  0.00     0.065 A 
ATOM      6  C   UNL     1      17.111 -38.170  -6.228  1.00  0.00     0.016 A 
ATOM      7  C   UNL     1      17.262 -39.559  -6.261  1.00  0.00     0.001 A 
ATOM      8  C   UNL     1      18.509 -40.125  -6.541  1.00  0.00     0.004 A 
ATOM      9  C   UNL     1      19.612 -39.303  -6.791  1.00  0.00     0.048 A 
ATOM     10  C   UNL     1      19.472 -37.911  -6.761  1.00  0.00     0.138 A 
ATOM     11  O   UNL     1      20.527 -37.138  -6.999  1.00  0.00    -0.456 OA
ENDROOT
BRANCH   1  12
ATOM     12  C   UNL     1      21.745 -35.056  -7.275  1.00  0.00     0.017 A 
ATOM     13  C   UNL     1      24.177 -33.727  -7.816  1.00  0.00     0.000 A 
ATOM     14  C   UNL     1      22.999 -32.996  -7.664  1.00  0.00     0.001 A 
ATOM     15  C   UNL     1      24.151 -35.116  -7.700  1.00  0.00     0.001 A 
ATOM     16  C   UNL     1      21.791 -33.648  -7.397  1.00  0.00     0.012 A 
ATOM     17  C   UNL     1      22.948 -35.777  -7.433  1.00  0.00     0.012 A 
ENDBRANCH   1  12
TORSDOF 1
ENDMDL
