MODEL 1
REMARK VINA RESULT:    -8.762      0.000      0.000
REMARK INTER + INTRA:         -10.932
REMARK INTER:                 -10.811
REMARK INTRA:                  -0.121
REMARK UNBOUND:                -0.121
REMARK SMILES O=c1c(O)c(-c2cc(O)c(O)c(O)c2)oc2cc(O)cc(O)c12
REMARK SMILES IDX 5 1 3 2 2 3 1 4 23 5 21 6 20 7 18 8 17 9 16 10 15 11 6 12
REMARK SMILES IDX 7 13 8 14 14 15 10 16 12 17 9 18 11 20 13 22 4 24 22 26
REMARK SMILES IDX 19 28
REMARK H PARENT 9 19 11 21 13 23 4 25 22 27 19 29
REMARK Flexibility Score: inf
ROOT
ATOM      1  C   UNL     1     -34.353  44.207  40.032  1.00  0.00     0.180 A 
ATOM      2  C   UNL     1     -35.099  44.827  41.049  1.00  0.00     0.208 A 
ATOM      3  C   UNL     1     -35.454  44.081  42.185  1.00  0.00     0.238 A 
ATOM      4  O   UNL     1     -36.076  44.656  43.116  1.00  0.00    -0.285 OA
ATOM      5  C   UNL     1     -35.069  42.722  42.284  1.00  0.00     0.111 A 
ATOM      6  C   UNL     1     -35.407  41.861  43.371  1.00  0.00     0.134 A 
ATOM      7  C   UNL     1     -34.863  40.573  43.426  1.00  0.00     0.093 A 
ATOM      8  C   UNL     1     -34.048  40.090  42.403  1.00  0.00     0.123 A 
ATOM      9  C   UNL     1     -33.759  40.903  41.306  1.00  0.00     0.094 A 
ATOM     10  C   UNL     1     -34.258  42.206  41.240  1.00  0.00     0.146 A 
ATOM     11  O   UNL     1     -33.951  42.950  40.184  1.00  0.00    -0.452 OA
ENDROOT
BRANCH   1  12
ATOM     12  C   UNL     1     -33.964  44.920  38.794  1.00  0.00     0.029 A 
ATOM     13  C   UNL     1     -32.614  45.101  38.449  1.00  0.00     0.062 A 
ATOM     14  C   UNL     1     -32.263  45.801  37.286  1.00  0.00     0.162 A 
ATOM     15  C   UNL     1     -34.959  45.478  37.976  1.00  0.00     0.062 A 
ATOM     16  C   UNL     1     -33.268  46.335  36.461  1.00  0.00     0.200 A 
ATOM     17  C   UNL     1     -34.615  46.175  36.810  1.00  0.00     0.162 A 
BRANCH  14  18
ATOM     18  O   UNL     1     -30.921  45.970  36.948  1.00  0.00    -0.504 OA
ATOM     19  H   UNL     1     -30.521  45.533  36.126  1.00  0.00     0.293 HD
ENDBRANCH  14  18
BRANCH  16  20
ATOM     20  O   UNL     1     -32.944  47.031  35.296  1.00  0.00    -0.502 OA
ATOM     21  H   UNL     1     -32.100  47.586  35.216  1.00  0.00     0.293 HD
ENDBRANCH  16  20
BRANCH  17  22
ATOM     22  O   UNL     1     -35.607  46.715  35.995  1.00  0.00    -0.504 OA
ATOM     23  H   UNL     1     -36.162  47.510  36.289  1.00  0.00     0.293 HD
ENDBRANCH  17  22
ENDBRANCH   1  12
BRANCH   2  24
ATOM     24  O   UNL     1     -35.449  46.175  40.941  1.00  0.00    -0.502 OA
ATOM     25  H   UNL     1     -34.816  46.923  41.196  1.00  0.00     0.293 HD
ENDBRANCH   2  24
BRANCH   6  26
ATOM     26  O   UNL     1     -36.286  42.211  44.399  1.00  0.00    -0.507 OA
ATOM     27  H   UNL     1     -36.097  42.906  45.106  1.00  0.00     0.293 HD
ENDBRANCH   6  26
BRANCH   8  28
ATOM     28  O   UNL     1     -33.536  38.797  42.483  1.00  0.00    -0.508 OA
ATOM     29  H   UNL     1     -32.574  38.623  42.750  1.00  0.00     0.293 HD
ENDBRANCH   8  28
TORSDOF 7
ENDMDL
MODEL 2
REMARK VINA RESULT:    -8.147      4.576      7.306
REMARK INTER + INTRA:         -10.173
REMARK INTER:                  -9.826
REMARK INTRA:                  -0.347
REMARK UNBOUND:                -0.121
REMARK SMILES O=c1c(O)c(-c2cc(O)c(O)c(O)c2)oc2cc(O)cc(O)c12
REMARK SMILES IDX 5 1 3 2 2 3 1 4 23 5 21 6 20 7 18 8 17 9 16 10 15 11 6 12
REMARK SMILES IDX 7 13 8 14 14 15 10 16 12 17 9 18 11 20 13 22 4 24 22 26
REMARK SMILES IDX 19 28
REMARK H PARENT 9 19 11 21 13 23 4 25 22 27 19 29
REMARK Flexibility Score: inf
ROOT
ATOM      1  C   UNL     1     -36.668  38.363  43.681  1.00  0.00     0.180 A 
ATOM      2  C   UNL     1     -37.533  38.544  44.774  1.00  0.00     0.208 A 
ATOM      3  C   UNL     1     -37.729  37.481  45.670  1.00  0.00     0.238 A 
ATOM      4  O   UNL     1     -38.462  37.665  46.677  1.00  0.00    -0.285 OA
ATOM      5  C   UNL     1     -37.069  36.247  45.454  1.00  0.00     0.111 A 
ATOM      6  C   UNL     1     -37.225  35.089  46.276  1.00  0.00     0.134 A 
ATOM      7  C   UNL     1     -36.424  33.966  46.044  1.00  0.00     0.093 A 
ATOM      8  C   UNL     1     -35.520  33.930  44.982  1.00  0.00     0.123 A 
ATOM      9  C   UNL     1     -35.403  35.034  44.136  1.00  0.00     0.094 A 
ATOM     10  C   UNL     1     -36.163  36.184  44.364  1.00  0.00     0.146 A 
ATOM     11  O   UNL     1     -36.014  37.216  43.542  1.00  0.00    -0.452 OA
ENDROOT
BRANCH   1  12
ATOM     12  C   UNL     1     -36.431  39.429  42.680  1.00  0.00     0.029 A 
ATOM     13  C   UNL     1     -35.343  40.311  42.796  1.00  0.00     0.062 A 
ATOM     14  C   UNL     1     -35.148  41.329  41.852  1.00  0.00     0.162 A 
ATOM     15  C   UNL     1     -37.340  39.601  41.625  1.00  0.00     0.062 A 
ATOM     16  C   UNL     1     -36.051  41.478  40.787  1.00  0.00     0.200 A 
ATOM     17  C   UNL     1     -37.149  40.615  40.677  1.00  0.00     0.162 A 
BRANCH  14  18
ATOM     18  O   UNL     1     -34.061  42.196  41.972  1.00  0.00    -0.504 OA
ATOM     19  H   UNL     1     -33.695  42.702  41.175  1.00  0.00     0.293 HD
ENDBRANCH  14  18
BRANCH  16  20
ATOM     20  O   UNL     1     -35.876  42.481  39.833  1.00  0.00    -0.502 OA
ATOM     21  H   UNL     1     -36.082  42.334  38.851  1.00  0.00     0.293 HD
ENDBRANCH  16  20
BRANCH  17  22
ATOM     22  O   UNL     1     -38.048  40.773  39.624  1.00  0.00    -0.504 OA
ATOM     23  H   UNL     1     -38.440  39.976  39.137  1.00  0.00     0.293 HD
ENDBRANCH  17  22
ENDBRANCH   1  12
BRANCH   2  24
ATOM     24  O   UNL     1     -38.156  39.777  44.980  1.00  0.00    -0.502 OA
ATOM     25  H   UNL     1     -38.913  40.108  44.394  1.00  0.00     0.293 HD
ENDBRANCH   2  24
BRANCH   6  26
ATOM     26  O   UNL     1     -38.163  34.985  47.306  1.00  0.00    -0.507 OA
ATOM     27  H   UNL     1     -37.944  34.742  48.261  1.00  0.00     0.293 HD
ENDBRANCH   6  26
BRANCH   8  28
ATOM     28  O   UNL     1     -34.751  32.789  44.771  1.00  0.00    -0.508 OA
ATOM     29  H   UNL     1     -35.034  31.885  45.130  1.00  0.00     0.293 HD
ENDBRANCH   8  28
TORSDOF 7
ENDMDL
MODEL 3
REMARK VINA RESULT:    -8.120      2.766      4.903
REMARK INTER + INTRA:         -10.139
REMARK INTER:                  -9.784
REMARK INTRA:                  -0.355
REMARK UNBOUND:                -0.121
REMARK SMILES O=c1c(O)c(-c2cc(O)c(O)c(O)c2)oc2cc(O)cc(O)c12
REMARK SMILES IDX 5 1 3 2 2 3 1 4 23 5 21 6 20 7 18 8 17 9 16 10 15 11 6 12
REMARK SMILES IDX 7 13 8 14 14 15 10 16 12 17 9 18 11 20 13 22 4 24 22 26
REMARK SMILES IDX 19 28
REMARK H PARENT 9 19 11 21 13 23 4 25 22 27 19 29
REMARK Flexibility Score: inf
ROOT
ATOM      1  C   UNL     1     -35.782  41.845  42.993  1.00  0.00     0.180 A 
ATOM      2  C   UNL     1     -34.860  41.447  43.977  1.00  0.00     0.208 A 
ATOM      3  C   UNL     1     -35.312  40.680  45.063  1.00  0.00     0.238 A 
ATOM      4  O   UNL     1     -34.474  40.281  45.913  1.00  0.00    -0.285 OA
ATOM      5  C   UNL     1     -36.681  40.333  45.158  1.00  0.00     0.111 A 
ATOM      6  C   UNL     1     -37.257  39.593  46.236  1.00  0.00     0.134 A 
ATOM      7  C   UNL     1     -38.597  39.195  46.161  1.00  0.00     0.093 A 
ATOM      8  C   UNL     1     -39.400  39.565  45.083  1.00  0.00     0.123 A 
ATOM      9  C   UNL     1     -38.864  40.339  44.053  1.00  0.00     0.094 A 
ATOM     10  C   UNL     1     -37.520  40.721  44.082  1.00  0.00     0.146 A 
ATOM     11  O   UNL     1     -37.046  41.449  43.077  1.00  0.00    -0.452 OA
ENDROOT
BRANCH   1  12
ATOM     12  C   UNL     1     -35.385  42.676  41.833  1.00  0.00     0.029 A 
ATOM     13  C   UNL     1     -35.530  44.073  41.851  1.00  0.00     0.062 A 
ATOM     14  C   UNL     1     -35.172  44.841  40.734  1.00  0.00     0.162 A 
ATOM     15  C   UNL     1     -34.910  42.054  40.668  1.00  0.00     0.062 A 
ATOM     16  C   UNL     1     -34.675  44.211  39.582  1.00  0.00     0.200 A 
ATOM     17  C   UNL     1     -34.548  42.816  39.549  1.00  0.00     0.162 A 
BRANCH  14  18
ATOM     18  O   UNL     1     -35.313  46.229  40.765  1.00  0.00    -0.504 OA
ATOM     19  H   UNL     1     -35.169  46.795  39.937  1.00  0.00     0.293 HD
ENDBRANCH  14  18
BRANCH  16  20
ATOM     20  O   UNL     1     -34.308  44.954  38.459  1.00  0.00    -0.502 OA
ATOM     21  H   UNL     1     -34.272  45.967  38.471  1.00  0.00     0.293 HD
ENDBRANCH  16  20
BRANCH  17  22
ATOM     22  O   UNL     1     -34.063  42.194  38.400  1.00  0.00    -0.504 OA
ATOM     23  H   UNL     1     -33.100  41.890  38.328  1.00  0.00     0.293 HD
ENDBRANCH  17  22
ENDBRANCH   1  12
BRANCH   2  24
ATOM     24  O   UNL     1     -33.509  41.782  43.851  1.00  0.00    -0.502 OA
ATOM     25  H   UNL     1     -33.063  41.913  42.951  1.00  0.00     0.293 HD
ENDBRANCH   2  24
BRANCH   6  26
ATOM     26  O   UNL     1     -36.568  39.250  47.402  1.00  0.00    -0.507 OA
ATOM     27  H   UNL     1     -35.711  38.719  47.428  1.00  0.00     0.293 HD
ENDBRANCH   6  26
BRANCH   8  28
ATOM     28  O   UNL     1     -40.734  39.165  45.049  1.00  0.00    -0.508 OA
ATOM     29  H   UNL     1     -41.282  39.220  44.199  1.00  0.00     0.293 HD
ENDBRANCH   8  28
TORSDOF 7
ENDMDL
MODEL 4
REMARK VINA RESULT:    -8.058      2.632      4.814
REMARK INTER + INTRA:         -10.063
REMARK INTER:                  -9.803
REMARK INTRA:                  -0.261
REMARK UNBOUND:                -0.121
REMARK SMILES O=c1c(O)c(-c2cc(O)c(O)c(O)c2)oc2cc(O)cc(O)c12
REMARK SMILES IDX 5 1 3 2 2 3 1 4 23 5 21 6 20 7 18 8 17 9 16 10 15 11 6 12
REMARK SMILES IDX 7 13 8 14 14 15 10 16 12 17 9 18 11 20 13 22 4 24 22 26
REMARK SMILES IDX 19 28
REMARK H PARENT 9 19 11 21 13 23 4 25 22 27 19 29
REMARK Flexibility Score: inf
ROOT
ATOM      1  C   UNL     1     -35.200  41.357  43.218  1.00  0.00     0.180 A 
ATOM      2  C   UNL     1     -35.535  42.014  44.415  1.00  0.00     0.208 A 
ATOM      3  C   UNL     1     -36.184  41.292  45.430  1.00  0.00     0.238 A 
ATOM      4  O   UNL     1     -36.433  41.872  46.519  1.00  0.00    -0.285 OA
ATOM      5  C   UNL     1     -36.502  39.928  45.230  1.00  0.00     0.111 A 
ATOM      6  C   UNL     1     -37.195  39.110  46.175  1.00  0.00     0.134 A 
ATOM      7  C   UNL     1     -37.340  37.741  45.926  1.00  0.00     0.093 A 
ATOM      8  C   UNL     1     -36.879  37.170  44.740  1.00  0.00     0.123 A 
ATOM      9  C   UNL     1     -36.254  37.971  43.783  1.00  0.00     0.094 A 
ATOM     10  C   UNL     1     -36.062  39.334  44.018  1.00  0.00     0.146 A 
ATOM     11  O   UNL     1     -35.454  40.060  43.087  1.00  0.00    -0.452 OA
ENDROOT
BRANCH   1  12
ATOM     12  C   UNL     1     -34.538  42.056  42.094  1.00  0.00     0.029 A 
ATOM     13  C   UNL     1     -35.210  43.039  41.347  1.00  0.00     0.062 A 
ATOM     14  C   UNL     1     -34.575  43.673  40.270  1.00  0.00     0.162 A 
ATOM     15  C   UNL     1     -33.233  41.693  41.727  1.00  0.00     0.062 A 
ATOM     16  C   UNL     1     -33.261  43.319  39.925  1.00  0.00     0.200 A 
ATOM     17  C   UNL     1     -32.592  42.326  40.653  1.00  0.00     0.162 A 
BRANCH  14  18
ATOM     18  O   UNL     1     -35.249  44.652  39.539  1.00  0.00    -0.504 OA
ATOM     19  H   UNL     1     -36.115  45.060  39.870  1.00  0.00     0.293 HD
ENDBRANCH  14  18
BRANCH  16  20
ATOM     20  O   UNL     1     -32.606  43.940  38.860  1.00  0.00    -0.502 OA
ATOM     21  H   UNL     1     -31.961  44.709  38.999  1.00  0.00     0.293 HD
ENDBRANCH  16  20
BRANCH  17  22
ATOM     22  O   UNL     1     -31.291  41.971  40.301  1.00  0.00    -0.504 OA
ATOM     23  H   UNL     1     -30.987  41.005  40.300  1.00  0.00     0.293 HD
ENDBRANCH  17  22
ENDBRANCH   1  12
BRANCH   2  24
ATOM     24  O   UNL     1     -35.191  43.356  44.599  1.00  0.00    -0.502 OA
ATOM     25  H   UNL     1     -34.251  43.702  44.446  1.00  0.00     0.293 HD
ENDBRANCH   2  24
BRANCH   6  26
ATOM     26  O   UNL     1     -37.775  39.596  47.349  1.00  0.00    -0.507 OA
ATOM     27  H   UNL     1     -37.275  40.077  48.081  1.00  0.00     0.293 HD
ENDBRANCH   6  26
BRANCH   8  28
ATOM     28  O   UNL     1     -37.056  35.806  44.518  1.00  0.00    -0.508 OA
ATOM     29  H   UNL     1     -36.411  35.275  43.944  1.00  0.00     0.293 HD
ENDBRANCH   8  28
TORSDOF 7
ENDMDL
MODEL 5
REMARK VINA RESULT:    -8.048      4.024      9.338
REMARK INTER + INTRA:         -10.051
REMARK INTER:                  -9.802
REMARK INTRA:                  -0.249
REMARK UNBOUND:                -0.121
REMARK SMILES O=c1c(O)c(-c2cc(O)c(O)c(O)c2)oc2cc(O)cc(O)c12
REMARK SMILES IDX 5 1 3 2 2 3 1 4 23 5 21 6 20 7 18 8 17 9 16 10 15 11 6 12
REMARK SMILES IDX 7 13 8 14 14 15 10 16 12 17 9 18 11 20 13 22 4 24 22 26
REMARK SMILES IDX 19 28
REMARK H PARENT 9 19 11 21 13 23 4 25 22 27 19 29
REMARK Flexibility Score: inf
ROOT
ATOM      1  C   UNL     1     -36.903  39.368  43.673  1.00  0.00     0.180 A 
ATOM      2  C   UNL     1     -37.631  39.667  42.508  1.00  0.00     0.208 A 
ATOM      3  C   UNL     1     -37.008  40.402  41.486  1.00  0.00     0.238 A 
ATOM      4  O   UNL     1     -37.647  40.621  40.423  1.00  0.00    -0.285 OA
ATOM      5  C   UNL     1     -35.672  40.840  41.647  1.00  0.00     0.111 A 
ATOM      6  C   UNL     1     -34.955  41.624  40.693  1.00  0.00     0.134 A 
ATOM      7  C   UNL     1     -33.596  41.889  40.899  1.00  0.00     0.093 A 
ATOM      8  C   UNL     1     -32.944  41.456  42.053  1.00  0.00     0.123 A 
ATOM      9  C   UNL     1     -33.650  40.740  43.020  1.00  0.00     0.094 A 
ATOM     10  C   UNL     1     -34.998  40.429  42.826  1.00  0.00     0.146 A 
ATOM     11  O   UNL     1     -35.631  39.736  43.766  1.00  0.00    -0.452 OA
ENDROOT
BRANCH   1  12
ATOM     12  C   UNL     1     -37.499  38.620  44.803  1.00  0.00     0.029 A 
ATOM     13  C   UNL     1     -38.531  39.171  45.581  1.00  0.00     0.062 A 
ATOM     14  C   UNL     1     -39.066  38.458  46.663  1.00  0.00     0.162 A 
ATOM     15  C   UNL     1     -36.986  37.359  45.144  1.00  0.00     0.062 A 
ATOM     16  C   UNL     1     -38.562  37.187  46.981  1.00  0.00     0.200 A 
ATOM     17  C   UNL     1     -37.519  36.640  46.222  1.00  0.00     0.162 A 
BRANCH  14  18
ATOM     18  O   UNL     1     -40.095  39.011  47.425  1.00  0.00    -0.504 OA
ATOM     19  H   UNL     1     -40.377  39.978  47.315  1.00  0.00     0.293 HD
ENDBRANCH  14  18
BRANCH  16  20
ATOM     20  O   UNL     1     -39.081  36.456  48.051  1.00  0.00    -0.502 OA
ATOM     21  H   UNL     1     -38.811  36.638  49.010  1.00  0.00     0.293 HD
ENDBRANCH  16  20
BRANCH  17  22
ATOM     22  O   UNL     1     -37.015  35.382  46.548  1.00  0.00    -0.504 OA
ATOM     23  H   UNL     1     -36.096  35.268  46.957  1.00  0.00     0.293 HD
ENDBRANCH  17  22
ENDBRANCH   1  12
BRANCH   2  24
ATOM     24  O   UNL     1     -38.942  39.206  42.361  1.00  0.00    -0.502 OA
ATOM     25  H   UNL     1     -39.216  38.261  42.601  1.00  0.00     0.293 HD
ENDBRANCH   2  24
BRANCH   6  26
ATOM     26  O   UNL     1     -35.534  42.184  39.551  1.00  0.00    -0.507 OA
ATOM     27  H   UNL     1     -36.458  41.966  39.209  1.00  0.00     0.293 HD
ENDBRANCH   6  26
BRANCH   8  28
ATOM     28  O   UNL     1     -31.595  41.752  42.232  1.00  0.00    -0.508 OA
ATOM     29  H   UNL     1     -31.064  42.255  41.530  1.00  0.00     0.293 HD
ENDBRANCH   8  28
TORSDOF 7
ENDMDL
MODEL 6
REMARK VINA RESULT:    -8.026      3.827      7.978
REMARK INTER + INTRA:         -10.024
REMARK INTER:                  -9.734
REMARK INTRA:                  -0.290
REMARK UNBOUND:                -0.121
REMARK SMILES O=c1c(O)c(-c2cc(O)c(O)c(O)c2)oc2cc(O)cc(O)c12
REMARK SMILES IDX 5 1 3 2 2 3 1 4 23 5 21 6 20 7 18 8 17 9 16 10 15 11 6 12
REMARK SMILES IDX 7 13 8 14 14 15 10 16 12 17 9 18 11 20 13 22 4 24 22 26
REMARK SMILES IDX 19 28
REMARK H PARENT 9 19 11 21 13 23 4 25 22 27 19 29
REMARK Flexibility Score: inf
ROOT
ATOM      1  C   UNL     1     -34.203  40.922  43.550  1.00  0.00     0.180 A 
ATOM      2  C   UNL     1     -34.481  41.820  42.505  1.00  0.00     0.208 A 
ATOM      3  C   UNL     1     -33.467  42.126  41.583  1.00  0.00     0.238 A 
ATOM      4  O   UNL     1     -33.737  42.889  40.619  1.00  0.00    -0.285 OA
ATOM      5  C   UNL     1     -32.186  41.542  41.725  1.00  0.00     0.111 A 
ATOM      6  C   UNL     1     -31.073  41.811  40.872  1.00  0.00     0.134 A 
ATOM      7  C   UNL     1     -29.891  41.078  41.027  1.00  0.00     0.093 A 
ATOM      8  C   UNL     1     -29.757  40.133  42.043  1.00  0.00     0.123 A 
ATOM      9  C   UNL     1     -30.818  39.904  42.921  1.00  0.00     0.094 A 
ATOM     10  C   UNL     1     -32.023  40.595  42.769  1.00  0.00     0.146 A 
ATOM     11  O   UNL     1     -33.011  40.340  43.618  1.00  0.00    -0.452 OA
ENDROOT
BRANCH   1  12
ATOM     12  C   UNL     1     -35.212  40.570  44.575  1.00  0.00     0.029 A 
ATOM     13  C   UNL     1     -35.883  39.336  44.545  1.00  0.00     0.062 A 
ATOM     14  C   UNL     1     -36.854  39.029  45.509  1.00  0.00     0.162 A 
ATOM     15  C   UNL     1     -35.550  41.507  45.563  1.00  0.00     0.062 A 
ATOM     16  C   UNL     1     -37.167  39.965  46.508  1.00  0.00     0.200 A 
ATOM     17  C   UNL     1     -36.517  41.205  46.531  1.00  0.00     0.162 A 
BRANCH  14  18
ATOM     18  O   UNL     1     -37.510  37.799  45.475  1.00  0.00    -0.504 OA
ATOM     19  H   UNL     1     -37.858  37.406  44.609  1.00  0.00     0.293 HD
ENDBRANCH  14  18
BRANCH  16  20
ATOM     20  O   UNL     1     -38.126  39.681  47.482  1.00  0.00    -0.502 OA
ATOM     21  H   UNL     1     -38.036  38.894  48.114  1.00  0.00     0.293 HD
ENDBRANCH  16  20
BRANCH  17  22
ATOM     22  O   UNL     1     -36.838  42.135  47.519  1.00  0.00    -0.504 OA
ATOM     23  H   UNL     1     -36.154  42.444  48.199  1.00  0.00     0.293 HD
ENDBRANCH  17  22
ENDBRANCH   1  12
BRANCH   2  24
ATOM     24  O   UNL     1     -35.759  42.368  42.371  1.00  0.00    -0.502 OA
ATOM     25  H   UNL     1     -36.590  41.898  42.708  1.00  0.00     0.293 HD
ENDBRANCH   2  24
BRANCH   6  26
ATOM     26  O   UNL     1     -31.069  42.799  39.883  1.00  0.00    -0.507 OA
ATOM     27  H   UNL     1     -31.861  43.038  39.306  1.00  0.00     0.293 HD
ENDBRANCH   6  26
BRANCH   8  28
ATOM     28  O   UNL     1     -28.560  39.433  42.179  1.00  0.00    -0.508 OA
ATOM     29  H   UNL     1     -28.524  38.529  42.636  1.00  0.00     0.293 HD
ENDBRANCH   8  28
TORSDOF 7
ENDMDL
MODEL 7
REMARK VINA RESULT:    -8.009      4.224      9.933
REMARK INTER + INTRA:         -10.002
REMARK INTER:                  -9.752
REMARK INTRA:                  -0.250
REMARK UNBOUND:                -0.121
REMARK SMILES O=c1c(O)c(-c2cc(O)c(O)c(O)c2)oc2cc(O)cc(O)c12
REMARK SMILES IDX 5 1 3 2 2 3 1 4 23 5 21 6 20 7 18 8 17 9 16 10 15 11 6 12
REMARK SMILES IDX 7 13 8 14 14 15 10 16 12 17 9 18 11 20 13 22 4 24 22 26
REMARK SMILES IDX 19 28
REMARK H PARENT 9 19 11 21 13 23 4 25 22 27 19 29
REMARK Flexibility Score: inf
ROOT
ATOM      1  C   UNL     1     -37.309  39.577  44.693  1.00  0.00     0.180 A 
ATOM      2  C   UNL     1     -36.466  38.678  44.018  1.00  0.00     0.208 A 
ATOM      3  C   UNL     1     -35.615  39.165  43.013  1.00  0.00     0.238 A 
ATOM      4  O   UNL     1     -34.824  38.365  42.450  1.00  0.00    -0.285 OA
ATOM      5  C   UNL     1     -35.628  40.543  42.687  1.00  0.00     0.111 A 
ATOM      6  C   UNL     1     -34.836  41.140  41.658  1.00  0.00     0.134 A 
ATOM      7  C   UNL     1     -34.833  42.531  41.511  1.00  0.00     0.093 A 
ATOM      8  C   UNL     1     -35.640  43.343  42.306  1.00  0.00     0.123 A 
ATOM      9  C   UNL     1     -36.463  42.765  43.274  1.00  0.00     0.094 A 
ATOM     10  C   UNL     1     -36.461  41.382  43.470  1.00  0.00     0.146 A 
ATOM     11  O   UNL     1     -37.250  40.873  44.409  1.00  0.00    -0.452 OA
ENDROOT
BRANCH   1  12
ATOM     12  C   UNL     1     -38.251  39.134  45.746  1.00  0.00     0.029 A 
ATOM     13  C   UNL     1     -39.640  39.148  45.536  1.00  0.00     0.062 A 
ATOM     14  C   UNL     1     -40.519  38.749  46.553  1.00  0.00     0.162 A 
ATOM     15  C   UNL     1     -37.754  38.748  47.000  1.00  0.00     0.062 A 
ATOM     16  C   UNL     1     -40.010  38.341  47.797  1.00  0.00     0.200 A 
ATOM     17  C   UNL     1     -38.627  38.345  48.020  1.00  0.00     0.162 A 
BRANCH  14  18
ATOM     18  O   UNL     1     -41.896  38.759  46.332  1.00  0.00    -0.504 OA
ATOM     19  H   UNL     1     -42.301  39.219  45.525  1.00  0.00     0.293 HD
ENDBRANCH  14  18
BRANCH  16  20
ATOM     20  O   UNL     1     -40.864  37.935  48.823  1.00  0.00    -0.502 OA
ATOM     21  H   UNL     1     -41.766  37.512  48.638  1.00  0.00     0.293 HD
ENDBRANCH  16  20
BRANCH  17  22
ATOM     22  O   UNL     1     -38.127  37.949  49.259  1.00  0.00    -0.504 OA
ATOM     23  H   UNL     1     -38.362  38.445  50.109  1.00  0.00     0.293 HD
ENDBRANCH  17  22
ENDBRANCH   1  12
BRANCH   2  24
ATOM     24  O   UNL     1     -36.453  37.326  44.372  1.00  0.00    -0.502 OA
ATOM     25  H   UNL     1     -36.225  37.011  45.308  1.00  0.00     0.293 HD
ENDBRANCH   2  24
BRANCH   6  26
ATOM     26  O   UNL     1     -34.064  40.413  40.748  1.00  0.00    -0.507 OA
ATOM     27  H   UNL     1     -33.252  39.866  40.991  1.00  0.00     0.293 HD
ENDBRANCH   6  26
BRANCH   8  28
ATOM     28  O   UNL     1     -35.624  44.723  42.120  1.00  0.00    -0.508 OA
ATOM     29  H   UNL     1     -35.218  45.142  41.292  1.00  0.00     0.293 HD
ENDBRANCH   8  28
TORSDOF 7
ENDMDL
MODEL 8
REMARK VINA RESULT:    -8.004      2.644      4.544
REMARK INTER + INTRA:          -9.996
REMARK INTER:                  -9.778
REMARK INTRA:                  -0.218
REMARK UNBOUND:                -0.121
REMARK SMILES O=c1c(O)c(-c2cc(O)c(O)c(O)c2)oc2cc(O)cc(O)c12
REMARK SMILES IDX 5 1 3 2 2 3 1 4 23 5 21 6 20 7 18 8 17 9 16 10 15 11 6 12
REMARK SMILES IDX 7 13 8 14 14 15 10 16 12 17 9 18 11 20 13 22 4 24 22 26
REMARK SMILES IDX 19 28
REMARK H PARENT 9 19 11 21 13 23 4 25 22 27 19 29
REMARK Flexibility Score: inf
ROOT
ATOM      1  C   UNL     1     -35.172  41.257  43.198  1.00  0.00     0.180 A 
ATOM      2  C   UNL     1     -35.515  41.930  44.383  1.00  0.00     0.208 A 
ATOM      3  C   UNL     1     -36.162  41.220  45.407  1.00  0.00     0.238 A 
ATOM      4  O   UNL     1     -36.418  41.814  46.487  1.00  0.00    -0.285 OA
ATOM      5  C   UNL     1     -36.469  39.850  45.228  1.00  0.00     0.111 A 
ATOM      6  C   UNL     1     -37.158  39.041  46.183  1.00  0.00     0.134 A 
ATOM      7  C   UNL     1     -37.292  37.667  45.955  1.00  0.00     0.093 A 
ATOM      8  C   UNL     1     -36.823  37.082  44.779  1.00  0.00     0.123 A 
ATOM      9  C   UNL     1     -36.202  37.873  43.812  1.00  0.00     0.094 A 
ATOM     10  C   UNL     1     -36.020  39.241  44.027  1.00  0.00     0.146 A 
ATOM     11  O   UNL     1     -35.415  39.956  43.086  1.00  0.00    -0.452 OA
ENDROOT
BRANCH   1  12
ATOM     12  C   UNL     1     -34.511  41.945  42.065  1.00  0.00     0.029 A 
ATOM     13  C   UNL     1     -33.181  41.660  41.713  1.00  0.00     0.062 A 
ATOM     14  C   UNL     1     -32.564  42.339  40.652  1.00  0.00     0.162 A 
ATOM     15  C   UNL     1     -35.205  42.942  41.363  1.00  0.00     0.062 A 
ATOM     16  C   UNL     1     -33.275  43.319  39.940  1.00  0.00     0.200 A 
ATOM     17  C   UNL     1     -34.595  43.621  40.300  1.00  0.00     0.162 A 
BRANCH  14  18
ATOM     18  O   UNL     1     -31.245  42.044  40.306  1.00  0.00    -0.504 OA
ATOM     19  H   UNL     1     -30.661  42.715  39.821  1.00  0.00     0.293 HD
ENDBRANCH  14  18
BRANCH  16  20
ATOM     20  O   UNL     1     -32.685  44.004  38.878  1.00  0.00    -0.502 OA
ATOM     21  H   UNL     1     -33.202  44.252  38.042  1.00  0.00     0.293 HD
ENDBRANCH  16  20
BRANCH  17  22
ATOM     22  O   UNL     1     -35.294  44.601  39.597  1.00  0.00    -0.504 OA
ATOM     23  H   UNL     1     -35.696  44.416  38.686  1.00  0.00     0.293 HD
ENDBRANCH  17  22
ENDBRANCH   1  12
BRANCH   2  24
ATOM     24  O   UNL     1     -35.182  43.277  44.548  1.00  0.00    -0.502 OA
ATOM     25  H   UNL     1     -34.983  43.888  43.764  1.00  0.00     0.293 HD
ENDBRANCH   2  24
BRANCH   6  26
ATOM     26  O   UNL     1     -37.746  39.541  47.348  1.00  0.00    -0.507 OA
ATOM     27  H   UNL     1     -37.408  40.338  47.866  1.00  0.00     0.293 HD
ENDBRANCH   6  26
BRANCH   8  28
ATOM     28  O   UNL     1     -36.989  35.714  44.578  1.00  0.00    -0.508 OA
ATOM     29  H   UNL     1     -37.755  35.348  44.025  1.00  0.00     0.293 HD
ENDBRANCH   8  28
TORSDOF 7
ENDMDL
MODEL 9
REMARK VINA RESULT:    -7.982      3.807      6.617
REMARK INTER + INTRA:          -9.969
REMARK INTER:                  -9.616
REMARK INTRA:                  -0.353
REMARK UNBOUND:                -0.121
REMARK SMILES O=c1c(O)c(-c2cc(O)c(O)c(O)c2)oc2cc(O)cc(O)c12
REMARK SMILES IDX 5 1 3 2 2 3 1 4 23 5 21 6 20 7 18 8 17 9 16 10 15 11 6 12
REMARK SMILES IDX 7 13 8 14 14 15 10 16 12 17 9 18 11 20 13 22 4 24 22 26
REMARK SMILES IDX 19 28
REMARK H PARENT 9 19 11 21 13 23 4 25 22 27 19 29
REMARK Flexibility Score: inf
ROOT
ATOM      1  C   UNL     1     -36.391  40.108  43.869  1.00  0.00     0.180 A 
ATOM      2  C   UNL     1     -35.475  39.572  44.790  1.00  0.00     0.208 A 
ATOM      3  C   UNL     1     -35.960  38.989  45.972  1.00  0.00     0.238 A 
ATOM      4  O   UNL     1     -35.139  38.463  46.768  1.00  0.00    -0.285 OA
ATOM      5  C   UNL     1     -37.353  38.962  46.224  1.00  0.00     0.111 A 
ATOM      6  C   UNL     1     -37.953  38.432  47.407  1.00  0.00     0.134 A 
ATOM      7  C   UNL     1     -39.347  38.339  47.491  1.00  0.00     0.093 A 
ATOM      8  C   UNL     1     -40.164  38.815  46.467  1.00  0.00     0.123 A 
ATOM      9  C   UNL     1     -39.590  39.390  45.332  1.00  0.00     0.094 A 
ATOM     10  C   UNL     1     -38.201  39.464  45.203  1.00  0.00     0.146 A 
ATOM     11  O   UNL     1     -37.694  40.009  44.104  1.00  0.00    -0.452 OA
ENDROOT
BRANCH   1  12
ATOM     12  C   UNL     1     -35.954  40.761  42.614  1.00  0.00     0.029 A 
ATOM     13  C   UNL     1     -35.804  42.156  42.530  1.00  0.00     0.062 A 
ATOM     14  C   UNL     1     -35.414  42.759  41.326  1.00  0.00     0.162 A 
ATOM     15  C   UNL     1     -35.741  39.981  41.467  1.00  0.00     0.062 A 
ATOM     16  C   UNL     1     -35.180  41.967  40.190  1.00  0.00     0.200 A 
ATOM     17  C   UNL     1     -35.348  40.578  40.261  1.00  0.00     0.162 A 
BRANCH  14  18
ATOM     18  O   UNL     1     -35.261  44.144  41.254  1.00  0.00    -0.504 OA
ATOM     19  H   UNL     1     -36.060  44.763  41.188  1.00  0.00     0.293 HD
ENDBRANCH  14  18
BRANCH  16  20
ATOM     20  O   UNL     1     -34.787  42.543  38.981  1.00  0.00    -0.502 OA
ATOM     21  H   UNL     1     -34.119  43.305  38.940  1.00  0.00     0.293 HD
ENDBRANCH  16  20
BRANCH  17  22
ATOM     22  O   UNL     1     -35.124  39.797  39.129  1.00  0.00    -0.504 OA
ATOM     23  H   UNL     1     -34.398  39.091  39.107  1.00  0.00     0.293 HD
ENDBRANCH  17  22
ENDBRANCH   1  12
BRANCH   2  24
ATOM     24  O   UNL     1     -34.106  39.590  44.511  1.00  0.00    -0.502 OA
ATOM     25  H   UNL     1     -33.422  39.149  45.115  1.00  0.00     0.293 HD
ENDBRANCH   2  24
BRANCH   6  26
ATOM     26  O   UNL     1     -37.230  38.011  48.526  1.00  0.00    -0.507 OA
ATOM     27  H   UNL     1     -37.573  37.369  49.224  1.00  0.00     0.293 HD
ENDBRANCH   6  26
BRANCH   8  28
ATOM     28  O   UNL     1     -41.548  38.721  46.592  1.00  0.00    -0.508 OA
ATOM     29  H   UNL     1     -42.106  39.504  46.914  1.00  0.00     0.293 HD
ENDBRANCH   8  28
TORSDOF 7
ENDMDL
