MODEL 1
REMARK VINA RESULT:    -6.213      0.000      0.000
REMARK INTER + INTRA:          -8.048
REMARK INTER:                  -7.847
REMARK INTRA:                  -0.200
REMARK UNBOUND:                -0.200
REMARK SMILES O=C(C=Cc1ccc(O)cc1)c1ccc(O)cc1O
REMARK SMILES IDX 4 1 3 2 5 3 6 4 7 5 8 6 11 7 10 8 9 9 2 11 1 12 12 13 18 14
REMARK SMILES IDX 13 15 17 16 14 17 15 18 19 19 16 21
REMARK H PARENT 9 10 19 20 16 22
REMARK Flexibility Score: inf
ROOT
ATOM      1  C   UNL     1      75.287  34.655  52.731  1.00  0.00     0.012 C 
ATOM      2  C   UNL     1      76.306  35.525  52.711  1.00  0.00     0.053 C 
ENDROOT
BRANCH   1   3
ATOM      3  C   UNL     1      74.265  34.608  53.806  1.00  0.00    -0.025 A 
ATOM      4  C   UNL     1      73.409  33.503  53.989  1.00  0.00     0.012 A 
ATOM      5  C   UNL     1      72.453  33.510  55.010  1.00  0.00     0.047 A 
ATOM      6  C   UNL     1      72.330  34.618  55.852  1.00  0.00     0.115 A 
ATOM      7  C   UNL     1      74.122  35.723  54.648  1.00  0.00     0.012 A 
ATOM      8  C   UNL     1      73.166  35.726  55.668  1.00  0.00     0.047 A 
BRANCH   6   9
ATOM      9  O   UNL     1      71.374  34.610  56.865  1.00  0.00    -0.508 OA
ATOM     10  H   UNL     1      71.322  33.856  57.539  1.00  0.00     0.293 HD
ENDBRANCH   6   9
ENDBRANCH   1   3
BRANCH   2  11
ATOM     11  C   UNL     1      77.298  35.551  51.614  1.00  0.00     0.189 C 
ATOM     12  O   UNL     1      77.026  36.125  50.525  1.00  0.00    -0.289 OA
BRANCH  11  13
ATOM     13  C   UNL     1      78.607  34.878  51.775  1.00  0.00     0.064 A 
ATOM     14  C   UNL     1      78.710  33.484  52.004  1.00  0.00     0.130 A 
ATOM     15  C   UNL     1      79.782  35.652  51.740  1.00  0.00     0.020 A 
ATOM     16  C   UNL     1      79.966  32.907  52.223  1.00  0.00     0.093 A 
ATOM     17  C   UNL     1      81.030  35.061  51.946  1.00  0.00     0.047 A 
ATOM     18  C   UNL     1      81.125  33.687  52.194  1.00  0.00     0.119 A 
BRANCH  14  19
ATOM     19  O   UNL     1      77.595  32.643  51.992  1.00  0.00    -0.507 OA
ATOM     20  H   UNL     1      76.760  32.834  51.455  1.00  0.00     0.293 HD
ENDBRANCH  14  19
BRANCH  18  21
ATOM     21  O   UNL     1      82.364  33.088  52.408  1.00  0.00    -0.508 OA
ATOM     22  H   UNL     1      82.961  33.366  53.178  1.00  0.00     0.293 HD
ENDBRANCH  18  21
ENDBRANCH  11  13
ENDBRANCH   2  11
TORSDOF 6
ENDMDL
MODEL 2
REMARK VINA RESULT:    -5.951     15.207     18.087
REMARK INTER + INTRA:          -7.716
REMARK INTER:                  -7.196
REMARK INTRA:                  -0.520
REMARK UNBOUND:                -0.200
REMARK SMILES O=C(C=Cc1ccc(O)cc1)c1ccc(O)cc1O
REMARK SMILES IDX 4 1 3 2 5 3 6 4 7 5 8 6 11 7 10 8 9 9 2 11 1 12 12 13 18 14
REMARK SMILES IDX 13 15 17 16 14 17 15 18 19 19 16 21
REMARK H PARENT 9 10 19 20 16 22
REMARK Flexibility Score: inf
ROOT
ATOM      1  C   UNL     1      88.080  27.988  64.904  1.00  0.00     0.012 C 
ATOM      2  C   UNL     1      88.444  29.270  64.757  1.00  0.00     0.053 C 
ENDROOT
BRANCH   1   3
ATOM      3  C   UNL     1      88.337  26.937  63.889  1.00  0.00    -0.025 A 
ATOM      4  C   UNL     1      88.912  27.221  62.633  1.00  0.00     0.012 A 
ATOM      5  C   UNL     1      89.125  26.198  61.704  1.00  0.00     0.047 A 
ATOM      6  C   UNL     1      88.760  24.883  62.008  1.00  0.00     0.115 A 
ATOM      7  C   UNL     1      87.959  25.615  64.177  1.00  0.00     0.012 A 
ATOM      8  C   UNL     1      88.175  24.594  63.246  1.00  0.00     0.047 A 
BRANCH   6   9
ATOM      9  O   UNL     1      88.979  23.875  61.073  1.00  0.00    -0.508 OA
ATOM     10  H   UNL     1      88.542  23.894  60.159  1.00  0.00     0.293 HD
ENDBRANCH   6   9
ENDBRANCH   1   3
BRANCH   2  11
ATOM     11  C   UNL     1      88.182  30.287  65.798  1.00  0.00     0.189 C 
ATOM     12  O   UNL     1      89.099  30.633  66.593  1.00  0.00    -0.289 OA
BRANCH  11  13
ATOM     13  C   UNL     1      86.836  30.885  65.937  1.00  0.00     0.064 A 
ATOM     14  C   UNL     1      86.453  31.610  67.092  1.00  0.00     0.130 A 
ATOM     15  C   UNL     1      85.893  30.692  64.910  1.00  0.00     0.020 A 
ATOM     16  C   UNL     1      85.144  32.093  67.208  1.00  0.00     0.093 A 
ATOM     17  C   UNL     1      84.595  31.191  65.032  1.00  0.00     0.047 A 
ATOM     18  C   UNL     1      84.215  31.888  66.184  1.00  0.00     0.119 A 
BRANCH  14  19
ATOM     19  O   UNL     1      87.349  31.894  68.125  1.00  0.00    -0.507 OA
ATOM     20  H   UNL     1      87.240  32.678  68.755  1.00  0.00     0.293 HD
ENDBRANCH  14  19
BRANCH  18  21
ATOM     21  O   UNL     1      82.921  32.384  66.319  1.00  0.00    -0.508 OA
ATOM     22  H   UNL     1      82.353  32.168  67.130  1.00  0.00     0.293 HD
ENDBRANCH  18  21
ENDBRANCH  11  13
ENDBRANCH   2  11
TORSDOF 6
ENDMDL
MODEL 3
REMARK VINA RESULT:    -5.559      1.563      7.237
REMARK INTER + INTRA:          -7.222
REMARK INTER:                  -6.678
REMARK INTRA:                  -0.544
REMARK UNBOUND:                -0.200
REMARK SMILES O=C(C=Cc1ccc(O)cc1)c1ccc(O)cc1O
REMARK SMILES IDX 4 1 3 2 5 3 6 4 7 5 8 6 11 7 10 8 9 9 2 11 1 12 12 13 18 14
REMARK SMILES IDX 13 15 17 16 14 17 15 18 19 19 16 21
REMARK H PARENT 9 10 19 20 16 22
REMARK Flexibility Score: inf
ROOT
ATOM      1  C   UNL     1      76.539  33.435  52.329  1.00  0.00     0.012 C 
ATOM      2  C   UNL     1      75.930  34.592  52.625  1.00  0.00     0.053 C 
ENDROOT
BRANCH   1   3
ATOM      3  C   UNL     1      78.012  33.274  52.260  1.00  0.00    -0.025 A 
ATOM      4  C   UNL     1      78.654  32.047  52.528  1.00  0.00     0.012 A 
ATOM      5  C   UNL     1      80.047  31.948  52.462  1.00  0.00     0.047 A 
ATOM      6  C   UNL     1      80.819  33.067  52.140  1.00  0.00     0.115 A 
ATOM      7  C   UNL     1      78.799  34.397  51.953  1.00  0.00     0.012 A 
ATOM      8  C   UNL     1      80.191  34.293  51.887  1.00  0.00     0.047 A 
BRANCH   6   9
ATOM      9  O   UNL     1      82.206  32.952  52.077  1.00  0.00    -0.508 OA
ATOM     10  H   UNL     1      82.807  33.767  52.113  1.00  0.00     0.293 HD
ENDBRANCH   6   9
ENDBRANCH   1   3
BRANCH   2  11
ATOM     11  C   UNL     1      74.457  34.711  52.697  1.00  0.00     0.189 C 
ATOM     12  O   UNL     1      73.788  34.956  51.657  1.00  0.00    -0.289 OA
BRANCH  11  13
ATOM     13  C   UNL     1      73.760  34.574  53.995  1.00  0.00     0.064 A 
ATOM     14  C   UNL     1      73.198  33.344  54.418  1.00  0.00     0.130 A 
ATOM     15  C   UNL     1      73.614  35.707  54.816  1.00  0.00     0.020 A 
ATOM     16  C   UNL     1      72.484  33.283  55.620  1.00  0.00     0.093 A 
ATOM     17  C   UNL     1      72.910  35.630  56.020  1.00  0.00     0.047 A 
ATOM     18  C   UNL     1      72.339  34.418  56.423  1.00  0.00     0.119 A 
BRANCH  14  19
ATOM     19  O   UNL     1      73.354  32.163  53.689  1.00  0.00    -0.507 OA
ATOM     20  H   UNL     1      72.764  31.912  52.906  1.00  0.00     0.293 HD
ENDBRANCH  14  19
BRANCH  18  21
ATOM     21  O   UNL     1      71.630  34.330  57.618  1.00  0.00    -0.508 OA
ATOM     22  H   UNL     1      71.313  35.158  58.108  1.00  0.00     0.293 HD
ENDBRANCH  18  21
ENDBRANCH  11  13
ENDBRANCH   2  11
TORSDOF 6
ENDMDL
MODEL 4
REMARK VINA RESULT:    -4.740     15.354     17.783
REMARK INTER + INTRA:          -6.187
REMARK INTER:                  -5.977
REMARK INTRA:                  -0.210
REMARK UNBOUND:                -0.200
REMARK SMILES O=C(C=Cc1ccc(O)cc1)c1ccc(O)cc1O
REMARK SMILES IDX 4 1 3 2 5 3 6 4 7 5 8 6 11 7 10 8 9 9 2 11 1 12 12 13 18 14
REMARK SMILES IDX 13 15 17 16 14 17 15 18 19 19 16 21
REMARK H PARENT 9 10 19 20 16 22
REMARK Flexibility Score: inf
ROOT
ATOM      1  C   UNL     1      88.865  28.862  65.148  1.00  0.00     0.012 C 
ATOM      2  C   UNL     1      87.853  29.724  65.319  1.00  0.00     0.053 C 
ENDROOT
BRANCH   1   3
ATOM      3  C   UNL     1      88.789  27.665  64.275  1.00  0.00    -0.025 A 
ATOM      4  C   UNL     1      88.428  26.392  64.764  1.00  0.00     0.012 A 
ATOM      5  C   UNL     1      88.383  25.291  63.904  1.00  0.00     0.047 A 
ATOM      6  C   UNL     1      88.703  25.439  62.552  1.00  0.00     0.115 A 
ATOM      7  C   UNL     1      89.125  27.799  62.918  1.00  0.00     0.012 A 
ATOM      8  C   UNL     1      89.076  26.695  62.061  1.00  0.00     0.047 A 
BRANCH   6   9
ATOM      9  O   UNL     1      88.651  24.332  61.707  1.00  0.00    -0.508 OA
ATOM     10  H   UNL     1      87.771  23.977  61.352  1.00  0.00     0.293 HD
ENDBRANCH   6   9
ENDBRANCH   1   3
BRANCH   2  11
ATOM     11  C   UNL     1      87.971  30.916  66.187  1.00  0.00     0.189 C 
ATOM     12  O   UNL     1      88.225  30.784  67.415  1.00  0.00    -0.289 OA
BRANCH  11  13
ATOM     13  C   UNL     1      87.761  32.270  65.629  1.00  0.00     0.064 A 
ATOM     14  C   UNL     1      86.615  32.596  64.862  1.00  0.00     0.130 A 
ATOM     15  C   UNL     1      88.748  33.253  65.830  1.00  0.00     0.020 A 
ATOM     16  C   UNL     1      86.498  33.870  64.293  1.00  0.00     0.093 A 
ATOM     17  C   UNL     1      88.613  34.524  65.268  1.00  0.00     0.047 A 
ATOM     18  C   UNL     1      87.490  34.834  64.494  1.00  0.00     0.119 A 
BRANCH  14  19
ATOM     19  O   UNL     1      85.566  31.695  64.670  1.00  0.00    -0.507 OA
ATOM     20  H   UNL     1      85.601  30.935  64.004  1.00  0.00     0.293 HD
ENDBRANCH  14  19
BRANCH  18  21
ATOM     21  O   UNL     1      87.347  36.097  63.923  1.00  0.00    -0.508 OA
ATOM     22  H   UNL     1      88.090  36.784  63.966  1.00  0.00     0.293 HD
ENDBRANCH  18  21
ENDBRANCH  11  13
ENDBRANCH   2  11
TORSDOF 6
ENDMDL
MODEL 5
REMARK VINA RESULT:    -4.312     16.050     17.777
REMARK INTER + INTRA:          -5.646
REMARK INTER:                  -4.949
REMARK INTRA:                  -0.697
REMARK UNBOUND:                -0.200
REMARK SMILES O=C(C=Cc1ccc(O)cc1)c1ccc(O)cc1O
REMARK SMILES IDX 4 1 3 2 5 3 6 4 7 5 8 6 11 7 10 8 9 9 2 11 1 12 12 13 18 14
REMARK SMILES IDX 13 15 17 16 14 17 15 18 19 19 16 21
REMARK H PARENT 9 10 19 20 16 22
REMARK Flexibility Score: inf
ROOT
ATOM      1  C   UNL     1      87.975  29.662  65.093  1.00  0.00     0.012 C 
ATOM      2  C   UNL     1      86.808  30.091  65.595  1.00  0.00     0.053 C 
ENDROOT
BRANCH   1   3
ATOM      3  C   UNL     1      88.138  28.377  64.369  1.00  0.00    -0.025 A 
ATOM      4  C   UNL     1      89.015  28.230  63.275  1.00  0.00     0.012 A 
ATOM      5  C   UNL     1      89.125  27.001  62.617  1.00  0.00     0.047 A 
ATOM      6  C   UNL     1      88.359  25.908  63.032  1.00  0.00     0.115 A 
ATOM      7  C   UNL     1      87.360  27.277  64.767  1.00  0.00     0.012 A 
ATOM      8  C   UNL     1      87.474  26.050  64.107  1.00  0.00     0.047 A 
BRANCH   6   9
ATOM      9  O   UNL     1      88.480  24.690  62.367  1.00  0.00    -0.508 OA
ATOM     10  H   UNL     1      88.131  23.829  62.770  1.00  0.00     0.293 HD
ENDBRANCH   6   9
ENDBRANCH   1   3
BRANCH   2  11
ATOM     11  C   UNL     1      86.682  31.385  66.299  1.00  0.00     0.189 C 
ATOM     12  O   UNL     1      85.970  31.477  67.336  1.00  0.00    -0.289 OA
BRANCH  11  13
ATOM     13  C   UNL     1      87.365  32.590  65.776  1.00  0.00     0.064 A 
ATOM     14  C   UNL     1      88.462  33.182  66.450  1.00  0.00     0.130 A 
ATOM     15  C   UNL     1      86.885  33.190  64.597  1.00  0.00     0.020 A 
ATOM     16  C   UNL     1      89.026  34.363  65.955  1.00  0.00     0.093 A 
ATOM     17  C   UNL     1      87.466  34.361  64.106  1.00  0.00     0.047 A 
ATOM     18  C   UNL     1      88.536  34.953  64.787  1.00  0.00     0.119 A 
BRANCH  14  19
ATOM     19  O   UNL     1      89.032  32.611  67.590  1.00  0.00    -0.507 OA
ATOM     20  H   UNL     1      90.024  32.437  67.688  1.00  0.00     0.293 HD
ENDBRANCH  14  19
BRANCH  18  21
ATOM     21  O   UNL     1      89.119  36.125  64.311  1.00  0.00    -0.508 OA
ATOM     22  H   UNL     1      88.738  37.036  64.537  1.00  0.00     0.293 HD
ENDBRANCH  18  21
ENDBRANCH  11  13
ENDBRANCH   2  11
TORSDOF 6
ENDMDL
MODEL 6
REMARK VINA RESULT:    -4.236      2.181      2.922
REMARK INTER + INTRA:          -5.551
REMARK INTER:                  -4.910
REMARK INTRA:                  -0.641
REMARK UNBOUND:                -0.200
REMARK SMILES O=C(C=Cc1ccc(O)cc1)c1ccc(O)cc1O
REMARK SMILES IDX 4 1 3 2 5 3 6 4 7 5 8 6 11 7 10 8 9 9 2 11 1 12 12 13 18 14
REMARK SMILES IDX 13 15 17 16 14 17 15 18 19 19 16 21
REMARK H PARENT 9 10 19 20 16 22
REMARK Flexibility Score: inf
ROOT
ATOM      1  C   UNL     1      77.266  34.498  52.401  1.00  0.00     0.012 C 
ATOM      2  C   UNL     1      78.043  35.508  52.816  1.00  0.00     0.053 C 
ENDROOT
BRANCH   1   3
ATOM      3  C   UNL     1      75.800  34.441  52.621  1.00  0.00    -0.025 A 
ATOM      4  C   UNL     1      74.918  35.413  52.104  1.00  0.00     0.012 A 
ATOM      5  C   UNL     1      73.545  35.323  52.349  1.00  0.00     0.047 A 
ATOM      6  C   UNL     1      73.032  34.274  53.116  1.00  0.00     0.115 A 
ATOM      7  C   UNL     1      75.276  33.400  53.405  1.00  0.00     0.012 A 
ATOM      8  C   UNL     1      73.902  33.313  53.646  1.00  0.00     0.047 A 
BRANCH   6   9
ATOM      9  O   UNL     1      71.661  34.197  53.350  1.00  0.00    -0.508 OA
ATOM     10  H   UNL     1      71.039  34.960  53.110  1.00  0.00     0.293 HD
ENDBRANCH   6   9
ENDBRANCH   1   3
BRANCH   2  11
ATOM     11  C   UNL     1      79.500  35.536  52.566  1.00  0.00     0.189 C 
ATOM     12  O   UNL     1      80.272  36.123  53.373  1.00  0.00    -0.289 OA
BRANCH  11  13
ATOM     13  C   UNL     1      80.062  34.903  51.352  1.00  0.00     0.064 A 
ATOM     14  C   UNL     1      80.744  33.662  51.401  1.00  0.00     0.130 A 
ATOM     15  C   UNL     1      79.952  35.572  50.119  1.00  0.00     0.020 A 
ATOM     16  C   UNL     1      81.322  33.141  50.237  1.00  0.00     0.093 A 
ATOM     17  C   UNL     1      80.521  35.034  48.963  1.00  0.00     0.047 A 
ATOM     18  C   UNL     1      81.212  33.819  49.020  1.00  0.00     0.119 A 
BRANCH  14  19
ATOM     19  O   UNL     1      80.841  32.911  52.574  1.00  0.00    -0.507 OA
ATOM     20  H   UNL     1      80.332  32.050  52.726  1.00  0.00     0.293 HD
ENDBRANCH  14  19
BRANCH  18  21
ATOM     21  O   UNL     1      81.790  33.276  47.875  1.00  0.00    -0.508 OA
ATOM     22  H   UNL     1      81.228  32.840  47.154  1.00  0.00     0.293 HD
ENDBRANCH  18  21
ENDBRANCH  11  13
ENDBRANCH   2  11
TORSDOF 6
ENDMDL
