MODEL 1
REMARK VINA RESULT:    13.432      0.000      0.000
REMARK INTER + INTRA:          21.277
REMARK INTER:                  20.499
REMARK INTRA:                   0.778
REMARK UNBOUND:                 0.778
REMARK SMILES OC[C@H]1O[C@H](O[C@]2(CO)O[C@H](CO)[C@@H](O)[C@H]2O)[C@H](O)[C@H](O)[C@@H]1O
REMARK SMILES IDX 6 1 5 2 3 3 22 4 4 5 20 6 18 7 2 8 1 9 23 11 21 13 19 15
REMARK SMILES IDX 7 17 16 18 10 19 14 20 11 21 8 22 9 23 17 25 15 27 12 29
REMARK SMILES IDX 13 30
REMARK H PARENT 1 10 23 12 21 14 19 16 9 24 17 26 15 28 13 31
REMARK Flexibility Score: inf
ROOT
ATOM      1  O   UNL     1      22.520  14.131 -17.839  1.00  0.00    -0.313 OA
ENDROOT
BRANCH   1   2
ATOM      2  C   UNL     1      21.248  14.306 -18.444  1.00  0.00     0.285 C 
ATOM      3  C   UNL     1      20.827  13.431 -20.677  1.00  0.00     0.178 C 
ATOM      4  C   UNL     1      20.895  11.965 -20.151  1.00  0.00     0.177 C 
ATOM      5  O   UNL     1      21.459  14.397 -19.849  1.00  0.00    -0.341 OA
ATOM      6  C   UNL     1      20.721  11.842 -18.612  1.00  0.00     0.179 C 
ATOM      7  C   UNL     1      20.309  13.173 -17.987  1.00  0.00     0.202 C 
BRANCH   3   8
ATOM      8  C   UNL     1      19.402  13.878 -21.086  1.00  0.00     0.191 C 
BRANCH   8   9
ATOM      9  O   UNL     1      19.274  13.783 -22.484  1.00  0.00    -0.394 OA
ATOM     10  H   UNL     1      18.824  14.611 -22.791  1.00  0.00     0.210 HD
ENDBRANCH   8   9
ENDBRANCH   3   8
BRANCH   4  11
ATOM     11  O   UNL     1      22.124  11.388 -20.535  1.00  0.00    -0.387 OA
ATOM     12  H   UNL     1      22.388  11.785 -21.404  1.00  0.00     0.211 HD
ENDBRANCH   4  11
BRANCH   6  13
ATOM     13  O   UNL     1      21.911  11.392 -18.010  1.00  0.00    -0.387 OA
ATOM     14  H   UNL     1      21.895  11.674 -17.058  1.00  0.00     0.211 HD
ENDBRANCH   6  13
BRANCH   7  15
ATOM     15  O   UNL     1      20.336  13.057 -16.591  1.00  0.00    -0.385 OA
ATOM     16  H   UNL     1      19.430  13.287 -16.256  1.00  0.00     0.211 HD
ENDBRANCH   7  15
ENDBRANCH   1   2
BRANCH   1  17
ATOM     17  C   UNL     1      23.645  14.547 -18.622  1.00  0.00     0.224 C 
ATOM     18  C   UNL     1      23.362  15.957 -19.188  1.00  0.00     0.208 C 
ATOM     19  O   UNL     1      24.723  14.707 -17.719  1.00  0.00    -0.337 OA
ATOM     20  C   UNL     1      23.584  16.808 -17.953  1.00  0.00     0.180 C 
ATOM     21  C   UNL     1      24.639  16.011 -17.165  1.00  0.00     0.179 C 
BRANCH  17  22
ATOM     22  C   UNL     1      24.063  13.500 -19.705  1.00  0.00     0.225 C 
BRANCH  22  23
ATOM     23  O   UNL     1      24.241  12.224 -19.153  1.00  0.00    -0.391 OA
ATOM     24  H   UNL     1      25.220  12.051 -19.105  1.00  0.00     0.210 HD
ENDBRANCH  22  23
ENDBRANCH  17  22
BRANCH  18  25
ATOM     25  O   UNL     1      24.235  16.295 -20.246  1.00  0.00    -0.385 OA
ATOM     26  H   UNL     1      24.206  15.564 -20.917  1.00  0.00     0.211 HD
ENDBRANCH  18  25
BRANCH  20  27
ATOM     27  O   UNL     1      23.971  18.137 -18.227  1.00  0.00    -0.387 OA
ATOM     28  H   UNL     1      24.671  18.411 -17.584  1.00  0.00     0.211 HD
ENDBRANCH  20  27
BRANCH  21  29
ATOM     29  C   UNL     1      24.312  15.911 -15.658  1.00  0.00     0.191 C 
BRANCH  29  30
ATOM     30  O   UNL     1      25.477  15.622 -14.930  1.00  0.00    -0.394 OA
ATOM     31  H   UNL     1      25.198  15.159 -14.098  1.00  0.00     0.210 HD
ENDBRANCH  29  30
ENDBRANCH  21  29
ENDBRANCH   1  17
TORSDOF 13
ENDMDL
MODEL 2
REMARK VINA RESULT:    13.790      2.049      3.776
REMARK INTER + INTRA:          21.823
REMARK INTER:                  21.065
REMARK INTRA:                   0.758
REMARK UNBOUND:                 0.778
REMARK SMILES OC[C@H]1O[C@H](O[C@]2(CO)O[C@H](CO)[C@@H](O)[C@H]2O)[C@H](O)[C@H](O)[C@@H]1O
REMARK SMILES IDX 6 1 5 2 3 3 22 4 4 5 20 6 18 7 2 8 1 9 23 11 21 13 19 15
REMARK SMILES IDX 7 17 16 18 10 19 14 20 11 21 8 22 9 23 17 25 15 27 12 29
REMARK SMILES IDX 13 30
REMARK H PARENT 1 10 23 12 21 14 19 16 9 24 17 26 15 28 13 31
REMARK Flexibility Score: inf
ROOT
ATOM      1  O   UNL     1      21.381  12.530 -20.272  1.00  0.00    -0.313 OA
ENDROOT
BRANCH   1   2
ATOM      2  C   UNL     1      21.620  13.523 -21.257  1.00  0.00     0.285 C 
ATOM      3  C   UNL     1      20.546  13.362 -23.437  1.00  0.00     0.178 C 
ATOM      4  C   UNL     1      19.150  13.655 -22.808  1.00  0.00     0.177 C 
ATOM      5  O   UNL     1      21.529  12.886 -22.528  1.00  0.00    -0.341 OA
ATOM      6  C   UNL     1      19.221  14.302 -21.398  1.00  0.00     0.179 C 
ATOM      7  C   UNL     1      20.651  14.700 -21.036  1.00  0.00     0.202 C 
BRANCH   3   8
ATOM      8  C   UNL     1      21.092  14.522 -24.306  1.00  0.00     0.191 C 
BRANCH   8   9
ATOM      9  O   UNL     1      21.593  13.996 -25.512  1.00  0.00    -0.394 OA
ATOM     10  H   UNL     1      20.816  13.857 -26.112  1.00  0.00     0.210 HD
ENDBRANCH   8   9
ENDBRANCH   3   8
BRANCH   4  11
ATOM     11  O   UNL     1      18.408  12.457 -22.742  1.00  0.00    -0.387 OA
ATOM     12  H   UNL     1      18.500  11.994 -23.613  1.00  0.00     0.211 HD
ENDBRANCH   4  11
BRANCH   6  13
ATOM     13  O   UNL     1      18.720  13.423 -20.420  1.00  0.00    -0.387 OA
ATOM     14  H   UNL     1      18.870  13.840 -19.531  1.00  0.00     0.211 HD
ENDBRANCH   6  13
BRANCH   7  15
ATOM     15  O   UNL     1      20.691  15.114 -19.698  1.00  0.00    -0.385 OA
ATOM     16  H   UNL     1      20.739  14.297 -19.135  1.00  0.00     0.211 HD
ENDBRANCH   7  15
ENDBRANCH   1   2
BRANCH   1  17
ATOM     17  C   UNL     1      22.478  12.247 -19.394  1.00  0.00     0.224 C 
ATOM     18  C   UNL     1      23.268  13.552 -19.150  1.00  0.00     0.208 C 
ATOM     19  O   UNL     1      21.910  11.905 -18.143  1.00  0.00    -0.337 OA
ATOM     20  C   UNL     1      22.346  14.267 -18.181  1.00  0.00     0.180 C 
ATOM     21  C   UNL     1      21.664  13.108 -17.431  1.00  0.00     0.179 C 
BRANCH  17  22
ATOM     22  C   UNL     1      23.360  11.050 -19.877  1.00  0.00     0.225 C 
BRANCH  22  23
ATOM     23  O   UNL     1      24.396  11.476 -20.721  1.00  0.00    -0.391 OA
ATOM     24  H   UNL     1      24.018  12.159 -21.339  1.00  0.00     0.210 HD
ENDBRANCH  22  23
ENDBRANCH  17  22
BRANCH  18  25
ATOM     25  O   UNL     1      24.549  13.309 -18.604  1.00  0.00    -0.385 OA
ATOM     26  H   UNL     1      24.450  13.191 -17.623  1.00  0.00     0.211 HD
ENDBRANCH  18  25
BRANCH  20  27
ATOM     27  O   UNL     1      22.998  15.183 -17.330  1.00  0.00    -0.387 OA
ATOM     28  H   UNL     1      23.845  14.783 -17.010  1.00  0.00     0.211 HD
ENDBRANCH  20  27
BRANCH  21  29
ATOM     29  C   UNL     1      20.141  13.312 -17.274  1.00  0.00     0.191 C 
BRANCH  29  30
ATOM     30  O   UNL     1      19.447  12.262 -17.896  1.00  0.00    -0.394 OA
ATOM     31  H   UNL     1      19.727  12.246 -18.848  1.00  0.00     0.210 HD
ENDBRANCH  29  30
ENDBRANCH  21  29
ENDBRANCH   1  17
TORSDOF 13
ENDMDL
MODEL 3
REMARK VINA RESULT:    13.883      1.911      4.979
REMARK INTER + INTRA:          21.965
REMARK INTER:                  21.826
REMARK INTRA:                   0.139
REMARK UNBOUND:                 0.778
REMARK SMILES OC[C@H]1O[C@H](O[C@]2(CO)O[C@H](CO)[C@@H](O)[C@H]2O)[C@H](O)[C@H](O)[C@@H]1O
REMARK SMILES IDX 6 1 5 2 3 3 22 4 4 5 20 6 18 7 2 8 1 9 23 11 21 13 19 15
REMARK SMILES IDX 7 17 16 18 10 19 14 20 11 21 8 22 9 23 17 25 15 27 12 29
REMARK SMILES IDX 13 30
REMARK H PARENT 1 10 23 12 21 14 19 16 9 24 17 26 15 28 13 31
REMARK Flexibility Score: inf
ROOT
ATOM      1  O   UNL     1      21.209  14.131 -18.363  1.00  0.00    -0.313 OA
ENDROOT
BRANCH   1   2
ATOM      2  C   UNL     1      21.425  13.122 -17.388  1.00  0.00     0.285 C 
ATOM      3  C   UNL     1      20.241  13.208 -15.261  1.00  0.00     0.178 C 
ATOM      4  C   UNL     1      18.886  12.895 -15.965  1.00  0.00     0.177 C 
ATOM      5  O   UNL     1      21.255  13.729 -16.110  1.00  0.00    -0.341 OA
ATOM      6  C   UNL     1      19.043  12.282 -17.383  1.00  0.00     0.179 C 
ATOM      7  C   UNL     1      20.498  11.927 -17.681  1.00  0.00     0.202 C 
BRANCH   3   8
ATOM      8  C   UNL     1      20.773  12.043 -14.390  1.00  0.00     0.191 C 
BRANCH   8   9
ATOM      9  O   UNL     1      20.963  12.503 -13.074  1.00  0.00    -0.394 OA
ATOM     10  H   UNL     1      21.708  13.157 -13.100  1.00  0.00     0.210 HD
ENDBRANCH   8   9
ENDBRANCH   3   8
BRANCH   4  11
ATOM     11  O   UNL     1      18.117  14.076 -16.043  1.00  0.00    -0.387 OA
ATOM     12  H   UNL     1      18.205  14.435 -16.962  1.00  0.00     0.211 HD
ENDBRANCH   4  11
BRANCH   6  13
ATOM     13  O   UNL     1      18.567  13.170 -18.366  1.00  0.00    -0.387 OA
ATOM     14  H   UNL     1      17.584  13.047 -18.436  1.00  0.00     0.211 HD
ENDBRANCH   6  13
BRANCH   7  15
ATOM     15  O   UNL     1      20.614  11.544 -19.025  1.00  0.00    -0.385 OA
ATOM     16  H   UNL     1      21.309  12.120 -19.439  1.00  0.00     0.211 HD
ENDBRANCH   7  15
ENDBRANCH   1   2
BRANCH   1  17
ATOM     17  C   UNL     1      22.369  14.549 -19.093  1.00  0.00     0.224 C 
ATOM     18  C   UNL     1      23.340  13.353 -19.211  1.00  0.00     0.208 C 
ATOM     19  O   UNL     1      21.934  14.820 -20.412  1.00  0.00    -0.337 OA
ATOM     20  C   UNL     1      22.649  12.531 -20.282  1.00  0.00     0.180 C 
ATOM     21  C   UNL     1      21.934  13.597 -21.132  1.00  0.00     0.179 C 
BRANCH  17  22
ATOM     22  C   UNL     1      23.025  15.846 -18.516  1.00  0.00     0.225 C 
BRANCH  22  23
ATOM     23  O   UNL     1      23.926  15.556 -17.482  1.00  0.00    -0.391 OA
ATOM     24  H   UNL     1      23.529  14.826 -16.933  1.00  0.00     0.210 HD
ENDBRANCH  22  23
ENDBRANCH  17  22
BRANCH  18  25
ATOM     25  O   UNL     1      24.641  13.754 -19.588  1.00  0.00    -0.385 OA
ATOM     26  H   UNL     1      24.935  13.183 -20.344  1.00  0.00     0.211 HD
ENDBRANCH  18  25
BRANCH  20  27
ATOM     27  O   UNL     1      23.517  11.704 -21.027  1.00  0.00    -0.387 OA
ATOM     28  H   UNL     1      23.112  11.523 -21.912  1.00  0.00     0.211 HD
ENDBRANCH  20  27
BRANCH  21  29
ATOM     29  C   UNL     1      20.483  13.205 -21.486  1.00  0.00     0.191 C 
BRANCH  29  30
ATOM     30  O   UNL     1      19.580  14.044 -20.813  1.00  0.00    -0.394 OA
ATOM     31  H   UNL     1      18.941  14.392 -21.488  1.00  0.00     0.210 HD
ENDBRANCH  29  30
ENDBRANCH  21  29
ENDBRANCH   1  17
TORSDOF 13
ENDMDL
MODEL 4
REMARK VINA RESULT:    14.073      0.960      2.486
REMARK INTER + INTRA:          22.255
REMARK INTER:                  22.666
REMARK INTRA:                  -0.411
REMARK UNBOUND:                 0.778
REMARK SMILES OC[C@H]1O[C@H](O[C@]2(CO)O[C@H](CO)[C@@H](O)[C@H]2O)[C@H](O)[C@H](O)[C@@H]1O
REMARK SMILES IDX 6 1 5 2 3 3 22 4 4 5 20 6 18 7 2 8 1 9 23 11 21 13 19 15
REMARK SMILES IDX 7 17 16 18 10 19 14 20 11 21 8 22 9 23 17 25 15 27 12 29
REMARK SMILES IDX 13 30
REMARK H PARENT 1 10 23 12 21 14 19 16 9 24 17 26 15 28 13 31
REMARK Flexibility Score: inf
ROOT
ATOM      1  O   UNL     1      22.272  14.384 -18.034  1.00  0.00    -0.313 OA
ENDROOT
BRANCH   1   2
ATOM      2  C   UNL     1      21.066  14.430 -18.782  1.00  0.00     0.285 C 
ATOM      3  C   UNL     1      20.951  13.380 -20.977  1.00  0.00     0.178 C 
ATOM      4  C   UNL     1      21.052  11.961 -20.340  1.00  0.00     0.177 C 
ATOM      5  O   UNL     1      21.426  14.442 -20.160  1.00  0.00    -0.341 OA
ATOM      6  C   UNL     1      20.716  11.929 -18.823  1.00  0.00     0.179 C 
ATOM      7  C   UNL     1      20.155  13.267 -18.346  1.00  0.00     0.202 C 
BRANCH   3   8
ATOM      8  C   UNL     1      19.556  13.699 -21.567  1.00  0.00     0.191 C 
BRANCH   8   9
ATOM      9  O   UNL     1      19.630  13.654 -22.972  1.00  0.00    -0.394 OA
ATOM     10  H   UNL     1      20.354  14.275 -23.244  1.00  0.00     0.210 HD
ENDBRANCH   8   9
ENDBRANCH   3   8
BRANCH   4  11
ATOM     11  O   UNL     1      22.350  11.447 -20.547  1.00  0.00    -0.387 OA
ATOM     12  H   UNL     1      22.928  11.778 -19.813  1.00  0.00     0.211 HD
ENDBRANCH   4  11
BRANCH   6  13
ATOM     13  O   UNL     1      21.857  11.604 -18.066  1.00  0.00    -0.387 OA
ATOM     14  H   UNL     1      22.617  12.139 -18.417  1.00  0.00     0.211 HD
ENDBRANCH   6  13
BRANCH   7  15
ATOM     15  O   UNL     1      20.033  13.245 -16.950  1.00  0.00    -0.385 OA
ATOM     16  H   UNL     1      19.066  13.178 -16.737  1.00  0.00     0.211 HD
ENDBRANCH   7  15
ENDBRANCH   1   2
BRANCH   1  17
ATOM     17  C   UNL     1      23.208  15.436 -18.296  1.00  0.00     0.224 C 
ATOM     18  C   UNL     1      23.889  15.838 -16.969  1.00  0.00     0.208 C 
ATOM     19  O   UNL     1      24.231  14.870 -19.094  1.00  0.00    -0.337 OA
ATOM     20  C   UNL     1      24.852  14.682 -16.782  1.00  0.00     0.180 C 
ATOM     21  C   UNL     1      25.174  14.260 -18.227  1.00  0.00     0.179 C 
BRANCH  17  22
ATOM     22  C   UNL     1      22.582  16.637 -19.079  1.00  0.00     0.225 C 
BRANCH  22  23
ATOM     23  O   UNL     1      23.548  17.335 -19.818  1.00  0.00    -0.391 OA
ATOM     24  H   UNL     1      23.135  18.188 -20.122  1.00  0.00     0.210 HD
ENDBRANCH  22  23
ENDBRANCH  17  22
BRANCH  18  25
ATOM     25  O   UNL     1      24.547  17.085 -17.060  1.00  0.00    -0.385 OA
ATOM     26  H   UNL     1      25.181  17.046 -17.822  1.00  0.00     0.211 HD
ENDBRANCH  18  25
BRANCH  20  27
ATOM     27  O   UNL     1      25.995  14.999 -16.018  1.00  0.00    -0.387 OA
ATOM     28  H   UNL     1      26.790  14.584 -16.437  1.00  0.00     0.211 HD
ENDBRANCH  20  27
BRANCH  21  29
ATOM     29  C   UNL     1      25.143  12.728 -18.424  1.00  0.00     0.191 C 
BRANCH  29  30
ATOM     30  O   UNL     1      24.222  12.391 -19.429  1.00  0.00    -0.394 OA
ATOM     31  H   UNL     1      23.519  13.091 -19.433  1.00  0.00     0.210 HD
ENDBRANCH  29  30
ENDBRANCH  21  29
ENDBRANCH   1  17
TORSDOF 13
ENDMDL
MODEL 5
REMARK VINA RESULT:    14.290      2.113      5.152
REMARK INTER + INTRA:          22.586
REMARK INTER:                  21.448
REMARK INTRA:                   1.138
REMARK UNBOUND:                 0.778
REMARK SMILES OC[C@H]1O[C@H](O[C@]2(CO)O[C@H](CO)[C@@H](O)[C@H]2O)[C@H](O)[C@H](O)[C@@H]1O
REMARK SMILES IDX 6 1 5 2 3 3 22 4 4 5 20 6 18 7 2 8 1 9 23 11 21 13 19 15
REMARK SMILES IDX 7 17 16 18 10 19 14 20 11 21 8 22 9 23 17 25 15 27 12 29
REMARK SMILES IDX 13 30
REMARK H PARENT 1 10 23 12 21 14 19 16 9 24 17 26 15 28 13 31
REMARK Flexibility Score: inf
ROOT
ATOM      1  O   UNL     1      22.764  12.656 -20.684  1.00  0.00    -0.313 OA
ENDROOT
BRANCH   1   2
ATOM      2  C   UNL     1      21.468  12.335 -20.201  1.00  0.00     0.285 C 
ATOM      3  C   UNL     1      20.757  13.112 -18.005  1.00  0.00     0.178 C 
ATOM      4  C   UNL     1      20.715  14.588 -18.505  1.00  0.00     0.177 C 
ATOM      5  O   UNL     1      21.561  12.235 -18.783  1.00  0.00    -0.341 OA
ATOM      6  C   UNL     1      20.669  14.726 -20.051  1.00  0.00     0.179 C 
ATOM      7  C   UNL     1      20.459  13.373 -20.728  1.00  0.00     0.202 C 
BRANCH   3   8
ATOM      8  C   UNL     1      19.357  12.507 -17.734  1.00  0.00     0.191 C 
BRANCH   8   9
ATOM      9  O   UNL     1      18.974  12.810 -16.415  1.00  0.00    -0.394 OA
ATOM     10  H   UNL     1      18.046  12.479 -16.299  1.00  0.00     0.210 HD
ENDBRANCH   8   9
ENDBRANCH   3   8
BRANCH   4  11
ATOM     11  O   UNL     1      21.836  15.282 -18.002  1.00  0.00    -0.387 OA
ATOM     12  H   UNL     1      22.570  14.627 -17.882  1.00  0.00     0.211 HD
ENDBRANCH   4  11
BRANCH   6  13
ATOM     13  O   UNL     1      21.853  15.312 -20.536  1.00  0.00    -0.387 OA
ATOM     14  H   UNL     1      21.848  15.233 -21.526  1.00  0.00     0.211 HD
ENDBRANCH   6  13
BRANCH   7  15
ATOM     15  O   UNL     1      20.599  13.522 -22.114  1.00  0.00    -0.385 OA
ATOM     16  H   UNL     1      21.567  13.462 -22.324  1.00  0.00     0.211 HD
ENDBRANCH   7  15
ENDBRANCH   1   2
BRANCH   1  17
ATOM     17  C   UNL     1      23.847  12.396 -19.784  1.00  0.00     0.224 C 
ATOM     18  C   UNL     1      23.788  10.914 -19.351  1.00  0.00     0.208 C 
ATOM     19  O   UNL     1      25.036  12.526 -20.541  1.00  0.00    -0.337 OA
ATOM     20  C   UNL     1      24.324  10.233 -20.595  1.00  0.00     0.180 C 
ATOM     21  C   UNL     1      25.284  11.284 -21.182  1.00  0.00     0.179 C 
BRANCH  17  22
ATOM     22  C   UNL     1      23.912  13.405 -18.591  1.00  0.00     0.225 C 
BRANCH  22  23
ATOM     23  O   UNL     1      24.209  14.705 -19.025  1.00  0.00    -0.391 OA
ATOM     24  H   UNL     1      23.464  15.001 -19.617  1.00  0.00     0.210 HD
ENDBRANCH  22  23
ENDBRANCH  17  22
BRANCH  18  25
ATOM     25  O   UNL     1      24.578  10.658 -18.207  1.00  0.00    -0.385 OA
ATOM     26  H   UNL     1      24.001  10.230 -17.522  1.00  0.00     0.211 HD
ENDBRANCH  18  25
BRANCH  20  27
ATOM     27  O   UNL     1      24.934   8.984 -20.354  1.00  0.00    -0.387 OA
ATOM     28  H   UNL     1      25.815   8.961 -20.803  1.00  0.00     0.211 HD
ENDBRANCH  20  27
BRANCH  21  29
ATOM     29  C   UNL     1      25.127  11.450 -22.709  1.00  0.00     0.191 C 
BRANCH  29  30
ATOM     30  O   UNL     1      26.373  11.311 -23.340  1.00  0.00    -0.394 OA
ATOM     31  H   UNL     1      26.215  10.867 -24.213  1.00  0.00     0.210 HD
ENDBRANCH  29  30
ENDBRANCH  21  29
ENDBRANCH   1  17
TORSDOF 13
ENDMDL
MODEL 6
REMARK VINA RESULT:    14.846      1.728      4.069
REMARK INTER + INTRA:          23.435
REMARK INTER:                  22.573
REMARK INTRA:                   0.862
REMARK UNBOUND:                 0.778
REMARK SMILES OC[C@H]1O[C@H](O[C@]2(CO)O[C@H](CO)[C@@H](O)[C@H]2O)[C@H](O)[C@H](O)[C@@H]1O
REMARK SMILES IDX 6 1 5 2 3 3 22 4 4 5 20 6 18 7 2 8 1 9 23 11 21 13 19 15
REMARK SMILES IDX 7 17 16 18 10 19 14 20 11 21 8 22 9 23 17 25 15 27 12 29
REMARK SMILES IDX 13 30
REMARK H PARENT 1 10 23 12 21 14 19 16 9 24 17 26 15 28 13 31
REMARK Flexibility Score: inf
ROOT
ATOM      1  O   UNL     1      22.343  12.385 -20.614  1.00  0.00    -0.313 OA
ENDROOT
BRANCH   1   2
ATOM      2  C   UNL     1      21.086  12.185 -19.985  1.00  0.00     0.285 C 
ATOM      3  C   UNL     1      20.691  13.051 -17.743  1.00  0.00     0.178 C 
ATOM      4  C   UNL     1      20.721  14.518 -18.269  1.00  0.00     0.177 C 
ATOM      5  O   UNL     1      21.326  12.097 -18.584  1.00  0.00    -0.341 OA
ATOM      6  C   UNL     1      20.516  14.639 -19.804  1.00  0.00     0.179 C 
ATOM      7  C   UNL     1      20.118  13.300 -20.422  1.00  0.00     0.202 C 
BRANCH   3   8
ATOM      8  C   UNL     1      19.283  12.575 -17.307  1.00  0.00     0.191 C 
BRANCH   8   9
ATOM      9  O   UNL     1      18.977  13.136 -16.053  1.00  0.00    -0.394 OA
ATOM     10  H   UNL     1      18.432  13.946 -16.224  1.00  0.00     0.210 HD
ENDBRANCH   8   9
ENDBRANCH   3   8
BRANCH   4  11
ATOM     11  O   UNL     1      21.946  15.118 -17.907  1.00  0.00    -0.387 OA
ATOM     12  H   UNL     1      22.341  14.583 -17.173  1.00  0.00     0.211 HD
ENDBRANCH   4  11
BRANCH   6  13
ATOM     13  O   UNL     1      21.685  15.112 -20.428  1.00  0.00    -0.387 OA
ATOM     14  H   UNL     1      21.605  16.099 -20.513  1.00  0.00     0.211 HD
ENDBRANCH   6  13
BRANCH   7  15
ATOM     15  O   UNL     1      20.116  13.418 -21.818  1.00  0.00    -0.385 OA
ATOM     16  H   UNL     1      20.123  12.500 -22.195  1.00  0.00     0.211 HD
ENDBRANCH   7  15
ENDBRANCH   1   2
BRANCH   1  17
ATOM     17  C   UNL     1      23.428  11.601 -20.103  1.00  0.00     0.224 C 
ATOM     18  C   UNL     1      24.594  11.647 -21.115  1.00  0.00     0.208 C 
ATOM     19  O   UNL     1      23.897  12.272 -18.949  1.00  0.00    -0.337 OA
ATOM     20  C   UNL     1      25.142  13.036 -20.855  1.00  0.00     0.180 C 
ATOM     21  C   UNL     1      24.824  13.263 -19.366  1.00  0.00     0.179 C 
BRANCH  17  22
ATOM     22  C   UNL     1      23.001  10.154 -19.690  1.00  0.00     0.225 C 
BRANCH  22  23
ATOM     23  O   UNL     1      23.856   9.618 -18.718  1.00  0.00    -0.391 OA
ATOM     24  H   UNL     1      24.783   9.652 -19.081  1.00  0.00     0.210 HD
ENDBRANCH  22  23
ENDBRANCH  17  22
BRANCH  18  25
ATOM     25  O   UNL     1      25.549  10.632 -20.879  1.00  0.00    -0.385 OA
ATOM     26  H   UNL     1      25.183   9.776 -21.223  1.00  0.00     0.211 HD
ENDBRANCH  18  25
BRANCH  20  27
ATOM     27  O   UNL     1      26.509  13.188 -21.169  1.00  0.00    -0.387 OA
ATOM     28  H   UNL     1      26.747  12.558 -21.895  1.00  0.00     0.211 HD
ENDBRANCH  20  27
BRANCH  21  29
ATOM     29  C   UNL     1      24.241  14.666 -19.085  1.00  0.00     0.191 C 
BRANCH  29  30
ATOM     30  O   UNL     1      24.603  15.089 -17.796  1.00  0.00    -0.394 OA
ATOM     31  H   UNL     1      24.204  14.448 -17.152  1.00  0.00     0.210 HD
ENDBRANCH  29  30
ENDBRANCH  21  29
ENDBRANCH   1  17
TORSDOF 13
ENDMDL
MODEL 7
REMARK VINA RESULT:    15.436      1.313      5.158
REMARK INTER + INTRA:          24.336
REMARK INTER:                  22.812
REMARK INTRA:                   1.523
REMARK UNBOUND:                 0.778
REMARK SMILES OC[C@H]1O[C@H](O[C@]2(CO)O[C@H](CO)[C@@H](O)[C@H]2O)[C@H](O)[C@H](O)[C@@H]1O
REMARK SMILES IDX 6 1 5 2 3 3 22 4 4 5 20 6 18 7 2 8 1 9 23 11 21 13 19 15
REMARK SMILES IDX 7 17 16 18 10 19 14 20 11 21 8 22 9 23 17 25 15 27 12 29
REMARK SMILES IDX 13 30
REMARK H PARENT 1 10 23 12 21 14 19 16 9 24 17 26 15 28 13 31
REMARK Flexibility Score: inf
ROOT
ATOM      1  O   UNL     1      22.432  13.505 -18.134  1.00  0.00    -0.313 OA
ENDROOT
BRANCH   1   2
ATOM      2  C   UNL     1      22.926  14.562 -18.943  1.00  0.00     0.285 C 
ATOM      3  C   UNL     1      23.536  16.691 -17.931  1.00  0.00     0.178 C 
ATOM      4  C   UNL     1      24.759  16.039 -17.218  1.00  0.00     0.177 C 
ATOM      5  O   UNL     1      22.519  15.783 -18.333  1.00  0.00    -0.341 OA
ATOM      6  C   UNL     1      25.190  14.678 -17.830  1.00  0.00     0.179 C 
ATOM      7  C   UNL     1      24.445  14.389 -19.132  1.00  0.00     0.202 C 
BRANCH   3   8
ATOM      8  C   UNL     1      23.926  17.653 -19.080  1.00  0.00     0.191 C 
BRANCH   8   9
ATOM      9  O   UNL     1      23.528  17.088 -20.306  1.00  0.00    -0.394 OA
ATOM     10  H   UNL     1      23.016  17.784 -20.792  1.00  0.00     0.210 HD
ENDBRANCH   8   9
ENDBRANCH   3   8
BRANCH   4  11
ATOM     11  O   UNL     1      24.465  15.869 -15.848  1.00  0.00    -0.387 OA
ATOM     12  H   UNL     1      25.016  16.514 -15.337  1.00  0.00     0.211 HD
ENDBRANCH   4  11
BRANCH   6  13
ATOM     13  O   UNL     1      24.965  13.628 -16.920  1.00  0.00    -0.387 OA
ATOM     14  H   UNL     1      24.016  13.349 -17.007  1.00  0.00     0.211 HD
ENDBRANCH   6  13
BRANCH   7  15
ATOM     15  O   UNL     1      24.735  13.083 -19.550  1.00  0.00    -0.385 OA
ATOM     16  H   UNL     1      24.734  13.082 -20.543  1.00  0.00     0.211 HD
ENDBRANCH   7  15
ENDBRANCH   1   2
BRANCH   1  17
ATOM     17  C   UNL     1      21.134  13.008 -18.481  1.00  0.00     0.224 C 
ATOM     18  C   UNL     1      20.597  13.818 -19.683  1.00  0.00     0.208 C 
ATOM     19  O   UNL     1      21.325  11.692 -18.963  1.00  0.00    -0.337 OA
ATOM     20  C   UNL     1      21.408  13.219 -20.815  1.00  0.00     0.180 C 
ATOM     21  C   UNL     1      21.651  11.773 -20.342  1.00  0.00     0.179 C 
BRANCH  17  22
ATOM     22  C   UNL     1      20.153  12.949 -17.265  1.00  0.00     0.225 C 
BRANCH  22  23
ATOM     23  O   UNL     1      20.835  13.024 -16.043  1.00  0.00    -0.391 OA
ATOM     24  H   UNL     1      20.157  13.180 -15.330  1.00  0.00     0.210 HD
ENDBRANCH  22  23
ENDBRANCH  17  22
BRANCH  18  25
ATOM     25  O   UNL     1      19.206  13.652 -19.862  1.00  0.00    -0.385 OA
ATOM     26  H   UNL     1      18.862  14.434 -20.367  1.00  0.00     0.211 HD
ENDBRANCH  18  25
BRANCH  20  27
ATOM     27  O   UNL     1      20.788  13.302 -22.079  1.00  0.00    -0.387 OA
ATOM     28  H   UNL     1      20.534  12.393 -22.376  1.00  0.00     0.211 HD
ENDBRANCH  20  27
BRANCH  21  29
ATOM     29  C   UNL     1      23.109  11.311 -20.557  1.00  0.00     0.191 C 
BRANCH  29  30
ATOM     30  O   UNL     1      23.582  10.657 -19.407  1.00  0.00    -0.394 OA
ATOM     31  H   UNL     1      24.544  10.462 -19.553  1.00  0.00     0.210 HD
ENDBRANCH  29  30
ENDBRANCH  21  29
ENDBRANCH   1  17
TORSDOF 13
ENDMDL
MODEL 8
REMARK VINA RESULT:    15.512      1.582      5.498
REMARK INTER + INTRA:          24.451
REMARK INTER:                  21.369
REMARK INTRA:                   3.082
REMARK UNBOUND:                 0.778
REMARK SMILES OC[C@H]1O[C@H](O[C@]2(CO)O[C@H](CO)[C@@H](O)[C@H]2O)[C@H](O)[C@H](O)[C@@H]1O
REMARK SMILES IDX 6 1 5 2 3 3 22 4 4 5 20 6 18 7 2 8 1 9 23 11 21 13 19 15
REMARK SMILES IDX 7 17 16 18 10 19 14 20 11 21 8 22 9 23 17 25 15 27 12 29
REMARK SMILES IDX 13 30
REMARK H PARENT 1 10 23 12 21 14 19 16 9 24 17 26 15 28 13 31
REMARK Flexibility Score: inf
ROOT
ATOM      1  O   UNL     1      22.604  13.393 -19.845  1.00  0.00    -0.313 OA
ENDROOT
BRANCH   1   2
ATOM      2  C   UNL     1      23.223  13.485 -18.572  1.00  0.00     0.285 C 
ATOM      3  C   UNL     1      24.764  15.309 -18.092  1.00  0.00     0.178 C 
ATOM      4  C   UNL     1      23.599  16.344 -18.120  1.00  0.00     0.177 C 
ATOM      5  O   UNL     1      24.500  14.087 -18.767  1.00  0.00    -0.341 OA
ATOM      6  C   UNL     1      22.191  15.708 -17.963  1.00  0.00     0.179 C 
ATOM      7  C   UNL     1      22.283  14.227 -17.603  1.00  0.00     0.202 C 
BRANCH   3   8
ATOM      8  C   UNL     1      25.343  15.063 -16.677  1.00  0.00     0.191 C 
BRANCH   8   9
ATOM      9  O   UNL     1      24.659  15.874 -15.753  1.00  0.00    -0.394 OA
ATOM     10  H   UNL     1      23.875  16.254 -16.227  1.00  0.00     0.210 HD
ENDBRANCH   8   9
ENDBRANCH   3   8
BRANCH   4  11
ATOM     11  O   UNL     1      23.655  17.077 -19.324  1.00  0.00    -0.387 OA
ATOM     12  H   UNL     1      23.503  18.032 -19.106  1.00  0.00     0.211 HD
ENDBRANCH   4  11
BRANCH   6  13
ATOM     13  O   UNL     1      21.442  15.856 -19.145  1.00  0.00    -0.387 OA
ATOM     14  H   UNL     1      21.981  15.489 -19.894  1.00  0.00     0.211 HD
ENDBRANCH   6  13
BRANCH   7  15
ATOM     15  O   UNL     1      21.002  13.660 -17.644  1.00  0.00    -0.385 OA
ATOM     16  H   UNL     1      20.830  13.381 -18.582  1.00  0.00     0.211 HD
ENDBRANCH   7  15
ENDBRANCH   1   2
BRANCH   1  17
ATOM     17  C   UNL     1      21.658  12.329 -20.004  1.00  0.00     0.224 C 
ATOM     18  C   UNL     1      20.328  12.742 -19.334  1.00  0.00     0.208 C 
ATOM     19  O   UNL     1      21.378  12.245 -21.388  1.00  0.00    -0.337 OA
ATOM     20  C   UNL     1      19.785  13.718 -20.359  1.00  0.00     0.180 C 
ATOM     21  C   UNL     1      20.356  13.184 -21.685  1.00  0.00     0.179 C 
BRANCH  17  22
ATOM     22  C   UNL     1      22.206  10.943 -19.528  1.00  0.00     0.225 C 
BRANCH  22  23
ATOM     23  O   UNL     1      23.591  10.840 -19.715  1.00  0.00    -0.391 OA
ATOM     24  H   UNL     1      23.757  10.058 -20.309  1.00  0.00     0.210 HD
ENDBRANCH  22  23
ENDBRANCH  17  22
BRANCH  18  25
ATOM     25  O   UNL     1      19.470  11.640 -19.122  1.00  0.00    -0.385 OA
ATOM     26  H   UNL     1      18.588  11.852 -19.525  1.00  0.00     0.211 HD
ENDBRANCH  18  25
BRANCH  20  27
ATOM     27  O   UNL     1      18.379  13.836 -20.357  1.00  0.00    -0.387 OA
ATOM     28  H   UNL     1      18.112  14.534 -21.006  1.00  0.00     0.211 HD
ENDBRANCH  20  27
BRANCH  21  29
ATOM     29  C   UNL     1      20.927  14.303 -22.584  1.00  0.00     0.191 C 
BRANCH  29  30
ATOM     30  O   UNL     1      21.848  13.764 -23.497  1.00  0.00    -0.394 OA
ATOM     31  H   UNL     1      21.715  14.233 -24.362  1.00  0.00     0.210 HD
ENDBRANCH  29  30
ENDBRANCH  21  29
ENDBRANCH   1  17
TORSDOF 13
ENDMDL
MODEL 9
REMARK VINA RESULT:    15.966      2.028      4.679
REMARK INTER + INTRA:          25.145
REMARK INTER:                  23.552
REMARK INTRA:                   1.593
REMARK UNBOUND:                 0.778
REMARK SMILES OC[C@H]1O[C@H](O[C@]2(CO)O[C@H](CO)[C@@H](O)[C@H]2O)[C@H](O)[C@H](O)[C@@H]1O
REMARK SMILES IDX 6 1 5 2 3 3 22 4 4 5 20 6 18 7 2 8 1 9 23 11 21 13 19 15
REMARK SMILES IDX 7 17 16 18 10 19 14 20 11 21 8 22 9 23 17 25 15 27 12 29
REMARK SMILES IDX 13 30
REMARK H PARENT 1 10 23 12 21 14 19 16 9 24 17 26 15 28 13 31
REMARK Flexibility Score: inf
ROOT
ATOM      1  O   UNL     1      22.568  13.339 -20.370  1.00  0.00    -0.313 OA
ENDROOT
BRANCH   1   2
ATOM      2  C   UNL     1      23.079  12.340 -19.502  1.00  0.00     0.285 C 
ATOM      3  C   UNL     1      24.061  10.309 -20.422  1.00  0.00     0.178 C 
ATOM      4  C   UNL     1      25.277  11.110 -20.978  1.00  0.00     0.177 C 
ATOM      5  O   UNL     1      22.901  11.085 -20.153  1.00  0.00    -0.341 OA
ATOM      6  C   UNL     1      25.462  12.506 -20.322  1.00  0.00     0.179 C 
ATOM      7  C   UNL     1      24.531  12.689 -19.125  1.00  0.00     0.202 C 
BRANCH   3   8
ATOM      8  C   UNL     1      24.416   9.388 -19.229  1.00  0.00     0.191 C 
BRANCH   8   9
ATOM      9  O   UNL     1      23.830   9.906 -18.059  1.00  0.00    -0.394 OA
ATOM     10  H   UNL     1      24.413  10.644 -17.746  1.00  0.00     0.210 HD
ENDBRANCH   8   9
ENDBRANCH   3   8
BRANCH   4  11
ATOM     11  O   UNL     1      25.138  11.259 -22.375  1.00  0.00    -0.387 OA
ATOM     12  H   UNL     1      25.698  10.568 -22.811  1.00  0.00     0.211 HD
ENDBRANCH   4  11
BRANCH   6  13
ATOM     13  O   UNL     1      25.229  13.532 -21.257  1.00  0.00    -0.387 OA
ATOM     14  H   UNL     1      26.071  13.678 -21.763  1.00  0.00     0.211 HD
ENDBRANCH   6  13
BRANCH   7  15
ATOM     15  O   UNL     1      24.609  14.016 -18.679  1.00  0.00    -0.385 OA
ATOM     16  H   UNL     1      25.244  14.493 -19.273  1.00  0.00     0.211 HD
ENDBRANCH   7  15
ENDBRANCH   1   2
BRANCH   1  17
ATOM     17  C   UNL     1      21.184  13.667 -20.198  1.00  0.00     0.224 C 
ATOM     18  C   UNL     1      20.597  12.771 -19.083  1.00  0.00     0.208 C 
ATOM     19  O   UNL     1      21.146  14.986 -19.687  1.00  0.00    -0.337 OA
ATOM     20  C   UNL     1      21.171  13.439 -17.850  1.00  0.00     0.180 C 
ATOM     21  C   UNL     1      21.295  14.914 -18.277  1.00  0.00     0.179 C 
BRANCH  17  22
ATOM     22  C   UNL     1      20.372  13.634 -21.534  1.00  0.00     0.225 C 
BRANCH  22  23
ATOM     23  O   UNL     1      21.215  13.588 -22.653  1.00  0.00    -0.391 OA
ATOM     24  H   UNL     1      21.631  12.683 -22.679  1.00  0.00     0.210 HD
ENDBRANCH  22  23
ENDBRANCH  17  22
BRANCH  18  25
ATOM     25  O   UNL     1      19.184  12.763 -19.091  1.00  0.00    -0.385 OA
ATOM     26  H   UNL     1      18.876  13.177 -19.939  1.00  0.00     0.211 HD
ENDBRANCH  18  25
BRANCH  20  27
ATOM     27  O   UNL     1      20.404  13.254 -16.680  1.00  0.00    -0.387 OA
ATOM     28  H   UNL     1      20.177  14.137 -16.297  1.00  0.00     0.211 HD
ENDBRANCH  20  27
BRANCH  21  29
ATOM     29  C   UNL     1      22.643  15.545 -17.866  1.00  0.00     0.191 C 
BRANCH  29  30
ATOM     30  O   UNL     1      23.209  16.224 -18.957  1.00  0.00    -0.394 OA
ATOM     31  H   UNL     1      23.232  15.591 -19.721  1.00  0.00     0.210 HD
ENDBRANCH  29  30
ENDBRANCH  21  29
ENDBRANCH   1  17
TORSDOF 13
ENDMDL
