MODEL 1
REMARK VINA RESULT:     3.126      0.000      0.000
REMARK INTER + INTRA:           4.150
REMARK INTER:                   3.857
REMARK INTRA:                   0.293
REMARK UNBOUND:                 0.293
REMARK SMILES COc1cc(-c2oc3cc(O)cc(O)c3c(=O)c2O)ccc1O
REMARK SMILES IDX 6 1 18 2 16 3 17 4 15 5 13 6 12 7 10 8 9 9 8 10 7 11 5 12
REMARK SMILES IDX 3 13 22 14 4 15 21 16 20 17 2 18 1 19 23 20 19 22 14 24
REMARK SMILES IDX 11 26
REMARK H PARENT 23 21 19 23 14 25 11 27
REMARK Flexibility Score: inf
ROOT
ATOM      1  C   UNL     1      -7.676  -7.884  -9.685  1.00  0.00     0.180 A 
ATOM      2  C   UNL     1      -8.311  -8.745 -10.596  1.00  0.00     0.208 A 
ATOM      3  C   UNL     1      -8.969  -8.194 -11.707  1.00  0.00     0.238 A 
ATOM      4  O   UNL     1      -9.582  -8.966 -12.490  1.00  0.00    -0.285 OA
ATOM      5  C   UNL     1      -8.971  -6.792 -11.902  1.00  0.00     0.111 A 
ATOM      6  C   UNL     1      -9.572  -6.129 -13.013  1.00  0.00     0.134 A 
ATOM      7  C   UNL     1      -9.626  -4.730 -13.036  1.00  0.00     0.093 A 
ATOM      8  C   UNL     1      -9.042  -3.970 -12.020  1.00  0.00     0.123 A 
ATOM      9  C   UNL     1      -8.402  -4.608 -10.960  1.00  0.00     0.094 A 
ATOM     10  C   UNL     1      -8.363  -6.002 -10.891  1.00  0.00     0.146 A 
ATOM     11  O   UNL     1      -7.751  -6.570  -9.859  1.00  0.00    -0.452 OA
ENDROOT
BRANCH   1  12
ATOM     12  C   UNL     1      -6.941  -8.390  -8.503  1.00  0.00     0.025 A 
ATOM     13  C   UNL     1      -5.176  -8.086  -6.837  1.00  0.00     0.161 A 
ATOM     14  C   UNL     1      -5.479  -9.342  -6.296  1.00  0.00     0.157 A 
ATOM     15  C   UNL     1      -5.908  -7.617  -7.948  1.00  0.00     0.062 A 
ATOM     16  C   UNL     1      -6.494 -10.125  -6.860  1.00  0.00     0.051 A 
ATOM     17  C   UNL     1      -7.216  -9.657  -7.960  1.00  0.00     0.016 A 
BRANCH  13  18
ATOM     18  O   UNL     1      -4.148  -7.334  -6.248  1.00  0.00    -0.493 OA
ATOM     19  C   UNL     1      -3.827  -5.992  -6.599  1.00  0.00     0.278 C 
ENDBRANCH  13  18
BRANCH  14  20
ATOM     20  O   UNL     1      -4.760  -9.810  -5.197  1.00  0.00    -0.504 OA
ATOM     21  H   UNL     1      -5.207 -10.343  -4.459  1.00  0.00     0.293 HD
ENDBRANCH  14  20
ENDBRANCH   1  12
BRANCH   2  22
ATOM     22  O   UNL     1      -8.316 -10.125 -10.373  1.00  0.00    -0.502 OA
ATOM     23  H   UNL     1      -8.028 -10.535  -9.493  1.00  0.00     0.293 HD
ENDBRANCH   2  22
BRANCH   6  24
ATOM     24  O   UNL     1     -10.102  -6.792 -14.125  1.00  0.00    -0.507 OA
ATOM     25  H   UNL     1     -10.167  -6.399 -15.051  1.00  0.00     0.293 HD
ENDBRANCH   6  24
BRANCH   8  26
ATOM     26  O   UNL     1      -9.087  -2.578 -12.057  1.00  0.00    -0.508 OA
ATOM     27  H   UNL     1      -8.848  -2.018 -11.246  1.00  0.00     0.293 HD
ENDBRANCH   8  26
TORSDOF 6
ENDMDL
