MODEL 1
REMARK VINA RESULT:    -8.211      0.000      0.000
REMARK INTER + INTRA:          -9.913
REMARK INTER:                  -9.651
REMARK INTRA:                  -0.262
REMARK UNBOUND:                -0.262
REMARK SMILES O=c1cc(-c2ccc(O)c(O)c2)oc2cc(O)cc(O)c12
REMARK SMILES IDX 4 1 3 2 2 3 1 4 21 5 19 6 18 7 16 8 15 9 14 10 13 11 5 12
REMARK SMILES IDX 6 13 7 14 8 15 12 16 10 17 9 18 11 20 20 22 17 24
REMARK H PARENT 9 19 11 21 20 23 17 25
REMARK Flexibility Score: inf
ROOT
ATOM      1  C   UNL     1     -32.901  24.924   2.665  1.00  0.00     0.138 A 
ATOM      2  C   UNL     1     -32.369  25.235   3.923  1.00  0.00     0.100 A 
ATOM      3  C   UNL     1     -31.054  25.691   4.024  1.00  0.00     0.197 A 
ATOM      4  O   UNL     1     -30.624  26.013   5.161  1.00  0.00    -0.289 OA
ATOM      5  C   UNL     1     -30.256  25.801   2.859  1.00  0.00     0.107 A 
ATOM      6  C   UNL     1     -28.891  26.221   2.844  1.00  0.00     0.134 A 
ATOM      7  C   UNL     1     -28.234  26.386   1.618  1.00  0.00     0.093 A 
ATOM      8  C   UNL     1     -28.874  26.090   0.411  1.00  0.00     0.123 A 
ATOM      9  C   UNL     1     -30.189  25.632   0.419  1.00  0.00     0.094 A 
ATOM     10  C   UNL     1     -30.883  25.490   1.623  1.00  0.00     0.146 A 
ATOM     11  O   UNL     1     -32.142  25.066   1.584  1.00  0.00    -0.456 OA
ENDROOT
BRANCH   1  12
ATOM     12  C   UNL     1     -34.293  24.433   2.500  1.00  0.00     0.021 A 
ATOM     13  C   UNL     1     -35.352  25.303   2.178  1.00  0.00     0.016 A 
ATOM     14  C   UNL     1     -36.649  24.810   2.019  1.00  0.00     0.051 A 
ATOM     15  C   UNL     1     -36.912  23.443   2.171  1.00  0.00     0.157 A 
ATOM     16  C   UNL     1     -34.562  23.060   2.637  1.00  0.00     0.062 A 
ATOM     17  C   UNL     1     -35.861  22.564   2.481  1.00  0.00     0.158 A 
BRANCH  15  18
ATOM     18  O   UNL     1     -38.208  22.957   2.014  1.00  0.00    -0.504 OA
ATOM     19  H   UNL     1     -38.452  22.328   1.257  1.00  0.00     0.293 HD
ENDBRANCH  15  18
BRANCH  17  20
ATOM     20  O   UNL     1     -36.089  21.197   2.635  1.00  0.00    -0.504 OA
ATOM     21  H   UNL     1     -36.267  20.588   1.846  1.00  0.00     0.293 HD
ENDBRANCH  17  20
ENDBRANCH   1  12
BRANCH   6  22
ATOM     22  O   UNL     1     -28.134  26.466   3.993  1.00  0.00    -0.507 OA
ATOM     23  H   UNL     1     -27.308  25.955   4.262  1.00  0.00     0.293 HD
ENDBRANCH   6  22
BRANCH   8  24
ATOM     24  O   UNL     1     -28.206  26.242  -0.801  1.00  0.00    -0.508 OA
ATOM     25  H   UNL     1     -28.195  27.128  -1.294  1.00  0.00     0.293 HD
ENDBRANCH   8  24
TORSDOF 5
ENDMDL
MODEL 2
REMARK VINA RESULT:    -8.189      1.982      7.142
REMARK INTER + INTRA:          -9.888
REMARK INTER:                  -9.573
REMARK INTRA:                  -0.315
REMARK UNBOUND:                -0.262
REMARK SMILES O=c1cc(-c2ccc(O)c(O)c2)oc2cc(O)cc(O)c12
REMARK SMILES IDX 4 1 3 2 2 3 1 4 21 5 19 6 18 7 16 8 15 9 14 10 13 11 5 12
REMARK SMILES IDX 6 13 7 14 8 15 12 16 10 17 9 18 11 20 20 22 17 24
REMARK H PARENT 9 19 11 21 20 23 17 25
REMARK Flexibility Score: inf
ROOT
ATOM      1  C   UNL     1     -29.966  25.984   1.797  1.00  0.00     0.138 A 
ATOM      2  C   UNL     1     -30.343  26.182   3.132  1.00  0.00     0.100 A 
ATOM      3  C   UNL     1     -31.627  25.827   3.548  1.00  0.00     0.197 A 
ATOM      4  O   UNL     1     -31.917  25.967   4.764  1.00  0.00    -0.289 OA
ATOM      5  C   UNL     1     -32.550  25.302   2.610  1.00  0.00     0.107 A 
ATOM      6  C   UNL     1     -33.897  24.937   2.912  1.00  0.00     0.134 A 
ATOM      7  C   UNL     1     -34.686  24.336   1.923  1.00  0.00     0.093 A 
ATOM      8  C   UNL     1     -34.195  24.140   0.628  1.00  0.00     0.123 A 
ATOM      9  C   UNL     1     -32.900  24.539   0.312  1.00  0.00     0.094 A 
ATOM     10  C   UNL     1     -32.076  25.110   1.285  1.00  0.00     0.146 A 
ATOM     11  O   UNL     1     -30.840  25.461   0.945  1.00  0.00    -0.456 OA
ENDROOT
BRANCH   1  12
ATOM     12  C   UNL     1     -28.614  26.346   1.301  1.00  0.00     0.021 A 
ATOM     13  C   UNL     1     -27.750  27.176   2.041  1.00  0.00     0.016 A 
ATOM     14  C   UNL     1     -26.480  27.490   1.553  1.00  0.00     0.051 A 
ATOM     15  C   UNL     1     -26.047  26.979   0.323  1.00  0.00     0.157 A 
ATOM     16  C   UNL     1     -28.166  25.826   0.073  1.00  0.00     0.062 A 
ATOM     17  C   UNL     1     -26.895  26.142  -0.419  1.00  0.00     0.158 A 
BRANCH  15  18
ATOM     18  O   UNL     1     -24.779  27.299  -0.161  1.00  0.00    -0.504 OA
ATOM     19  H   UNL     1     -24.509  28.257  -0.352  1.00  0.00     0.293 HD
ENDBRANCH  15  18
BRANCH  17  20
ATOM     20  O   UNL     1     -26.493  25.614  -1.645  1.00  0.00    -0.504 OA
ATOM     21  H   UNL     1     -26.850  24.733  -1.995  1.00  0.00     0.293 HD
ENDBRANCH  17  20
ENDBRANCH   1  12
BRANCH   6  22
ATOM     22  O   UNL     1     -34.513  25.160   4.147  1.00  0.00    -0.507 OA
ATOM     23  H   UNL     1     -34.854  24.438   4.762  1.00  0.00     0.293 HD
ENDBRANCH   6  22
BRANCH   8  24
ATOM     24  O   UNL     1     -34.994  23.556  -0.352  1.00  0.00    -0.508 OA
ATOM     25  H   UNL     1     -35.873  23.106  -0.122  1.00  0.00     0.293 HD
ENDBRANCH   8  24
TORSDOF 5
ENDMDL
MODEL 3
REMARK VINA RESULT:    -8.089      1.676      7.121
REMARK INTER + INTRA:          -9.769
REMARK INTER:                  -9.502
REMARK INTRA:                  -0.268
REMARK UNBOUND:                -0.262
REMARK SMILES O=c1cc(-c2ccc(O)c(O)c2)oc2cc(O)cc(O)c12
REMARK SMILES IDX 4 1 3 2 2 3 1 4 21 5 19 6 18 7 16 8 15 9 14 10 13 11 5 12
REMARK SMILES IDX 6 13 7 14 8 15 12 16 10 17 9 18 11 20 20 22 17 24
REMARK H PARENT 9 19 11 21 20 23 17 25
REMARK Flexibility Score: inf
ROOT
ATOM      1  C   UNL     1     -31.753  24.910   1.574  1.00  0.00     0.138 A 
ATOM      2  C   UNL     1     -32.790  25.817   1.824  1.00  0.00     0.100 A 
ATOM      3  C   UNL     1     -34.068  25.341   2.121  1.00  0.00     0.197 A 
ATOM      4  O   UNL     1     -34.965  26.180   2.394  1.00  0.00    -0.289 OA
ATOM      5  C   UNL     1     -34.314  23.946   2.131  1.00  0.00     0.107 A 
ATOM      6  C   UNL     1     -35.585  23.346   2.386  1.00  0.00     0.134 A 
ATOM      7  C   UNL     1     -35.684  21.952   2.468  1.00  0.00     0.093 A 
ATOM      8  C   UNL     1     -34.572  21.135   2.246  1.00  0.00     0.123 A 
ATOM      9  C   UNL     1     -33.340  21.709   1.947  1.00  0.00     0.094 A 
ATOM     10  C   UNL     1     -33.201  23.098   1.893  1.00  0.00     0.146 A 
ATOM     11  O   UNL     1     -32.002  23.606   1.621  1.00  0.00    -0.456 OA
ENDROOT
BRANCH   1  12
ATOM     12  C   UNL     1     -30.375  25.361   1.251  1.00  0.00     0.021 A 
ATOM     13  C   UNL     1     -29.724  24.966   0.066  1.00  0.00     0.016 A 
ATOM     14  C   UNL     1     -28.432  25.415  -0.215  1.00  0.00     0.051 A 
ATOM     15  C   UNL     1     -27.770  26.270   0.674  1.00  0.00     0.157 A 
ATOM     16  C   UNL     1     -29.708  26.230   2.132  1.00  0.00     0.062 A 
ATOM     17  C   UNL     1     -28.413  26.680   1.853  1.00  0.00     0.158 A 
BRANCH  15  18
ATOM     18  O   UNL     1     -26.479  26.714   0.391  1.00  0.00    -0.504 OA
ATOM     19  H   UNL     1     -25.873  27.083   1.114  1.00  0.00     0.293 HD
ENDBRANCH  15  18
BRANCH  17  20
ATOM     20  O   UNL     1     -27.782  27.533   2.758  1.00  0.00    -0.504 OA
ATOM     21  H   UNL     1     -26.972  28.085   2.503  1.00  0.00     0.293 HD
ENDBRANCH  17  20
ENDBRANCH   1  12
BRANCH   6  22
ATOM     22  O   UNL     1     -36.774  24.064   2.544  1.00  0.00    -0.507 OA
ATOM     23  H   UNL     1     -37.653  23.670   2.841  1.00  0.00     0.293 HD
ENDBRANCH   6  22
BRANCH   8  24
ATOM     24  O   UNL     1     -34.686  19.748   2.314  1.00  0.00    -0.508 OA
ATOM     25  H   UNL     1     -35.544  19.273   2.058  1.00  0.00     0.293 HD
ENDBRANCH   8  24
TORSDOF 5
ENDMDL
MODEL 4
REMARK VINA RESULT:    -7.539      2.220      7.617
REMARK INTER + INTRA:          -9.123
REMARK INTER:                  -8.836
REMARK INTRA:                  -0.288
REMARK UNBOUND:                -0.262
REMARK SMILES O=c1cc(-c2ccc(O)c(O)c2)oc2cc(O)cc(O)c12
REMARK SMILES IDX 4 1 3 2 2 3 1 4 21 5 19 6 18 7 16 8 15 9 14 10 13 11 5 12
REMARK SMILES IDX 6 13 7 14 8 15 12 16 10 17 9 18 11 20 20 22 17 24
REMARK H PARENT 9 19 11 21 20 23 17 25
REMARK Flexibility Score: inf
ROOT
ATOM      1  C   UNL     1     -30.020  25.235   0.791  1.00  0.00     0.138 A 
ATOM      2  C   UNL     1     -30.150  24.003   0.137  1.00  0.00     0.100 A 
ATOM      3  C   UNL     1     -31.378  23.342   0.147  1.00  0.00     0.197 A 
ATOM      4  O   UNL     1     -31.477  22.264  -0.494  1.00  0.00    -0.289 OA
ATOM      5  C   UNL     1     -32.474  23.903   0.849  1.00  0.00     0.107 A 
ATOM      6  C   UNL     1     -33.765  23.302   0.957  1.00  0.00     0.134 A 
ATOM      7  C   UNL     1     -34.798  24.000   1.594  1.00  0.00     0.093 A 
ATOM      8  C   UNL     1     -34.573  25.251   2.177  1.00  0.00     0.123 A 
ATOM      9  C   UNL     1     -33.305  25.822   2.120  1.00  0.00     0.094 A 
ATOM     10  C   UNL     1     -32.262  25.167   1.461  1.00  0.00     0.146 A 
ATOM     11  O   UNL     1     -31.071  25.756   1.415  1.00  0.00    -0.456 OA
ENDROOT
BRANCH   1  12
ATOM     12  C   UNL     1     -28.735  25.981   0.814  1.00  0.00     0.021 A 
ATOM     13  C   UNL     1     -28.414  26.872   1.856  1.00  0.00     0.016 A 
ATOM     14  C   UNL     1     -27.193  27.551   1.855  1.00  0.00     0.051 A 
ATOM     15  C   UNL     1     -26.270  27.349   0.822  1.00  0.00     0.157 A 
ATOM     16  C   UNL     1     -27.798  25.773  -0.213  1.00  0.00     0.062 A 
ATOM     17  C   UNL     1     -26.575  26.454  -0.217  1.00  0.00     0.158 A 
BRANCH  15  18
ATOM     18  O   UNL     1     -25.055  28.031   0.824  1.00  0.00    -0.504 OA
ATOM     19  H   UNL     1     -25.013  29.041   0.894  1.00  0.00     0.293 HD
ENDBRANCH  15  18
BRANCH  17  20
ATOM     20  O   UNL     1     -25.676  26.228  -1.259  1.00  0.00    -0.504 OA
ATOM     21  H   UNL     1     -25.557  26.886  -2.019  1.00  0.00     0.293 HD
ENDBRANCH  17  20
ENDBRANCH   1  12
BRANCH   6  22
ATOM     22  O   UNL     1     -34.078  22.025   0.482  1.00  0.00    -0.507 OA
ATOM     23  H   UNL     1     -34.134  21.767  -0.491  1.00  0.00     0.293 HD
ENDBRANCH   6  22
BRANCH   8  24
ATOM     24  O   UNL     1     -35.604  25.929   2.822  1.00  0.00    -0.508 OA
ATOM     25  H   UNL     1     -36.046  26.741   2.407  1.00  0.00     0.293 HD
ENDBRANCH   8  24
TORSDOF 5
ENDMDL
MODEL 5
REMARK VINA RESULT:    -7.364      2.102      3.773
REMARK INTER + INTRA:          -8.918
REMARK INTER:                  -8.613
REMARK INTRA:                  -0.305
REMARK UNBOUND:                -0.262
REMARK SMILES O=c1cc(-c2ccc(O)c(O)c2)oc2cc(O)cc(O)c12
REMARK SMILES IDX 4 1 3 2 2 3 1 4 21 5 19 6 18 7 16 8 15 9 14 10 13 11 5 12
REMARK SMILES IDX 6 13 7 14 8 15 12 16 10 17 9 18 11 20 20 22 17 24
REMARK H PARENT 9 19 11 21 20 23 17 25
REMARK Flexibility Score: inf
ROOT
ATOM      1  C   UNL     1     -30.894  24.803   0.709  1.00  0.00     0.138 A 
ATOM      2  C   UNL     1     -30.345  23.875  -0.186  1.00  0.00     0.100 A 
ATOM      3  C   UNL     1     -29.024  24.022  -0.611  1.00  0.00     0.197 A 
ATOM      4  O   UNL     1     -28.544  23.144  -1.372  1.00  0.00    -0.289 OA
ATOM      5  C   UNL     1     -28.260  25.127  -0.161  1.00  0.00     0.107 A 
ATOM      6  C   UNL     1     -26.914  25.399  -0.554  1.00  0.00     0.134 A 
ATOM      7  C   UNL     1     -26.227  26.469   0.035  1.00  0.00     0.093 A 
ATOM      8  C   UNL     1     -26.857  27.311   0.957  1.00  0.00     0.123 A 
ATOM      9  C   UNL     1     -28.185  27.083   1.308  1.00  0.00     0.094 A 
ATOM     10  C   UNL     1     -28.886  26.003   0.765  1.00  0.00     0.146 A 
ATOM     11  O   UNL     1     -30.147  25.812   1.140  1.00  0.00    -0.456 OA
ENDROOT
BRANCH   1  12
ATOM     12  C   UNL     1     -32.295  24.695   1.190  1.00  0.00     0.021 A 
ATOM     13  C   UNL     1     -33.315  24.148   0.388  1.00  0.00     0.016 A 
ATOM     14  C   UNL     1     -34.621  24.050   0.872  1.00  0.00     0.051 A 
ATOM     15  C   UNL     1     -34.932  24.490   2.165  1.00  0.00     0.157 A 
ATOM     16  C   UNL     1     -32.613  25.122   2.492  1.00  0.00     0.062 A 
ATOM     17  C   UNL     1     -33.922  25.027   2.978  1.00  0.00     0.158 A 
BRANCH  15  18
ATOM     18  O   UNL     1     -36.238  24.393   2.643  1.00  0.00    -0.504 OA
ATOM     19  H   UNL     1     -37.016  24.817   2.151  1.00  0.00     0.293 HD
ENDBRANCH  15  18
BRANCH  17  20
ATOM     20  O   UNL     1     -34.198  25.471   4.271  1.00  0.00    -0.504 OA
ATOM     21  H   UNL     1     -34.718  24.908   4.934  1.00  0.00     0.293 HD
ENDBRANCH  17  20
ENDBRANCH   1  12
BRANCH   6  22
ATOM     22  O   UNL     1     -26.217  24.672  -1.523  1.00  0.00    -0.507 OA
ATOM     23  H   UNL     1     -26.329  24.780  -2.519  1.00  0.00     0.293 HD
ENDBRANCH   6  22
BRANCH   8  24
ATOM     24  O   UNL     1     -26.169  28.381   1.524  1.00  0.00    -0.508 OA
ATOM     25  H   UNL     1     -26.518  28.859   2.347  1.00  0.00     0.293 HD
ENDBRANCH   8  24
TORSDOF 5
ENDMDL
MODEL 6
REMARK VINA RESULT:    -7.103      2.411      7.599
REMARK INTER + INTRA:          -8.611
REMARK INTER:                  -8.323
REMARK INTRA:                  -0.288
REMARK UNBOUND:                -0.262
REMARK SMILES O=c1cc(-c2ccc(O)c(O)c2)oc2cc(O)cc(O)c12
REMARK SMILES IDX 4 1 3 2 2 3 1 4 21 5 19 6 18 7 16 8 15 9 14 10 13 11 5 12
REMARK SMILES IDX 6 13 7 14 8 15 12 16 10 17 9 18 11 20 20 22 17 24
REMARK H PARENT 9 19 11 21 20 23 17 25
REMARK Flexibility Score: inf
ROOT
ATOM      1  C   UNL     1     -29.360  25.633   0.814  1.00  0.00     0.138 A 
ATOM      2  C   UNL     1     -29.981  26.522   1.701  1.00  0.00     0.100 A 
ATOM      3  C   UNL     1     -31.217  26.193   2.258  1.00  0.00     0.197 A 
ATOM      4  O   UNL     1     -31.723  26.987   3.092  1.00  0.00    -0.289 OA
ATOM      5  C   UNL     1     -31.851  24.979   1.895  1.00  0.00     0.107 A 
ATOM      6  C   UNL     1     -33.128  24.554   2.372  1.00  0.00     0.134 A 
ATOM      7  C   UNL     1     -33.609  23.286   2.019  1.00  0.00     0.093 A 
ATOM      8  C   UNL     1     -32.885  22.454   1.160  1.00  0.00     0.123 A 
ATOM      9  C   UNL     1     -31.663  22.881   0.649  1.00  0.00     0.094 A 
ATOM     10  C   UNL     1     -31.140  24.125   1.011  1.00  0.00     0.146 A 
ATOM     11  O   UNL     1     -29.961  24.487   0.514  1.00  0.00    -0.456 OA
ENDROOT
BRANCH   1  12
ATOM     12  C   UNL     1     -28.046  25.935   0.190  1.00  0.00     0.021 A 
ATOM     13  C   UNL     1     -27.666  25.374  -1.044  1.00  0.00     0.016 A 
ATOM     14  C   UNL     1     -26.427  25.684  -1.611  1.00  0.00     0.051 A 
ATOM     15  C   UNL     1     -25.551  26.563  -0.962  1.00  0.00     0.157 A 
ATOM     16  C   UNL     1     -27.167  26.826   0.829  1.00  0.00     0.062 A 
ATOM     17  C   UNL     1     -25.925  27.137   0.264  1.00  0.00     0.158 A 
BRANCH  15  18
ATOM     18  O   UNL     1     -24.316  26.868  -1.530  1.00  0.00    -0.504 OA
ATOM     19  H   UNL     1     -24.017  27.826  -1.670  1.00  0.00     0.293 HD
ENDBRANCH  15  18
BRANCH  17  20
ATOM     20  O   UNL     1     -25.077  28.019   0.934  1.00  0.00    -0.504 OA
ATOM     21  H   UNL     1     -25.065  29.011   0.734  1.00  0.00     0.293 HD
ENDBRANCH  17  20
ENDBRANCH   1  12
BRANCH   6  22
ATOM     22  O   UNL     1     -33.968  25.337   3.169  1.00  0.00    -0.507 OA
ATOM     23  H   UNL     1     -34.766  24.993   3.681  1.00  0.00     0.293 HD
ENDBRANCH   6  22
BRANCH   8  24
ATOM     24  O   UNL     1     -33.380  21.202   0.802  1.00  0.00    -0.508 OA
ATOM     25  H   UNL     1     -34.373  20.999   0.821  1.00  0.00     0.293 HD
ENDBRANCH   8  24
TORSDOF 5
ENDMDL
MODEL 7
REMARK VINA RESULT:    -7.053      2.171      4.240
REMARK INTER + INTRA:          -8.552
REMARK INTER:                  -8.235
REMARK INTRA:                  -0.317
REMARK UNBOUND:                -0.262
REMARK SMILES O=c1cc(-c2ccc(O)c(O)c2)oc2cc(O)cc(O)c12
REMARK SMILES IDX 4 1 3 2 2 3 1 4 21 5 19 6 18 7 16 8 15 9 14 10 13 11 5 12
REMARK SMILES IDX 6 13 7 14 8 15 12 16 10 17 9 18 11 20 20 22 17 24
REMARK H PARENT 9 19 11 21 20 23 17 25
REMARK Flexibility Score: inf
ROOT
ATOM      1  C   UNL     1     -30.069  26.010   1.949  1.00  0.00     0.138 A 
ATOM      2  C   UNL     1     -29.474  26.181   0.693  1.00  0.00     0.100 A 
ATOM      3  C   UNL     1     -28.087  26.308   0.596  1.00  0.00     0.197 A 
ATOM      4  O   UNL     1     -27.579  26.405  -0.550  1.00  0.00    -0.289 OA
ATOM      5  C   UNL     1     -27.297  26.300   1.772  1.00  0.00     0.107 A 
ATOM      6  C   UNL     1     -25.877  26.456   1.799  1.00  0.00     0.134 A 
ATOM      7  C   UNL     1     -25.194  26.331   3.015  1.00  0.00     0.093 A 
ATOM      8  C   UNL     1     -25.883  26.114   4.212  1.00  0.00     0.123 A 
ATOM      9  C   UNL     1     -27.271  26.011   4.201  1.00  0.00     0.094 A 
ATOM     10  C   UNL     1     -27.979  26.095   3.000  1.00  0.00     0.146 A 
ATOM     11  O   UNL     1     -29.303  25.974   3.033  1.00  0.00    -0.456 OA
ENDROOT
BRANCH   1  12
ATOM     12  C   UNL     1     -31.539  25.872   2.109  1.00  0.00     0.021 A 
ATOM     13  C   UNL     1     -32.388  25.652   1.007  1.00  0.00     0.016 A 
ATOM     14  C   UNL     1     -33.765  25.516   1.190  1.00  0.00     0.051 A 
ATOM     15  C   UNL     1     -34.320  25.590   2.474  1.00  0.00     0.157 A 
ATOM     16  C   UNL     1     -32.103  25.932   3.396  1.00  0.00     0.062 A 
ATOM     17  C   UNL     1     -33.483  25.798   3.582  1.00  0.00     0.158 A 
BRANCH  15  18
ATOM     18  O   UNL     1     -35.696  25.456   2.652  1.00  0.00    -0.504 OA
ATOM     19  H   UNL     1     -36.090  25.136   3.529  1.00  0.00     0.293 HD
ENDBRANCH  15  18
BRANCH  17  20
ATOM     20  O   UNL     1     -34.003  25.872   4.874  1.00  0.00    -0.504 OA
ATOM     21  H   UNL     1     -34.752  25.267   5.188  1.00  0.00     0.293 HD
ENDBRANCH  17  20
ENDBRANCH   1  12
BRANCH   6  22
ATOM     22  O   UNL     1     -25.099  26.754   0.676  1.00  0.00    -0.507 OA
ATOM     23  H   UNL     1     -24.618  26.074   0.109  1.00  0.00     0.293 HD
ENDBRANCH   6  22
BRANCH   8  24
ATOM     24  O   UNL     1     -25.194  26.008   5.417  1.00  0.00    -0.508 OA
ATOM     25  H   UNL     1     -25.662  25.731   6.273  1.00  0.00     0.293 HD
ENDBRANCH   8  24
TORSDOF 5
ENDMDL
MODEL 8
REMARK VINA RESULT:    -6.950      4.316      6.106
REMARK INTER + INTRA:          -8.431
REMARK INTER:                  -8.114
REMARK INTRA:                  -0.318
REMARK UNBOUND:                -0.262
REMARK SMILES O=c1cc(-c2ccc(O)c(O)c2)oc2cc(O)cc(O)c12
REMARK SMILES IDX 4 1 3 2 2 3 1 4 21 5 19 6 18 7 16 8 15 9 14 10 13 11 5 12
REMARK SMILES IDX 6 13 7 14 8 15 12 16 10 17 9 18 11 20 20 22 17 24
REMARK H PARENT 9 19 11 21 20 23 17 25
REMARK Flexibility Score: inf
ROOT
ATOM      1  C   UNL     1     -32.859  21.155  -0.175  1.00  0.00     0.138 A 
ATOM      2  C   UNL     1     -31.660  21.850  -0.383  1.00  0.00     0.100 A 
ATOM      3  C   UNL     1     -31.536  23.165   0.065  1.00  0.00     0.197 A 
ATOM      4  O   UNL     1     -30.430  23.743  -0.088  1.00  0.00    -0.289 OA
ATOM      5  C   UNL     1     -32.635  23.800   0.695  1.00  0.00     0.107 A 
ATOM      6  C   UNL     1     -32.637  25.149   1.163  1.00  0.00     0.134 A 
ATOM      7  C   UNL     1     -33.750  25.635   1.860  1.00  0.00     0.093 A 
ATOM      8  C   UNL     1     -34.884  24.841   2.054  1.00  0.00     0.123 A 
ATOM      9  C   UNL     1     -34.910  23.540   1.558  1.00  0.00     0.094 A 
ATOM     10  C   UNL     1     -33.802  23.014   0.889  1.00  0.00     0.146 A 
ATOM     11  O   UNL     1     -33.864  21.762   0.447  1.00  0.00    -0.456 OA
ENDROOT
BRANCH   1  12
ATOM     12  C   UNL     1     -33.046  19.755  -0.634  1.00  0.00     0.021 A 
ATOM     13  C   UNL     1     -32.086  19.102  -1.432  1.00  0.00     0.016 A 
ATOM     14  C   UNL     1     -32.285  17.782  -1.840  1.00  0.00     0.051 A 
ATOM     15  C   UNL     1     -33.438  17.087  -1.455  1.00  0.00     0.157 A 
ATOM     16  C   UNL     1     -34.194  19.046  -0.241  1.00  0.00     0.062 A 
ATOM     17  C   UNL     1     -34.396  17.723  -0.650  1.00  0.00     0.158 A 
BRANCH  15  18
ATOM     18  O   UNL     1     -33.633  15.769  -1.866  1.00  0.00    -0.504 OA
ATOM     19  H   UNL     1     -34.039  15.549  -2.768  1.00  0.00     0.293 HD
ENDBRANCH  15  18
BRANCH  17  20
ATOM     20  O   UNL     1     -35.554  17.058  -0.246  1.00  0.00    -0.504 OA
ATOM     21  H   UNL     1     -35.719  16.802   0.720  1.00  0.00     0.293 HD
ENDBRANCH  17  20
ENDBRANCH   1  12
BRANCH   6  22
ATOM     22  O   UNL     1     -31.591  26.053   0.954  1.00  0.00    -0.507 OA
ATOM     23  H   UNL     1     -31.603  27.024   1.223  1.00  0.00     0.293 HD
ENDBRANCH   6  22
BRANCH   8  24
ATOM     24  O   UNL     1     -35.992  25.340   2.735  1.00  0.00    -0.508 OA
ATOM     25  H   UNL     1     -36.309  24.929   3.605  1.00  0.00     0.293 HD
ENDBRANCH   8  24
TORSDOF 5
ENDMDL
MODEL 9
REMARK VINA RESULT:    -6.894      2.265      3.241
REMARK INTER + INTRA:          -8.365
REMARK INTER:                  -8.083
REMARK INTRA:                  -0.283
REMARK UNBOUND:                -0.262
REMARK SMILES O=c1cc(-c2ccc(O)c(O)c2)oc2cc(O)cc(O)c12
REMARK SMILES IDX 4 1 3 2 2 3 1 4 21 5 19 6 18 7 16 8 15 9 14 10 13 11 5 12
REMARK SMILES IDX 6 13 7 14 8 15 12 16 10 17 9 18 11 20 20 22 17 24
REMARK H PARENT 9 19 11 21 20 23 17 25
REMARK Flexibility Score: inf
ROOT
ATOM      1  C   UNL     1     -30.833  25.208   0.881  1.00  0.00     0.138 A 
ATOM      2  C   UNL     1     -30.334  26.400   1.423  1.00  0.00     0.100 A 
ATOM      3  C   UNL     1     -29.014  26.775   1.169  1.00  0.00     0.197 A 
ATOM      4  O   UNL     1     -28.612  27.877   1.625  1.00  0.00    -0.289 OA
ATOM      5  C   UNL     1     -28.179  25.932   0.396  1.00  0.00     0.107 A 
ATOM      6  C   UNL     1     -26.807  26.195   0.100  1.00  0.00     0.134 A 
ATOM      7  C   UNL     1     -26.110  25.335  -0.759  1.00  0.00     0.093 A 
ATOM      8  C   UNL     1     -26.718  24.192  -1.285  1.00  0.00     0.123 A 
ATOM      9  C   UNL     1     -28.041  23.901  -0.962  1.00  0.00     0.094 A 
ATOM     10  C   UNL     1     -28.773  24.757  -0.136  1.00  0.00     0.146 A 
ATOM     11  O   UNL     1     -30.039  24.451   0.132  1.00  0.00    -0.456 OA
ENDROOT
BRANCH   1  12
ATOM     12  C   UNL     1     -32.228  24.760   1.121  1.00  0.00     0.021 A 
ATOM     13  C   UNL     1     -32.959  24.057   0.145  1.00  0.00     0.016 A 
ATOM     14  C   UNL     1     -34.266  23.639   0.404  1.00  0.00     0.051 A 
ATOM     15  C   UNL     1     -34.864  23.908   1.641  1.00  0.00     0.157 A 
ATOM     16  C   UNL     1     -32.831  25.014   2.366  1.00  0.00     0.062 A 
ATOM     17  C   UNL     1     -34.141  24.598   2.627  1.00  0.00     0.158 A 
BRANCH  15  18
ATOM     18  O   UNL     1     -36.170  23.491   1.894  1.00  0.00    -0.504 OA
ATOM     19  H   UNL     1     -36.395  22.898   2.685  1.00  0.00     0.293 HD
ENDBRANCH  15  18
BRANCH  17  20
ATOM     20  O   UNL     1     -34.706  24.878   3.870  1.00  0.00    -0.504 OA
ATOM     21  H   UNL     1     -35.694  25.071   3.982  1.00  0.00     0.293 HD
ENDBRANCH  17  20
ENDBRANCH   1  12
BRANCH   6  22
ATOM     22  O   UNL     1     -26.079  27.262   0.635  1.00  0.00    -0.507 OA
ATOM     23  H   UNL     1     -26.085  27.539   1.604  1.00  0.00     0.293 HD
ENDBRANCH   6  22
BRANCH   8  24
ATOM     24  O   UNL     1     -26.011  23.335  -2.125  1.00  0.00    -0.508 OA
ATOM     25  H   UNL     1     -26.468  22.572  -2.611  1.00  0.00     0.293 HD
ENDBRANCH   8  24
TORSDOF 5
ENDMDL
