MODEL 1
REMARK VINA RESULT:    -3.393      0.000      0.000
REMARK INTER + INTRA:          -4.054
REMARK INTER:                  -3.988
REMARK INTRA:                  -0.066
REMARK UNBOUND:                -0.066
REMARK SMILES CCCCC(=O)[O-]
REMARK SMILES IDX 4 1 5 2 6 3 7 4 3 5 2 6 1 7
REMARK H PARENT
REMARK Flexibility Score: inf
ROOT
ATOM      1  C   UNL     1       7.220  -4.830 -32.493  1.00  0.00     0.053 C 
ENDROOT
BRANCH   1   2
ATOM      2  C   UNL     1       8.233  -4.902 -33.591  1.00  0.00     0.041 C 
ATOM      3  O   UNL     1       8.734  -6.011 -33.919  1.00  0.00    -0.550 OA
ATOM      4  O   UNL     1       8.664  -3.740 -34.218  1.00  0.00    -0.550 OA
ENDBRANCH   1   2
BRANCH   1   5
ATOM      5  C   UNL     1       7.432  -5.968 -31.491  1.00  0.00     0.006 C 
BRANCH   5   6
ATOM      6  C   UNL     1       6.164  -6.816 -31.347  1.00  0.00    -0.003 C 
ATOM      7  C   UNL     1       5.413  -6.914 -32.672  1.00  0.00     0.004 C 
ENDBRANCH   5   6
ENDBRANCH   1   5
TORSDOF 3
ENDMDL
MODEL 2
REMARK VINA RESULT:    -3.249     12.025     12.824
REMARK INTER + INTRA:          -3.886
REMARK INTER:                  -3.796
REMARK INTRA:                  -0.090
REMARK UNBOUND:                -0.066
REMARK SMILES CCCCC(=O)[O-]
REMARK SMILES IDX 4 1 5 2 6 3 7 4 3 5 2 6 1 7
REMARK H PARENT
REMARK Flexibility Score: inf
ROOT
ATOM      1  C   UNL     1      13.909  -5.081 -22.175  1.00  0.00     0.053 C 
ENDROOT
BRANCH   1   2
ATOM      2  C   UNL     1      13.583  -3.639 -21.943  1.00  0.00     0.041 C 
ATOM      3  O   UNL     1      14.398  -2.742 -22.286  1.00  0.00    -0.550 OA
ATOM      4  O   UNL     1      12.402  -3.287 -21.301  1.00  0.00    -0.550 OA
ENDBRANCH   1   2
BRANCH   1   5
ATOM      5  C   UNL     1      14.221  -5.329 -23.654  1.00  0.00     0.006 C 
BRANCH   5   6
ATOM      6  C   UNL     1      15.524  -6.120 -23.815  1.00  0.00    -0.003 C 
ATOM      7  C   UNL     1      16.283  -6.206 -22.494  1.00  0.00     0.004 C 
ENDBRANCH   5   6
ENDBRANCH   1   5
TORSDOF 3
ENDMDL
MODEL 3
REMARK VINA RESULT:    -3.226      2.411      3.494
REMARK INTER + INTRA:          -3.858
REMARK INTER:                  -3.764
REMARK INTRA:                  -0.093
REMARK UNBOUND:                -0.066
REMARK SMILES CCCCC(=O)[O-]
REMARK SMILES IDX 4 1 5 2 6 3 7 4 3 5 2 6 1 7
REMARK H PARENT
REMARK Flexibility Score: inf
ROOT
ATOM      1  C   UNL     1       7.283  -5.596 -31.767  1.00  0.00     0.053 C 
ENDROOT
BRANCH   1   2
ATOM      2  C   UNL     1       6.304  -6.728 -31.754  1.00  0.00     0.041 C 
ATOM      3  O   UNL     1       6.451  -7.683 -30.946  1.00  0.00    -0.550 OA
ATOM      4  O   UNL     1       5.259  -6.754 -32.668  1.00  0.00    -0.550 OA
ENDBRANCH   1   2
BRANCH   1   5
ATOM      5  C   UNL     1       8.285  -5.767 -32.912  1.00  0.00     0.006 C 
BRANCH   5   6
ATOM      6  C   UNL     1       8.179  -4.611 -33.912  1.00  0.00    -0.003 C 
ATOM      7  C   UNL     1       7.283  -3.498 -33.375  1.00  0.00     0.004 C 
ENDBRANCH   5   6
ENDBRANCH   1   5
TORSDOF 3
ENDMDL
MODEL 4
REMARK VINA RESULT:    -3.182     13.132     13.844
REMARK INTER + INTRA:          -3.807
REMARK INTER:                  -3.710
REMARK INTRA:                  -0.097
REMARK UNBOUND:                -0.066
REMARK SMILES CCCCC(=O)[O-]
REMARK SMILES IDX 4 1 5 2 6 3 7 4 3 5 2 6 1 7
REMARK H PARENT
REMARK Flexibility Score: inf
ROOT
ATOM      1  C   UNL     1       3.000 -12.169 -20.913  1.00  0.00     0.053 C 
ENDROOT
BRANCH   1   2
ATOM      2  C   UNL     1       2.623 -12.090 -22.359  1.00  0.00     0.041 C 
ATOM      3  O   UNL     1       1.598 -11.450 -22.712  1.00  0.00    -0.550 OA
ATOM      4  O   UNL     1       3.376 -12.766 -23.312  1.00  0.00    -0.550 OA
ENDBRANCH   1   2
BRANCH   1   5
ATOM      5  C   UNL     1       4.475 -11.807 -20.722  1.00  0.00     0.006 C 
BRANCH   5   6
ATOM      6  C   UNL     1       5.287 -13.028 -20.279  1.00  0.00    -0.003 C 
ATOM      7  C   UNL     1       6.188 -13.530 -21.404  1.00  0.00     0.004 C 
ENDBRANCH   5   6
ENDBRANCH   1   5
TORSDOF 3
ENDMDL
MODEL 5
REMARK VINA RESULT:    -3.181     11.850     12.705
REMARK INTER + INTRA:          -3.805
REMARK INTER:                  -3.760
REMARK INTRA:                  -0.045
REMARK UNBOUND:                -0.066
REMARK SMILES CCCCC(=O)[O-]
REMARK SMILES IDX 4 1 5 2 6 3 7 4 3 5 2 6 1 7
REMARK H PARENT
REMARK Flexibility Score: inf
ROOT
ATOM      1  C   UNL     1      14.264  -5.529 -23.677  1.00  0.00     0.053 C 
ENDROOT
BRANCH   1   2
ATOM      2  C   UNL     1      15.461  -6.427 -23.677  1.00  0.00     0.041 C 
ATOM      3  O   UNL     1      15.455  -7.492 -24.349  1.00  0.00    -0.550 OA
ATOM      4  O   UNL     1      16.565  -6.114 -22.893  1.00  0.00    -0.550 OA
ENDBRANCH   1   2
BRANCH   1   5
ATOM      5  C   UNL     1      14.115  -4.834 -22.321  1.00  0.00     0.006 C 
BRANCH   5   6
ATOM      6  C   UNL     1      13.992  -3.316 -22.494  1.00  0.00    -0.003 C 
ATOM      7  C   UNL     1      14.552  -2.576 -21.282  1.00  0.00     0.004 C 
ENDBRANCH   5   6
ENDBRANCH   1   5
TORSDOF 3
ENDMDL
MODEL 6
REMARK VINA RESULT:    -3.175      1.495      2.046
REMARK INTER + INTRA:          -3.799
REMARK INTER:                  -3.726
REMARK INTRA:                  -0.073
REMARK UNBOUND:                -0.066
REMARK SMILES CCCCC(=O)[O-]
REMARK SMILES IDX 4 1 5 2 6 3 7 4 3 5 2 6 1 7
REMARK H PARENT
REMARK Flexibility Score: inf
ROOT
ATOM      1  C   UNL     1       7.245  -4.955 -34.015  1.00  0.00     0.053 C 
ENDROOT
BRANCH   1   2
ATOM      2  C   UNL     1       7.513  -3.494 -33.843  1.00  0.00     0.041 C 
ATOM      3  O   UNL     1       6.594  -2.722 -33.460  1.00  0.00    -0.550 OA
ATOM      4  O   UNL     1       8.763  -2.974 -34.155  1.00  0.00    -0.550 OA
ENDBRANCH   1   2
BRANCH   1   5
ATOM      5  C   UNL     1       8.009  -5.768 -32.966  1.00  0.00     0.006 C 
BRANCH   5   6
ATOM      6  C   UNL     1       7.335  -5.663 -31.593  1.00  0.00    -0.003 C 
ATOM      7  C   UNL     1       6.447  -6.874 -31.321  1.00  0.00     0.004 C 
ENDBRANCH   5   6
ENDBRANCH   1   5
TORSDOF 3
ENDMDL
MODEL 7
REMARK VINA RESULT:    -3.145     12.904     13.432
REMARK INTER + INTRA:          -3.762
REMARK INTER:                  -3.667
REMARK INTRA:                  -0.096
REMARK UNBOUND:                -0.066
REMARK SMILES CCCCC(=O)[O-]
REMARK SMILES IDX 4 1 5 2 6 3 7 4 3 5 2 6 1 7
REMARK H PARENT
REMARK Flexibility Score: inf
ROOT
ATOM      1  C   UNL     1       5.175 -13.064 -20.961  1.00  0.00     0.053 C 
ENDROOT
BRANCH   1   2
ATOM      2  C   UNL     1       5.890 -13.117 -22.274  1.00  0.00     0.041 C 
ATOM      3  O   UNL     1       5.255 -12.947 -23.348  1.00  0.00    -0.550 OA
ATOM      4  O   UNL     1       7.249 -13.403 -22.315  1.00  0.00    -0.550 OA
ENDBRANCH   1   2
BRANCH   1   5
ATOM      5  C   UNL     1       4.309 -11.804 -20.872  1.00  0.00     0.006 C 
BRANCH   5   6
ATOM      6  C   UNL     1       2.819 -12.159 -20.911  1.00  0.00    -0.003 C 
ATOM      7  C   UNL     1       2.181 -11.716 -22.225  1.00  0.00     0.004 C 
ENDBRANCH   5   6
ENDBRANCH   1   5
TORSDOF 3
ENDMDL
MODEL 8
REMARK VINA RESULT:    -3.101      2.099      3.741
REMARK INTER + INTRA:          -3.711
REMARK INTER:                  -3.613
REMARK INTRA:                  -0.098
REMARK UNBOUND:                -0.066
REMARK SMILES CCCCC(=O)[O-]
REMARK SMILES IDX 4 1 5 2 6 3 7 4 3 5 2 6 1 7
REMARK H PARENT
REMARK Flexibility Score: inf
ROOT
ATOM      1  C   UNL     1       6.655  -4.668 -33.568  1.00  0.00     0.053 C 
ENDROOT
BRANCH   1   2
ATOM      2  C   UNL     1       7.655  -5.405 -32.734  1.00  0.00     0.041 C 
ATOM      3  O   UNL     1       8.723  -5.829 -33.251  1.00  0.00    -0.550 OA
ATOM      4  O   UNL     1       7.386  -5.668 -31.397  1.00  0.00    -0.550 OA
ENDBRANCH   1   2
BRANCH   1   5
ATOM      5  C   UNL     1       6.884  -3.157 -33.471  1.00  0.00     0.006 C 
BRANCH   5   6
ATOM      6  C   UNL     1       7.418  -2.597 -34.794  1.00  0.00    -0.003 C 
ATOM      7  C   UNL     1       8.900  -2.248 -34.688  1.00  0.00     0.004 C 
ENDBRANCH   5   6
ENDBRANCH   1   5
TORSDOF 3
ENDMDL
MODEL 9
REMARK VINA RESULT:    -2.993     13.010     13.815
REMARK INTER + INTRA:          -3.584
REMARK INTER:                  -3.474
REMARK INTRA:                  -0.110
REMARK UNBOUND:                -0.066
REMARK SMILES CCCCC(=O)[O-]
REMARK SMILES IDX 4 1 5 2 6 3 7 4 3 5 2 6 1 7
REMARK H PARENT
REMARK Flexibility Score: inf
ROOT
ATOM      1  C   UNL     1       3.939 -11.713 -20.821  1.00  0.00     0.053 C 
ENDROOT
BRANCH   1   2
ATOM      2  C   UNL     1       4.979 -12.757 -21.083  1.00  0.00     0.041 C 
ATOM      3  O   UNL     1       5.383 -13.497 -20.147  1.00  0.00    -0.550 OA
ATOM      4  O   UNL     1       5.541 -12.878 -22.347  1.00  0.00    -0.550 OA
ENDBRANCH   1   2
BRANCH   1   5
ATOM      5  C   UNL     1       2.542 -12.263 -21.121  1.00  0.00     0.006 C 
BRANCH   5   6
ATOM      6  C   UNL     1       2.014 -11.722 -22.455  1.00  0.00    -0.003 C 
ATOM      7  C   UNL     1       1.991 -12.813 -23.521  1.00  0.00     0.004 C 
ENDBRANCH   5   6
ENDBRANCH   1   5
TORSDOF 3
ENDMDL
