MODEL 1
REMARK VINA RESULT:    -4.364      0.000      0.000
REMARK INTER + INTRA:          -8.189
REMARK INTER:                  -7.681
REMARK INTRA:                  -0.508
REMARK UNBOUND:                -0.508
REMARK SMILES CCCCCCCCCCCCCCC(=O)[O-]
REMARK SMILES IDX 9 1 10 2 11 3 12 4 13 5 14 6 15 7 16 8 17 9 8 10 7 11 6 12
REMARK SMILES IDX 5 13 4 14 3 15 2 16 1 17
REMARK H PARENT
REMARK Flexibility Score: inf
ROOT
ATOM      1  C   UNL     1      20.839 -18.957 -18.354  1.00  0.00     0.000 C 
ENDROOT
BRANCH   1   2
ATOM      2  C   UNL     1      22.016 -18.071 -17.917  1.00  0.00     0.000 C 
BRANCH   2   3
ATOM      3  C   UNL     1      21.562 -16.874 -17.056  1.00  0.00     0.000 C 
BRANCH   3   4
ATOM      4  C   UNL     1      20.199 -17.085 -16.370  1.00  0.00     0.000 C 
BRANCH   4   5
ATOM      5  C   UNL     1      19.422 -15.793 -16.057  1.00  0.00     0.006 C 
BRANCH   5   6
ATOM      6  C   UNL     1      17.974 -16.021 -15.595  1.00  0.00     0.053 C 
BRANCH   6   7
ATOM      7  C   UNL     1      17.082 -14.877 -15.968  1.00  0.00     0.041 C 
ATOM      8  O   UNL     1      17.065 -13.832 -15.268  1.00  0.00    -0.550 OA
ATOM      9  O   UNL     1      16.245 -14.980 -17.072  1.00  0.00    -0.550 OA
ENDBRANCH   6   7
ENDBRANCH   5   6
ENDBRANCH   4   5
ENDBRANCH   3   4
ENDBRANCH   2   3
ENDBRANCH   1   2
BRANCH   1  10
ATOM     10  C   UNL     1      21.227 -20.439 -18.332  1.00  0.00     0.000 C 
BRANCH  10  11
ATOM     11  C   UNL     1      20.642 -21.178 -19.546  1.00  0.00    -0.000 C 
BRANCH  11  12
ATOM     12  C   UNL     1      19.971 -22.510 -19.169  1.00  0.00    -0.000 C 
BRANCH  12  13
ATOM     13  C   UNL     1      18.437 -22.536 -19.322  1.00  0.00    -0.000 C 
BRANCH  13  14
ATOM     14  C   UNL     1      17.782 -23.913 -19.110  1.00  0.00    -0.000 C 
BRANCH  14  15
ATOM     15  C   UNL     1      16.871 -23.957 -17.874  1.00  0.00    -0.000 C 
BRANCH  15  16
ATOM     16  C   UNL     1      15.508 -23.323 -18.175  1.00  0.00    -0.003 C 
ATOM     17  C   UNL     1      14.849 -22.802 -16.902  1.00  0.00     0.004 C 
ENDBRANCH  15  16
ENDBRANCH  14  15
ENDBRANCH  13  14
ENDBRANCH  12  13
ENDBRANCH  11  12
ENDBRANCH  10  11
ENDBRANCH   1  10
TORSDOF 13
ENDMDL
MODEL 2
REMARK VINA RESULT:    -4.240      2.641      5.057
REMARK INTER + INTRA:          -7.969
REMARK INTER:                  -6.631
REMARK INTRA:                  -1.338
REMARK UNBOUND:                -0.508
REMARK SMILES CCCCCCCCCCCCCCC(=O)[O-]
REMARK SMILES IDX 9 1 10 2 11 3 12 4 13 5 14 6 15 7 16 8 17 9 8 10 7 11 6 12
REMARK SMILES IDX 5 13 4 14 3 15 2 16 1 17
REMARK H PARENT
REMARK Flexibility Score: inf
ROOT
ATOM      1  C   UNL     1      18.418 -23.540 -20.045  1.00  0.00     0.000 C 
ENDROOT
BRANCH   1   2
ATOM      2  C   UNL     1      18.754 -22.244 -19.290  1.00  0.00     0.000 C 
BRANCH   2   3
ATOM      3  C   UNL     1      20.256 -22.134 -18.953  1.00  0.00     0.000 C 
BRANCH   3   4
ATOM      4  C   UNL     1      20.912 -20.837 -19.463  1.00  0.00     0.000 C 
BRANCH   4   5
ATOM      5  C   UNL     1      21.950 -20.215 -18.509  1.00  0.00     0.006 C 
BRANCH   5   6
ATOM      6  C   UNL     1      21.349 -19.604 -17.234  1.00  0.00     0.053 C 
BRANCH   6   7
ATOM      7  C   UNL     1      21.300 -18.109 -17.301  1.00  0.00     0.041 C 
ATOM      8  O   UNL     1      22.184 -17.473 -17.933  1.00  0.00    -0.550 OA
ATOM      9  O   UNL     1      20.294 -17.415 -16.639  1.00  0.00    -0.550 OA
ENDBRANCH   6   7
ENDBRANCH   5   6
ENDBRANCH   4   5
ENDBRANCH   3   4
ENDBRANCH   2   3
ENDBRANCH   1   2
BRANCH   1  10
ATOM     10  C   UNL     1      17.400 -24.381 -19.267  1.00  0.00     0.000 C 
BRANCH  10  11
ATOM     11  C   UNL     1      16.833 -23.595 -18.075  1.00  0.00    -0.000 C 
BRANCH  11  12
ATOM     12  C   UNL     1      15.343 -23.883 -17.822  1.00  0.00    -0.000 C 
BRANCH  12  13
ATOM     13  C   UNL     1      14.600 -24.561 -18.991  1.00  0.00    -0.000 C 
BRANCH  13  14
ATOM     14  C   UNL     1      13.519 -23.699 -19.667  1.00  0.00    -0.000 C 
BRANCH  14  15
ATOM     15  C   UNL     1      14.097 -22.726 -20.706  1.00  0.00    -0.000 C 
BRANCH  15  16
ATOM     16  C   UNL     1      14.146 -21.298 -20.152  1.00  0.00    -0.003 C 
ATOM     17  C   UNL     1      15.532 -20.685 -20.328  1.00  0.00     0.004 C 
ENDBRANCH  15  16
ENDBRANCH  14  15
ENDBRANCH  13  14
ENDBRANCH  12  13
ENDBRANCH  11  12
ENDBRANCH  10  11
ENDBRANCH   1  10
TORSDOF 13
ENDMDL
MODEL 3
REMARK VINA RESULT:    -4.211     13.354     15.429
REMARK INTER + INTRA:          -7.918
REMARK INTER:                  -7.386
REMARK INTRA:                  -0.533
REMARK UNBOUND:                -0.508
REMARK SMILES CCCCCCCCCCCCCCC(=O)[O-]
REMARK SMILES IDX 9 1 10 2 11 3 12 4 13 5 14 6 15 7 16 8 17 9 8 10 7 11 6 12
REMARK SMILES IDX 5 13 4 14 3 15 2 16 1 17
REMARK H PARENT
REMARK Flexibility Score: inf
ROOT
ATOM      1  C   UNL     1       6.434 -20.631 -14.113  1.00  0.00     0.000 C 
ENDROOT
BRANCH   1   2
ATOM      2  C   UNL     1       5.084 -20.528 -13.387  1.00  0.00     0.000 C 
BRANCH   2   3
ATOM      3  C   UNL     1       5.116 -21.190 -11.993  1.00  0.00     0.000 C 
BRANCH   3   4
ATOM      4  C   UNL     1       5.618 -22.646 -12.009  1.00  0.00     0.000 C 
BRANCH   4   5
ATOM      5  C   UNL     1       5.041 -23.545 -10.900  1.00  0.00     0.006 C 
BRANCH   5   6
ATOM      6  C   UNL     1       6.089 -24.089  -9.916  1.00  0.00     0.053 C 
BRANCH   6   7
ATOM      7  C   UNL     1       6.087 -23.332  -8.624  1.00  0.00     0.041 C 
ATOM      8  O   UNL     1       6.437 -22.123  -8.597  1.00  0.00    -0.550 OA
ATOM      9  O   UNL     1       5.729 -23.972  -7.444  1.00  0.00    -0.550 OA
ENDBRANCH   6   7
ENDBRANCH   5   6
ENDBRANCH   4   5
ENDBRANCH   3   4
ENDBRANCH   2   3
ENDBRANCH   1   2
BRANCH   1  10
ATOM     10  C   UNL     1       6.312 -20.173 -15.570  1.00  0.00     0.000 C 
BRANCH  10  11
ATOM     11  C   UNL     1       5.162 -19.167 -15.735  1.00  0.00    -0.000 C 
BRANCH  11  12
ATOM     12  C   UNL     1       5.650 -17.757 -16.112  1.00  0.00    -0.000 C 
BRANCH  12  13
ATOM     13  C   UNL     1       5.144 -17.231 -17.471  1.00  0.00    -0.000 C 
BRANCH  13  14
ATOM     14  C   UNL     1       5.715 -15.866 -17.897  1.00  0.00    -0.000 C 
BRANCH  14  15
ATOM     15  C   UNL     1       5.332 -15.482 -19.333  1.00  0.00    -0.000 C 
BRANCH  15  16
ATOM     16  C   UNL     1       6.529 -15.632 -20.279  1.00  0.00    -0.003 C 
ATOM     17  C   UNL     1       7.264 -14.306 -20.453  1.00  0.00     0.004 C 
ENDBRANCH  15  16
ENDBRANCH  14  15
ENDBRANCH  13  14
ENDBRANCH  12  13
ENDBRANCH  11  12
ENDBRANCH  10  11
ENDBRANCH   1  10
TORSDOF 13
ENDMDL
MODEL 4
REMARK VINA RESULT:    -4.166      2.733      3.324
REMARK INTER + INTRA:          -7.840
REMARK INTER:                  -6.862
REMARK INTRA:                  -0.978
REMARK UNBOUND:                -0.508
REMARK SMILES CCCCCCCCCCCCCCC(=O)[O-]
REMARK SMILES IDX 9 1 10 2 11 3 12 4 13 5 14 6 15 7 16 8 17 9 8 10 7 11 6 12
REMARK SMILES IDX 5 13 4 14 3 15 2 16 1 17
REMARK H PARENT
REMARK Flexibility Score: inf
ROOT
ATOM      1  C   UNL     1      20.870 -19.416 -18.768  1.00  0.00     0.000 C 
ENDROOT
BRANCH   1   2
ATOM      2  C   UNL     1      21.345 -19.905 -17.391  1.00  0.00     0.000 C 
BRANCH   2   3
ATOM      3  C   UNL     1      22.788 -19.458 -17.075  1.00  0.00     0.000 C 
BRANCH   3   4
ATOM      4  C   UNL     1      23.518 -18.826 -18.275  1.00  0.00     0.000 C 
BRANCH   4   5
ATOM      5  C   UNL     1      23.947 -17.360 -18.076  1.00  0.00     0.006 C 
BRANCH   5   6
ATOM      6  C   UNL     1      23.551 -16.764 -16.716  1.00  0.00     0.053 C 
BRANCH   6   7
ATOM      7  C   UNL     1      22.390 -15.825 -16.834  1.00  0.00     0.041 C 
ATOM      8  O   UNL     1      22.586 -14.592 -16.991  1.00  0.00    -0.550 OA
ATOM      9  O   UNL     1      21.092 -16.310 -16.739  1.00  0.00    -0.550 OA
ENDBRANCH   6   7
ENDBRANCH   5   6
ENDBRANCH   4   5
ENDBRANCH   3   4
ENDBRANCH   2   3
ENDBRANCH   1   2
BRANCH   1  10
ATOM     10  C   UNL     1      20.322 -20.577 -19.605  1.00  0.00     0.000 C 
BRANCH  10  11
ATOM     11  C   UNL     1      20.453 -21.908 -18.850  1.00  0.00    -0.000 C 
BRANCH  11  12
ATOM     12  C   UNL     1      19.559 -23.017 -19.433  1.00  0.00    -0.000 C 
BRANCH  12  13
ATOM     13  C   UNL     1      18.042 -22.757 -19.329  1.00  0.00    -0.000 C 
BRANCH  13  14
ATOM     14  C   UNL     1      17.293 -23.653 -18.326  1.00  0.00    -0.000 C 
BRANCH  14  15
ATOM     15  C   UNL     1      16.121 -24.413 -18.964  1.00  0.00    -0.000 C 
BRANCH  15  16
ATOM     16  C   UNL     1      14.792 -24.022 -18.308  1.00  0.00    -0.003 C 
ATOM     17  C   UNL     1      15.022 -23.239 -17.019  1.00  0.00     0.004 C 
ENDBRANCH  15  16
ENDBRANCH  14  15
ENDBRANCH  13  14
ENDBRANCH  12  13
ENDBRANCH  11  12
ENDBRANCH  10  11
ENDBRANCH   1  10
TORSDOF 13
ENDMDL
MODEL 5
REMARK VINA RESULT:    -4.140      1.732      2.948
REMARK INTER + INTRA:          -7.794
REMARK INTER:                  -7.116
REMARK INTRA:                  -0.678
REMARK UNBOUND:                -0.508
REMARK SMILES CCCCCCCCCCCCCCC(=O)[O-]
REMARK SMILES IDX 9 1 10 2 11 3 12 4 13 5 14 6 15 7 16 8 17 9 8 10 7 11 6 12
REMARK SMILES IDX 5 13 4 14 3 15 2 16 1 17
REMARK H PARENT
REMARK Flexibility Score: inf
ROOT
ATOM      1  C   UNL     1      20.421 -21.241 -19.264  1.00  0.00     0.000 C 
ENDROOT
BRANCH   1   2
ATOM      2  C   UNL     1      21.706 -20.555 -18.776  1.00  0.00     0.000 C 
BRANCH   2   3
ATOM      3  C   UNL     1      21.639 -20.179 -17.281  1.00  0.00     0.000 C 
BRANCH   3   4
ATOM      4  C   UNL     1      22.556 -19.003 -16.896  1.00  0.00     0.000 C 
BRANCH   4   5
ATOM      5  C   UNL     1      21.992 -17.607 -17.221  1.00  0.00     0.006 C 
BRANCH   5   6
ATOM      6  C   UNL     1      20.486 -17.456 -16.957  1.00  0.00     0.053 C 
BRANCH   6   7
ATOM      7  C   UNL     1      20.169 -16.176 -16.247  1.00  0.00     0.041 C 
ATOM      8  O   UNL     1      19.068 -16.037 -15.652  1.00  0.00    -0.550 OA
ATOM      9  O   UNL     1      21.077 -15.125 -16.269  1.00  0.00    -0.550 OA
ENDBRANCH   6   7
ENDBRANCH   5   6
ENDBRANCH   4   5
ENDBRANCH   3   4
ENDBRANCH   2   3
ENDBRANCH   1   2
BRANCH   1  10
ATOM     10  C   UNL     1      20.622 -22.754 -19.405  1.00  0.00     0.000 C 
BRANCH  10  11
ATOM     11  C   UNL     1      19.343 -23.433 -19.918  1.00  0.00    -0.000 C 
BRANCH  11  12
ATOM     12  C   UNL     1      18.070 -22.900 -19.239  1.00  0.00    -0.000 C 
BRANCH  12  13
ATOM     13  C   UNL     1      17.203 -23.970 -18.542  1.00  0.00    -0.000 C 
BRANCH  13  14
ATOM     14  C   UNL     1      16.199 -23.426 -17.510  1.00  0.00    -0.000 C 
BRANCH  14  15
ATOM     15  C   UNL     1      14.752 -23.849 -17.806  1.00  0.00    -0.000 C 
BRANCH  15  16
ATOM     16  C   UNL     1      14.661 -24.591 -19.144  1.00  0.00    -0.003 C 
ATOM     17  C   UNL     1      13.269 -24.458 -19.755  1.00  0.00     0.004 C 
ENDBRANCH  15  16
ENDBRANCH  14  15
ENDBRANCH  13  14
ENDBRANCH  12  13
ENDBRANCH  11  12
ENDBRANCH  10  11
ENDBRANCH   1  10
TORSDOF 13
ENDMDL
MODEL 6
REMARK VINA RESULT:    -4.040      3.157      6.976
REMARK INTER + INTRA:          -7.619
REMARK INTER:                  -6.336
REMARK INTRA:                  -1.283
REMARK UNBOUND:                -0.508
REMARK SMILES CCCCCCCCCCCCCCC(=O)[O-]
REMARK SMILES IDX 9 1 10 2 11 3 12 4 13 5 14 6 15 7 16 8 17 9 8 10 7 11 6 12
REMARK SMILES IDX 5 13 4 14 3 15 2 16 1 17
REMARK H PARENT
REMARK Flexibility Score: inf
ROOT
ATOM      1  C   UNL     1      17.337 -24.465 -19.390  1.00  0.00     0.000 C 
ENDROOT
BRANCH   1   2
ATOM      2  C   UNL     1      17.083 -23.679 -18.094  1.00  0.00     0.000 C 
BRANCH   2   3
ATOM      3  C   UNL     1      15.602 -23.725 -17.661  1.00  0.00     0.000 C 
BRANCH   3   4
ATOM      4  C   UNL     1      14.650 -24.231 -18.761  1.00  0.00     0.000 C 
BRANCH   4   5
ATOM      5  C   UNL     1      13.762 -23.147 -19.401  1.00  0.00     0.006 C 
BRANCH   5   6
ATOM      6  C   UNL     1      14.459 -22.323 -20.494  1.00  0.00     0.053 C 
BRANCH   6   7
ATOM      7  C   UNL     1      14.303 -20.850 -20.267  1.00  0.00     0.041 C 
ATOM      8  O   UNL     1      15.305 -20.091 -20.327  1.00  0.00    -0.550 OA
ATOM      9  O   UNL     1      13.056 -20.323 -19.957  1.00  0.00    -0.550 OA
ENDBRANCH   6   7
ENDBRANCH   5   6
ENDBRANCH   4   5
ENDBRANCH   3   4
ENDBRANCH   2   3
ENDBRANCH   1   2
BRANCH   1  10
ATOM     10  C   UNL     1      18.090 -23.608 -20.414  1.00  0.00     0.000 C 
BRANCH  10  11
ATOM     11  C   UNL     1      18.069 -22.126 -20.011  1.00  0.00    -0.000 C 
BRANCH  11  12
ATOM     12  C   UNL     1      19.184 -21.306 -20.685  1.00  0.00    -0.000 C 
BRANCH  12  13
ATOM     13  C   UNL     1      20.612 -21.613 -20.189  1.00  0.00    -0.000 C 
BRANCH  13  14
ATOM     14  C   UNL     1      20.858 -21.340 -18.695  1.00  0.00    -0.000 C 
BRANCH  14  15
ATOM     15  C   UNL     1      21.591 -20.014 -18.443  1.00  0.00    -0.000 C 
BRANCH  15  16
ATOM     16  C   UNL     1      21.356 -19.521 -17.011  1.00  0.00    -0.003 C 
ATOM     17  C   UNL     1      20.970 -18.045 -16.992  1.00  0.00     0.004 C 
ENDBRANCH  15  16
ENDBRANCH  14  15
ENDBRANCH  13  14
ENDBRANCH  12  13
ENDBRANCH  11  12
ENDBRANCH  10  11
ENDBRANCH   1  10
TORSDOF 13
ENDMDL
MODEL 7
REMARK VINA RESULT:    -4.017      3.206      4.936
REMARK INTER + INTRA:          -7.578
REMARK INTER:                  -6.225
REMARK INTRA:                  -1.353
REMARK UNBOUND:                -0.508
REMARK SMILES CCCCCCCCCCCCCCC(=O)[O-]
REMARK SMILES IDX 9 1 10 2 11 3 12 4 13 5 14 6 15 7 16 8 17 9 8 10 7 11 6 12
REMARK SMILES IDX 5 13 4 14 3 15 2 16 1 17
REMARK H PARENT
REMARK Flexibility Score: inf
ROOT
ATOM      1  C   UNL     1      18.528 -23.529 -20.134  1.00  0.00     0.000 C 
ENDROOT
BRANCH   1   2
ATOM      2  C   UNL     1      18.976 -22.500 -19.085  1.00  0.00     0.000 C 
BRANCH   2   3
ATOM      3  C   UNL     1      20.493 -22.223 -19.144  1.00  0.00     0.000 C 
BRANCH   3   4
ATOM      4  C   UNL     1      20.854 -20.729 -19.045  1.00  0.00     0.000 C 
BRANCH   4   5
ATOM      5  C   UNL     1      21.347 -20.270 -17.660  1.00  0.00     0.006 C 
BRANCH   5   6
ATOM      6  C   UNL     1      21.140 -18.773 -17.379  1.00  0.00     0.053 C 
BRANCH   6   7
ATOM      7  C   UNL     1      22.430 -18.015 -17.416  1.00  0.00     0.041 C 
ATOM      8  O   UNL     1      23.413 -18.402 -16.731  1.00  0.00    -0.550 OA
ATOM      9  O   UNL     1      22.537 -16.861 -18.182  1.00  0.00    -0.550 OA
ENDBRANCH   6   7
ENDBRANCH   5   6
ENDBRANCH   4   5
ENDBRANCH   3   4
ENDBRANCH   2   3
ENDBRANCH   1   2
BRANCH   1  10
ATOM     10  C   UNL     1      17.300 -23.032 -20.905  1.00  0.00     0.000 C 
BRANCH  10  11
ATOM     11  C   UNL     1      17.020 -21.553 -20.596  1.00  0.00    -0.000 C 
BRANCH  11  12
ATOM     12  C   UNL     1      15.578 -21.303 -20.121  1.00  0.00    -0.000 C 
BRANCH  12  13
ATOM     13  C   UNL     1      14.569 -22.413 -20.482  1.00  0.00    -0.000 C 
BRANCH  13  14
ATOM     14  C   UNL     1      13.851 -23.059 -19.283  1.00  0.00    -0.000 C 
BRANCH  14  15
ATOM     15  C   UNL     1      14.586 -24.295 -18.744  1.00  0.00    -0.000 C 
BRANCH  15  16
ATOM     16  C   UNL     1      15.469 -23.928 -17.546  1.00  0.00    -0.003 C 
ATOM     17  C   UNL     1      14.843 -22.807 -16.721  1.00  0.00     0.004 C 
ENDBRANCH  15  16
ENDBRANCH  14  15
ENDBRANCH  13  14
ENDBRANCH  12  13
ENDBRANCH  11  12
ENDBRANCH  10  11
ENDBRANCH   1  10
TORSDOF 13
ENDMDL
MODEL 8
REMARK VINA RESULT:    -4.008      2.940      3.721
REMARK INTER + INTRA:          -7.561
REMARK INTER:                  -6.866
REMARK INTRA:                  -0.695
REMARK UNBOUND:                -0.508
REMARK SMILES CCCCCCCCCCCCCCC(=O)[O-]
REMARK SMILES IDX 9 1 10 2 11 3 12 4 13 5 14 6 15 7 16 8 17 9 8 10 7 11 6 12
REMARK SMILES IDX 5 13 4 14 3 15 2 16 1 17
REMARK H PARENT
REMARK Flexibility Score: inf
ROOT
ATOM      1  C   UNL     1      21.105 -21.225 -19.590  1.00  0.00     0.000 C 
ENDROOT
BRANCH   1   2
ATOM      2  C   UNL     1      20.926 -19.934 -18.778  1.00  0.00     0.000 C 
BRANCH   2   3
ATOM      3  C   UNL     1      21.461 -20.068 -17.337  1.00  0.00     0.000 C 
BRANCH   3   4
ATOM      4  C   UNL     1      22.672 -19.164 -17.038  1.00  0.00     0.000 C 
BRANCH   4   5
ATOM      5  C   UNL     1      22.546 -17.719 -17.555  1.00  0.00     0.006 C 
BRANCH   5   6
ATOM      6  C   UNL     1      23.550 -16.735 -16.933  1.00  0.00     0.053 C 
BRANCH   6   7
ATOM      7  C   UNL     1      23.009 -15.340 -16.887  1.00  0.00     0.041 C 
ATOM      8  O   UNL     1      23.734 -14.368 -17.226  1.00  0.00    -0.550 OA
ATOM      9  O   UNL     1      21.714 -15.110 -16.439  1.00  0.00    -0.550 OA
ENDBRANCH   6   7
ENDBRANCH   5   6
ENDBRANCH   4   5
ENDBRANCH   3   4
ENDBRANCH   2   3
ENDBRANCH   1   2
BRANCH   1  10
ATOM     10  C   UNL     1      20.376 -22.399 -18.926  1.00  0.00     0.000 C 
BRANCH  10  11
ATOM     11  C   UNL     1      18.886 -22.401 -19.297  1.00  0.00    -0.000 C 
BRANCH  11  12
ATOM     12  C   UNL     1      18.423 -23.735 -19.909  1.00  0.00    -0.000 C 
BRANCH  12  13
ATOM     13  C   UNL     1      17.280 -24.441 -19.152  1.00  0.00    -0.000 C 
BRANCH  13  14
ATOM     14  C   UNL     1      16.764 -23.698 -17.906  1.00  0.00    -0.000 C 
BRANCH  14  15
ATOM     15  C   UNL     1      15.245 -23.475 -17.930  1.00  0.00    -0.000 C 
BRANCH  15  16
ATOM     16  C   UNL     1      14.563 -24.457 -18.889  1.00  0.00    -0.003 C 
ATOM     17  C   UNL     1      13.524 -23.750 -19.755  1.00  0.00     0.004 C 
ENDBRANCH  15  16
ENDBRANCH  14  15
ENDBRANCH  13  14
ENDBRANCH  12  13
ENDBRANCH  11  12
ENDBRANCH  10  11
ENDBRANCH   1  10
TORSDOF 13
ENDMDL
MODEL 9
REMARK VINA RESULT:    -3.963      3.423      7.625
REMARK INTER + INTRA:          -7.482
REMARK INTER:                  -6.588
REMARK INTRA:                  -0.894
REMARK UNBOUND:                -0.508
REMARK SMILES CCCCCCCCCCCCCCC(=O)[O-]
REMARK SMILES IDX 9 1 10 2 11 3 12 4 13 5 14 6 15 7 16 8 17 9 8 10 7 11 6 12
REMARK SMILES IDX 5 13 4 14 3 15 2 16 1 17
REMARK H PARENT
REMARK Flexibility Score: inf
ROOT
ATOM      1  C   UNL     1      19.872 -20.715 -19.933  1.00  0.00     0.000 C 
ENDROOT
BRANCH   1   2
ATOM      2  C   UNL     1      18.912 -21.840 -20.349  1.00  0.00     0.000 C 
BRANCH   2   3
ATOM      3  C   UNL     1      18.620 -22.819 -19.192  1.00  0.00     0.000 C 
BRANCH   3   4
ATOM      4  C   UNL     1      17.885 -24.099 -19.634  1.00  0.00     0.000 C 
BRANCH   4   5
ATOM      5  C   UNL     1      16.548 -24.362 -18.916  1.00  0.00     0.006 C 
BRANCH   5   6
ATOM      6  C   UNL     1      16.385 -23.605 -17.588  1.00  0.00     0.053 C 
BRANCH   6   7
ATOM      7  C   UNL     1      15.017 -23.012 -17.449  1.00  0.00     0.041 C 
ATOM      8  O   UNL     1      14.230 -22.996 -18.432  1.00  0.00    -0.550 OA
ATOM      9  O   UNL     1      14.623 -22.448 -16.242  1.00  0.00    -0.550 OA
ENDBRANCH   6   7
ENDBRANCH   5   6
ENDBRANCH   4   5
ENDBRANCH   3   4
ENDBRANCH   2   3
ENDBRANCH   1   2
BRANCH   1  10
ATOM     10  C   UNL     1      20.697 -21.121 -18.706  1.00  0.00     0.000 C 
BRANCH  10  11
ATOM     11  C   UNL     1      21.839 -20.123 -18.458  1.00  0.00    -0.000 C 
BRANCH  11  12
ATOM     12  C   UNL     1      21.728 -19.414 -17.097  1.00  0.00    -0.000 C 
BRANCH  12  13
ATOM     13  C   UNL     1      20.854 -18.143 -17.090  1.00  0.00    -0.000 C 
BRANCH  13  14
ATOM     14  C   UNL     1      21.630 -16.817 -17.000  1.00  0.00    -0.000 C 
BRANCH  14  15
ATOM     15  C   UNL     1      23.137 -16.989 -17.240  1.00  0.00    -0.000 C 
BRANCH  15  16
ATOM     16  C   UNL     1      23.534 -16.472 -18.627  1.00  0.00    -0.003 C 
ATOM     17  C   UNL     1      24.573 -17.380 -19.278  1.00  0.00     0.004 C 
ENDBRANCH  15  16
ENDBRANCH  14  15
ENDBRANCH  13  14
ENDBRANCH  12  13
ENDBRANCH  11  12
ENDBRANCH  10  11
ENDBRANCH   1  10
TORSDOF 13
ENDMDL
