MODEL 1
REMARK VINA RESULT:    -4.385      0.000      0.000
REMARK INTER + INTRA:          -9.574
REMARK INTER:                  -8.230
REMARK INTRA:                  -1.343
REMARK UNBOUND:                -1.343
REMARK SMILES O=C([O-])CCCCCCCCCCCCCCC(=O)[O-]
REMARK SMILES IDX 10 1 9 2 8 3 7 4 6 5 5 6 4 7 2 8 1 9 3 10 11 11 12 12 13 13
REMARK SMILES IDX 14 14 15 15 16 16 17 17 18 18 19 19 20 20
REMARK H PARENT
REMARK Flexibility Score: inf
ROOT
ATOM      1  C   UNL     1      44.195  27.106   2.607  1.00  0.00     0.000 C 
ENDROOT
BRANCH   1   2
ATOM      2  C   UNL     1      44.702  26.261   3.796  1.00  0.00     0.000 C 
BRANCH   2   3
ATOM      3  C   UNL     1      46.220  26.016   3.733  1.00  0.00     0.000 C 
BRANCH   3   4
ATOM      4  C   UNL     1      46.927  26.359   5.053  1.00  0.00     0.000 C 
BRANCH   4   5
ATOM      5  C   UNL     1      46.856  27.857   5.385  1.00  0.00     0.000 C 
BRANCH   5   6
ATOM      6  C   UNL     1      46.001  28.102   6.635  1.00  0.00     0.006 C 
BRANCH   6   7
ATOM      7  C   UNL     1      45.803  26.805   7.427  1.00  0.00     0.053 C 
BRANCH   7   8
ATOM      8  C   UNL     1      45.381  27.108   8.831  1.00  0.00     0.041 C 
ATOM      9  O   UNL     1      45.267  26.179   9.673  1.00  0.00    -0.550 OA
ATOM     10  O   UNL     1      45.159  28.422   9.221  1.00  0.00    -0.550 OA
ENDBRANCH   7   8
ENDBRANCH   6   7
ENDBRANCH   5   6
ENDBRANCH   4   5
ENDBRANCH   3   4
ENDBRANCH   2   3
ENDBRANCH   1   2
BRANCH   1  11
ATOM     11  C   UNL     1      44.219  28.623   2.871  1.00  0.00     0.000 C 
BRANCH  11  12
ATOM     12  C   UNL     1      45.332  29.394   2.138  1.00  0.00     0.000 C 
BRANCH  12  13
ATOM     13  C   UNL     1      46.052  28.603   1.030  1.00  0.00     0.000 C 
BRANCH  13  14
ATOM     14  C   UNL     1      45.647  29.054  -0.384  1.00  0.00     0.000 C 
BRANCH  14  15
ATOM     15  C   UNL     1      45.332  27.870  -1.312  1.00  0.00     0.000 C 
BRANCH  15  16
ATOM     16  C   UNL     1      44.737  28.318  -2.659  1.00  0.00     0.006 C 
BRANCH  16  17
ATOM     17  C   UNL     1      44.098  27.151  -3.425  1.00  0.00     0.053 C 
BRANCH  17  18
ATOM     18  C   UNL     1      43.125  27.630  -4.460  1.00  0.00     0.041 C 
ATOM     19  O   UNL     1      43.440  27.620  -5.678  1.00  0.00    -0.550 OA
ATOM     20  O   UNL     1      41.879  28.108  -4.075  1.00  0.00    -0.550 OA
ENDBRANCH  17  18
ENDBRANCH  16  17
ENDBRANCH  15  16
ENDBRANCH  14  15
ENDBRANCH  13  14
ENDBRANCH  12  13
ENDBRANCH  11  12
ENDBRANCH   1  11
TORSDOF 15
ENDMDL
MODEL 2
REMARK VINA RESULT:    -4.384      1.025      1.726
REMARK INTER + INTRA:          -9.572
REMARK INTER:                  -8.387
REMARK INTRA:                  -1.185
REMARK UNBOUND:                -1.343
REMARK SMILES O=C([O-])CCCCCCCCCCCCCCC(=O)[O-]
REMARK SMILES IDX 10 1 9 2 8 3 7 4 6 5 5 6 4 7 2 8 1 9 3 10 11 11 12 12 13 13
REMARK SMILES IDX 14 14 15 15 16 16 17 17 18 18 19 19 20 20
REMARK H PARENT
REMARK Flexibility Score: inf
ROOT
ATOM      1  C   UNL     1      44.860  26.043   3.869  1.00  0.00     0.000 C 
ENDROOT
BRANCH   1   2
ATOM      2  C   UNL     1      46.400  26.040   3.764  1.00  0.00     0.000 C 
BRANCH   2   3
ATOM      3  C   UNL     1      47.070  26.722   4.970  1.00  0.00     0.000 C 
BRANCH   3   4
ATOM      4  C   UNL     1      46.146  26.789   6.196  1.00  0.00     0.000 C 
BRANCH   4   5
ATOM      5  C   UNL     1      45.914  28.229   6.677  1.00  0.00     0.000 C 
BRANCH   5   6
ATOM      6  C   UNL     1      45.529  28.257   8.162  1.00  0.00     0.006 C 
BRANCH   6   7
ATOM      7  C   UNL     1      45.384  26.837   8.718  1.00  0.00     0.053 C 
BRANCH   7   8
ATOM      8  C   UNL     1      45.937  26.759  10.106  1.00  0.00     0.041 C 
ATOM      9  O   UNL     1      46.346  25.660  10.565  1.00  0.00    -0.550 OA
ATOM     10  O   UNL     1      46.043  27.909  10.877  1.00  0.00    -0.550 OA
ENDBRANCH   7   8
ENDBRANCH   6   7
ENDBRANCH   5   6
ENDBRANCH   4   5
ENDBRANCH   3   4
ENDBRANCH   2   3
ENDBRANCH   1   2
BRANCH   1  11
ATOM     11  C   UNL     1      44.172  26.951   2.833  1.00  0.00     0.000 C 
BRANCH  11  12
ATOM     12  C   UNL     1      44.391  28.461   3.041  1.00  0.00     0.000 C 
BRANCH  12  13
ATOM     13  C   UNL     1      45.306  29.135   2.003  1.00  0.00     0.000 C 
BRANCH  13  14
ATOM     14  C   UNL     1      45.679  28.201   0.840  1.00  0.00     0.000 C 
BRANCH  14  15
ATOM     15  C   UNL     1      45.514  28.873  -0.533  1.00  0.00     0.000 C 
BRANCH  15  16
ATOM     16  C   UNL     1      45.371  27.853  -1.677  1.00  0.00     0.006 C 
BRANCH  16  17
ATOM     17  C   UNL     1      44.583  28.423  -2.864  1.00  0.00     0.053 C 
BRANCH  17  18
ATOM     18  C   UNL     1      44.302  27.378  -3.900  1.00  0.00     0.041 C 
ATOM     19  O   UNL     1      43.349  26.571  -3.743  1.00  0.00    -0.550 OA
ATOM     20  O   UNL     1      45.107  27.281  -5.028  1.00  0.00    -0.550 OA
ENDBRANCH  17  18
ENDBRANCH  16  17
ENDBRANCH  15  16
ENDBRANCH  14  15
ENDBRANCH  13  14
ENDBRANCH  12  13
ENDBRANCH  11  12
ENDBRANCH   1  11
TORSDOF 15
ENDMDL
MODEL 3
REMARK VINA RESULT:    -4.305      0.693      9.869
REMARK INTER + INTRA:          -9.424
REMARK INTER:                  -8.256
REMARK INTRA:                  -1.168
REMARK UNBOUND:                -1.343
REMARK SMILES O=C([O-])CCCCCCCCCCCCCCC(=O)[O-]
REMARK SMILES IDX 10 1 9 2 8 3 7 4 6 5 5 6 4 7 2 8 1 9 3 10 11 11 12 12 13 13
REMARK SMILES IDX 14 14 15 15 16 16 17 17 18 18 19 19 20 20
REMARK H PARENT
REMARK Flexibility Score: inf
ROOT
ATOM      1  C   UNL     1      45.305  28.938   1.742  1.00  0.00     0.000 C 
ENDROOT
BRANCH   1   2
ATOM      2  C   UNL     1      45.756  27.813   0.785  1.00  0.00     0.000 C 
BRANCH   2   3
ATOM      3  C   UNL     1      46.160  28.351  -0.599  1.00  0.00     0.000 C 
BRANCH   3   4
ATOM      4  C   UNL     1      45.267  29.512  -1.064  1.00  0.00     0.000 C 
BRANCH   4   5
ATOM      5  C   UNL     1      44.626  29.246  -2.433  1.00  0.00     0.000 C 
BRANCH   5   6
ATOM      6  C   UNL     1      45.080  27.894  -2.999  1.00  0.00     0.006 C 
BRANCH   6   7
ATOM      7  C   UNL     1      43.876  27.020  -3.364  1.00  0.00     0.053 C 
BRANCH   7   8
ATOM      8  C   UNL     1      43.086  27.649  -4.467  1.00  0.00     0.041 C 
ATOM      9  O   UNL     1      41.914  28.057  -4.255  1.00  0.00    -0.550 OA
ATOM     10  O   UNL     1      43.660  27.826  -5.719  1.00  0.00    -0.550 OA
ENDBRANCH   7   8
ENDBRANCH   6   7
ENDBRANCH   5   6
ENDBRANCH   4   5
ENDBRANCH   3   4
ENDBRANCH   2   3
ENDBRANCH   1   2
BRANCH   1  11
ATOM     11  C   UNL     1      44.449  28.440   2.922  1.00  0.00     0.000 C 
BRANCH  11  12
ATOM     12  C   UNL     1      44.208  26.920   2.955  1.00  0.00     0.000 C 
BRANCH  12  13
ATOM     13  C   UNL     1      44.827  26.188   4.160  1.00  0.00     0.000 C 
BRANCH  13  14
ATOM     14  C   UNL     1      46.342  26.421   4.285  1.00  0.00     0.000 C 
BRANCH  14  15
ATOM     15  C   UNL     1      46.726  27.112   5.603  1.00  0.00     0.000 C 
BRANCH  15  16
ATOM     16  C   UNL     1      45.733  26.811   6.739  1.00  0.00     0.006 C 
BRANCH  16  17
ATOM     17  C   UNL     1      45.711  27.922   7.798  1.00  0.00     0.053 C 
BRANCH  17  18
ATOM     18  C   UNL     1      45.283  27.407   9.138  1.00  0.00     0.041 C 
ATOM     19  O   UNL     1      45.502  26.209   9.456  1.00  0.00    -0.550 OA
ATOM     20  O   UNL     1      44.622  28.245  10.028  1.00  0.00    -0.550 OA
ENDBRANCH  17  18
ENDBRANCH  16  17
ENDBRANCH  15  16
ENDBRANCH  14  15
ENDBRANCH  13  14
ENDBRANCH  12  13
ENDBRANCH  11  12
ENDBRANCH   1  11
TORSDOF 15
ENDMDL
MODEL 4
REMARK VINA RESULT:    -4.198      1.027      9.967
REMARK INTER + INTRA:          -9.223
REMARK INTER:                  -8.116
REMARK INTRA:                  -1.107
REMARK UNBOUND:                -1.343
REMARK SMILES O=C([O-])CCCCCCCCCCCCCCC(=O)[O-]
REMARK SMILES IDX 10 1 9 2 8 3 7 4 6 5 5 6 4 7 2 8 1 9 3 10 11 11 12 12 13 13
REMARK SMILES IDX 14 14 15 15 16 16 17 17 18 18 19 19 20 20
REMARK H PARENT
REMARK Flexibility Score: inf
ROOT
ATOM      1  C   UNL     1      44.258  27.098   2.647  1.00  0.00     0.000 C 
ENDROOT
BRANCH   1   2
ATOM      2  C   UNL     1      44.554  28.608   2.773  1.00  0.00     0.000 C 
BRANCH   2   3
ATOM      3  C   UNL     1      45.504  29.111   1.672  1.00  0.00     0.000 C 
BRANCH   3   4
ATOM      4  C   UNL     1      45.723  28.070   0.563  1.00  0.00     0.000 C 
BRANCH   4   5
ATOM      5  C   UNL     1      45.606  28.678  -0.843  1.00  0.00     0.000 C 
BRANCH   5   6
ATOM      6  C   UNL     1      45.064  27.649  -1.843  1.00  0.00     0.006 C 
BRANCH   6   7
ATOM      7  C   UNL     1      44.369  28.341  -3.020  1.00  0.00     0.053 C 
BRANCH   7   8
ATOM      8  C   UNL     1      43.726  27.330  -3.916  1.00  0.00     0.041 C 
ATOM      9  O   UNL     1      43.288  26.249  -3.442  1.00  0.00    -0.550 OA
ATOM     10  O   UNL     1      43.570  27.601  -5.269  1.00  0.00    -0.550 OA
ENDBRANCH   7   8
ENDBRANCH   6   7
ENDBRANCH   5   6
ENDBRANCH   4   5
ENDBRANCH   3   4
ENDBRANCH   2   3
ENDBRANCH   1   2
BRANCH   1  11
ATOM     11  C   UNL     1      44.708  26.276   3.869  1.00  0.00     0.000 C 
BRANCH  11  12
ATOM     12  C   UNL     1      46.220  25.993   3.944  1.00  0.00     0.000 C 
BRANCH  12  13
ATOM     13  C   UNL     1      46.918  26.511   5.215  1.00  0.00     0.000 C 
BRANCH  13  14
ATOM     14  C   UNL     1      45.924  26.928   6.313  1.00  0.00     0.000 C 
BRANCH  14  15
ATOM     15  C   UNL     1      45.977  28.434   6.614  1.00  0.00     0.000 C 
BRANCH  15  16
ATOM     16  C   UNL     1      46.102  28.732   8.119  1.00  0.00     0.006 C 
BRANCH  16  17
ATOM     17  C   UNL     1      45.121  27.901   8.957  1.00  0.00     0.053 C 
BRANCH  17  18
ATOM     18  C   UNL     1      45.807  27.206  10.093  1.00  0.00     0.041 C 
ATOM     19  O   UNL     1      45.963  25.957  10.070  1.00  0.00    -0.550 OA
ATOM     20  O   UNL     1      46.253  27.935  11.188  1.00  0.00    -0.550 OA
ENDBRANCH  17  18
ENDBRANCH  16  17
ENDBRANCH  15  16
ENDBRANCH  14  15
ENDBRANCH  13  14
ENDBRANCH  12  13
ENDBRANCH  11  12
ENDBRANCH   1  11
TORSDOF 15
ENDMDL
MODEL 5
REMARK VINA RESULT:    -3.836      1.209      1.532
REMARK INTER + INTRA:          -8.542
REMARK INTER:                  -7.740
REMARK INTRA:                  -0.803
REMARK UNBOUND:                -1.343
REMARK SMILES O=C([O-])CCCCCCCCCCCCCCC(=O)[O-]
REMARK SMILES IDX 10 1 9 2 8 3 7 4 6 5 5 6 4 7 2 8 1 9 3 10 11 11 12 12 13 13
REMARK SMILES IDX 14 14 15 15 16 16 17 17 18 18 19 19 20 20
REMARK H PARENT
REMARK Flexibility Score: inf
ROOT
ATOM      1  C   UNL     1      44.308  27.163   3.144  1.00  0.00     0.000 C 
ENDROOT
BRANCH   1   2
ATOM      2  C   UNL     1      45.246  26.335   4.049  1.00  0.00     0.000 C 
BRANCH   2   3
ATOM      3  C   UNL     1      45.913  27.192   5.139  1.00  0.00     0.000 C 
BRANCH   3   4
ATOM      4  C   UNL     1      47.054  26.453   5.855  1.00  0.00     0.000 C 
BRANCH   4   5
ATOM      5  C   UNL     1      47.048  26.694   7.371  1.00  0.00     0.000 C 
BRANCH   5   6
ATOM      6  C   UNL     1      45.614  26.774   7.910  1.00  0.00     0.006 C 
BRANCH   6   7
ATOM      7  C   UNL     1      45.589  27.374   9.319  1.00  0.00     0.053 C 
BRANCH   7   8
ATOM      8  C   UNL     1      44.932  28.718   9.304  1.00  0.00     0.041 C 
ATOM      9  O   UNL     1      44.997  29.444   8.278  1.00  0.00    -0.550 OA
ATOM     10  O   UNL     1      44.209  29.150  10.408  1.00  0.00    -0.550 OA
ENDBRANCH   7   8
ENDBRANCH   6   7
ENDBRANCH   5   6
ENDBRANCH   4   5
ENDBRANCH   3   4
ENDBRANCH   2   3
ENDBRANCH   1   2
BRANCH   1  11
ATOM     11  C   UNL     1      44.754  27.211   1.671  1.00  0.00     0.000 C 
BRANCH  11  12
ATOM     12  C   UNL     1      46.089  27.935   1.417  1.00  0.00     0.000 C 
BRANCH  12  13
ATOM     13  C   UNL     1      46.005  29.139   0.462  1.00  0.00     0.000 C 
BRANCH  13  14
ATOM     14  C   UNL     1      46.311  28.764  -0.999  1.00  0.00     0.000 C 
BRANCH  14  15
ATOM     15  C   UNL     1      45.042  28.660  -1.859  1.00  0.00     0.000 C 
BRANCH  15  16
ATOM     16  C   UNL     1      45.161  27.593  -2.961  1.00  0.00     0.006 C 
BRANCH  16  17
ATOM     17  C   UNL     1      43.806  26.957  -3.300  1.00  0.00     0.053 C 
BRANCH  17  18
ATOM     18  C   UNL     1      43.091  27.710  -4.380  1.00  0.00     0.041 C 
ATOM     19  O   UNL     1      43.703  28.055  -5.424  1.00  0.00    -0.550 OA
ATOM     20  O   UNL     1      41.753  28.049  -4.222  1.00  0.00    -0.550 OA
ENDBRANCH  17  18
ENDBRANCH  16  17
ENDBRANCH  15  16
ENDBRANCH  14  15
ENDBRANCH  13  14
ENDBRANCH  12  13
ENDBRANCH  11  12
ENDBRANCH   1  11
TORSDOF 15
ENDMDL
MODEL 6
REMARK VINA RESULT:    -3.761      2.401      9.634
REMARK INTER + INTRA:          -8.403
REMARK INTER:                  -7.104
REMARK INTRA:                  -1.298
REMARK UNBOUND:                -1.343
REMARK SMILES O=C([O-])CCCCCCCCCCCCCCC(=O)[O-]
REMARK SMILES IDX 10 1 9 2 8 3 7 4 6 5 5 6 4 7 2 8 1 9 3 10 11 11 12 12 13 13
REMARK SMILES IDX 14 14 15 15 16 16 17 17 18 18 19 19 20 20
REMARK H PARENT
REMARK Flexibility Score: inf
ROOT
ATOM      1  C   UNL     1      45.246  27.769  -2.256  1.00  0.00     0.000 C 
ENDROOT
BRANCH   1   2
ATOM      2  C   UNL     1      46.714  27.527  -2.667  1.00  0.00     0.000 C 
BRANCH   2   3
ATOM      3  C   UNL     1      46.907  27.562  -4.193  1.00  0.00     0.000 C 
BRANCH   3   4
ATOM      4  C   UNL     1      45.630  27.179  -4.957  1.00  0.00     0.000 C 
BRANCH   4   5
ATOM      5  C   UNL     1      45.546  27.853  -6.334  1.00  0.00     0.000 C 
BRANCH   5   6
ATOM      6  C   UNL     1      44.097  28.224  -6.676  1.00  0.00     0.006 C 
BRANCH   6   7
ATOM      7  C   UNL     1      43.553  29.271  -5.698  1.00  0.00     0.053 C 
BRANCH   7   8
ATOM      8  C   UNL     1      42.148  28.941  -5.306  1.00  0.00     0.041 C 
ATOM      9  O   UNL     1      41.925  28.165  -4.339  1.00  0.00    -0.550 OA
ATOM     10  O   UNL     1      41.083  29.524  -5.979  1.00  0.00    -0.550 OA
ENDBRANCH   7   8
ENDBRANCH   6   7
ENDBRANCH   5   6
ENDBRANCH   4   5
ENDBRANCH   3   4
ENDBRANCH   2   3
ENDBRANCH   1   2
BRANCH   1  11
ATOM     11  C   UNL     1      44.957  29.218  -1.821  1.00  0.00     0.000 C 
BRANCH  11  12
ATOM     12  C   UNL     1      46.172  29.988  -1.273  1.00  0.00     0.000 C 
BRANCH  12  13
ATOM     13  C   UNL     1      46.566  29.641   0.174  1.00  0.00     0.000 C 
BRANCH  13  14
ATOM     14  C   UNL     1      45.357  29.263   1.047  1.00  0.00     0.000 C 
BRANCH  14  15
ATOM     15  C   UNL     1      45.396  27.797   1.505  1.00  0.00     0.000 C 
BRANCH  15  16
ATOM     16  C   UNL     1      44.528  27.544   2.751  1.00  0.00     0.006 C 
BRANCH  16  17
ATOM     17  C   UNL     1      45.352  27.567   4.045  1.00  0.00     0.053 C 
BRANCH  17  18
ATOM     18  C   UNL     1      45.892  26.212   4.387  1.00  0.00     0.041 C 
ATOM     19  O   UNL     1      46.911  26.102   5.117  1.00  0.00    -0.550 OA
ATOM     20  O   UNL     1      45.283  25.071   3.878  1.00  0.00    -0.550 OA
ENDBRANCH  17  18
ENDBRANCH  16  17
ENDBRANCH  15  16
ENDBRANCH  14  15
ENDBRANCH  13  14
ENDBRANCH  12  13
ENDBRANCH  11  12
ENDBRANCH   1  11
TORSDOF 15
ENDMDL
MODEL 7
REMARK VINA RESULT:    -3.661      2.462      4.874
REMARK INTER + INTRA:          -8.215
REMARK INTER:                  -6.724
REMARK INTRA:                  -1.490
REMARK UNBOUND:                -1.343
REMARK SMILES O=C([O-])CCCCCCCCCCCCCCC(=O)[O-]
REMARK SMILES IDX 10 1 9 2 8 3 7 4 6 5 5 6 4 7 2 8 1 9 3 10 11 11 12 12 13 13
REMARK SMILES IDX 14 14 15 15 16 16 17 17 18 18 19 19 20 20
REMARK H PARENT
REMARK Flexibility Score: inf
ROOT
ATOM      1  C   UNL     1      45.583  28.020  -1.901  1.00  0.00     0.000 C 
ENDROOT
BRANCH   1   2
ATOM      2  C   UNL     1      45.204  29.447  -1.448  1.00  0.00     0.000 C 
BRANCH   2   3
ATOM      3  C   UNL     1      45.488  29.680   0.046  1.00  0.00     0.000 C 
BRANCH   3   4
ATOM      4  C   UNL     1      46.641  28.809   0.570  1.00  0.00     0.000 C 
BRANCH   4   5
ATOM      5  C   UNL     1      46.169  27.765   1.592  1.00  0.00     0.000 C 
BRANCH   5   6
ATOM      6  C   UNL     1      44.871  28.213   2.276  1.00  0.00     0.006 C 
BRANCH   6   7
ATOM      7  C   UNL     1      44.168  27.030   2.949  1.00  0.00     0.053 C 
BRANCH   7   8
ATOM      8  C   UNL     1      45.076  26.381   3.946  1.00  0.00     0.041 C 
ATOM      9  O   UNL     1      45.333  25.151   3.863  1.00  0.00    -0.550 OA
ATOM     10  O   UNL     1      45.672  27.143   4.942  1.00  0.00    -0.550 OA
ENDBRANCH   7   8
ENDBRANCH   6   7
ENDBRANCH   5   6
ENDBRANCH   4   5
ENDBRANCH   3   4
ENDBRANCH   2   3
ENDBRANCH   1   2
BRANCH   1  11
ATOM     11  C   UNL     1      46.316  27.976  -3.255  1.00  0.00     0.000 C 
BRANCH  11  12
ATOM     12  C   UNL     1      46.521  29.345  -3.929  1.00  0.00     0.000 C 
BRANCH  12  13
ATOM     13  C   UNL     1      47.060  29.286  -5.370  1.00  0.00     0.000 C 
BRANCH  13  14
ATOM     14  C   UNL     1      46.077  28.621  -6.348  1.00  0.00     0.000 C 
BRANCH  14  15
ATOM     15  C   UNL     1      44.966  29.578  -6.810  1.00  0.00     0.000 C 
BRANCH  15  16
ATOM     16  C   UNL     1      43.602  29.248  -6.180  1.00  0.00     0.006 C 
BRANCH  16  17
ATOM     17  C   UNL     1      43.497  27.774  -5.765  1.00  0.00     0.053 C 
BRANCH  17  18
ATOM     18  C   UNL     1      42.855  27.618  -4.421  1.00  0.00     0.041 C 
ATOM     19  O   UNL     1      42.135  28.538  -3.951  1.00  0.00    -0.550 OA
ATOM     20  O   UNL     1      43.071  26.465  -3.676  1.00  0.00    -0.550 OA
ENDBRANCH  17  18
ENDBRANCH  16  17
ENDBRANCH  15  16
ENDBRANCH  14  15
ENDBRANCH  13  14
ENDBRANCH  12  13
ENDBRANCH  11  12
ENDBRANCH   1  11
TORSDOF 15
ENDMDL
MODEL 8
REMARK VINA RESULT:    -3.475      1.338     10.445
REMARK INTER + INTRA:          -7.866
REMARK INTER:                  -7.111
REMARK INTRA:                  -0.755
REMARK UNBOUND:                -1.343
REMARK SMILES O=C([O-])CCCCCCCCCCCCCCC(=O)[O-]
REMARK SMILES IDX 10 1 9 2 8 3 7 4 6 5 5 6 4 7 2 8 1 9 3 10 11 11 12 12 13 13
REMARK SMILES IDX 14 14 15 15 16 16 17 17 18 18 19 19 20 20
REMARK H PARENT
REMARK Flexibility Score: inf
ROOT
ATOM      1  C   UNL     1      46.270  28.307  -0.256  1.00  0.00     0.000 C 
ENDROOT
BRANCH   1   2
ATOM      2  C   UNL     1      45.439  28.730  -1.487  1.00  0.00     0.000 C 
BRANCH   2   3
ATOM      3  C   UNL     1      46.215  28.555  -2.804  1.00  0.00     0.000 C 
BRANCH   3   4
ATOM      4  C   UNL     1      45.357  27.933  -3.916  1.00  0.00     0.000 C 
BRANCH   4   5
ATOM      5  C   UNL     1      44.220  27.061  -3.361  1.00  0.00     0.000 C 
BRANCH   5   6
ATOM      6  C   UNL     1      42.916  27.304  -4.131  1.00  0.00     0.006 C 
BRANCH   6   7
ATOM      7  C   UNL     1      43.196  27.924  -5.504  1.00  0.00     0.053 C 
BRANCH   7   8
ATOM      8  C   UNL     1      42.260  29.062  -5.765  1.00  0.00     0.041 C 
ATOM      9  O   UNL     1      41.865  29.301  -6.937  1.00  0.00    -0.550 OA
ATOM     10  O   UNL     1      41.787  29.830  -4.709  1.00  0.00    -0.550 OA
ENDBRANCH   7   8
ENDBRANCH   6   7
ENDBRANCH   5   6
ENDBRANCH   4   5
ENDBRANCH   3   4
ENDBRANCH   2   3
ENDBRANCH   1   2
BRANCH   1  11
ATOM     11  C   UNL     1      45.614  28.673   1.088  1.00  0.00     0.000 C 
BRANCH  11  12
ATOM     12  C   UNL     1      44.994  27.489   1.854  1.00  0.00     0.000 C 
BRANCH  12  13
ATOM     13  C   UNL     1      44.588  27.795   3.307  1.00  0.00     0.000 C 
BRANCH  13  14
ATOM     14  C   UNL     1      45.514  28.821   3.982  1.00  0.00     0.000 C 
BRANCH  14  15
ATOM     15  C   UNL     1      46.451  28.180   5.017  1.00  0.00     0.000 C 
BRANCH  15  16
ATOM     16  C   UNL     1      45.855  28.182   6.436  1.00  0.00     0.006 C 
BRANCH  16  17
ATOM     17  C   UNL     1      45.962  26.808   7.111  1.00  0.00     0.053 C 
BRANCH  17  18
ATOM     18  C   UNL     1      46.036  26.924   8.603  1.00  0.00     0.041 C 
ATOM     19  O   UNL     1      47.054  27.425   9.149  1.00  0.00    -0.550 OA
ATOM     20  O   UNL     1      44.991  26.457   9.390  1.00  0.00    -0.550 OA
ENDBRANCH  17  18
ENDBRANCH  16  17
ENDBRANCH  15  16
ENDBRANCH  14  15
ENDBRANCH  13  14
ENDBRANCH  12  13
ENDBRANCH  11  12
ENDBRANCH   1  11
TORSDOF 15
ENDMDL
