MODEL 1
REMARK VINA RESULT:    -3.291      0.000      0.000
REMARK INTER + INTRA:          -7.754
REMARK INTER:                  -5.792
REMARK INTRA:                  -1.961
REMARK UNBOUND:                -1.961
REMARK SMILES CCCCCCCCCCCCCCC(=O)[O-]
REMARK SMILES IDX 9 1 10 2 11 3 12 4 13 5 14 6 15 7 16 8 17 9 8 10 7 11 6 12
REMARK SMILES IDX 5 13 4 14 3 15 2 16 1 17
REMARK H PARENT
REMARK Flexibility Score: inf
ROOT
ATOM      1  C   UNL     1      61.003  31.469  59.705  1.00  0.00     0.000 C 
ENDROOT
BRANCH   1   2
ATOM      2  C   UNL     1      61.163  31.334  61.227  1.00  0.00     0.000 C 
BRANCH   2   3
ATOM      3  C   UNL     1      61.933  30.065  61.635  1.00  0.00     0.000 C 
BRANCH   3   4
ATOM      4  C   UNL     1      63.461  30.281  61.601  1.00  0.00     0.000 C 
BRANCH   4   5
ATOM      5  C   UNL     1      64.209  29.300  60.677  1.00  0.00     0.006 C 
BRANCH   5   6
ATOM      6  C   UNL     1      65.698  29.637  60.472  1.00  0.00     0.053 C 
BRANCH   6   7
ATOM      7  C   UNL     1      66.604  28.467  60.723  1.00  0.00     0.041 C 
ATOM      8  O   UNL     1      67.683  28.620  61.355  1.00  0.00    -0.550 OA
ATOM      9  O   UNL     1      66.222  27.194  60.320  1.00  0.00    -0.550 OA
ENDBRANCH   6   7
ENDBRANCH   5   6
ENDBRANCH   4   5
ENDBRANCH   3   4
ENDBRANCH   2   3
ENDBRANCH   1   2
BRANCH   1  10
ATOM     10  C   UNL     1      60.663  32.906  59.274  1.00  0.00     0.000 C 
BRANCH  10  11
ATOM     11  C   UNL     1      60.074  33.749  60.420  1.00  0.00    -0.000 C 
BRANCH  11  12
ATOM     12  C   UNL     1      60.550  35.215  60.466  1.00  0.00    -0.000 C 
BRANCH  12  13
ATOM     13  C   UNL     1      62.022  35.441  60.066  1.00  0.00    -0.000 C 
BRANCH  13  14
ATOM     14  C   UNL     1      63.040  35.224  61.200  1.00  0.00    -0.000 C 
BRANCH  14  15
ATOM     15  C   UNL     1      63.809  33.899  61.064  1.00  0.00    -0.000 C 
BRANCH  15  16
ATOM     16  C   UNL     1      64.740  33.884  59.841  1.00  0.00    -0.003 C 
ATOM     17  C   UNL     1      64.376  32.792  58.837  1.00  0.00     0.004 C 
ENDBRANCH  15  16
ENDBRANCH  14  15
ENDBRANCH  13  14
ENDBRANCH  12  13
ENDBRANCH  11  12
ENDBRANCH  10  11
ENDBRANCH   1  10
TORSDOF 13
ENDMDL
MODEL 2
REMARK VINA RESULT:    -3.158     10.804     12.632
REMARK INTER + INTRA:          -7.519
REMARK INTER:                  -5.636
REMARK INTRA:                  -1.883
REMARK UNBOUND:                -1.961
REMARK SMILES CCCCCCCCCCCCCCC(=O)[O-]
REMARK SMILES IDX 9 1 10 2 11 3 12 4 13 5 14 6 15 7 16 8 17 9 8 10 7 11 6 12
REMARK SMILES IDX 5 13 4 14 3 15 2 16 1 17
REMARK H PARENT
REMARK Flexibility Score: inf
ROOT
ATOM      1  C   UNL     1      58.089  29.092  51.823  1.00  0.00     0.000 C 
ENDROOT
BRANCH   1   2
ATOM      2  C   UNL     1      57.716  28.549  50.435  1.00  0.00     0.000 C 
BRANCH   2   3
ATOM      3  C   UNL     1      58.938  28.367  49.518  1.00  0.00     0.000 C 
BRANCH   3   4
ATOM      4  C   UNL     1      59.552  26.957  49.647  1.00  0.00     0.000 C 
BRANCH   4   5
ATOM      5  C   UNL     1      58.517  25.847  49.912  1.00  0.00     0.006 C 
BRANCH   5   6
ATOM      6  C   UNL     1      58.957  24.812  50.964  1.00  0.00     0.053 C 
BRANCH   6   7
ATOM      7  C   UNL     1      58.259  24.981  52.282  1.00  0.00     0.041 C 
ATOM      8  O   UNL     1      58.790  25.658  53.202  1.00  0.00    -0.550 OA
ATOM      9  O   UNL     1      56.989  24.449  52.468  1.00  0.00    -0.550 OA
ENDBRANCH   6   7
ENDBRANCH   5   6
ENDBRANCH   4   5
ENDBRANCH   3   4
ENDBRANCH   2   3
ENDBRANCH   1   2
BRANCH   1  10
ATOM     10  C   UNL     1      57.037  28.751  52.892  1.00  0.00     0.000 C 
BRANCH  10  11
ATOM     11  C   UNL     1      56.274  29.991  53.395  1.00  0.00    -0.000 C 
BRANCH  11  12
ATOM     12  C   UNL     1      54.779  30.036  53.023  1.00  0.00    -0.000 C 
BRANCH  12  13
ATOM     13  C   UNL     1      54.242  28.780  52.307  1.00  0.00    -0.000 C 
BRANCH  13  14
ATOM     14  C   UNL     1      54.001  28.952  50.796  1.00  0.00    -0.000 C 
BRANCH  14  15
ATOM     15  C   UNL     1      53.794  27.612  50.071  1.00  0.00    -0.000 C 
BRANCH  15  16
ATOM     16  C   UNL     1      54.671  26.490  50.649  1.00  0.00    -0.003 C 
ATOM     17  C   UNL     1      54.804  25.299  49.701  1.00  0.00     0.004 C 
ENDBRANCH  15  16
ENDBRANCH  14  15
ENDBRANCH  13  14
ENDBRANCH  12  13
ENDBRANCH  11  12
ENDBRANCH  10  11
ENDBRANCH   1  10
TORSDOF 13
ENDMDL
MODEL 3
REMARK VINA RESULT:    -3.148     11.514     13.281
REMARK INTER + INTRA:          -7.503
REMARK INTER:                  -5.499
REMARK INTRA:                  -2.004
REMARK UNBOUND:                -1.961
REMARK SMILES CCCCCCCCCCCCCCC(=O)[O-]
REMARK SMILES IDX 9 1 10 2 11 3 12 4 13 5 14 6 15 7 16 8 17 9 8 10 7 11 6 12
REMARK SMILES IDX 5 13 4 14 3 15 2 16 1 17
REMARK H PARENT
REMARK Flexibility Score: inf
ROOT
ATOM      1  C   UNL     1      57.284  27.150  52.141  1.00  0.00     0.000 C 
ENDROOT
BRANCH   1   2
ATOM      2  C   UNL     1      57.082  27.926  50.831  1.00  0.00     0.000 C 
BRANCH   2   3
ATOM      3  C   UNL     1      58.295  28.797  50.460  1.00  0.00     0.000 C 
BRANCH   3   4
ATOM      4  C   UNL     1      59.130  28.170  49.323  1.00  0.00     0.000 C 
BRANCH   4   5
ATOM      5  C   UNL     1      60.231  27.210  49.813  1.00  0.00     0.006 C 
BRANCH   5   6
ATOM      6  C   UNL     1      59.821  25.726  49.814  1.00  0.00     0.053 C 
BRANCH   6   7
ATOM      7  C   UNL     1      60.125  25.033  51.110  1.00  0.00     0.041 C 
ATOM      8  O   UNL     1      59.346  24.151  51.560  1.00  0.00    -0.550 OA
ATOM      9  O   UNL     1      61.306  25.311  51.786  1.00  0.00    -0.550 OA
ENDBRANCH   6   7
ENDBRANCH   5   6
ENDBRANCH   4   5
ENDBRANCH   3   4
ENDBRANCH   2   3
ENDBRANCH   1   2
BRANCH   1  10
ATOM     10  C   UNL     1      56.382  25.909  52.236  1.00  0.00     0.000 C 
BRANCH  10  11
ATOM     11  C   UNL     1      55.972  25.362  50.855  1.00  0.00    -0.000 C 
BRANCH  11  12
ATOM     12  C   UNL     1      54.464  25.097  50.678  1.00  0.00    -0.000 C 
BRANCH  12  13
ATOM     13  C   UNL     1      53.761  25.980  49.628  1.00  0.00    -0.000 C 
BRANCH  13  14
ATOM     14  C   UNL     1      52.920  27.132  50.211  1.00  0.00    -0.000 C 
BRANCH  14  15
ATOM     15  C   UNL     1      53.668  28.475  50.206  1.00  0.00    -0.000 C 
BRANCH  15  16
ATOM     16  C   UNL     1      53.577  29.203  51.556  1.00  0.00    -0.003 C 
ATOM     17  C   UNL     1      53.606  28.245  52.746  1.00  0.00     0.004 C 
ENDBRANCH  15  16
ENDBRANCH  14  15
ENDBRANCH  13  14
ENDBRANCH  12  13
ENDBRANCH  11  12
ENDBRANCH  10  11
ENDBRANCH   1  10
TORSDOF 13
ENDMDL
MODEL 4
REMARK VINA RESULT:    -3.115      2.913      4.568
REMARK INTER + INTRA:          -7.444
REMARK INTER:                  -6.097
REMARK INTRA:                  -1.347
REMARK UNBOUND:                -1.961
REMARK SMILES CCCCCCCCCCCCCCC(=O)[O-]
REMARK SMILES IDX 9 1 10 2 11 3 12 4 13 5 14 6 15 7 16 8 17 9 8 10 7 11 6 12
REMARK SMILES IDX 5 13 4 14 3 15 2 16 1 17
REMARK H PARENT
REMARK Flexibility Score: inf
ROOT
ATOM      1  C   UNL     1      64.426  29.601  60.370  1.00  0.00     0.000 C 
ENDROOT
BRANCH   1   2
ATOM      2  C   UNL     1      65.608  28.695  60.748  1.00  0.00     0.000 C 
BRANCH   2   3
ATOM      3  C   UNL     1      65.536  27.311  60.079  1.00  0.00     0.000 C 
BRANCH   3   4
ATOM      4  C   UNL     1      64.103  26.738  60.087  1.00  0.00     0.000 C 
BRANCH   4   5
ATOM      5  C   UNL     1      63.794  25.850  61.308  1.00  0.00     0.006 C 
BRANCH   5   6
ATOM      6  C   UNL     1      62.400  26.083  61.920  1.00  0.00     0.053 C 
BRANCH   6   7
ATOM      7  C   UNL     1      62.036  25.060  62.957  1.00  0.00     0.041 C 
ATOM      8  O   UNL     1      62.853  24.155  63.274  1.00  0.00    -0.550 OA
ATOM      9  O   UNL     1      60.821  25.149  63.624  1.00  0.00    -0.550 OA
ENDBRANCH   6   7
ENDBRANCH   5   6
ENDBRANCH   4   5
ENDBRANCH   3   4
ENDBRANCH   2   3
ENDBRANCH   1   2
BRANCH   1  10
ATOM     10  C   UNL     1      63.719  30.192  61.601  1.00  0.00     0.000 C 
BRANCH  10  11
ATOM     11  C   UNL     1      62.265  29.707  61.745  1.00  0.00    -0.000 C 
BRANCH  11  12
ATOM     12  C   UNL     1      61.192  30.806  61.614  1.00  0.00    -0.000 C 
BRANCH  12  13
ATOM     13  C   UNL     1      61.208  31.585  60.283  1.00  0.00    -0.000 C 
BRANCH  13  14
ATOM     14  C   UNL     1      60.923  33.092  60.415  1.00  0.00    -0.000 C 
BRANCH  14  15
ATOM     15  C   UNL     1      62.054  33.963  59.843  1.00  0.00    -0.000 C 
BRANCH  15  16
ATOM     16  C   UNL     1      62.941  34.569  60.942  1.00  0.00    -0.003 C 
ATOM     17  C   UNL     1      64.262  33.821  61.113  1.00  0.00     0.004 C 
ENDBRANCH  15  16
ENDBRANCH  14  15
ENDBRANCH  13  14
ENDBRANCH  12  13
ENDBRANCH  11  12
ENDBRANCH  10  11
ENDBRANCH   1  10
TORSDOF 13
ENDMDL
MODEL 5
REMARK VINA RESULT:    -3.095     12.097     13.931
REMARK INTER + INTRA:          -7.408
REMARK INTER:                  -5.751
REMARK INTRA:                  -1.657
REMARK UNBOUND:                -1.961
REMARK SMILES CCCCCCCCCCCCCCC(=O)[O-]
REMARK SMILES IDX 9 1 10 2 11 3 12 4 13 5 14 6 15 7 16 8 17 9 8 10 7 11 6 12
REMARK SMILES IDX 5 13 4 14 3 15 2 16 1 17
REMARK H PARENT
REMARK Flexibility Score: inf
ROOT
ATOM      1  C   UNL     1      57.961  28.631  50.945  1.00  0.00     0.000 C 
ENDROOT
BRANCH   1   2
ATOM      2  C   UNL     1      56.564  28.119  50.565  1.00  0.00     0.000 C 
BRANCH   2   3
ATOM      3  C   UNL     1      55.463  28.629  51.512  1.00  0.00     0.000 C 
BRANCH   3   4
ATOM      4  C   UNL     1      54.119  28.831  50.781  1.00  0.00     0.000 C 
BRANCH   4   5
ATOM      5  C   UNL     1      53.640  27.591  50.001  1.00  0.00     0.006 C 
BRANCH   5   6
ATOM      6  C   UNL     1      53.098  26.458  50.891  1.00  0.00     0.053 C 
BRANCH   6   7
ATOM      7  C   UNL     1      53.959  25.229  50.867  1.00  0.00     0.041 C 
ATOM      8  O   UNL     1      54.660  24.962  49.855  1.00  0.00    -0.550 OA
ATOM      9  O   UNL     1      54.042  24.416  51.990  1.00  0.00    -0.550 OA
ENDBRANCH   6   7
ENDBRANCH   5   6
ENDBRANCH   4   5
ENDBRANCH   3   4
ENDBRANCH   2   3
ENDBRANCH   1   2
BRANCH   1  10
ATOM     10  C   UNL     1      58.886  28.783  49.726  1.00  0.00     0.000 C 
BRANCH  10  11
ATOM     11  C   UNL     1      59.541  27.454  49.306  1.00  0.00    -0.000 C 
BRANCH  11  12
ATOM     12  C   UNL     1      60.839  27.097  50.057  1.00  0.00    -0.000 C 
BRANCH  12  13
ATOM     13  C   UNL     1      60.943  25.634  50.533  1.00  0.00    -0.000 C 
BRANCH  13  14
ATOM     14  C   UNL     1      59.648  24.814  50.385  1.00  0.00    -0.000 C 
BRANCH  14  15
ATOM     15  C   UNL     1      59.083  24.348  51.737  1.00  0.00    -0.000 C 
BRANCH  15  16
ATOM     16  C   UNL     1      57.585  24.655  51.886  1.00  0.00    -0.003 C 
ATOM     17  C   UNL     1      57.286  25.576  53.068  1.00  0.00     0.004 C 
ENDBRANCH  15  16
ENDBRANCH  14  15
ENDBRANCH  13  14
ENDBRANCH  12  13
ENDBRANCH  11  12
ENDBRANCH  10  11
ENDBRANCH   1  10
TORSDOF 13
ENDMDL
MODEL 6
REMARK VINA RESULT:    -3.045      1.323      2.482
REMARK INTER + INTRA:          -7.321
REMARK INTER:                  -5.500
REMARK INTRA:                  -1.821
REMARK UNBOUND:                -1.961
REMARK SMILES CCCCCCCCCCCCCCC(=O)[O-]
REMARK SMILES IDX 9 1 10 2 11 3 12 4 13 5 14 6 15 7 16 8 17 9 8 10 7 11 6 12
REMARK SMILES IDX 5 13 4 14 3 15 2 16 1 17
REMARK H PARENT
REMARK Flexibility Score: inf
ROOT
ATOM      1  C   UNL     1      60.817  32.399  60.460  1.00  0.00     0.000 C 
ENDROOT
BRANCH   1   2
ATOM      2  C   UNL     1      61.938  31.588  61.126  1.00  0.00     0.000 C 
BRANCH   2   3
ATOM      3  C   UNL     1      61.421  30.319  61.826  1.00  0.00     0.000 C 
BRANCH   3   4
ATOM      4  C   UNL     1      61.602  29.061  60.951  1.00  0.00     0.000 C 
BRANCH   4   5
ATOM      5  C   UNL     1      62.935  28.324  61.185  1.00  0.00     0.006 C 
BRANCH   5   6
ATOM      6  C   UNL     1      64.001  28.589  60.106  1.00  0.00     0.053 C 
BRANCH   6   7
ATOM      7  C   UNL     1      65.204  29.314  60.635  1.00  0.00     0.041 C 
ATOM      8  O   UNL     1      65.219  30.572  60.687  1.00  0.00    -0.550 OA
ATOM      9  O   UNL     1      66.282  28.596  61.138  1.00  0.00    -0.550 OA
ENDBRANCH   6   7
ENDBRANCH   5   6
ENDBRANCH   4   5
ENDBRANCH   3   4
ENDBRANCH   2   3
ENDBRANCH   1   2
BRANCH   1  10
ATOM     10  C   UNL     1      61.005  32.528  58.940  1.00  0.00     0.000 C 
BRANCH  10  11
ATOM     11  C   UNL     1      62.441  32.203  58.487  1.00  0.00    -0.000 C 
BRANCH  11  12
ATOM     12  C   UNL     1      63.323  33.428  58.178  1.00  0.00    -0.000 C 
BRANCH  12  13
ATOM     13  C   UNL     1      64.674  33.469  58.920  1.00  0.00    -0.000 C 
BRANCH  13  14
ATOM     14  C   UNL     1      64.864  34.683  59.848  1.00  0.00    -0.000 C 
BRANCH  14  15
ATOM     15  C   UNL     1      64.038  34.578  61.141  1.00  0.00    -0.000 C 
BRANCH  15  16
ATOM     16  C   UNL     1      63.202  35.839  61.408  1.00  0.00    -0.003 C 
ATOM     17  C   UNL     1      61.808  35.764  60.787  1.00  0.00     0.004 C 
ENDBRANCH  15  16
ENDBRANCH  14  15
ENDBRANCH  13  14
ENDBRANCH  12  13
ENDBRANCH  11  12
ENDBRANCH  10  11
ENDBRANCH   1  10
TORSDOF 13
ENDMDL
MODEL 7
REMARK VINA RESULT:    -3.013      3.602      5.923
REMARK INTER + INTRA:          -7.263
REMARK INTER:                  -5.267
REMARK INTRA:                  -1.997
REMARK UNBOUND:                -1.961
REMARK SMILES CCCCCCCCCCCCCCC(=O)[O-]
REMARK SMILES IDX 9 1 10 2 11 3 12 4 13 5 14 6 15 7 16 8 17 9 8 10 7 11 6 12
REMARK SMILES IDX 5 13 4 14 3 15 2 16 1 17
REMARK H PARENT
REMARK Flexibility Score: inf
ROOT
ATOM      1  C   UNL     1      62.366  35.155  60.212  1.00  0.00     0.000 C 
ENDROOT
BRANCH   1   2
ATOM      2  C   UNL     1      60.978  35.665  60.627  1.00  0.00     0.000 C 
BRANCH   2   3
ATOM      3  C   UNL     1      59.871  34.617  60.421  1.00  0.00     0.000 C 
BRANCH   3   4
ATOM      4  C   UNL     1      60.421  33.176  60.475  1.00  0.00     0.000 C 
BRANCH   4   5
ATOM      5  C   UNL     1      60.087  32.333  59.230  1.00  0.00     0.006 C 
BRANCH   5   6
ATOM      6  C   UNL     1      61.047  32.550  58.045  1.00  0.00     0.053 C 
BRANCH   6   7
ATOM      7  C   UNL     1      60.372  33.149  56.846  1.00  0.00     0.041 C 
ATOM      8  O   UNL     1      59.184  33.559  56.921  1.00  0.00    -0.550 OA
ATOM      9  O   UNL     1      61.080  33.319  55.663  1.00  0.00    -0.550 OA
ENDBRANCH   6   7
ENDBRANCH   5   6
ENDBRANCH   4   5
ENDBRANCH   3   4
ENDBRANCH   2   3
ENDBRANCH   1   2
BRANCH   1  10
ATOM     10  C   UNL     1      63.429  35.388  61.298  1.00  0.00     0.000 C 
BRANCH  10  11
ATOM     11  C   UNL     1      64.464  34.249  61.375  1.00  0.00    -0.000 C 
BRANCH  11  12
ATOM     12  C   UNL     1      64.251  33.103  60.367  1.00  0.00    -0.000 C 
BRANCH  12  13
ATOM     13  C   UNL     1      64.351  31.682  60.958  1.00  0.00    -0.000 C 
BRANCH  13  14
ATOM     14  C   UNL     1      63.251  30.710  60.492  1.00  0.00    -0.000 C 
BRANCH  14  15
ATOM     15  C   UNL     1      62.369  30.213  61.650  1.00  0.00    -0.000 C 
BRANCH  15  16
ATOM     16  C   UNL     1      61.325  29.182  61.193  1.00  0.00    -0.003 C 
ATOM     17  C   UNL     1      61.389  28.904  59.692  1.00  0.00     0.004 C 
ENDBRANCH  15  16
ENDBRANCH  14  15
ENDBRANCH  13  14
ENDBRANCH  12  13
ENDBRANCH  11  12
ENDBRANCH  10  11
ENDBRANCH   1  10
TORSDOF 13
ENDMDL
MODEL 8
REMARK VINA RESULT:    -3.000      3.679      6.479
REMARK INTER + INTRA:          -7.242
REMARK INTER:                  -5.259
REMARK INTRA:                  -1.983
REMARK UNBOUND:                -1.961
REMARK SMILES CCCCCCCCCCCCCCC(=O)[O-]
REMARK SMILES IDX 9 1 10 2 11 3 12 4 13 5 14 6 15 7 16 8 17 9 8 10 7 11 6 12
REMARK SMILES IDX 5 13 4 14 3 15 2 16 1 17
REMARK H PARENT
REMARK Flexibility Score: inf
ROOT
ATOM      1  C   UNL     1      64.879  34.761  60.942  1.00  0.00     0.000 C 
ENDROOT
BRANCH   1   2
ATOM      2  C   UNL     1      63.797  35.680  61.529  1.00  0.00     0.000 C 
BRANCH   2   3
ATOM      3  C   UNL     1      62.760  36.125  60.482  1.00  0.00     0.000 C 
BRANCH   3   4
ATOM      4  C   UNL     1      61.319  35.779  60.912  1.00  0.00     0.000 C 
BRANCH   4   5
ATOM      5  C   UNL     1      60.298  35.814  59.759  1.00  0.00     0.006 C 
BRANCH   5   6
ATOM      6  C   UNL     1      59.226  34.711  59.831  1.00  0.00     0.053 C 
BRANCH   6   7
ATOM      7  C   UNL     1      58.979  34.045  58.509  1.00  0.00     0.041 C 
ATOM      8  O   UNL     1      59.890  33.996  57.640  1.00  0.00    -0.550 OA
ATOM      9  O   UNL     1      57.766  33.414  58.264  1.00  0.00    -0.550 OA
ENDBRANCH   6   7
ENDBRANCH   5   6
ENDBRANCH   4   5
ENDBRANCH   3   4
ENDBRANCH   2   3
ENDBRANCH   1   2
BRANCH   1  10
ATOM     10  C   UNL     1      64.457  33.282  60.938  1.00  0.00     0.000 C 
BRANCH  10  11
ATOM     11  C   UNL     1      64.123  32.761  59.528  1.00  0.00    -0.000 C 
BRANCH  11  12
ATOM     12  C   UNL     1      62.621  32.563  59.242  1.00  0.00    -0.000 C 
BRANCH  12  13
ATOM     13  C   UNL     1      61.754  32.242  60.476  1.00  0.00    -0.000 C 
BRANCH  13  14
ATOM     14  C   UNL     1      60.848  31.006  60.324  1.00  0.00    -0.000 C 
BRANCH  14  15
ATOM     15  C   UNL     1      61.595  29.686  60.577  1.00  0.00    -0.000 C 
BRANCH  15  16
ATOM     16  C   UNL     1      62.581  29.785  61.752  1.00  0.00    -0.003 C 
ATOM     17  C   UNL     1      64.017  29.458  61.345  1.00  0.00     0.004 C 
ENDBRANCH  15  16
ENDBRANCH  14  15
ENDBRANCH  13  14
ENDBRANCH  12  13
ENDBRANCH  11  12
ENDBRANCH  10  11
ENDBRANCH   1  10
TORSDOF 13
ENDMDL
MODEL 9
REMARK VINA RESULT:    -2.971      1.548      3.438
REMARK INTER + INTRA:          -7.191
REMARK INTER:                  -5.440
REMARK INTRA:                  -1.751
REMARK UNBOUND:                -1.961
REMARK SMILES CCCCCCCCCCCCCCC(=O)[O-]
REMARK SMILES IDX 9 1 10 2 11 3 12 4 13 5 14 6 15 7 16 8 17 9 8 10 7 11 6 12
REMARK SMILES IDX 5 13 4 14 3 15 2 16 1 17
REMARK H PARENT
REMARK Flexibility Score: inf
ROOT
ATOM      1  C   UNL     1      64.440  34.496  61.402  1.00  0.00     0.000 C 
ENDROOT
BRANCH   1   2
ATOM      2  C   UNL     1      64.526  33.399  60.330  1.00  0.00     0.000 C 
BRANCH   2   3
ATOM      3  C   UNL     1      64.515  31.981  60.926  1.00  0.00     0.000 C 
BRANCH   3   4
ATOM      4  C   UNL     1      64.860  30.908  59.871  1.00  0.00     0.000 C 
BRANCH   4   5
ATOM      5  C   UNL     1      65.101  29.506  60.463  1.00  0.00     0.006 C 
BRANCH   5   6
ATOM      6  C   UNL     1      64.726  28.349  59.518  1.00  0.00     0.053 C 
BRANCH   6   7
ATOM      7  C   UNL     1      64.188  27.151  60.243  1.00  0.00     0.041 C 
ATOM      8  O   UNL     1      63.342  27.290  61.165  1.00  0.00    -0.550 OA
ATOM      9  O   UNL     1      64.568  25.873  59.851  1.00  0.00    -0.550 OA
ENDBRANCH   6   7
ENDBRANCH   5   6
ENDBRANCH   4   5
ENDBRANCH   3   4
ENDBRANCH   2   3
ENDBRANCH   1   2
BRANCH   1  10
ATOM     10  C   UNL     1      63.194  35.382  61.242  1.00  0.00     0.000 C 
BRANCH  10  11
ATOM     11  C   UNL     1      62.260  34.899  60.115  1.00  0.00    -0.000 C 
BRANCH  11  12
ATOM     12  C   UNL     1      60.755  34.948  60.446  1.00  0.00    -0.000 C 
BRANCH  12  13
ATOM     13  C   UNL     1      60.011  33.603  60.321  1.00  0.00    -0.000 C 
BRANCH  13  14
ATOM     14  C   UNL     1      60.920  32.382  60.086  1.00  0.00    -0.000 C 
BRANCH  14  15
ATOM     15  C   UNL     1      61.048  31.488  61.330  1.00  0.00    -0.000 C 
BRANCH  15  16
ATOM     16  C   UNL     1      61.341  30.022  60.973  1.00  0.00    -0.003 C 
ATOM     17  C   UNL     1      60.974  29.683  59.529  1.00  0.00     0.004 C 
ENDBRANCH  15  16
ENDBRANCH  14  15
ENDBRANCH  13  14
ENDBRANCH  12  13
ENDBRANCH  11  12
ENDBRANCH  10  11
ENDBRANCH   1  10
TORSDOF 13
ENDMDL
