MODEL 1
REMARK VINA RESULT:    -5.429      0.000      0.000
REMARK INTER + INTRA:          -6.988
REMARK INTER:                  -6.699
REMARK INTRA:                  -0.289
REMARK UNBOUND:                -0.289
REMARK SMILES CCCCC(=O)c1ccccc1
REMARK SMILES IDX 4 1 3 2 2 3 1 4 5 5 6 6 7 7 8 8 12 9 9 10 11 11 10 12
REMARK H PARENT
REMARK Flexibility Score: inf
ROOT
ATOM      1  C   UNL     1      44.330  33.479  51.504  1.00  0.00     0.081 C 
ENDROOT
BRANCH   1   2
ATOM      2  C   UNL     1      45.144  33.298  50.212  1.00  0.00     0.008 C 
BRANCH   2   3
ATOM      3  C   UNL     1      44.297  33.315  48.926  1.00  0.00    -0.003 C 
ATOM      4  C   UNL     1      44.678  34.449  47.977  1.00  0.00     0.004 C 
ENDBRANCH   2   3
ENDBRANCH   1   2
BRANCH   1   5
ATOM      5  C   UNL     1      44.138  32.172  52.230  1.00  0.00     0.162 C 
ATOM      6  O   UNL     1      43.120  31.480  51.958  1.00  0.00    -0.294 OA
BRANCH   5   7
ATOM      7  C   UNL     1      45.054  31.719  53.307  1.00  0.00     0.017 A 
ATOM      8  C   UNL     1      46.006  32.583  53.880  1.00  0.00     0.012 A 
ATOM      9  C   UNL     1      44.985  30.388  53.759  1.00  0.00     0.012 A 
ATOM     10  C   UNL     1      46.850  32.130  54.898  1.00  0.00     0.001 A 
ATOM     11  C   UNL     1      45.831  29.940  54.778  1.00  0.00     0.001 A 
ATOM     12  C   UNL     1      46.760  30.811  55.350  1.00  0.00     0.000 A 
ENDBRANCH   5   7
ENDBRANCH   1   5
TORSDOF 4
ENDMDL
MODEL 2
REMARK VINA RESULT:    -5.345      1.151      1.949
REMARK INTER + INTRA:          -6.884
REMARK INTER:                  -6.677
REMARK INTRA:                  -0.207
REMARK UNBOUND:                -0.289
REMARK SMILES CCCCC(=O)c1ccccc1
REMARK SMILES IDX 4 1 3 2 2 3 1 4 5 5 6 6 7 7 8 8 12 9 9 10 11 11 10 12
REMARK H PARENT
REMARK Flexibility Score: inf
ROOT
ATOM      1  C   UNL     1      45.466  32.953  50.067  1.00  0.00     0.081 C 
ENDROOT
BRANCH   1   2
ATOM      2  C   UNL     1      44.342  33.273  49.068  1.00  0.00     0.008 C 
BRANCH   2   3
ATOM      3  C   UNL     1      44.759  34.229  47.935  1.00  0.00    -0.003 C 
ATOM      4  C   UNL     1      44.369  35.681  48.207  1.00  0.00     0.004 C 
ENDBRANCH   2   3
ENDBRANCH   1   2
BRANCH   1   5
ATOM      5  C   UNL     1      45.175  31.699  50.851  1.00  0.00     0.162 C 
ATOM      6  O   UNL     1      44.563  30.760  50.273  1.00  0.00    -0.294 OA
BRANCH   5   7
ATOM      7  C   UNL     1      45.506  31.566  52.291  1.00  0.00     0.017 A 
ATOM      8  C   UNL     1      44.985  30.520  53.076  1.00  0.00     0.012 A 
ATOM      9  C   UNL     1      46.347  32.517  52.899  1.00  0.00     0.012 A 
ATOM     10  C   UNL     1      45.320  30.416  54.429  1.00  0.00     0.001 A 
ATOM     11  C   UNL     1      46.679  32.408  54.253  1.00  0.00     0.001 A 
ATOM     12  C   UNL     1      46.170  31.356  55.017  1.00  0.00     0.000 A 
ENDBRANCH   5   7
ENDBRANCH   1   5
TORSDOF 4
ENDMDL
MODEL 3
REMARK VINA RESULT:    -5.091      1.643      2.569
REMARK INTER + INTRA:          -6.570
REMARK INTER:                  -6.276
REMARK INTRA:                  -0.295
REMARK UNBOUND:                -0.289
REMARK SMILES CCCCC(=O)c1ccccc1
REMARK SMILES IDX 4 1 3 2 2 3 1 4 5 5 6 6 7 7 8 8 12 9 9 10 11 11 10 12
REMARK H PARENT
REMARK Flexibility Score: inf
ROOT
ATOM      1  C   UNL     1      45.162  33.734  48.977  1.00  0.00     0.081 C 
ENDROOT
BRANCH   1   2
ATOM      2  C   UNL     1      44.193  34.357  47.958  1.00  0.00     0.008 C 
BRANCH   2   3
ATOM      3  C   UNL     1      44.263  35.894  47.881  1.00  0.00    -0.003 C 
ATOM      4  C   UNL     1      44.246  36.560  49.256  1.00  0.00     0.004 C 
ENDBRANCH   2   3
ENDBRANCH   1   2
BRANCH   1   5
ATOM      5  C   UNL     1      44.458  32.769  49.897  1.00  0.00     0.162 C 
ATOM      6  O   UNL     1      43.501  32.091  49.434  1.00  0.00    -0.294 OA
BRANCH   5   7
ATOM      7  C   UNL     1      44.794  32.654  51.337  1.00  0.00     0.017 A 
ATOM      8  C   UNL     1      46.128  32.607  51.784  1.00  0.00     0.012 A 
ATOM      9  C   UNL     1      43.757  32.573  52.286  1.00  0.00     0.012 A 
ATOM     10  C   UNL     1      46.414  32.506  53.149  1.00  0.00     0.001 A 
ATOM     11  C   UNL     1      44.049  32.472  53.650  1.00  0.00     0.001 A 
ATOM     12  C   UNL     1      45.376  32.443  54.081  1.00  0.00     0.000 A 
ENDBRANCH   5   7
ENDBRANCH   1   5
TORSDOF 4
ENDMDL
MODEL 4
REMARK VINA RESULT:    -5.085     12.350     13.231
REMARK INTER + INTRA:          -6.563
REMARK INTER:                  -6.301
REMARK INTRA:                  -0.261
REMARK UNBOUND:                -0.289
REMARK SMILES CCCCC(=O)c1ccccc1
REMARK SMILES IDX 4 1 3 2 2 3 1 4 5 5 6 6 7 7 8 8 12 9 9 10 11 11 10 12
REMARK H PARENT
REMARK Flexibility Score: inf
ROOT
ATOM      1  C   UNL     1      39.638  39.659  62.855  1.00  0.00     0.081 C 
ENDROOT
BRANCH   1   2
ATOM      2  C   UNL     1      39.898  39.028  61.477  1.00  0.00     0.008 C 
BRANCH   2   3
ATOM      3  C   UNL     1      39.091  39.665  60.331  1.00  0.00    -0.003 C 
ATOM      4  C   UNL     1      39.383  39.030  58.972  1.00  0.00     0.004 C 
ENDBRANCH   2   3
ENDBRANCH   1   2
BRANCH   1   5
ATOM      5  C   UNL     1      39.585  38.617  63.944  1.00  0.00     0.162 C 
ATOM      6  O   UNL     1      38.539  38.536  64.644  1.00  0.00    -0.294 OA
BRANCH   5   7
ATOM      7  C   UNL     1      40.743  37.751  64.273  1.00  0.00     0.017 A 
ATOM      8  C   UNL     1      42.067  38.223  64.188  1.00  0.00     0.012 A 
ATOM      9  C   UNL     1      40.522  36.417  64.664  1.00  0.00     0.012 A 
ATOM     10  C   UNL     1      43.139  37.385  64.511  1.00  0.00     0.001 A 
ATOM     11  C   UNL     1      41.597  35.584  64.987  1.00  0.00     0.001 A 
ATOM     12  C   UNL     1      42.904  36.068  64.915  1.00  0.00     0.000 A 
ENDBRANCH   5   7
ENDBRANCH   1   5
TORSDOF 4
ENDMDL
MODEL 5
REMARK VINA RESULT:    -4.932     13.050     14.192
REMARK INTER + INTRA:          -6.375
REMARK INTER:                  -5.917
REMARK INTRA:                  -0.458
REMARK UNBOUND:                -0.289
REMARK SMILES CCCCC(=O)c1ccccc1
REMARK SMILES IDX 4 1 3 2 2 3 1 4 5 5 6 6 7 7 8 8 12 9 9 10 11 11 10 12
REMARK H PARENT
REMARK Flexibility Score: inf
ROOT
ATOM      1  C   UNL     1      38.756  38.472  64.380  1.00  0.00     0.081 C 
ENDROOT
BRANCH   1   2
ATOM      2  C   UNL     1      39.412  39.555  63.508  1.00  0.00     0.008 C 
BRANCH   2   3
ATOM      3  C   UNL     1      40.122  39.010  62.254  1.00  0.00    -0.003 C 
ATOM      4  C   UNL     1      39.477  39.484  60.953  1.00  0.00     0.004 C 
ENDBRANCH   2   3
ENDBRANCH   1   2
BRANCH   1   5
ATOM      5  C   UNL     1      39.645  38.066  65.528  1.00  0.00     0.162 C 
ATOM      6  O   UNL     1      39.354  38.476  66.685  1.00  0.00    -0.294 OA
BRANCH   5   7
ATOM      7  C   UNL     1      40.889  37.281  65.331  1.00  0.00     0.017 A 
ATOM      8  C   UNL     1      40.888  36.059  64.632  1.00  0.00     0.012 A 
ATOM      9  C   UNL     1      42.100  37.755  65.870  1.00  0.00     0.012 A 
ATOM     10  C   UNL     1      42.077  35.345  64.456  1.00  0.00     0.001 A 
ATOM     11  C   UNL     1      43.285  37.036  65.691  1.00  0.00     0.001 A 
ATOM     12  C   UNL     1      43.275  35.834  64.981  1.00  0.00     0.000 A 
ENDBRANCH   5   7
ENDBRANCH   1   5
TORSDOF 4
ENDMDL
MODEL 6
REMARK VINA RESULT:    -4.869     13.169     14.407
REMARK INTER + INTRA:          -6.297
REMARK INTER:                  -5.893
REMARK INTRA:                  -0.404
REMARK UNBOUND:                -0.289
REMARK SMILES CCCCC(=O)c1ccccc1
REMARK SMILES IDX 4 1 3 2 2 3 1 4 5 5 6 6 7 7 8 8 12 9 9 10 11 11 10 12
REMARK H PARENT
REMARK Flexibility Score: inf
ROOT
ATOM      1  C   UNL     1      43.292  36.422  65.502  1.00  0.00     0.081 C 
ENDROOT
BRANCH   1   2
ATOM      2  C   UNL     1      43.308  37.863  66.037  1.00  0.00     0.008 C 
BRANCH   2   3
ATOM      3  C   UNL     1      44.631  38.612  65.790  1.00  0.00    -0.003 C 
ATOM      4  C   UNL     1      44.704  39.249  64.403  1.00  0.00     0.004 C 
ENDBRANCH   2   3
ENDBRANCH   1   2
BRANCH   1   5
ATOM      5  C   UNL     1      42.121  36.181  64.583  1.00  0.00     0.162 C 
ATOM      6  O   UNL     1      42.025  35.059  64.017  1.00  0.00    -0.294 OA
BRANCH   5   7
ATOM      7  C   UNL     1      41.135  37.241  64.258  1.00  0.00     0.017 A 
ATOM      8  C   UNL     1      41.416  38.247  63.313  1.00  0.00     0.012 A 
ATOM      9  C   UNL     1      39.893  37.258  64.919  1.00  0.00     0.012 A 
ATOM     10  C   UNL     1      40.464  39.228  63.022  1.00  0.00     0.001 A 
ATOM     11  C   UNL     1      38.944  38.241  64.623  1.00  0.00     0.001 A 
ATOM     12  C   UNL     1      39.227  39.224  63.672  1.00  0.00     0.000 A 
ENDBRANCH   5   7
ENDBRANCH   1   5
TORSDOF 4
ENDMDL
MODEL 7
REMARK VINA RESULT:    -4.858     13.087     14.062
REMARK INTER + INTRA:          -6.283
REMARK INTER:                  -5.754
REMARK INTRA:                  -0.529
REMARK UNBOUND:                -0.289
REMARK SMILES CCCCC(=O)c1ccccc1
REMARK SMILES IDX 4 1 3 2 2 3 1 4 5 5 6 6 7 7 8 8 12 9 9 10 11 11 10 12
REMARK H PARENT
REMARK Flexibility Score: inf
ROOT
ATOM      1  C   UNL     1      40.313  36.235  64.447  1.00  0.00     0.081 C 
ENDROOT
BRANCH   1   2
ATOM      2  C   UNL     1      40.002  37.465  65.316  1.00  0.00     0.008 C 
BRANCH   2   3
ATOM      3  C   UNL     1      39.058  38.483  64.650  1.00  0.00    -0.003 C 
ATOM      4  C   UNL     1      39.695  39.196  63.459  1.00  0.00     0.004 C 
ENDBRANCH   2   3
ENDBRANCH   1   2
BRANCH   1   5
ATOM      5  C   UNL     1      41.794  35.964  64.375  1.00  0.00     0.162 C 
ATOM      6  O   UNL     1      42.176  34.787  64.130  1.00  0.00    -0.294 OA
BRANCH   5   7
ATOM      7  C   UNL     1      42.809  37.008  64.664  1.00  0.00     0.017 A 
ATOM      8  C   UNL     1      43.135  38.002  63.723  1.00  0.00     0.012 A 
ATOM      9  C   UNL     1      43.477  36.999  65.903  1.00  0.00     0.012 A 
ATOM     10  C   UNL     1      44.090  38.977  64.027  1.00  0.00     0.001 A 
ATOM     11  C   UNL     1      44.430  37.977  66.202  1.00  0.00     0.001 A 
ATOM     12  C   UNL     1      44.734  38.968  65.267  1.00  0.00     0.000 A 
ENDBRANCH   5   7
ENDBRANCH   1   5
TORSDOF 4
ENDMDL
MODEL 8
REMARK VINA RESULT:    -4.846      1.681      5.320
REMARK INTER + INTRA:          -6.269
REMARK INTER:                  -6.023
REMARK INTRA:                  -0.246
REMARK UNBOUND:                -0.289
REMARK SMILES CCCCC(=O)c1ccccc1
REMARK SMILES IDX 4 1 3 2 2 3 1 4 5 5 6 6 7 7 8 8 12 9 9 10 11 11 10 12
REMARK H PARENT
REMARK Flexibility Score: inf
ROOT
ATOM      1  C   UNL     1      46.455  32.483  52.542  1.00  0.00     0.081 C 
ENDROOT
BRANCH   1   2
ATOM      2  C   UNL     1      46.428  32.055  54.019  1.00  0.00     0.008 C 
BRANCH   2   3
ATOM      3  C   UNL     1      45.335  32.746  54.855  1.00  0.00    -0.003 C 
ATOM      4  C   UNL     1      43.921  32.352  54.429  1.00  0.00     0.004 C 
ENDBRANCH   2   3
ENDBRANCH   1   2
BRANCH   1   5
ATOM      5  C   UNL     1      45.658  31.543  51.674  1.00  0.00     0.162 C 
ATOM      6  O   UNL     1      45.719  30.307  51.917  1.00  0.00    -0.294 OA
BRANCH   5   7
ATOM      7  C   UNL     1      44.881  32.011  50.500  1.00  0.00     0.017 A 
ATOM      8  C   UNL     1      43.812  31.260  49.975  1.00  0.00     0.012 A 
ATOM      9  C   UNL     1      45.226  33.226  49.881  1.00  0.00     0.012 A 
ATOM     10  C   UNL     1      43.092  31.730  48.872  1.00  0.00     0.001 A 
ATOM     11  C   UNL     1      44.502  33.692  48.778  1.00  0.00     0.001 A 
ATOM     12  C   UNL     1      43.434  32.946  48.277  1.00  0.00     0.000 A 
ENDBRANCH   5   7
ENDBRANCH   1   5
TORSDOF 4
ENDMDL
MODEL 9
REMARK VINA RESULT:    -4.662     13.835     14.475
REMARK INTER + INTRA:          -6.041
REMARK INTER:                  -5.804
REMARK INTRA:                  -0.237
REMARK UNBOUND:                -0.289
REMARK SMILES CCCCC(=O)c1ccccc1
REMARK SMILES IDX 4 1 3 2 2 3 1 4 5 5 6 6 7 7 8 8 12 9 9 10 11 11 10 12
REMARK H PARENT
REMARK Flexibility Score: inf
ROOT
ATOM      1  C   UNL     1      43.965  38.475  64.533  1.00  0.00     0.081 C 
ENDROOT
BRANCH   1   2
ATOM      2  C   UNL     1      44.832  38.952  65.710  1.00  0.00     0.008 C 
BRANCH   2   3
ATOM      3  C   UNL     1      45.899  39.994  65.325  1.00  0.00    -0.003 C 
ATOM      4  C   UNL     1      45.834  40.396  63.853  1.00  0.00     0.004 C 
ENDBRANCH   2   3
ENDBRANCH   1   2
BRANCH   1   5
ATOM      5  C   UNL     1      43.043  37.354  64.938  1.00  0.00     0.162 C 
ATOM      6  O   UNL     1      43.535  36.363  65.543  1.00  0.00    -0.294 OA
BRANCH   5   7
ATOM      7  C   UNL     1      41.604  37.337  64.576  1.00  0.00     0.017 A 
ATOM      8  C   UNL     1      40.756  36.282  64.964  1.00  0.00     0.012 A 
ATOM      9  C   UNL     1      41.070  38.391  63.811  1.00  0.00     0.012 A 
ATOM     10  C   UNL     1      39.402  36.298  64.614  1.00  0.00     0.001 A 
ATOM     11  C   UNL     1      39.716  38.402  63.465  1.00  0.00     0.001 A 
ATOM     12  C   UNL     1      38.881  37.358  63.869  1.00  0.00     0.000 A 
ENDBRANCH   5   7
ENDBRANCH   1   5
TORSDOF 4
ENDMDL
