MODEL 1
REMARK VINA RESULT:    -6.558      0.000      0.000
REMARK INTER + INTRA:          -7.199
REMARK INTER:                  -6.941
REMARK INTRA:                  -0.258
REMARK UNBOUND:                -0.258
REMARK SMILES O=c1cc(-c2ccccc2)oc2ccccc12
REMARK SMILES IDX 4 1 3 2 2 3 1 4 17 5 16 6 15 7 14 8 13 9 12 10 11 11 5 12
REMARK SMILES IDX 8 13 7 14 9 15 6 16 10 17
REMARK H PARENT
REMARK Flexibility Score: inf
ROOT
ATOM      1  C   UNL     1      15.732  -8.855  12.685  1.00  0.00     0.138 A 
ATOM      2  C   UNL     1      14.351  -8.593  12.730  1.00  0.00     0.100 A 
ATOM      3  C   UNL     1      13.451  -9.659  12.704  1.00  0.00     0.193 A 
ATOM      4  O   UNL     1      12.211  -9.428  12.745  1.00  0.00    -0.289 OA
ATOM      5  C   UNL     1      13.939 -10.972  12.636  1.00  0.00     0.065 A 
ATOM      6  C   UNL     1      13.087 -12.092  12.606  1.00  0.00     0.016 A 
ATOM      7  C   UNL     1      13.627 -13.380  12.544  1.00  0.00     0.001 A 
ATOM      8  C   UNL     1      15.012 -13.563  12.513  1.00  0.00     0.004 A 
ATOM      9  C   UNL     1      15.866 -12.457  12.542  1.00  0.00     0.048 A 
ATOM     10  C   UNL     1      15.339 -11.162  12.604  1.00  0.00     0.138 A 
ATOM     11  O   UNL     1      16.159 -10.117  12.630  1.00  0.00    -0.456 OA
ENDROOT
BRANCH   1  12
ATOM     12  C   UNL     1      16.739  -7.763  12.711  1.00  0.00     0.017 A 
ATOM     13  C   UNL     1      18.626  -5.679  12.818  1.00  0.00     0.000 A 
ATOM     14  C   UNL     1      17.478  -5.623  13.610  1.00  0.00     0.001 A 
ATOM     15  C   UNL     1      18.842  -6.775  11.979  1.00  0.00     0.001 A 
ATOM     16  C   UNL     1      16.541  -6.660  13.561  1.00  0.00     0.012 A 
ATOM     17  C   UNL     1      17.909  -7.814  11.926  1.00  0.00     0.012 A 
ENDBRANCH   1  12
TORSDOF 1
ENDMDL
MODEL 2
REMARK VINA RESULT:    -6.408      1.104      2.345
REMARK INTER + INTRA:          -7.040
REMARK INTER:                  -6.790
REMARK INTRA:                  -0.250
REMARK UNBOUND:                -0.258
REMARK SMILES O=c1cc(-c2ccccc2)oc2ccccc12
REMARK SMILES IDX 4 1 3 2 2 3 1 4 17 5 16 6 15 7 14 8 13 9 12 10 11 11 5 12
REMARK SMILES IDX 8 13 7 14 9 15 6 16 10 17
REMARK H PARENT
REMARK Flexibility Score: inf
ROOT
ATOM      1  C   UNL     1      16.099  -9.361  12.683  1.00  0.00     0.138 A 
ATOM      2  C   UNL     1      16.689 -10.632  12.561  1.00  0.00     0.100 A 
ATOM      3  C   UNL     1      15.872 -11.760  12.477  1.00  0.00     0.193 A 
ATOM      4  O   UNL     1      16.397 -12.902  12.366  1.00  0.00    -0.289 OA
ATOM      5  C   UNL     1      14.478 -11.607  12.511  1.00  0.00     0.065 A 
ATOM      6  C   UNL     1      13.597 -12.701  12.430  1.00  0.00     0.016 A 
ATOM      7  C   UNL     1      12.216 -12.491  12.463  1.00  0.00     0.001 A 
ATOM      8  C   UNL     1      11.703 -11.196  12.576  1.00  0.00     0.004 A 
ATOM      9  C   UNL     1      12.569 -10.103  12.656  1.00  0.00     0.048 A 
ATOM     10  C   UNL     1      13.955 -10.299  12.624  1.00  0.00     0.138 A 
ATOM     11  O   UNL     1      14.770  -9.253  12.703  1.00  0.00    -0.456 OA
ENDROOT
BRANCH   1  12
ATOM     12  C   UNL     1      16.915  -8.124  12.776  1.00  0.00     0.017 A 
ATOM     13  C   UNL     1      18.449  -5.776  13.014  1.00  0.00     0.000 A 
ATOM     14  C   UNL     1      17.416  -6.030  13.917  1.00  0.00     0.001 A 
ATOM     15  C   UNL     1      18.728  -6.693  11.998  1.00  0.00     0.001 A 
ATOM     16  C   UNL     1      16.654  -7.198  13.803  1.00  0.00     0.012 A 
ATOM     17  C   UNL     1      17.970  -7.862  11.879  1.00  0.00     0.012 A 
ENDBRANCH   1  12
TORSDOF 1
ENDMDL
MODEL 3
REMARK VINA RESULT:    -6.213      2.184      3.392
REMARK INTER + INTRA:          -6.834
REMARK INTER:                  -6.605
REMARK INTRA:                  -0.229
REMARK UNBOUND:                -0.258
REMARK SMILES O=c1cc(-c2ccccc2)oc2ccccc12
REMARK SMILES IDX 4 1 3 2 2 3 1 4 17 5 16 6 15 7 14 8 13 9 12 10 11 11 5 12
REMARK SMILES IDX 8 13 7 14 9 15 6 16 10 17
REMARK H PARENT
REMARK Flexibility Score: inf
ROOT
ATOM      1  C   UNL     1      14.972  -7.867  12.877  1.00  0.00     0.138 A 
ATOM      2  C   UNL     1      16.351  -8.137  12.953  1.00  0.00     0.100 A 
ATOM      3  C   UNL     1      16.799  -9.452  12.823  1.00  0.00     0.193 A 
ATOM      4  O   UNL     1      18.035  -9.697  12.890  1.00  0.00    -0.289 OA
ATOM      5  C   UNL     1      15.868 -10.480  12.615  1.00  0.00     0.065 A 
ATOM      6  C   UNL     1      16.251 -11.827  12.475  1.00  0.00     0.016 A 
ATOM      7  C   UNL     1      15.283 -12.812  12.265  1.00  0.00     0.001 A 
ATOM      8  C   UNL     1      13.931 -12.466  12.190  1.00  0.00     0.004 A 
ATOM      9  C   UNL     1      13.540 -11.131  12.327  1.00  0.00     0.048 A 
ATOM     10  C   UNL     1      14.500 -10.135  12.539  1.00  0.00     0.138 A 
ATOM     11  O   UNL     1      14.118  -8.869  12.670  1.00  0.00    -0.456 OA
ENDROOT
BRANCH   1  12
ATOM     12  C   UNL     1      14.436  -6.488  13.008  1.00  0.00     0.017 A 
ATOM     13  C   UNL     1      13.430  -3.878  13.316  1.00  0.00     0.000 A 
ATOM     14  C   UNL     1      13.433  -4.758  14.399  1.00  0.00     0.001 A 
ATOM     15  C   UNL     1      13.937  -4.291  12.081  1.00  0.00     0.001 A 
ATOM     16  C   UNL     1      13.935  -6.055  14.249  1.00  0.00     0.012 A 
ATOM     17  C   UNL     1      14.440  -5.585  11.925  1.00  0.00     0.012 A 
ENDBRANCH   1  12
TORSDOF 1
ENDMDL
MODEL 4
REMARK VINA RESULT:    -6.092      1.198      5.852
REMARK INTER + INTRA:          -6.705
REMARK INTER:                  -6.430
REMARK INTRA:                  -0.275
REMARK UNBOUND:                -0.258
REMARK SMILES O=c1cc(-c2ccccc2)oc2ccccc12
REMARK SMILES IDX 4 1 3 2 2 3 1 4 17 5 16 6 15 7 14 8 13 9 12 10 11 11 5 12
REMARK SMILES IDX 8 13 7 14 9 15 6 16 10 17
REMARK H PARENT
REMARK Flexibility Score: inf
ROOT
ATOM      1  C   UNL     1      15.244  -9.447  12.595  1.00  0.00     0.138 A 
ATOM      2  C   UNL     1      14.277  -8.429  12.678  1.00  0.00     0.100 A 
ATOM      3  C   UNL     1      14.685  -7.094  12.674  1.00  0.00     0.193 A 
ATOM      4  O   UNL     1      13.821  -6.179  12.747  1.00  0.00    -0.289 OA
ATOM      5  C   UNL     1      16.052  -6.792  12.584  1.00  0.00     0.065 A 
ATOM      6  C   UNL     1      16.532  -5.470  12.574  1.00  0.00     0.016 A 
ATOM      7  C   UNL     1      17.905  -5.224  12.477  1.00  0.00     0.001 A 
ATOM      8  C   UNL     1      18.806  -6.288  12.387  1.00  0.00     0.004 A 
ATOM      9  C   UNL     1      18.339  -7.606  12.395  1.00  0.00     0.048 A 
ATOM     10  C   UNL     1      16.967  -7.865  12.493  1.00  0.00     0.138 A 
ATOM     11  O   UNL     1      16.533  -9.121  12.501  1.00  0.00    -0.456 OA
ENDROOT
BRANCH   1  12
ATOM     12  C   UNL     1      14.871 -10.884  12.594  1.00  0.00     0.017 A 
ATOM     13  C   UNL     1      14.220 -13.622  12.612  1.00  0.00     0.000 A 
ATOM     14  C   UNL     1      15.551 -13.221  12.486  1.00  0.00     0.001 A 
ATOM     15  C   UNL     1      13.212 -12.663  12.738  1.00  0.00     0.001 A 
ATOM     16  C   UNL     1      15.877 -11.861  12.481  1.00  0.00     0.012 A 
ATOM     17  C   UNL     1      13.532 -11.303  12.733  1.00  0.00     0.012 A 
ENDBRANCH   1  12
TORSDOF 1
ENDMDL
MODEL 5
REMARK VINA RESULT:    -5.736      1.627      6.190
REMARK INTER + INTRA:          -6.329
REMARK INTER:                  -6.054
REMARK INTRA:                  -0.275
REMARK UNBOUND:                -0.258
REMARK SMILES O=c1cc(-c2ccccc2)oc2ccccc12
REMARK SMILES IDX 4 1 3 2 2 3 1 4 17 5 16 6 15 7 14 8 13 9 12 10 11 11 5 12
REMARK SMILES IDX 8 13 7 14 9 15 6 16 10 17
REMARK H PARENT
REMARK Flexibility Score: inf
ROOT
ATOM      1  C   UNL     1      15.457  -9.597  12.471  1.00  0.00     0.138 A 
ATOM      2  C   UNL     1      16.799  -9.289  12.185  1.00  0.00     0.100 A 
ATOM      3  C   UNL     1      17.199  -7.953  12.134  1.00  0.00     0.193 A 
ATOM      4  O   UNL     1      18.402  -7.672  11.877  1.00  0.00    -0.289 OA
ATOM      5  C   UNL     1      16.257  -6.942  12.374  1.00  0.00     0.065 A 
ATOM      6  C   UNL     1      16.592  -5.576  12.339  1.00  0.00     0.016 A 
ATOM      7  C   UNL     1      15.614  -4.608  12.590  1.00  0.00     0.001 A 
ATOM      8  C   UNL     1      14.302  -4.992  12.879  1.00  0.00     0.004 A 
ATOM      9  C   UNL     1      13.959  -6.347  12.917  1.00  0.00     0.048 A 
ATOM     10  C   UNL     1      14.928  -7.325  12.666  1.00  0.00     0.138 A 
ATOM     11  O   UNL     1      14.592  -8.610  12.703  1.00  0.00    -0.456 OA
ENDROOT
BRANCH   1  12
ATOM     12  C   UNL     1      14.973 -10.999  12.540  1.00  0.00     0.017 A 
ATOM     13  C   UNL     1      14.110 -13.674  12.691  1.00  0.00     0.000 A 
ATOM     14  C   UNL     1      15.471 -13.384  12.581  1.00  0.00     0.001 A 
ATOM     15  C   UNL     1      13.178 -12.635  12.737  1.00  0.00     0.001 A 
ATOM     16  C   UNL     1      15.902 -12.055  12.509  1.00  0.00     0.012 A 
ATOM     17  C   UNL     1      13.602 -11.305  12.665  1.00  0.00     0.012 A 
ENDBRANCH   1  12
TORSDOF 1
ENDMDL
MODEL 6
REMARK VINA RESULT:    -5.687      2.309      2.722
REMARK INTER + INTRA:          -6.277
REMARK INTER:                  -6.041
REMARK INTRA:                  -0.237
REMARK UNBOUND:                -0.258
REMARK SMILES O=c1cc(-c2ccccc2)oc2ccccc12
REMARK SMILES IDX 4 1 3 2 2 3 1 4 17 5 16 6 15 7 14 8 13 9 12 10 11 11 5 12
REMARK SMILES IDX 8 13 7 14 9 15 6 16 10 17
REMARK H PARENT
REMARK Flexibility Score: inf
ROOT
ATOM      1  C   UNL     1      13.985  -8.151  12.856  1.00  0.00     0.138 A 
ATOM      2  C   UNL     1      12.788  -8.887  12.931  1.00  0.00     0.100 A 
ATOM      3  C   UNL     1      12.829 -10.276  12.801  1.00  0.00     0.193 A 
ATOM      4  O   UNL     1      11.759 -10.939  12.868  1.00  0.00    -0.289 OA
ATOM      5  C   UNL     1      14.063 -10.913  12.601  1.00  0.00     0.065 A 
ATOM      6  C   UNL     1      14.177 -12.308  12.462  1.00  0.00     0.016 A 
ATOM      7  C   UNL     1      15.432 -12.893  12.271  1.00  0.00     0.001 A 
ATOM      8  C   UNL     1      16.579 -12.097  12.217  1.00  0.00     0.004 A 
ATOM      9  C   UNL     1      16.477 -10.709  12.355  1.00  0.00     0.048 A 
ATOM     10  C   UNL     1      15.226 -10.112  12.547  1.00  0.00     0.138 A 
ATOM     11  O   UNL     1      15.139  -8.792  12.675  1.00  0.00    -0.456 OA
ENDROOT
BRANCH   1  12
ATOM     12  C   UNL     1      14.004  -6.672  12.988  1.00  0.00     0.017 A 
ATOM     13  C   UNL     1      14.049  -3.875  13.299  1.00  0.00     0.000 A 
ATOM     14  C   UNL     1      13.691  -4.692  14.373  1.00  0.00     0.001 A 
ATOM     15  C   UNL     1      14.395  -4.447  12.073  1.00  0.00     0.001 A 
ATOM     16  C   UNL     1      13.671  -6.082  14.222  1.00  0.00     0.012 A 
ATOM     17  C   UNL     1      14.377  -5.836  11.916  1.00  0.00     0.012 A 
ENDBRANCH   1  12
TORSDOF 1
ENDMDL
MODEL 7
REMARK VINA RESULT:    -5.681      1.667      6.133
REMARK INTER + INTRA:          -6.271
REMARK INTER:                  -5.997
REMARK INTRA:                  -0.274
REMARK UNBOUND:                -0.258
REMARK SMILES O=c1cc(-c2ccccc2)oc2ccccc12
REMARK SMILES IDX 4 1 3 2 2 3 1 4 17 5 16 6 15 7 14 8 13 9 12 10 11 11 5 12
REMARK SMILES IDX 8 13 7 14 9 15 6 16 10 17
REMARK H PARENT
REMARK Flexibility Score: inf
ROOT
ATOM      1  C   UNL     1      15.673  -9.547  12.443  1.00  0.00     0.138 A 
ATOM      2  C   UNL     1      17.052  -9.282  12.528  1.00  0.00     0.100 A 
ATOM      3  C   UNL     1      17.501  -7.963  12.454  1.00  0.00     0.193 A 
ATOM      4  O   UNL     1      18.737  -7.721  12.531  1.00  0.00    -0.289 OA
ATOM      5  C   UNL     1      16.570  -6.925  12.299  1.00  0.00     0.065 A 
ATOM      6  C   UNL     1      16.954  -5.574  12.218  1.00  0.00     0.016 A 
ATOM      7  C   UNL     1      15.984  -4.579  12.069  1.00  0.00     0.001 A 
ATOM      8  C   UNL     1      14.630  -4.919  12.002  1.00  0.00     0.004 A 
ATOM      9  C   UNL     1      14.239  -6.258  12.083  1.00  0.00     0.048 A 
ATOM     10  C   UNL     1      15.200  -7.264  12.231  1.00  0.00     0.138 A 
ATOM     11  O   UNL     1      14.817  -8.535  12.305  1.00  0.00    -0.456 OA
ENDROOT
BRANCH   1  12
ATOM     12  C   UNL     1      15.135 -10.930  12.516  1.00  0.00     0.017 A 
ATOM     13  C   UNL     1      14.062 -13.529  12.635  1.00  0.00     0.000 A 
ATOM     14  C   UNL     1      13.218 -12.420  12.715  1.00  0.00     0.001 A 
ATOM     15  C   UNL     1      15.439 -13.347  12.486  1.00  0.00     0.001 A 
ATOM     16  C   UNL     1      13.749 -11.127  12.652  1.00  0.00     0.012 A 
ATOM     17  C   UNL     1      15.975 -12.058  12.423  1.00  0.00     0.012 A 
ENDBRANCH   1  12
TORSDOF 1
ENDMDL
MODEL 8
REMARK VINA RESULT:    -5.071      1.643      3.128
REMARK INTER + INTRA:          -5.625
REMARK INTER:                  -5.365
REMARK INTRA:                  -0.260
REMARK UNBOUND:                -0.258
REMARK SMILES O=c1cc(-c2ccccc2)oc2ccccc12
REMARK SMILES IDX 4 1 3 2 2 3 1 4 17 5 16 6 15 7 14 8 13 9 12 10 11 11 5 12
REMARK SMILES IDX 8 13 7 14 9 15 6 16 10 17
REMARK H PARENT
REMARK Flexibility Score: inf
ROOT
ATOM      1  C   UNL     1      17.140  -7.812  12.567  1.00  0.00     0.138 A 
ATOM      2  C   UNL     1      17.674  -9.112  12.640  1.00  0.00     0.100 A 
ATOM      3  C   UNL     1      16.810 -10.208  12.630  1.00  0.00     0.193 A 
ATOM      4  O   UNL     1      17.285 -11.375  12.695  1.00  0.00    -0.289 OA
ATOM      5  C   UNL     1      15.427  -9.995  12.543  1.00  0.00     0.065 A 
ATOM      6  C   UNL     1      14.500 -11.054  12.528  1.00  0.00     0.016 A 
ATOM      7  C   UNL     1      13.131 -10.785  12.435  1.00  0.00     0.001 A 
ATOM      8  C   UNL     1      12.676  -9.466  12.355  1.00  0.00     0.004 A 
ATOM      9  C   UNL     1      13.589  -8.407  12.369  1.00  0.00     0.048 A 
ATOM     10  C   UNL     1      14.962  -8.663  12.462  1.00  0.00     0.138 A 
ATOM     11  O   UNL     1      15.820  -7.649  12.476  1.00  0.00    -0.456 OA
ENDROOT
BRANCH   1  12
ATOM     12  C   UNL     1      18.009  -6.608  12.572  1.00  0.00     0.017 A 
ATOM     13  C   UNL     1      19.681  -4.344  12.531  1.00  0.00     0.000 A 
ATOM     14  C   UNL     1      20.072  -5.514  11.877  1.00  0.00     0.001 A 
ATOM     15  C   UNL     1      18.454  -4.295  13.197  1.00  0.00     0.001 A 
ATOM     16  C   UNL     1      19.241  -6.639  11.894  1.00  0.00     0.012 A 
ATOM     17  C   UNL     1      17.619  -5.416  13.217  1.00  0.00     0.012 A 
ENDBRANCH   1  12
TORSDOF 1
ENDMDL
MODEL 9
REMARK VINA RESULT:    -5.049      2.029      6.164
REMARK INTER + INTRA:          -5.602
REMARK INTER:                  -5.327
REMARK INTRA:                  -0.275
REMARK UNBOUND:                -0.258
REMARK SMILES O=c1cc(-c2ccccc2)oc2ccccc12
REMARK SMILES IDX 4 1 3 2 2 3 1 4 17 5 16 6 15 7 14 8 13 9 12 10 11 11 5 12
REMARK SMILES IDX 8 13 7 14 9 15 6 16 10 17
REMARK H PARENT
REMARK Flexibility Score: inf
ROOT
ATOM      1  C   UNL     1      15.554  -7.673  12.347  1.00  0.00     0.138 A 
ATOM      2  C   UNL     1      14.867  -6.448  12.287  1.00  0.00     0.100 A 
ATOM      3  C   UNL     1      15.591  -5.262  12.162  1.00  0.00     0.193 A 
ATOM      4  O   UNL     1      14.977  -4.161  12.106  1.00  0.00    -0.289 OA
ATOM      5  C   UNL     1      16.991  -5.313  12.095  1.00  0.00     0.065 A 
ATOM      6  C   UNL     1      17.782  -4.156  11.968  1.00  0.00     0.016 A 
ATOM      7  C   UNL     1      19.174  -4.264  11.900  1.00  0.00     0.001 A 
ATOM      8  C   UNL     1      19.787  -5.519  11.956  1.00  0.00     0.004 A 
ATOM      9  C   UNL     1      19.010  -6.674  12.081  1.00  0.00     0.048 A 
ATOM     10  C   UNL     1      17.615  -6.579  12.151  1.00  0.00     0.138 A 
ATOM     11  O   UNL     1      16.885  -7.683  12.272  1.00  0.00    -0.456 OA
ENDROOT
BRANCH   1  12
ATOM     12  C   UNL     1      14.839  -8.968  12.480  1.00  0.00     0.017 A 
ATOM     13  C   UNL     1      13.429 -11.393  12.713  1.00  0.00     0.000 A 
ATOM     14  C   UNL     1      12.755 -10.178  12.842  1.00  0.00     0.001 A 
ATOM     15  C   UNL     1      14.802 -11.404  12.459  1.00  0.00     0.001 A 
ATOM     16  C   UNL     1      13.453  -8.971  12.723  1.00  0.00     0.012 A 
ATOM     17  C   UNL     1      15.505 -10.202  12.338  1.00  0.00     0.012 A 
ENDBRANCH   1  12
TORSDOF 1
ENDMDL
