MODEL 1
REMARK VINA RESULT:    -5.478      0.000      0.000
REMARK INTER + INTRA:         -17.988
REMARK INTER:                 -14.445
REMARK INTRA:                  -3.542
REMARK UNBOUND:                -3.542
REMARK SMILES CCCCCCCCCCCCCCCCCCCCCCCCCCCCCC(=O)[O-]
REMARK SMILES IDX 16 1 17 2 18 3 19 4 20 5 21 6 22 7 23 8 24 9 25 10 26 11
REMARK SMILES IDX 27 12 28 13 29 14 30 15 31 16 32 17 15 18 14 19 13 20 12 21
REMARK SMILES IDX 11 22 10 23 9 24 8 25 7 26 6 27 5 28 4 29 3 30 2 31 1 32
REMARK H PARENT
REMARK Flexibility Score: inf
ROOT
ATOM      1  C   UNL     1     161.096 157.430 150.073  1.00  0.00     0.000 C 
ENDROOT
BRANCH   1   2
ATOM      2  C   UNL     1     160.409 157.820 151.392  1.00  0.00     0.000 C 
BRANCH   2   3
ATOM      3  C   UNL     1     161.184 157.340 152.632  1.00  0.00     0.000 C 
BRANCH   3   4
ATOM      4  C   UNL     1     161.198 158.381 153.766  1.00  0.00     0.000 C 
BRANCH   4   5
ATOM      5  C   UNL     1     160.808 159.814 153.349  1.00  0.00     0.000 C 
BRANCH   5   6
ATOM      6  C   UNL     1     159.462 160.315 153.905  1.00  0.00     0.000 C 
BRANCH   6   7
ATOM      7  C   UNL     1     158.457 160.672 152.798  1.00  0.00     0.000 C 
BRANCH   7   8
ATOM      8  C   UNL     1     158.932 161.843 151.925  1.00  0.00     0.000 C 
BRANCH   8   9
ATOM      9  C   UNL     1     159.354 161.399 150.514  1.00  0.00     0.000 C 
BRANCH   9  10
ATOM     10  C   UNL     1     159.799 162.602 149.669  1.00  0.00     0.000 C 
BRANCH  10  11
ATOM     11  C   UNL     1     161.231 162.454 149.121  1.00  0.00     0.000 C 
BRANCH  11  12
ATOM     12  C   UNL     1     162.234 161.777 150.079  1.00  0.00     0.000 C 
BRANCH  12  13
ATOM     13  C   UNL     1     163.618 162.446 150.153  1.00  0.00     0.006 C 
BRANCH  13  14
ATOM     14  C   UNL     1     163.589 163.924 149.746  1.00  0.00     0.053 C 
BRANCH  14  15
ATOM     15  C   UNL     1     164.970 164.499 149.777  1.00  0.00     0.041 C 
ATOM     16  O   UNL     1     165.647 164.469 150.838  1.00  0.00    -0.550 OA
ATOM     17  O   UNL     1     165.496 165.106 148.643  1.00  0.00    -0.550 OA
ENDBRANCH  14  15
ENDBRANCH  13  14
ENDBRANCH  12  13
ENDBRANCH  11  12
ENDBRANCH  10  11
ENDBRANCH   9  10
ENDBRANCH   8   9
ENDBRANCH   7   8
ENDBRANCH   6   7
ENDBRANCH   5   6
ENDBRANCH   4   5
ENDBRANCH   3   4
ENDBRANCH   2   3
ENDBRANCH   1   2
BRANCH   1  18
ATOM     18  C   UNL     1     160.737 158.372 148.913  1.00  0.00     0.000 C 
BRANCH  18  19
ATOM     19  C   UNL     1     159.253 158.238 148.537  1.00  0.00     0.000 C 
BRANCH  19  20
ATOM     20  C   UNL     1     158.846 156.790 148.215  1.00  0.00     0.000 C 
BRANCH  20  21
ATOM     21  C   UNL     1     157.912 156.187 149.276  1.00  0.00     0.000 C 
BRANCH  21  22
ATOM     22  C   UNL     1     157.001 157.264 149.884  1.00  0.00     0.000 C 
BRANCH  22  23
ATOM     23  C   UNL     1     155.769 156.671 150.593  1.00  0.00     0.000 C 
BRANCH  23  24
ATOM     24  C   UNL     1     154.794 155.895 149.681  1.00  0.00    -0.000 C 
BRANCH  24  25
ATOM     25  C   UNL     1     154.223 154.598 150.283  1.00  0.00    -0.000 C 
BRANCH  25  26
ATOM     26  C   UNL     1     154.926 154.190 151.585  1.00  0.00    -0.000 C 
BRANCH  26  27
ATOM     27  C   UNL     1     155.524 152.778 151.473  1.00  0.00    -0.000 C 
BRANCH  27  28
ATOM     28  C   UNL     1     155.911 152.414 150.023  1.00  0.00    -0.000 C 
BRANCH  28  29
ATOM     29  C   UNL     1     157.426 152.480 149.742  1.00  0.00    -0.000 C 
BRANCH  29  30
ATOM     30  C   UNL     1     158.283 151.468 150.523  1.00  0.00    -0.000 C 
BRANCH  30  31
ATOM     31  C   UNL     1     158.414 150.115 149.806  1.00  0.00    -0.003 C 
ATOM     32  C   UNL     1     159.136 150.272 148.470  1.00  0.00     0.004 C 
ENDBRANCH  30  31
ENDBRANCH  29  30
ENDBRANCH  28  29
ENDBRANCH  27  28
ENDBRANCH  26  27
ENDBRANCH  25  26
ENDBRANCH  24  25
ENDBRANCH  23  24
ENDBRANCH  22  23
ENDBRANCH  21  22
ENDBRANCH  20  21
ENDBRANCH  19  20
ENDBRANCH  18  19
ENDBRANCH   1  18
TORSDOF 28
ENDMDL
MODEL 2
REMARK VINA RESULT:    -5.472      4.222     10.400
REMARK INTER + INTRA:         -17.972
REMARK INTER:                 -14.183
REMARK INTRA:                  -3.789
REMARK UNBOUND:                -3.542
REMARK SMILES CCCCCCCCCCCCCCCCCCCCCCCCCCCCCC(=O)[O-]
REMARK SMILES IDX 16 1 17 2 18 3 19 4 20 5 21 6 22 7 23 8 24 9 25 10 26 11
REMARK SMILES IDX 27 12 28 13 29 14 30 15 31 16 32 17 15 18 14 19 13 20 12 21
REMARK SMILES IDX 11 22 10 23 9 24 8 25 7 26 6 27 5 28 4 29 3 30 2 31 1 32
REMARK H PARENT
REMARK Flexibility Score: inf
ROOT
ATOM      1  C   UNL     1     158.902 162.045 151.553  1.00  0.00     0.000 C 
ENDROOT
BRANCH   1   2
ATOM      2  C   UNL     1     158.531 161.624 152.985  1.00  0.00     0.000 C 
BRANCH   2   3
ATOM      3  C   UNL     1     158.792 160.131 153.252  1.00  0.00     0.000 C 
BRANCH   3   4
ATOM      4  C   UNL     1     160.035 159.890 154.127  1.00  0.00     0.000 C 
BRANCH   4   5
ATOM      5  C   UNL     1     161.289 159.405 153.371  1.00  0.00     0.000 C 
BRANCH   5   6
ATOM      6  C   UNL     1     161.687 157.941 153.632  1.00  0.00     0.000 C 
BRANCH   6   7
ATOM      7  C   UNL     1     161.515 157.048 152.392  1.00  0.00     0.000 C 
BRANCH   7   8
ATOM      8  C   UNL     1     160.413 157.554 151.448  1.00  0.00     0.000 C 
BRANCH   8   9
ATOM      9  C   UNL     1     160.784 157.396 149.964  1.00  0.00     0.000 C 
BRANCH   9  10
ATOM     10  C   UNL     1     159.543 157.081 149.117  1.00  0.00     0.000 C 
BRANCH  10  11
ATOM     11  C   UNL     1     158.224 157.274 149.887  1.00  0.00     0.000 C 
BRANCH  11  12
ATOM     12  C   UNL     1     157.115 156.252 149.557  1.00  0.00     0.000 C 
BRANCH  12  13
ATOM     13  C   UNL     1     155.695 156.672 149.976  1.00  0.00     0.006 C 
BRANCH  13  14
ATOM     14  C   UNL     1     154.690 155.516 149.918  1.00  0.00     0.053 C 
BRANCH  14  15
ATOM     15  C   UNL     1     154.986 154.514 150.989  1.00  0.00     0.041 C 
ATOM     16  O   UNL     1     154.986 154.859 152.199  1.00  0.00    -0.550 OA
ATOM     17  O   UNL     1     155.301 153.204 150.648  1.00  0.00    -0.550 OA
ENDBRANCH  14  15
ENDBRANCH  13  14
ENDBRANCH  12  13
ENDBRANCH  11  12
ENDBRANCH  10  11
ENDBRANCH   9  10
ENDBRANCH   8   9
ENDBRANCH   7   8
ENDBRANCH   6   7
ENDBRANCH   5   6
ENDBRANCH   4   5
ENDBRANCH   3   4
ENDBRANCH   2   3
ENDBRANCH   1   2
BRANCH   1  18
ATOM     18  C   UNL     1     159.214 160.848 150.642  1.00  0.00     0.000 C 
BRANCH  18  19
ATOM     19  C   UNL     1     158.509 160.993 149.284  1.00  0.00     0.000 C 
BRANCH  19  20
ATOM     20  C   UNL     1     159.433 160.684 148.094  1.00  0.00     0.000 C 
BRANCH  20  21
ATOM     21  C   UNL     1     160.842 161.270 148.271  1.00  0.00     0.000 C 
BRANCH  21  22
ATOM     22  C   UNL     1     160.786 162.794 148.461  1.00  0.00     0.000 C 
BRANCH  22  23
ATOM     23  C   UNL     1     161.918 163.325 149.359  1.00  0.00     0.000 C 
BRANCH  23  24
ATOM     24  C   UNL     1     162.754 162.241 150.075  1.00  0.00    -0.000 C 
BRANCH  24  25
ATOM     25  C   UNL     1     164.104 162.721 150.639  1.00  0.00    -0.000 C 
BRANCH  25  26
ATOM     26  C   UNL     1     164.999 163.361 149.570  1.00  0.00    -0.000 C 
BRANCH  26  27
ATOM     27  C   UNL     1     165.485 164.751 150.013  1.00  0.00    -0.000 C 
BRANCH  27  28
ATOM     28  C   UNL     1     164.839 165.206 151.340  1.00  0.00    -0.000 C 
BRANCH  28  29
ATOM     29  C   UNL     1     163.977 166.478 151.215  1.00  0.00    -0.000 C 
BRANCH  29  30
ATOM     30  C   UNL     1     163.405 166.749 149.813  1.00  0.00    -0.000 C 
BRANCH  30  31
ATOM     31  C   UNL     1     162.137 167.618 149.841  1.00  0.00    -0.003 C 
ATOM     32  C   UNL     1     161.742 168.054 148.432  1.00  0.00     0.004 C 
ENDBRANCH  30  31
ENDBRANCH  29  30
ENDBRANCH  28  29
ENDBRANCH  27  28
ENDBRANCH  26  27
ENDBRANCH  25  26
ENDBRANCH  24  25
ENDBRANCH  23  24
ENDBRANCH  22  23
ENDBRANCH  21  22
ENDBRANCH  20  21
ENDBRANCH  19  20
ENDBRANCH  18  19
ENDBRANCH   1  18
TORSDOF 28
ENDMDL
MODEL 3
REMARK VINA RESULT:    -5.438      2.482      5.296
REMARK INTER + INTRA:         -17.882
REMARK INTER:                 -14.520
REMARK INTRA:                  -3.362
REMARK UNBOUND:                -3.542
REMARK SMILES CCCCCCCCCCCCCCCCCCCCCCCCCCCCCC(=O)[O-]
REMARK SMILES IDX 16 1 17 2 18 3 19 4 20 5 21 6 22 7 23 8 24 9 25 10 26 11
REMARK SMILES IDX 27 12 28 13 29 14 30 15 31 16 32 17 15 18 14 19 13 20 12 21
REMARK SMILES IDX 11 22 10 23 9 24 8 25 7 26 6 27 5 28 4 29 3 30 2 31 1 32
REMARK H PARENT
REMARK Flexibility Score: inf
ROOT
ATOM      1  C   UNL     1     158.591 160.526 152.942  1.00  0.00     0.000 C 
ENDROOT
BRANCH   1   2
ATOM      2  C   UNL     1     158.384 162.050 152.979  1.00  0.00     0.000 C 
BRANCH   2   3
ATOM      3  C   UNL     1     158.463 162.695 151.584  1.00  0.00     0.000 C 
BRANCH   3   4
ATOM      4  C   UNL     1     159.511 162.026 150.676  1.00  0.00     0.000 C 
BRANCH   4   5
ATOM      5  C   UNL     1     159.907 162.832 149.422  1.00  0.00     0.000 C 
BRANCH   5   6
ATOM      6  C   UNL     1     161.419 163.060 149.239  1.00  0.00     0.000 C 
BRANCH   6   7
ATOM      7  C   UNL     1     162.258 161.836 149.642  1.00  0.00     0.000 C 
BRANCH   7   8
ATOM      8  C   UNL     1     163.460 162.210 150.525  1.00  0.00     0.000 C 
BRANCH   8   9
ATOM      9  C   UNL     1     164.215 163.445 150.007  1.00  0.00     0.000 C 
BRANCH   9  10
ATOM     10  C   UNL     1     164.679 164.335 151.170  1.00  0.00     0.000 C 
BRANCH  10  11
ATOM     11  C   UNL     1     164.316 165.818 150.974  1.00  0.00     0.000 C 
BRANCH  11  12
ATOM     12  C   UNL     1     163.750 166.178 149.585  1.00  0.00     0.000 C 
BRANCH  12  13
ATOM     13  C   UNL     1     162.523 167.108 149.600  1.00  0.00     0.006 C 
BRANCH  13  14
ATOM     14  C   UNL     1     162.901 168.592 149.661  1.00  0.00     0.053 C 
BRANCH  14  15
ATOM     15  C   UNL     1     162.723 169.118 151.051  1.00  0.00     0.041 C 
ATOM     16  O   UNL     1     161.682 168.846 151.704  1.00  0.00    -0.550 OA
ATOM     17  O   UNL     1     163.691 169.942 151.612  1.00  0.00    -0.550 OA
ENDBRANCH  14  15
ENDBRANCH  13  14
ENDBRANCH  12  13
ENDBRANCH  11  12
ENDBRANCH  10  11
ENDBRANCH   9  10
ENDBRANCH   8   9
ENDBRANCH   7   8
ENDBRANCH   6   7
ENDBRANCH   5   6
ENDBRANCH   4   5
ENDBRANCH   3   4
ENDBRANCH   2   3
ENDBRANCH   1   2
BRANCH   1  18
ATOM     18  C   UNL     1     159.637 160.042 153.959  1.00  0.00     0.000 C 
BRANCH  18  19
ATOM     19  C   UNL     1     160.934 159.617 153.251  1.00  0.00     0.000 C 
BRANCH  19  20
ATOM     20  C   UNL     1     161.099 158.090 153.174  1.00  0.00     0.000 C 
BRANCH  20  21
ATOM     21  C   UNL     1     160.739 157.524 151.791  1.00  0.00     0.000 C 
BRANCH  21  22
ATOM     22  C   UNL     1     160.359 158.650 150.817  1.00  0.00     0.000 C 
BRANCH  22  23
ATOM     23  C   UNL     1     160.908 158.420 149.397  1.00  0.00     0.000 C 
BRANCH  23  24
ATOM     24  C   UNL     1     159.977 158.869 148.250  1.00  0.00    -0.000 C 
BRANCH  24  25
ATOM     25  C   UNL     1     158.806 157.917 147.944  1.00  0.00    -0.000 C 
BRANCH  25  26
ATOM     26  C   UNL     1     159.062 156.486 148.436  1.00  0.00    -0.000 C 
BRANCH  26  27
ATOM     27  C   UNL     1     157.833 155.923 149.169  1.00  0.00    -0.000 C 
BRANCH  27  28
ATOM     28  C   UNL     1     157.051 157.014 149.932  1.00  0.00    -0.000 C 
BRANCH  28  29
ATOM     29  C   UNL     1     155.544 156.721 150.079  1.00  0.00    -0.000 C 
BRANCH  29  30
ATOM     30  C   UNL     1     155.184 155.641 151.115  1.00  0.00    -0.000 C 
BRANCH  30  31
ATOM     31  C   UNL     1     154.417 154.457 150.503  1.00  0.00    -0.003 C 
ATOM     32  C   UNL     1     153.953 154.780 149.086  1.00  0.00     0.004 C 
ENDBRANCH  30  31
ENDBRANCH  29  30
ENDBRANCH  28  29
ENDBRANCH  27  28
ENDBRANCH  26  27
ENDBRANCH  25  26
ENDBRANCH  24  25
ENDBRANCH  23  24
ENDBRANCH  22  23
ENDBRANCH  21  22
ENDBRANCH  20  21
ENDBRANCH  19  20
ENDBRANCH  18  19
ENDBRANCH   1  18
TORSDOF 28
ENDMDL
MODEL 4
REMARK VINA RESULT:    -5.414      1.087      2.781
REMARK INTER + INTRA:         -17.818
REMARK INTER:                 -14.303
REMARK INTRA:                  -3.516
REMARK UNBOUND:                -3.542
REMARK SMILES CCCCCCCCCCCCCCCCCCCCCCCCCCCCCC(=O)[O-]
REMARK SMILES IDX 16 1 17 2 18 3 19 4 20 5 21 6 22 7 23 8 24 9 25 10 26 11
REMARK SMILES IDX 27 12 28 13 29 14 30 15 31 16 32 17 15 18 14 19 13 20 12 21
REMARK SMILES IDX 11 22 10 23 9 24 8 25 7 26 6 27 5 28 4 29 3 30 2 31 1 32
REMARK H PARENT
REMARK Flexibility Score: inf
ROOT
ATOM      1  C   UNL     1     160.961 159.086 153.144  1.00  0.00     0.000 C 
ENDROOT
BRANCH   1   2
ATOM      2  C   UNL     1     159.995 159.870 154.047  1.00  0.00     0.000 C 
BRANCH   2   3
ATOM      3  C   UNL     1     158.649 160.168 153.362  1.00  0.00     0.000 C 
BRANCH   3   4
ATOM      4  C   UNL     1     158.513 161.640 152.931  1.00  0.00     0.000 C 
BRANCH   4   5
ATOM      5  C   UNL     1     158.958 161.947 151.487  1.00  0.00     0.000 C 
BRANCH   5   6
ATOM      6  C   UNL     1     158.888 160.757 150.512  1.00  0.00     0.000 C 
BRANCH   6   7
ATOM      7  C   UNL     1     158.950 161.191 149.038  1.00  0.00     0.000 C 
BRANCH   7   8
ATOM      8  C   UNL     1     160.383 161.493 148.571  1.00  0.00     0.000 C 
BRANCH   8   9
ATOM      9  C   UNL     1     160.671 163.000 148.476  1.00  0.00     0.000 C 
BRANCH   9  10
ATOM     10  C   UNL     1     161.800 163.407 149.435  1.00  0.00     0.000 C 
BRANCH  10  11
ATOM     11  C   UNL     1     162.620 162.207 149.942  1.00  0.00     0.000 C 
BRANCH  11  12
ATOM     12  C   UNL     1     164.029 162.551 150.469  1.00  0.00     0.000 C 
BRANCH  12  13
ATOM     13  C   UNL     1     164.842 163.511 149.581  1.00  0.00     0.006 C 
BRANCH  13  14
ATOM     14  C   UNL     1     165.557 164.604 150.383  1.00  0.00     0.053 C 
BRANCH  14  15
ATOM     15  C   UNL     1     164.565 165.579 150.934  1.00  0.00     0.041 C 
ATOM     16  O   UNL     1     164.497 165.783 152.174  1.00  0.00    -0.550 OA
ATOM     17  O   UNL     1     163.687 166.235 150.080  1.00  0.00    -0.550 OA
ENDBRANCH  14  15
ENDBRANCH  13  14
ENDBRANCH  12  13
ENDBRANCH  11  12
ENDBRANCH  10  11
ENDBRANCH   9  10
ENDBRANCH   8   9
ENDBRANCH   7   8
ENDBRANCH   6   7
ENDBRANCH   5   6
ENDBRANCH   4   5
ENDBRANCH   3   4
ENDBRANCH   2   3
ENDBRANCH   1   2
BRANCH   1  18
ATOM     18  C   UNL     1     160.236 158.112 152.201  1.00  0.00     0.000 C 
BRANCH  18  19
ATOM     19  C   UNL     1     161.138 156.919 151.846  1.00  0.00     0.000 C 
BRANCH  19  20
ATOM     20  C   UNL     1     161.165 156.619 150.337  1.00  0.00     0.000 C 
BRANCH  20  21
ATOM     21  C   UNL     1     160.471 157.707 149.504  1.00  0.00     0.000 C 
BRANCH  21  22
ATOM     22  C   UNL     1     159.413 157.097 148.571  1.00  0.00     0.000 C 
BRANCH  22  23
ATOM     23  C   UNL     1     158.209 156.515 149.336  1.00  0.00     0.000 C 
BRANCH  23  24
ATOM     24  C   UNL     1     157.261 157.559 149.965  1.00  0.00    -0.000 C 
BRANCH  24  25
ATOM     25  C   UNL     1     155.884 157.020 150.396  1.00  0.00    -0.000 C 
BRANCH  25  26
ATOM     26  C   UNL     1     155.711 155.526 150.088  1.00  0.00    -0.000 C 
BRANCH  26  27
ATOM     27  C   UNL     1     155.110 154.779 151.290  1.00  0.00    -0.000 C 
BRANCH  27  28
ATOM     28  C   UNL     1     155.076 153.250 151.077  1.00  0.00    -0.000 C 
BRANCH  28  29
ATOM     29  C   UNL     1     156.183 152.720 150.144  1.00  0.00    -0.000 C 
BRANCH  29  30
ATOM     30  C   UNL     1     157.085 151.630 150.749  1.00  0.00    -0.000 C 
BRANCH  30  31
ATOM     31  C   UNL     1     158.214 151.193 149.802  1.00  0.00    -0.003 C 
ATOM     32  C   UNL     1     157.659 150.797 148.436  1.00  0.00     0.004 C 
ENDBRANCH  30  31
ENDBRANCH  29  30
ENDBRANCH  28  29
ENDBRANCH  27  28
ENDBRANCH  26  27
ENDBRANCH  25  26
ENDBRANCH  24  25
ENDBRANCH  23  24
ENDBRANCH  22  23
ENDBRANCH  21  22
ENDBRANCH  20  21
ENDBRANCH  19  20
ENDBRANCH  18  19
ENDBRANCH   1  18
TORSDOF 28
ENDMDL
MODEL 5
REMARK VINA RESULT:    -5.331      1.099      2.024
REMARK INTER + INTRA:         -17.599
REMARK INTER:                 -13.927
REMARK INTRA:                  -3.672
REMARK UNBOUND:                -3.542
REMARK SMILES CCCCCCCCCCCCCCCCCCCCCCCCCCCCCC(=O)[O-]
REMARK SMILES IDX 16 1 17 2 18 3 19 4 20 5 21 6 22 7 23 8 24 9 25 10 26 11
REMARK SMILES IDX 27 12 28 13 29 14 30 15 31 16 32 17 15 18 14 19 13 20 12 21
REMARK SMILES IDX 11 22 10 23 9 24 8 25 7 26 6 27 5 28 4 29 3 30 2 31 1 32
REMARK H PARENT
REMARK Flexibility Score: inf
ROOT
ATOM      1  C   UNL     1     160.144 158.758 151.660  1.00  0.00     0.000 C 
ENDROOT
BRANCH   1   2
ATOM      2  C   UNL     1     160.726 159.640 152.778  1.00  0.00     0.000 C 
BRANCH   2   3
ATOM      3  C   UNL     1     159.716 159.917 153.904  1.00  0.00     0.000 C 
BRANCH   3   4
ATOM      4  C   UNL     1     158.305 160.232 153.376  1.00  0.00     0.000 C 
BRANCH   4   5
ATOM      5  C   UNL     1     157.755 161.623 153.755  1.00  0.00     0.000 C 
BRANCH   5   6
ATOM      6  C   UNL     1     157.655 162.628 152.593  1.00  0.00     0.000 C 
BRANCH   6   7
ATOM      7  C   UNL     1     158.894 162.610 151.682  1.00  0.00     0.000 C 
BRANCH   7   8
ATOM      8  C   UNL     1     158.529 162.641 150.190  1.00  0.00     0.000 C 
BRANCH   8   9
ATOM      9  C   UNL     1     158.613 161.255 149.529  1.00  0.00     0.000 C 
BRANCH   9  10
ATOM     10  C   UNL     1     159.705 161.224 148.450  1.00  0.00     0.000 C 
BRANCH  10  11
ATOM     11  C   UNL     1     160.938 162.069 148.817  1.00  0.00     0.000 C 
BRANCH  11  12
ATOM     12  C   UNL     1     161.981 161.357 149.704  1.00  0.00     0.000 C 
BRANCH  12  13
ATOM     13  C   UNL     1     163.194 162.217 150.104  1.00  0.00     0.006 C 
BRANCH  13  14
ATOM     14  C   UNL     1     163.044 163.686 149.693  1.00  0.00     0.053 C 
BRANCH  14  15
ATOM     15  C   UNL     1     164.280 164.454 150.046  1.00  0.00     0.041 C 
ATOM     16  O   UNL     1     164.190 165.593 150.573  1.00  0.00    -0.550 OA
ATOM     17  O   UNL     1     165.532 163.927 149.755  1.00  0.00    -0.550 OA
ENDBRANCH  14  15
ENDBRANCH  13  14
ENDBRANCH  12  13
ENDBRANCH  11  12
ENDBRANCH  10  11
ENDBRANCH   9  10
ENDBRANCH   8   9
ENDBRANCH   7   8
ENDBRANCH   6   7
ENDBRANCH   5   6
ENDBRANCH   4   5
ENDBRANCH   3   4
ENDBRANCH   2   3
ENDBRANCH   1   2
BRANCH   1  18
ATOM     18  C   UNL     1     160.771 157.355 151.620  1.00  0.00     0.000 C 
BRANCH  18  19
ATOM     19  C   UNL     1     160.536 156.688 150.256  1.00  0.00     0.000 C 
BRANCH  19  20
ATOM     20  C   UNL     1     160.119 157.689 149.165  1.00  0.00     0.000 C 
BRANCH  20  21
ATOM     21  C   UNL     1     158.878 157.231 148.384  1.00  0.00     0.000 C 
BRANCH  21  22
ATOM     22  C   UNL     1     157.948 156.388 149.270  1.00  0.00     0.000 C 
BRANCH  22  23
ATOM     23  C   UNL     1     156.936 157.244 150.055  1.00  0.00     0.000 C 
BRANCH  23  24
ATOM     24  C   UNL     1     155.503 156.673 150.122  1.00  0.00    -0.000 C 
BRANCH  24  25
ATOM     25  C   UNL     1     155.362 155.201 149.692  1.00  0.00    -0.000 C 
BRANCH  25  26
ATOM     26  C   UNL     1     154.403 154.410 150.593  1.00  0.00    -0.000 C 
BRANCH  26  27
ATOM     27  C   UNL     1     155.139 153.832 151.813  1.00  0.00    -0.000 C 
BRANCH  27  28
ATOM     28  C   UNL     1     155.546 152.356 151.611  1.00  0.00    -0.000 C 
BRANCH  28  29
ATOM     29  C   UNL     1     156.710 152.155 150.620  1.00  0.00    -0.000 C 
BRANCH  29  30
ATOM     30  C   UNL     1     157.094 150.690 150.348  1.00  0.00    -0.000 C 
BRANCH  30  31
ATOM     31  C   UNL     1     156.334 150.085 149.156  1.00  0.00    -0.003 C 
ATOM     32  C   UNL     1     155.978 151.159 148.133  1.00  0.00     0.004 C 
ENDBRANCH  30  31
ENDBRANCH  29  30
ENDBRANCH  28  29
ENDBRANCH  27  28
ENDBRANCH  26  27
ENDBRANCH  25  26
ENDBRANCH  24  25
ENDBRANCH  23  24
ENDBRANCH  22  23
ENDBRANCH  21  22
ENDBRANCH  20  21
ENDBRANCH  19  20
ENDBRANCH  18  19
ENDBRANCH   1  18
TORSDOF 28
ENDMDL
MODEL 6
REMARK VINA RESULT:    -5.301      4.165     10.636
REMARK INTER + INTRA:         -17.520
REMARK INTER:                 -14.210
REMARK INTRA:                  -3.310
REMARK UNBOUND:                -3.542
REMARK SMILES CCCCCCCCCCCCCCCCCCCCCCCCCCCCCC(=O)[O-]
REMARK SMILES IDX 16 1 17 2 18 3 19 4 20 5 21 6 22 7 23 8 24 9 25 10 26 11
REMARK SMILES IDX 27 12 28 13 29 14 30 15 31 16 32 17 15 18 14 19 13 20 12 21
REMARK SMILES IDX 11 22 10 23 9 24 8 25 7 26 6 27 5 28 4 29 3 30 2 31 1 32
REMARK H PARENT
REMARK Flexibility Score: inf
ROOT
ATOM      1  C   UNL     1     158.856 160.725 153.441  1.00  0.00     0.000 C 
ENDROOT
BRANCH   1   2
ATOM      2  C   UNL     1     159.779 159.637 154.015  1.00  0.00     0.000 C 
BRANCH   2   3
ATOM      3  C   UNL     1     160.949 159.294 153.076  1.00  0.00     0.000 C 
BRANCH   3   4
ATOM      4  C   UNL     1     161.143 157.778 152.895  1.00  0.00     0.000 C 
BRANCH   4   5
ATOM      5  C   UNL     1     160.758 157.226 151.507  1.00  0.00     0.000 C 
BRANCH   5   6
ATOM      6  C   UNL     1     160.399 158.291 150.455  1.00  0.00     0.000 C 
BRANCH   6   7
ATOM      7  C   UNL     1     160.094 157.684 149.075  1.00  0.00     0.000 C 
BRANCH   7   8
ATOM      8  C   UNL     1     158.599 157.746 148.721  1.00  0.00     0.000 C 
BRANCH   8   9
ATOM      9  C   UNL     1     157.797 156.582 149.325  1.00  0.00     0.000 C 
BRANCH   9  10
ATOM     10  C   UNL     1     156.638 157.102 150.189  1.00  0.00     0.000 C 
BRANCH  10  11
ATOM     11  C   UNL     1     155.339 156.298 150.000  1.00  0.00     0.000 C 
BRANCH  11  12
ATOM     12  C   UNL     1     155.073 155.219 151.070  1.00  0.00     0.000 C 
BRANCH  12  13
ATOM     13  C   UNL     1     154.974 153.779 150.534  1.00  0.00     0.006 C 
BRANCH  13  14
ATOM     14  C   UNL     1     155.538 152.739 151.510  1.00  0.00     0.053 C 
BRANCH  14  15
ATOM     15  C   UNL     1     156.599 151.921 150.843  1.00  0.00     0.041 C 
ATOM     16  O   UNL     1     157.055 152.265 149.722  1.00  0.00    -0.550 OA
ATOM     17  O   UNL     1     157.058 150.756 151.444  1.00  0.00    -0.550 OA
ENDBRANCH  14  15
ENDBRANCH  13  14
ENDBRANCH  12  13
ENDBRANCH  11  12
ENDBRANCH  10  11
ENDBRANCH   9  10
ENDBRANCH   8   9
ENDBRANCH   7   8
ENDBRANCH   6   7
ENDBRANCH   5   6
ENDBRANCH   4   5
ENDBRANCH   3   4
ENDBRANCH   2   3
ENDBRANCH   1   2
BRANCH   1  18
ATOM     18  C   UNL     1     159.371 161.304 152.114  1.00  0.00     0.000 C 
BRANCH  18  19
ATOM     19  C   UNL     1     158.448 162.424 151.608  1.00  0.00     0.000 C 
BRANCH  19  20
ATOM     20  C   UNL     1     158.537 162.630 150.086  1.00  0.00     0.000 C 
BRANCH  20  21
ATOM     21  C   UNL     1     158.887 161.338 149.333  1.00  0.00     0.000 C 
BRANCH  21  22
ATOM     22  C   UNL     1     160.180 161.507 148.519  1.00  0.00     0.000 C 
BRANCH  22  23
ATOM     23  C   UNL     1     160.671 162.966 148.479  1.00  0.00     0.000 C 
BRANCH  23  24
ATOM     24  C   UNL     1     161.810 163.305 149.466  1.00  0.00    -0.000 C 
BRANCH  24  25
ATOM     25  C   UNL     1     162.600 162.094 149.996  1.00  0.00    -0.000 C 
BRANCH  25  26
ATOM     26  C   UNL     1     164.029 162.459 150.422  1.00  0.00    -0.000 C 
BRANCH  26  27
ATOM     27  C   UNL     1     164.528 163.706 149.673  1.00  0.00    -0.000 C 
BRANCH  27  28
ATOM     28  C   UNL     1     165.025 164.810 150.632  1.00  0.00    -0.000 C 
BRANCH  28  29
ATOM     29  C   UNL     1     164.018 165.959 150.843  1.00  0.00    -0.000 C 
BRANCH  29  30
ATOM     30  C   UNL     1     163.565 166.679 149.560  1.00  0.00    -0.000 C 
BRANCH  30  31
ATOM     31  C   UNL     1     162.285 167.506 149.758  1.00  0.00    -0.003 C 
ATOM     32  C   UNL     1     162.312 168.243 151.094  1.00  0.00     0.004 C 
ENDBRANCH  30  31
ENDBRANCH  29  30
ENDBRANCH  28  29
ENDBRANCH  27  28
ENDBRANCH  26  27
ENDBRANCH  25  26
ENDBRANCH  24  25
ENDBRANCH  23  24
ENDBRANCH  22  23
ENDBRANCH  21  22
ENDBRANCH  20  21
ENDBRANCH  19  20
ENDBRANCH  18  19
ENDBRANCH   1  18
TORSDOF 28
ENDMDL
MODEL 7
REMARK VINA RESULT:    -5.293      1.157      3.371
REMARK INTER + INTRA:         -17.498
REMARK INTER:                 -13.373
REMARK INTRA:                  -4.125
REMARK UNBOUND:                -3.542
REMARK SMILES CCCCCCCCCCCCCCCCCCCCCCCCCCCCCC(=O)[O-]
REMARK SMILES IDX 16 1 17 2 18 3 19 4 20 5 21 6 22 7 23 8 24 9 25 10 26 11
REMARK SMILES IDX 27 12 28 13 29 14 30 15 31 16 32 17 15 18 14 19 13 20 12 21
REMARK SMILES IDX 11 22 10 23 9 24 8 25 7 26 6 27 5 28 4 29 3 30 2 31 1 32
REMARK H PARENT
REMARK Flexibility Score: inf
ROOT
ATOM      1  C   UNL     1     158.675 159.391 152.862  1.00  0.00     0.000 C 
ENDROOT
BRANCH   1   2
ATOM      2  C   UNL     1     157.651 160.136 153.733  1.00  0.00     0.000 C 
BRANCH   2   3
ATOM      3  C   UNL     1     158.040 161.603 153.986  1.00  0.00     0.000 C 
BRANCH   3   4
ATOM      4  C   UNL     1     156.994 162.598 153.451  1.00  0.00     0.000 C 
BRANCH   4   5
ATOM      5  C   UNL     1     157.372 163.304 152.132  1.00  0.00     0.000 C 
BRANCH   5   6
ATOM      6  C   UNL     1     158.677 162.814 151.477  1.00  0.00     0.000 C 
BRANCH   6   7
ATOM      7  C   UNL     1     158.518 162.531 149.974  1.00  0.00     0.000 C 
BRANCH   7   8
ATOM      8  C   UNL     1     158.573 161.030 149.648  1.00  0.00     0.000 C 
BRANCH   8   9
ATOM      9  C   UNL     1     159.250 160.740 148.298  1.00  0.00     0.000 C 
BRANCH   9  10
ATOM     10  C   UNL     1     160.505 161.605 148.114  1.00  0.00     0.000 C 
BRANCH  10  11
ATOM     11  C   UNL     1     161.561 161.374 149.210  1.00  0.00     0.000 C 
BRANCH  11  12
ATOM     12  C   UNL     1     162.345 162.631 149.642  1.00  0.00     0.000 C 
BRANCH  12  13
ATOM     13  C   UNL     1     163.653 162.354 150.405  1.00  0.00     0.006 C 
BRANCH  13  14
ATOM     14  C   UNL     1     164.889 162.915 149.694  1.00  0.00     0.053 C 
BRANCH  14  15
ATOM     15  C   UNL     1     165.097 164.350 150.065  1.00  0.00     0.041 C 
ATOM     16  O   UNL     1     165.526 165.170 149.212  1.00  0.00    -0.550 OA
ATOM     17  O   UNL     1     164.853 164.774 151.365  1.00  0.00    -0.550 OA
ENDBRANCH  14  15
ENDBRANCH  13  14
ENDBRANCH  12  13
ENDBRANCH  11  12
ENDBRANCH  10  11
ENDBRANCH   9  10
ENDBRANCH   8   9
ENDBRANCH   7   8
ENDBRANCH   6   7
ENDBRANCH   5   6
ENDBRANCH   4   5
ENDBRANCH   3   4
ENDBRANCH   2   3
ENDBRANCH   1   2
BRANCH   1  18
ATOM     18  C   UNL     1     160.080 160.011 152.933  1.00  0.00     0.000 C 
BRANCH  18  19
ATOM     19  C   UNL     1     161.101 159.144 152.179  1.00  0.00     0.000 C 
BRANCH  19  20
ATOM     20  C   UNL     1     160.727 157.653 152.168  1.00  0.00     0.000 C 
BRANCH  20  21
ATOM     21  C   UNL     1     160.935 156.998 150.794  1.00  0.00     0.000 C 
BRANCH  21  22
ATOM     22  C   UNL     1     159.992 157.607 149.745  1.00  0.00     0.000 C 
BRANCH  22  23
ATOM     23  C   UNL     1     159.301 156.540 148.875  1.00  0.00     0.000 C 
BRANCH  23  24
ATOM     24  C   UNL     1     157.813 156.289 149.199  1.00  0.00    -0.000 C 
BRANCH  24  25
ATOM     25  C   UNL     1     157.130 157.384 150.041  1.00  0.00    -0.000 C 
BRANCH  25  26
ATOM     26  C   UNL     1     155.884 156.874 150.778  1.00  0.00    -0.000 C 
BRANCH  26  27
ATOM     27  C   UNL     1     155.007 156.013 149.854  1.00  0.00    -0.000 C 
BRANCH  27  28
ATOM     28  C   UNL     1     154.380 154.809 150.589  1.00  0.00    -0.000 C 
BRANCH  28  29
ATOM     29  C   UNL     1     155.382 153.685 150.923  1.00  0.00    -0.000 C 
BRANCH  29  30
ATOM     30  C   UNL     1     155.841 152.838 149.723  1.00  0.00    -0.000 C 
BRANCH  30  31
ATOM     31  C   UNL     1     157.336 152.484 149.778  1.00  0.00    -0.003 C 
ATOM     32  C   UNL     1     157.608 151.423 150.841  1.00  0.00     0.004 C 
ENDBRANCH  30  31
ENDBRANCH  29  30
ENDBRANCH  28  29
ENDBRANCH  27  28
ENDBRANCH  26  27
ENDBRANCH  25  26
ENDBRANCH  24  25
ENDBRANCH  23  24
ENDBRANCH  22  23
ENDBRANCH  21  22
ENDBRANCH  20  21
ENDBRANCH  19  20
ENDBRANCH  18  19
ENDBRANCH   1  18
TORSDOF 28
ENDMDL
MODEL 8
REMARK VINA RESULT:    -5.271      1.295      1.918
REMARK INTER + INTRA:         -17.441
REMARK INTER:                 -14.105
REMARK INTRA:                  -3.337
REMARK UNBOUND:                -3.542
REMARK SMILES CCCCCCCCCCCCCCCCCCCCCCCCCCCCCC(=O)[O-]
REMARK SMILES IDX 16 1 17 2 18 3 19 4 20 5 21 6 22 7 23 8 24 9 25 10 26 11
REMARK SMILES IDX 27 12 28 13 29 14 30 15 31 16 32 17 15 18 14 19 13 20 12 21
REMARK SMILES IDX 11 22 10 23 9 24 8 25 7 26 6 27 5 28 4 29 3 30 2 31 1 32
REMARK H PARENT
REMARK Flexibility Score: inf
ROOT
ATOM      1  C   UNL     1     160.804 157.177 151.457  1.00  0.00     0.000 C 
ENDROOT
BRANCH   1   2
ATOM      2  C   UNL     1     160.953 157.789 152.860  1.00  0.00     0.000 C 
BRANCH   2   3
ATOM      3  C   UNL     1     161.090 159.322 152.829  1.00  0.00     0.000 C 
BRANCH   3   4
ATOM      4  C   UNL     1     159.946 160.037 153.569  1.00  0.00     0.000 C 
BRANCH   4   5
ATOM      5  C   UNL     1     158.742 160.439 152.692  1.00  0.00     0.000 C 
BRANCH   5   6
ATOM      6  C   UNL     1     158.401 161.940 152.694  1.00  0.00     0.000 C 
BRANCH   6   7
ATOM      7  C   UNL     1     158.754 162.633 151.368  1.00  0.00     0.000 C 
BRANCH   7   8
ATOM      8  C   UNL     1     159.041 161.632 150.238  1.00  0.00     0.000 C 
BRANCH   8   9
ATOM      9  C   UNL     1     159.903 162.234 149.116  1.00  0.00     0.000 C 
BRANCH   9  10
ATOM     10  C   UNL     1     161.260 161.522 149.022  1.00  0.00     0.000 C 
BRANCH  10  11
ATOM     11  C   UNL     1     162.135 161.726 150.272  1.00  0.00     0.000 C 
BRANCH  11  12
ATOM     12  C   UNL     1     163.551 162.276 150.000  1.00  0.00     0.000 C 
BRANCH  12  13
ATOM     13  C   UNL     1     163.667 163.811 150.010  1.00  0.00     0.006 C 
BRANCH  13  14
ATOM     14  C   UNL     1     164.576 164.333 151.129  1.00  0.00     0.053 C 
BRANCH  14  15
ATOM     15  C   UNL     1     164.405 165.811 151.293  1.00  0.00     0.041 C 
ATOM     16  O   UNL     1     164.834 166.389 152.325  1.00  0.00    -0.550 OA
ATOM     17  O   UNL     1     163.734 166.544 150.322  1.00  0.00    -0.550 OA
ENDBRANCH  14  15
ENDBRANCH  13  14
ENDBRANCH  12  13
ENDBRANCH  11  12
ENDBRANCH  10  11
ENDBRANCH   9  10
ENDBRANCH   8   9
ENDBRANCH   7   8
ENDBRANCH   6   7
ENDBRANCH   5   6
ENDBRANCH   4   5
ENDBRANCH   3   4
ENDBRANCH   2   3
ENDBRANCH   1   2
BRANCH   1  18
ATOM     18  C   UNL     1     160.479 158.225 150.381  1.00  0.00     0.000 C 
BRANCH  18  19
ATOM     19  C   UNL     1     160.059 157.549 149.066  1.00  0.00     0.000 C 
BRANCH  19  20
ATOM     20  C   UNL     1     158.679 158.014 148.570  1.00  0.00     0.000 C 
BRANCH  20  21
ATOM     21  C   UNL     1     157.616 158.002 149.679  1.00  0.00     0.000 C 
BRANCH  21  22
ATOM     22  C   UNL     1     156.980 156.610 149.819  1.00  0.00     0.000 C 
BRANCH  22  23
ATOM     23  C   UNL     1     155.472 156.672 150.123  1.00  0.00     0.000 C 
BRANCH  23  24
ATOM     24  C   UNL     1     154.701 155.353 149.902  1.00  0.00    -0.000 C 
BRANCH  24  25
ATOM     25  C   UNL     1     155.174 154.165 150.761  1.00  0.00    -0.000 C 
BRANCH  25  26
ATOM     26  C   UNL     1     155.840 153.061 149.928  1.00  0.00    -0.000 C 
BRANCH  26  27
ATOM     27  C   UNL     1     156.448 151.975 150.832  1.00  0.00    -0.000 C 
BRANCH  27  28
ATOM     28  C   UNL     1     156.844 150.707 150.046  1.00  0.00    -0.000 C 
BRANCH  28  29
ATOM     29  C   UNL     1     156.264 150.645 148.619  1.00  0.00    -0.000 C 
BRANCH  29  30
ATOM     30  C   UNL     1     157.295 150.407 147.502  1.00  0.00    -0.000 C 
BRANCH  30  31
ATOM     31  C   UNL     1     158.635 151.114 147.763  1.00  0.00    -0.003 C 
ATOM     32  C   UNL     1     159.147 151.800 146.500  1.00  0.00     0.004 C 
ENDBRANCH  30  31
ENDBRANCH  29  30
ENDBRANCH  28  29
ENDBRANCH  27  28
ENDBRANCH  26  27
ENDBRANCH  25  26
ENDBRANCH  24  25
ENDBRANCH  23  24
ENDBRANCH  22  23
ENDBRANCH  21  22
ENDBRANCH  20  21
ENDBRANCH  19  20
ENDBRANCH  18  19
ENDBRANCH   1  18
TORSDOF 28
ENDMDL
MODEL 9
REMARK VINA RESULT:    -5.259      4.489     11.186
REMARK INTER + INTRA:         -17.411
REMARK INTER:                 -13.993
REMARK INTRA:                  -3.418
REMARK UNBOUND:                -3.542
REMARK SMILES CCCCCCCCCCCCCCCCCCCCCCCCCCCCCC(=O)[O-]
REMARK SMILES IDX 16 1 17 2 18 3 19 4 20 5 21 6 22 7 23 8 24 9 25 10 26 11
REMARK SMILES IDX 27 12 28 13 29 14 30 15 31 16 32 17 15 18 14 19 13 20 12 21
REMARK SMILES IDX 11 22 10 23 9 24 8 25 7 26 6 27 5 28 4 29 3 30 2 31 1 32
REMARK H PARENT
REMARK Flexibility Score: inf
ROOT
ATOM      1  C   UNL     1     158.497 161.966 152.454  1.00  0.00     0.000 C 
ENDROOT
BRANCH   1   2
ATOM      2  C   UNL     1     158.818 160.462 152.427  1.00  0.00     0.000 C 
BRANCH   2   3
ATOM      3  C   UNL     1     159.875 160.060 153.470  1.00  0.00     0.000 C 
BRANCH   3   4
ATOM      4  C   UNL     1     161.098 159.367 152.843  1.00  0.00     0.000 C 
BRANCH   4   5
ATOM      5  C   UNL     1     161.070 157.825 152.878  1.00  0.00     0.000 C 
BRANCH   5   6
ATOM      6  C   UNL     1     160.651 157.147 151.560  1.00  0.00     0.000 C 
BRANCH   6   7
ATOM      7  C   UNL     1     160.726 158.096 150.353  1.00  0.00     0.000 C 
BRANCH   7   8
ATOM      8  C   UNL     1     160.143 157.472 149.075  1.00  0.00     0.000 C 
BRANCH   8   9
ATOM      9  C   UNL     1     158.971 158.285 148.499  1.00  0.00     0.000 C 
BRANCH   9  10
ATOM     10  C   UNL     1     157.756 158.241 149.438  1.00  0.00     0.000 C 
BRANCH  10  11
ATOM     11  C   UNL     1     157.277 156.809 149.736  1.00  0.00     0.000 C 
BRANCH  11  12
ATOM     12  C   UNL     1     155.903 156.707 150.431  1.00  0.00     0.000 C 
BRANCH  12  13
ATOM     13  C   UNL     1     154.883 155.793 149.729  1.00  0.00     0.006 C 
BRANCH  13  14
ATOM     14  C   UNL     1     154.159 154.852 150.699  1.00  0.00     0.053 C 
BRANCH  14  15
ATOM     15  C   UNL     1     155.070 153.745 151.127  1.00  0.00     0.041 C 
ATOM     16  O   UNL     1     155.872 153.229 150.305  1.00  0.00    -0.550 OA
ATOM     17  O   UNL     1     155.006 153.254 152.425  1.00  0.00    -0.550 OA
ENDBRANCH  14  15
ENDBRANCH  13  14
ENDBRANCH  12  13
ENDBRANCH  11  12
ENDBRANCH  10  11
ENDBRANCH   9  10
ENDBRANCH   8   9
ENDBRANCH   7   8
ENDBRANCH   6   7
ENDBRANCH   5   6
ENDBRANCH   4   5
ENDBRANCH   3   4
ENDBRANCH   2   3
ENDBRANCH   1   2
BRANCH   1  18
ATOM     18  C   UNL     1     158.820 162.668 151.126  1.00  0.00     0.000 C 
BRANCH  18  19
ATOM     19  C   UNL     1     158.829 161.664 149.962  1.00  0.00     0.000 C 
BRANCH  19  20
ATOM     20  C   UNL     1     159.891 161.992 148.898  1.00  0.00     0.000 C 
BRANCH  20  21
ATOM     21  C   UNL     1     161.134 162.672 149.492  1.00  0.00     0.000 C 
BRANCH  21  22
ATOM     22  C   UNL     1     162.145 161.629 149.994  1.00  0.00     0.000 C 
BRANCH  22  23
ATOM     23  C   UNL     1     163.538 162.230 150.261  1.00  0.00     0.000 C 
BRANCH  23  24
ATOM     24  C   UNL     1     163.657 163.750 150.018  1.00  0.00    -0.000 C 
BRANCH  24  25
ATOM     25  C   UNL     1     164.708 164.473 150.881  1.00  0.00    -0.000 C 
BRANCH  25  26
ATOM     26  C   UNL     1     164.496 165.992 150.924  1.00  0.00    -0.000 C 
BRANCH  26  27
ATOM     27  C   UNL     1     163.307 166.411 150.043  1.00  0.00    -0.000 C 
BRANCH  27  28
ATOM     28  C   UNL     1     163.302 167.925 149.741  1.00  0.00    -0.000 C 
BRANCH  28  29
ATOM     29  C   UNL     1     162.217 168.715 150.501  1.00  0.00    -0.000 C 
BRANCH  29  30
ATOM     30  C   UNL     1     160.867 168.841 149.773  1.00  0.00    -0.000 C 
BRANCH  30  31
ATOM     31  C   UNL     1     160.915 169.820 148.588  1.00  0.00    -0.003 C 
ATOM     32  C   UNL     1     160.326 169.185 147.331  1.00  0.00     0.004 C 
ENDBRANCH  30  31
ENDBRANCH  29  30
ENDBRANCH  28  29
ENDBRANCH  27  28
ENDBRANCH  26  27
ENDBRANCH  25  26
ENDBRANCH  24  25
ENDBRANCH  23  24
ENDBRANCH  22  23
ENDBRANCH  21  22
ENDBRANCH  20  21
ENDBRANCH  19  20
ENDBRANCH  18  19
ENDBRANCH   1  18
TORSDOF 28
ENDMDL
