MODEL 1
REMARK VINA RESULT:    -4.733      0.000      0.000
REMARK INTER + INTRA:          -9.241
REMARK INTER:                  -8.054
REMARK INTRA:                  -1.187
REMARK UNBOUND:                -1.187
REMARK SMILES CCCCCCCCCCCCCC(=O)[O-]
REMARK SMILES IDX 8 1 9 2 10 3 11 4 12 5 13 6 14 7 15 8 16 9 7 10 6 11 5 12
REMARK SMILES IDX 4 13 3 14 2 15 1 16
REMARK H PARENT
REMARK Flexibility Score: inf
ROOT
ATOM      1  C   UNL     1      43.770  22.518  21.750  1.00  0.00     0.000 C 
ENDROOT
BRANCH   1   2
ATOM      2  C   UNL     1      42.386  22.871  21.177  1.00  0.00     0.000 C 
BRANCH   2   3
ATOM      3  C   UNL     1      42.405  23.601  19.818  1.00  0.00     0.000 C 
BRANCH   3   4
ATOM      4  C   UNL     1      41.093  24.313  19.435  1.00  0.00     0.000 C 
BRANCH   4   5
ATOM      5  C   UNL     1      39.927  23.380  19.053  1.00  0.00     0.006 C 
BRANCH   5   6
ATOM      6  C   UNL     1      39.069  23.900  17.886  1.00  0.00     0.053 C 
BRANCH   6   7
ATOM      7  C   UNL     1      38.490  22.792  17.061  1.00  0.00     0.041 C 
ATOM      8  O   UNL     1      37.358  22.923  16.526  1.00  0.00    -0.550 OA
ATOM      9  O   UNL     1      39.216  21.625  16.852  1.00  0.00    -0.550 OA
ENDBRANCH   6   7
ENDBRANCH   5   6
ENDBRANCH   4   5
ENDBRANCH   3   4
ENDBRANCH   2   3
ENDBRANCH   1   2
BRANCH   1  10
ATOM     10  C   UNL     1      44.224  21.096  21.382  1.00  0.00     0.000 C 
BRANCH  10  11
ATOM     11  C   UNL     1      45.727  21.019  21.068  1.00  0.00    -0.000 C 
BRANCH  11  12
ATOM     12  C   UNL     1      46.443  22.368  21.262  1.00  0.00    -0.000 C 
BRANCH  12  13
ATOM     13  C   UNL     1      47.030  22.920  19.953  1.00  0.00    -0.000 C 
BRANCH  13  14
ATOM     14  C   UNL     1      46.120  23.971  19.295  1.00  0.00    -0.000 C 
BRANCH  14  15
ATOM     15  C   UNL     1      45.986  25.247  20.140  1.00  0.00    -0.003 C 
ATOM     16  C   UNL     1      44.942  26.217  19.589  1.00  0.00     0.004 C 
ENDBRANCH  14  15
ENDBRANCH  13  14
ENDBRANCH  12  13
ENDBRANCH  11  12
ENDBRANCH  10  11
ENDBRANCH   1  10
TORSDOF 12
ENDMDL
MODEL 2
REMARK VINA RESULT:    -4.715     15.099     16.327
REMARK INTER + INTRA:          -9.209
REMARK INTER:                  -8.530
REMARK INTRA:                  -0.679
REMARK UNBOUND:                -1.187
REMARK SMILES CCCCCCCCCCCCCC(=O)[O-]
REMARK SMILES IDX 8 1 9 2 10 3 11 4 12 5 13 6 14 7 15 8 16 9 7 10 6 11 5 12
REMARK SMILES IDX 4 13 3 14 2 15 1 16
REMARK H PARENT
REMARK Flexibility Score: inf
ROOT
ATOM      1  C   UNL     1      47.353  24.754   4.421  1.00  0.00     0.000 C 
ENDROOT
BRANCH   1   2
ATOM      2  C   UNL     1      46.781  25.199   3.064  1.00  0.00     0.000 C 
BRANCH   2   3
ATOM      3  C   UNL     1      45.941  26.493   3.096  1.00  0.00     0.000 C 
BRANCH   3   4
ATOM      4  C   UNL     1      44.433  26.292   3.338  1.00  0.00     0.000 C 
BRANCH   4   5
ATOM      5  C   UNL     1      43.859  27.034   4.561  1.00  0.00     0.006 C 
BRANCH   5   6
ATOM      6  C   UNL     1      44.908  27.362   5.639  1.00  0.00     0.053 C 
BRANCH   6   7
ATOM      7  C   UNL     1      44.709  26.568   6.894  1.00  0.00     0.041 C 
ATOM      8  O   UNL     1      45.690  26.017   7.459  1.00  0.00    -0.550 OA
ATOM      9  O   UNL     1      43.444  26.464   7.461  1.00  0.00    -0.550 OA
ENDBRANCH   6   7
ENDBRANCH   5   6
ENDBRANCH   4   5
ENDBRANCH   3   4
ENDBRANCH   2   3
ENDBRANCH   1   2
BRANCH   1  10
ATOM     10  C   UNL     1      48.378  23.616   4.293  1.00  0.00     0.000 C 
BRANCH  10  11
ATOM     11  C   UNL     1      47.837  22.423   3.489  1.00  0.00    -0.000 C 
BRANCH  11  12
ATOM     12  C   UNL     1      48.721  21.169   3.618  1.00  0.00    -0.000 C 
BRANCH  12  13
ATOM     13  C   UNL     1      47.976  19.980   4.245  1.00  0.00    -0.000 C 
BRANCH  13  14
ATOM     14  C   UNL     1      47.445  18.995   3.190  1.00  0.00    -0.000 C 
BRANCH  14  15
ATOM     15  C   UNL     1      47.669  17.528   3.589  1.00  0.00    -0.003 C 
ATOM     16  C   UNL     1      48.585  17.376   4.803  1.00  0.00     0.004 C 
ENDBRANCH  14  15
ENDBRANCH  13  14
ENDBRANCH  12  13
ENDBRANCH  11  12
ENDBRANCH  10  11
ENDBRANCH   1  10
TORSDOF 12
ENDMDL
MODEL 3
REMARK VINA RESULT:    -4.655      9.734     12.207
REMARK INTER + INTRA:          -9.107
REMARK INTER:                  -7.383
REMARK INTRA:                  -1.724
REMARK UNBOUND:                -1.187
REMARK SMILES CCCCCCCCCCCCCC(=O)[O-]
REMARK SMILES IDX 8 1 9 2 10 3 11 4 12 5 13 6 14 7 15 8 16 9 7 10 6 11 5 12
REMARK SMILES IDX 4 13 3 14 2 15 1 16
REMARK H PARENT
REMARK Flexibility Score: inf
ROOT
ATOM      1  C   UNL     1      46.190  33.698  16.849  1.00  0.00     0.000 C 
ENDROOT
BRANCH   1   2
ATOM      2  C   UNL     1      46.583  34.974  16.084  1.00  0.00     0.000 C 
BRANCH   2   3
ATOM      3  C   UNL     1      46.757  34.801  14.561  1.00  0.00     0.000 C 
BRANCH   3   4
ATOM      4  C   UNL     1      46.377  33.415  14.008  1.00  0.00     0.000 C 
BRANCH   4   5
ATOM      5  C   UNL     1      45.579  33.430  12.689  1.00  0.00     0.006 C 
BRANCH   5   6
ATOM      6  C   UNL     1      45.560  32.077  11.956  1.00  0.00     0.053 C 
BRANCH   6   7
ATOM      7  C   UNL     1      46.629  31.974  10.912  1.00  0.00     0.041 C 
ATOM      8  O   UNL     1      47.207  30.876  10.701  1.00  0.00    -0.550 OA
ATOM      9  O   UNL     1      46.963  33.084  10.145  1.00  0.00    -0.550 OA
ENDBRANCH   6   7
ENDBRANCH   5   6
ENDBRANCH   4   5
ENDBRANCH   3   4
ENDBRANCH   2   3
ENDBRANCH   1   2
BRANCH   1  10
ATOM     10  C   UNL     1      45.009  33.916  17.808  1.00  0.00     0.000 C 
BRANCH  10  11
ATOM     11  C   UNL     1      43.797  33.036  17.461  1.00  0.00    -0.000 C 
BRANCH  11  12
ATOM     12  C   UNL     1      43.202  33.363  16.080  1.00  0.00    -0.000 C 
BRANCH  12  13
ATOM     13  C   UNL     1      43.050  32.118  15.190  1.00  0.00    -0.000 C 
BRANCH  13  14
ATOM     14  C   UNL     1      43.914  30.941  15.671  1.00  0.00    -0.000 C 
BRANCH  14  15
ATOM     15  C   UNL     1      44.133  29.884  14.577  1.00  0.00    -0.003 C 
ATOM     16  C   UNL     1      42.836  29.478  13.878  1.00  0.00     0.004 C 
ENDBRANCH  14  15
ENDBRANCH  13  14
ENDBRANCH  12  13
ENDBRANCH  11  12
ENDBRANCH  10  11
ENDBRANCH   1  10
TORSDOF 12
ENDMDL
MODEL 4
REMARK VINA RESULT:    -4.580      3.408      6.660
REMARK INTER + INTRA:          -8.979
REMARK INTER:                  -7.631
REMARK INTRA:                  -1.348
REMARK UNBOUND:                -1.187
REMARK SMILES CCCCCCCCCCCCCC(=O)[O-]
REMARK SMILES IDX 8 1 9 2 10 3 11 4 12 5 13 6 14 7 15 8 16 9 7 10 6 11 5 12
REMARK SMILES IDX 4 13 3 14 2 15 1 16
REMARK H PARENT
REMARK Flexibility Score: inf
ROOT
ATOM      1  C   UNL     1      42.109  25.925  19.886  1.00  0.00     0.000 C 
ENDROOT
BRANCH   1   2
ATOM      2  C   UNL     1      43.282  26.816  20.330  1.00  0.00     0.000 C 
BRANCH   2   3
ATOM      3  C   UNL     1      44.631  26.520  19.642  1.00  0.00     0.000 C 
BRANCH   3   4
ATOM      4  C   UNL     1      44.992  25.028  19.516  1.00  0.00     0.000 C 
BRANCH   4   5
ATOM      5  C   UNL     1      45.533  24.372  20.803  1.00  0.00     0.006 C 
BRANCH   5   6
ATOM      6  C   UNL     1      44.958  22.971  21.077  1.00  0.00     0.053 C 
BRANCH   6   7
ATOM      7  C   UNL     1      46.018  21.912  21.106  1.00  0.00     0.041 C 
ATOM      8  O   UNL     1      47.207  22.195  20.806  1.00  0.00    -0.550 OA
ATOM      9  O   UNL     1      45.699  20.618  21.501  1.00  0.00    -0.550 OA
ENDBRANCH   6   7
ENDBRANCH   5   6
ENDBRANCH   4   5
ENDBRANCH   3   4
ENDBRANCH   2   3
ENDBRANCH   1   2
BRANCH   1  10
ATOM     10  C   UNL     1      41.635  24.966  20.991  1.00  0.00     0.000 C 
BRANCH  10  11
ATOM     11  C   UNL     1      41.109  23.635  20.430  1.00  0.00    -0.000 C 
BRANCH  11  12
ATOM     12  C   UNL     1      41.825  23.212  19.135  1.00  0.00    -0.000 C 
BRANCH  12  13
ATOM     13  C   UNL     1      40.846  22.873  18.000  1.00  0.00    -0.000 C 
BRANCH  13  14
ATOM     14  C   UNL     1      39.517  23.637  18.120  1.00  0.00    -0.000 C 
BRANCH  14  15
ATOM     15  C   UNL     1      38.510  23.244  17.028  1.00  0.00    -0.003 C 
ATOM     16  C   UNL     1      37.315  22.463  17.576  1.00  0.00     0.004 C 
ENDBRANCH  14  15
ENDBRANCH  13  14
ENDBRANCH  12  13
ENDBRANCH  11  12
ENDBRANCH  10  11
ENDBRANCH   1  10
TORSDOF 12
ENDMDL
MODEL 5
REMARK VINA RESULT:    -4.566      3.542      6.507
REMARK INTER + INTRA:          -8.955
REMARK INTER:                  -7.628
REMARK INTRA:                  -1.327
REMARK UNBOUND:                -1.187
REMARK SMILES CCCCCCCCCCCCCC(=O)[O-]
REMARK SMILES IDX 8 1 9 2 10 3 11 4 12 5 13 6 14 7 15 8 16 9 7 10 6 11 5 12
REMARK SMILES IDX 4 13 3 14 2 15 1 16
REMARK H PARENT
REMARK Flexibility Score: inf
ROOT
ATOM      1  C   UNL     1      43.496  21.021  21.045  1.00  0.00     0.000 C 
ENDROOT
BRANCH   1   2
ATOM      2  C   UNL     1      44.998  20.800  21.294  1.00  0.00     0.000 C 
BRANCH   2   3
ATOM      3  C   UNL     1      45.807  22.074  21.613  1.00  0.00     0.000 C 
BRANCH   3   4
ATOM      4  C   UNL     1      46.743  22.558  20.490  1.00  0.00     0.000 C 
BRANCH   4   5
ATOM      5  C   UNL     1      46.072  23.418  19.400  1.00  0.00     0.006 C 
BRANCH   5   6
ATOM      6  C   UNL     1      45.593  24.793  19.898  1.00  0.00     0.053 C 
BRANCH   6   7
ATOM      7  C   UNL     1      46.486  25.909  19.449  1.00  0.00     0.041 C 
ATOM      8  O   UNL     1      47.598  25.657  18.916  1.00  0.00    -0.550 OA
ATOM      9  O   UNL     1      46.075  27.229  19.587  1.00  0.00    -0.550 OA
ENDBRANCH   6   7
ENDBRANCH   5   6
ENDBRANCH   4   5
ENDBRANCH   3   4
ENDBRANCH   2   3
ENDBRANCH   1   2
BRANCH   1  10
ATOM     10  C   UNL     1      43.021  22.422  21.464  1.00  0.00     0.000 C 
BRANCH  10  11
ATOM     11  C   UNL     1      42.029  23.033  20.461  1.00  0.00    -0.000 C 
BRANCH  11  12
ATOM     12  C   UNL     1      42.418  22.755  18.997  1.00  0.00    -0.000 C 
BRANCH  12  13
ATOM     13  C   UNL     1      41.217  22.832  18.040  1.00  0.00    -0.000 C 
BRANCH  13  14
ATOM     14  C   UNL     1      40.057  23.661  18.615  1.00  0.00    -0.000 C 
BRANCH  14  15
ATOM     15  C   UNL     1      38.793  23.590  17.744  1.00  0.00    -0.003 C 
ATOM     16  C   UNL     1      38.448  22.165  17.314  1.00  0.00     0.004 C 
ENDBRANCH  14  15
ENDBRANCH  13  14
ENDBRANCH  12  13
ENDBRANCH  11  12
ENDBRANCH  10  11
ENDBRANCH   1  10
TORSDOF 12
ENDMDL
MODEL 6
REMARK VINA RESULT:    -4.456      9.910     12.316
REMARK INTER + INTRA:          -8.768
REMARK INTER:                  -7.130
REMARK INTRA:                  -1.638
REMARK UNBOUND:                -1.187
REMARK SMILES CCCCCCCCCCCCCC(=O)[O-]
REMARK SMILES IDX 8 1 9 2 10 3 11 4 12 5 13 6 14 7 15 8 16 9 7 10 6 11 5 12
REMARK SMILES IDX 4 13 3 14 2 15 1 16
REMARK H PARENT
REMARK Flexibility Score: inf
ROOT
ATOM      1  C   UNL     1      46.415  32.430  13.409  1.00  0.00     0.000 C 
ENDROOT
BRANCH   1   2
ATOM      2  C   UNL     1      45.810  33.673  14.084  1.00  0.00     0.000 C 
BRANCH   2   3
ATOM      3  C   UNL     1      45.307  33.460  15.527  1.00  0.00     0.000 C 
BRANCH   3   4
ATOM      4  C   UNL     1      43.786  33.271  15.672  1.00  0.00     0.000 C 
BRANCH   4   5
ATOM      5  C   UNL     1      43.346  31.929  16.292  1.00  0.00     0.006 C 
BRANCH   5   6
ATOM      6  C   UNL     1      44.224  30.734  15.878  1.00  0.00     0.053 C 
BRANCH   6   7
ATOM      7  C   UNL     1      43.739  30.074  14.624  1.00  0.00     0.041 C 
ATOM      8  O   UNL     1      42.599  30.344  14.163  1.00  0.00    -0.550 OA
ATOM      9  O   UNL     1      44.561  29.185  13.941  1.00  0.00    -0.550 OA
ENDBRANCH   6   7
ENDBRANCH   5   6
ENDBRANCH   4   5
ENDBRANCH   3   4
ENDBRANCH   2   3
ENDBRANCH   1   2
BRANCH   1  10
ATOM     10  C   UNL     1      45.635  31.990  12.160  1.00  0.00     0.000 C 
BRANCH  10  11
ATOM     11  C   UNL     1      46.429  32.208  10.861  1.00  0.00    -0.000 C 
BRANCH  11  12
ATOM     12  C   UNL     1      47.853  32.736  11.118  1.00  0.00    -0.000 C 
BRANCH  12  13
ATOM     13  C   UNL     1      48.055  34.169  10.601  1.00  0.00    -0.000 C 
BRANCH  13  14
ATOM     14  C   UNL     1      48.350  35.168  11.732  1.00  0.00    -0.000 C 
BRANCH  14  15
ATOM     15  C   UNL     1      47.241  36.221  11.892  1.00  0.00    -0.003 C 
ATOM     16  C   UNL     1      46.011  35.922  11.036  1.00  0.00     0.004 C 
ENDBRANCH  14  15
ENDBRANCH  13  14
ENDBRANCH  12  13
ENDBRANCH  11  12
ENDBRANCH  10  11
ENDBRANCH   1  10
TORSDOF 12
ENDMDL
MODEL 7
REMARK VINA RESULT:    -4.433      1.334      2.508
REMARK INTER + INTRA:          -8.730
REMARK INTER:                  -7.405
REMARK INTRA:                  -1.325
REMARK UNBOUND:                -1.187
REMARK SMILES CCCCCCCCCCCCCC(=O)[O-]
REMARK SMILES IDX 8 1 9 2 10 3 11 4 12 5 13 6 14 7 15 8 16 9 7 10 6 11 5 12
REMARK SMILES IDX 4 13 3 14 2 15 1 16
REMARK H PARENT
REMARK Flexibility Score: inf
ROOT
ATOM      1  C   UNL     1      45.901  21.352  21.027  1.00  0.00     0.000 C 
ENDROOT
BRANCH   1   2
ATOM      2  C   UNL     1      44.715  20.574  21.623  1.00  0.00     0.000 C 
BRANCH   2   3
ATOM      3  C   UNL     1      43.322  21.019  21.131  1.00  0.00     0.000 C 
BRANCH   3   4
ATOM      4  C   UNL     1      43.137  22.539  20.963  1.00  0.00     0.000 C 
BRANCH   4   5
ATOM      5  C   UNL     1      42.518  22.981  19.622  1.00  0.00     0.006 C 
BRANCH   5   6
ATOM      6  C   UNL     1      41.138  23.648  19.762  1.00  0.00     0.053 C 
BRANCH   6   7
ATOM      7  C   UNL     1      40.324  23.551  18.508  1.00  0.00     0.041 C 
ATOM      8  O   UNL     1      39.354  24.331  18.319  1.00  0.00    -0.550 OA
ATOM      9  O   UNL     1      40.657  22.622  17.530  1.00  0.00    -0.550 OA
ENDBRANCH   6   7
ENDBRANCH   5   6
ENDBRANCH   4   5
ENDBRANCH   3   4
ENDBRANCH   2   3
ENDBRANCH   1   2
BRANCH   1  10
ATOM     10  C   UNL     1      46.667  22.171  22.078  1.00  0.00     0.000 C 
BRANCH  10  11
ATOM     11  C   UNL     1      47.375  23.394  21.472  1.00  0.00    -0.000 C 
BRANCH  11  12
ATOM     12  C   UNL     1      47.269  23.441  19.937  1.00  0.00    -0.000 C 
BRANCH  12  13
ATOM     13  C   UNL     1      46.921  24.842  19.409  1.00  0.00    -0.000 C 
BRANCH  13  14
ATOM     14  C   UNL     1      45.404  25.076  19.312  1.00  0.00    -0.000 C 
BRANCH  14  15
ATOM     15  C   UNL     1      44.967  26.394  19.972  1.00  0.00    -0.003 C 
ATOM     16  C   UNL     1      43.492  26.398  20.368  1.00  0.00     0.004 C 
ENDBRANCH  14  15
ENDBRANCH  13  14
ENDBRANCH  12  13
ENDBRANCH  11  12
ENDBRANCH  10  11
ENDBRANCH   1  10
TORSDOF 12
ENDMDL
MODEL 8
REMARK VINA RESULT:    -4.413      8.878     11.669
REMARK INTER + INTRA:          -8.696
REMARK INTER:                  -6.647
REMARK INTRA:                  -2.049
REMARK UNBOUND:                -1.187
REMARK SMILES CCCCCCCCCCCCCC(=O)[O-]
REMARK SMILES IDX 8 1 9 2 10 3 11 4 12 5 13 6 14 7 15 8 16 9 7 10 6 11 5 12
REMARK SMILES IDX 4 13 3 14 2 15 1 16
REMARK H PARENT
REMARK Flexibility Score: inf
ROOT
ATOM      1  C   UNL     1      44.442  33.255  17.088  1.00  0.00     0.000 C 
ENDROOT
BRANCH   1   2
ATOM      2  C   UNL     1      45.946  33.451  16.830  1.00  0.00     0.000 C 
BRANCH   2   3
ATOM      3  C   UNL     1      46.335  34.804  16.199  1.00  0.00     0.000 C 
BRANCH   3   4
ATOM      4  C   UNL     1      46.870  34.729  14.757  1.00  0.00     0.000 C 
BRANCH   4   5
ATOM      5  C   UNL     1      46.737  33.351  14.078  1.00  0.00     0.006 C 
BRANCH   5   6
ATOM      6  C   UNL     1      45.890  33.367  12.793  1.00  0.00     0.053 C 
BRANCH   6   7
ATOM      7  C   UNL     1      46.225  32.235  11.870  1.00  0.00     0.041 C 
ATOM      8  O   UNL     1      47.425  31.982  11.586  1.00  0.00    -0.550 OA
ATOM      9  O   UNL     1      45.213  31.436  11.352  1.00  0.00    -0.550 OA
ENDBRANCH   6   7
ENDBRANCH   5   6
ENDBRANCH   4   5
ENDBRANCH   3   4
ENDBRANCH   2   3
ENDBRANCH   1   2
BRANCH   1  10
ATOM     10  C   UNL     1      43.591  33.422  15.819  1.00  0.00     0.000 C 
BRANCH  10  11
ATOM     11  C   UNL     1      42.680  32.212  15.556  1.00  0.00    -0.000 C 
BRANCH  11  12
ATOM     12  C   UNL     1      43.086  31.425  14.297  1.00  0.00    -0.000 C 
BRANCH  12  13
ATOM     13  C   UNL     1      43.555  29.997  14.617  1.00  0.00    -0.000 C 
BRANCH  13  14
ATOM     14  C   UNL     1      45.065  29.808  14.395  1.00  0.00    -0.000 C 
BRANCH  14  15
ATOM     15  C   UNL     1      45.879  30.007  15.683  1.00  0.00    -0.003 C 
ATOM     16  C   UNL     1      45.097  29.635  16.942  1.00  0.00     0.004 C 
ENDBRANCH  14  15
ENDBRANCH  13  14
ENDBRANCH  12  13
ENDBRANCH  11  12
ENDBRANCH  10  11
ENDBRANCH   1  10
TORSDOF 12
ENDMDL
MODEL 9
REMARK VINA RESULT:    -4.356      9.498     11.269
REMARK INTER + INTRA:          -8.599
REMARK INTER:                  -6.502
REMARK INTRA:                  -2.097
REMARK UNBOUND:                -1.187
REMARK SMILES CCCCCCCCCCCCCC(=O)[O-]
REMARK SMILES IDX 8 1 9 2 10 3 11 4 12 5 13 6 14 7 15 8 16 9 7 10 6 11 5 12
REMARK SMILES IDX 4 13 3 14 2 15 1 16
REMARK H PARENT
REMARK Flexibility Score: inf
ROOT
ATOM      1  C   UNL     1      46.216  30.282  16.452  1.00  0.00     0.000 C 
ENDROOT
BRANCH   1   2
ATOM      2  C   UNL     1      44.790  29.999  15.947  1.00  0.00     0.000 C 
BRANCH   2   3
ATOM      3  C   UNL     1      44.685  29.607  14.459  1.00  0.00     0.000 C 
BRANCH   3   4
ATOM      4  C   UNL     1      43.671  30.422  13.634  1.00  0.00     0.000 C 
BRANCH   4   5
ATOM      5  C   UNL     1      44.249  31.658  12.917  1.00  0.00     0.006 C 
BRANCH   5   6
ATOM      6  C   UNL     1      45.438  31.343  11.992  1.00  0.00     0.053 C 
BRANCH   6   7
ATOM      7  C   UNL     1      46.143  32.578  11.521  1.00  0.00     0.041 C 
ATOM      8  O   UNL     1      46.052  33.649  12.176  1.00  0.00    -0.550 OA
ATOM      9  O   UNL     1      46.930  32.539  10.377  1.00  0.00    -0.550 OA
ENDBRANCH   6   7
ENDBRANCH   5   6
ENDBRANCH   4   5
ENDBRANCH   3   4
ENDBRANCH   2   3
ENDBRANCH   1   2
BRANCH   1  10
ATOM     10  C   UNL     1      47.160  30.761  15.337  1.00  0.00     0.000 C 
BRANCH  10  11
ATOM     11  C   UNL     1      47.344  32.287  15.335  1.00  0.00    -0.000 C 
BRANCH  11  12
ATOM     12  C   UNL     1      47.061  32.921  16.709  1.00  0.00    -0.000 C 
BRANCH  12  13
ATOM     13  C   UNL     1      46.057  34.083  16.629  1.00  0.00    -0.000 C 
BRANCH  13  14
ATOM     14  C   UNL     1      44.836  33.748  15.757  1.00  0.00    -0.000 C 
BRANCH  14  15
ATOM     15  C   UNL     1      43.604  33.362  16.590  1.00  0.00    -0.003 C 
ATOM     16  C   UNL     1      42.331  33.255  15.751  1.00  0.00     0.004 C 
ENDBRANCH  14  15
ENDBRANCH  13  14
ENDBRANCH  12  13
ENDBRANCH  11  12
ENDBRANCH  10  11
ENDBRANCH   1  10
TORSDOF 12
ENDMDL
