MODEL 1
REMARK VINA RESULT:    -4.746      0.000      0.000
REMARK INTER + INTRA:          -6.568
REMARK INTER:                  -6.134
REMARK INTRA:                  -0.434
REMARK UNBOUND:                -0.434
REMARK SMILES CCO[C@@H]1O[C@@H](CO)[C@@H](O)[C@@H](O)[C@@H]1O
REMARK SMILES IDX 4 1 13 2 11 3 9 4 6 5 5 6 3 7 2 8 1 9 14 10 12 12 7 14 8 15
REMARK SMILES IDX 10 17
REMARK H PARENT 14 11 12 13 8 16 10 18
REMARK Flexibility Score: inf
ROOT
ATOM      1  C   UNL     1      21.263   4.015  42.276  1.00  0.00     0.281 C 
ATOM      2  C   UNL     1      21.610   5.112  43.307  1.00  0.00     0.202 C 
ATOM      3  C   UNL     1      23.126   5.380  43.331  1.00  0.00     0.179 C 
ATOM      4  C   UNL     1      23.668   5.584  41.904  1.00  0.00     0.177 C 
ATOM      5  C   UNL     1      23.183   4.435  40.986  1.00  0.00     0.178 C 
ATOM      6  O   UNL     1      21.766   4.348  40.989  1.00  0.00    -0.341 OA
ENDROOT
BRANCH   1   7
ATOM      7  O   UNL     1      21.764   2.757  42.717  1.00  0.00    -0.350 OA
BRANCH   7   8
ATOM      8  C   UNL     1      20.838   1.708  42.493  1.00  0.00     0.160 C 
ATOM      9  C   UNL     1      21.323   0.752  41.404  1.00  0.00     0.035 C 
ENDBRANCH   7   8
ENDBRANCH   1   7
BRANCH   2  10
ATOM     10  O   UNL     1      21.187   4.720  44.589  1.00  0.00    -0.385 OA
ATOM     11  H   UNL     1      20.649   5.469  44.955  1.00  0.00     0.211 HD
ENDBRANCH   2  10
BRANCH   3  12
ATOM     12  O   UNL     1      23.410   6.515  44.107  1.00  0.00    -0.387 OA
ATOM     13  H   UNL     1      22.768   7.221  43.831  1.00  0.00     0.211 HD
ENDBRANCH   3  12
BRANCH   5  14
ATOM     14  C   UNL     1      23.672   4.638  39.544  1.00  0.00     0.191 C 
BRANCH  14  15
ATOM     15  O   UNL     1      22.881   5.596  38.892  1.00  0.00    -0.394 OA
ATOM     16  H   UNL     1      23.470   6.372  38.703  1.00  0.00     0.210 HD
ENDBRANCH  14  15
ENDBRANCH   5  14
BRANCH   4  17
ATOM     17  O   UNL     1      23.315   6.851  41.398  1.00  0.00    -0.387 OA
ATOM     18  H   UNL     1      23.246   7.481  42.160  1.00  0.00     0.211 HD
ENDBRANCH   4  17
TORSDOF 7
ENDMDL
MODEL 2
REMARK VINA RESULT:    -4.586      2.420      4.449
REMARK INTER + INTRA:          -6.360
REMARK INTER:                  -5.985
REMARK INTRA:                  -0.376
REMARK UNBOUND:                -0.434
REMARK SMILES CCO[C@@H]1O[C@@H](CO)[C@@H](O)[C@@H](O)[C@@H]1O
REMARK SMILES IDX 4 1 13 2 11 3 9 4 6 5 5 6 3 7 2 8 1 9 14 10 12 12 7 14 8 15
REMARK SMILES IDX 10 17
REMARK H PARENT 14 11 12 13 8 16 10 18
REMARK Flexibility Score: inf
ROOT
ATOM      1  C   UNL     1      22.285   3.866  39.968  1.00  0.00     0.281 C 
ATOM      2  C   UNL     1      21.232   4.395  38.969  1.00  0.00     0.202 C 
ATOM      3  C   UNL     1      21.861   5.413  38.000  1.00  0.00     0.179 C 
ATOM      4  C   UNL     1      23.163   4.858  37.393  1.00  0.00     0.177 C 
ATOM      5  C   UNL     1      24.079   4.315  38.517  1.00  0.00     0.178 C 
ATOM      6  O   UNL     1      23.409   3.327  39.285  1.00  0.00    -0.341 OA
ENDROOT
BRANCH   1   7
ATOM      7  O   UNL     1      22.673   4.904  40.862  1.00  0.00    -0.350 OA
BRANCH   7   8
ATOM      8  C   UNL     1      22.616   4.488  42.216  1.00  0.00     0.160 C 
ATOM      9  C   UNL     1      23.029   5.610  43.167  1.00  0.00     0.035 C 
ENDBRANCH   7   8
ENDBRANCH   1   7
BRANCH   2  10
ATOM     10  O   UNL     1      20.175   5.007  39.664  1.00  0.00    -0.385 OA
ATOM     11  H   UNL     1      19.490   4.306  39.820  1.00  0.00     0.211 HD
ENDBRANCH   2  10
BRANCH   3  12
ATOM     12  O   UNL     1      20.960   5.727  36.969  1.00  0.00    -0.387 OA
ATOM     13  H   UNL     1      21.407   5.491  36.114  1.00  0.00     0.211 HD
ENDBRANCH   3  12
BRANCH   5  14
ATOM     14  C   UNL     1      25.367   3.713  37.935  1.00  0.00     0.191 C 
BRANCH  14  15
ATOM     15  O   UNL     1      25.828   4.490  36.862  1.00  0.00    -0.394 OA
ATOM     16  H   UNL     1      26.814   4.383  36.834  1.00  0.00     0.210 HD
ENDBRANCH  14  15
ENDBRANCH   5  14
BRANCH   4  17
ATOM     17  O   UNL     1      22.895   3.883  36.411  1.00  0.00    -0.387 OA
ATOM     18  H   UNL     1      22.035   4.111  35.973  1.00  0.00     0.211 HD
ENDBRANCH   4  17
TORSDOF 7
ENDMDL
MODEL 3
REMARK VINA RESULT:    -4.584      2.435      4.780
REMARK INTER + INTRA:          -6.359
REMARK INTER:                  -5.987
REMARK INTRA:                  -0.371
REMARK UNBOUND:                -0.434
REMARK SMILES CCO[C@@H]1O[C@@H](CO)[C@@H](O)[C@@H](O)[C@@H]1O
REMARK SMILES IDX 4 1 13 2 11 3 9 4 6 5 5 6 3 7 2 8 1 9 14 10 12 12 7 14 8 15
REMARK SMILES IDX 10 17
REMARK H PARENT 14 11 12 13 8 16 10 18
REMARK Flexibility Score: inf
ROOT
ATOM      1  C   UNL     1      23.489   3.943  40.194  1.00  0.00     0.281 C 
ATOM      2  C   UNL     1      22.414   4.949  39.725  1.00  0.00     0.202 C 
ATOM      3  C   UNL     1      21.130   4.216  39.296  1.00  0.00     0.179 C 
ATOM      4  C   UNL     1      20.696   3.201  40.369  1.00  0.00     0.177 C 
ATOM      5  C   UNL     1      21.898   2.311  40.770  1.00  0.00     0.178 C 
ATOM      6  O   UNL     1      22.986   3.103  41.224  1.00  0.00    -0.341 OA
ENDROOT
BRANCH   1   7
ATOM      7  O   UNL     1      23.957   3.180  39.087  1.00  0.00    -0.350 OA
BRANCH   7   8
ATOM      8  C   UNL     1      25.338   3.384  38.846  1.00  0.00     0.160 C 
ATOM      9  C   UNL     1      25.604   3.786  37.396  1.00  0.00     0.035 C 
ENDBRANCH   7   8
ENDBRANCH   1   7
BRANCH   2  10
ATOM     10  O   UNL     1      22.901   5.705  38.645  1.00  0.00    -0.385 OA
ATOM     11  H   UNL     1      22.362   5.451  37.851  1.00  0.00     0.211 HD
ENDBRANCH   2  10
BRANCH   3  12
ATOM     12  O   UNL     1      20.093   5.137  39.076  1.00  0.00    -0.387 OA
ATOM     13  H   UNL     1      19.899   5.568  39.950  1.00  0.00     0.211 HD
ENDBRANCH   3  12
BRANCH   5  14
ATOM     14  C   UNL     1      21.504   1.317  41.873  1.00  0.00     0.191 C 
BRANCH  14  15
ATOM     15  O   UNL     1      21.807   1.846  43.137  1.00  0.00    -0.394 OA
ATOM     16  H   UNL     1      21.504   2.792  43.131  1.00  0.00     0.210 HD
ENDBRANCH  14  15
ENDBRANCH   5  14
BRANCH   4  17
ATOM     17  O   UNL     1      20.119   3.844  41.481  1.00  0.00    -0.387 OA
ATOM     18  H   UNL     1      20.438   3.390  42.303  1.00  0.00     0.211 HD
ENDBRANCH   4  17
TORSDOF 7
ENDMDL
MODEL 4
REMARK VINA RESULT:    -4.556      1.489      3.340
REMARK INTER + INTRA:          -6.322
REMARK INTER:                  -5.905
REMARK INTRA:                  -0.417
REMARK UNBOUND:                -0.434
REMARK SMILES CCO[C@@H]1O[C@@H](CO)[C@@H](O)[C@@H](O)[C@@H]1O
REMARK SMILES IDX 4 1 13 2 11 3 9 4 6 5 5 6 3 7 2 8 1 9 14 10 12 12 7 14 8 15
REMARK SMILES IDX 10 17
REMARK H PARENT 14 11 12 13 8 16 10 18
REMARK Flexibility Score: inf
ROOT
ATOM      1  C   UNL     1      22.088   3.521  40.468  1.00  0.00     0.281 C 
ATOM      2  C   UNL     1      21.207   3.027  41.638  1.00  0.00     0.202 C 
ATOM      3  C   UNL     1      21.904   3.272  42.988  1.00  0.00     0.179 C 
ATOM      4  C   UNL     1      22.421   4.719  43.083  1.00  0.00     0.177 C 
ATOM      5  C   UNL     1      23.231   5.075  41.812  1.00  0.00     0.178 C 
ATOM      6  O   UNL     1      22.448   4.885  40.643  1.00  0.00    -0.341 OA
ENDROOT
BRANCH   1   7
ATOM      7  O   UNL     1      23.240   2.694  40.344  1.00  0.00    -0.350 OA
BRANCH   7   8
ATOM      8  C   UNL     1      23.754   2.694  39.024  1.00  0.00     0.160 C 
ATOM      9  C   UNL     1      25.093   3.424  38.940  1.00  0.00     0.035 C 
ENDBRANCH   7   8
ENDBRANCH   1   7
BRANCH   2  10
ATOM     10  O   UNL     1      20.941   1.655  41.493  1.00  0.00    -0.385 OA
ATOM     11  H   UNL     1      20.188   1.575  40.852  1.00  0.00     0.211 HD
ENDBRANCH   2  10
BRANCH   3  12
ATOM     12  O   UNL     1      21.019   3.020  44.049  1.00  0.00    -0.387 OA
ATOM     13  H   UNL     1      21.508   2.458  44.706  1.00  0.00     0.211 HD
ENDBRANCH   3  12
BRANCH   5  14
ATOM     14  C   UNL     1      23.719   6.530  41.860  1.00  0.00     0.191 C 
BRANCH  14  15
ATOM     15  O   UNL     1      23.923   6.933  43.188  1.00  0.00    -0.394 OA
ATOM     16  H   UNL     1      24.340   7.834  43.153  1.00  0.00     0.210 HD
ENDBRANCH  14  15
ENDBRANCH   5  14
BRANCH   4  17
ATOM     17  O   UNL     1      21.366   5.626  43.310  1.00  0.00    -0.387 OA
ATOM     18  H   UNL     1      21.631   6.509  42.944  1.00  0.00     0.211 HD
ENDBRANCH   4  17
TORSDOF 7
ENDMDL
MODEL 5
REMARK VINA RESULT:    -4.458      1.508      4.044
REMARK INTER + INTRA:          -6.196
REMARK INTER:                  -5.863
REMARK INTRA:                  -0.332
REMARK UNBOUND:                -0.434
REMARK SMILES CCO[C@@H]1O[C@@H](CO)[C@@H](O)[C@@H](O)[C@@H]1O
REMARK SMILES IDX 4 1 13 2 11 3 9 4 6 5 5 6 3 7 2 8 1 9 14 10 12 12 7 14 8 15
REMARK SMILES IDX 10 17
REMARK H PARENT 14 11 12 13 8 16 10 18
REMARK Flexibility Score: inf
ROOT
ATOM      1  C   UNL     1      23.252   4.295  40.591  1.00  0.00     0.281 C 
ATOM      2  C   UNL     1      22.992   4.917  41.981  1.00  0.00     0.202 C 
ATOM      3  C   UNL     1      21.642   4.442  42.548  1.00  0.00     0.179 C 
ATOM      4  C   UNL     1      21.515   2.911  42.448  1.00  0.00     0.177 C 
ATOM      5  C   UNL     1      21.864   2.445  41.013  1.00  0.00     0.178 C 
ATOM      6  O   UNL     1      23.165   2.877  40.643  1.00  0.00    -0.341 OA
ENDROOT
BRANCH   1   7
ATOM      7  O   UNL     1      22.342   4.835  39.639  1.00  0.00    -0.350 OA
BRANCH   7   8
ATOM      8  C   UNL     1      22.991   5.217  38.439  1.00  0.00     0.160 C 
ATOM      9  C   UNL     1      21.988   5.587  37.348  1.00  0.00     0.035 C 
ENDBRANCH   7   8
ENDBRANCH   1   7
BRANCH   2  10
ATOM     10  O   UNL     1      22.990   6.319  41.888  1.00  0.00    -0.385 OA
ATOM     11  H   UNL     1      23.936   6.613  41.958  1.00  0.00     0.211 HD
ENDBRANCH   2  10
BRANCH   3  12
ATOM     12  O   UNL     1      21.510   4.836  43.890  1.00  0.00    -0.387 OA
ATOM     13  H   UNL     1      20.570   4.650  44.154  1.00  0.00     0.211 HD
ENDBRANCH   3  12
BRANCH   5  14
ATOM     14  C   UNL     1      21.790   0.916  40.897  1.00  0.00     0.191 C 
BRANCH  14  15
ATOM     15  O   UNL     1      21.058   0.380  41.967  1.00  0.00    -0.394 OA
ATOM     16  H   UNL     1      21.285  -0.585  42.014  1.00  0.00     0.210 HD
ENDBRANCH  14  15
ENDBRANCH   5  14
BRANCH   4  17
ATOM     17  O   UNL     1      22.304   2.266  43.421  1.00  0.00    -0.387 OA
ATOM     18  H   UNL     1      22.745   2.961  43.974  1.00  0.00     0.211 HD
ENDBRANCH   4  17
TORSDOF 7
ENDMDL
MODEL 6
REMARK VINA RESULT:    -4.449     12.400     13.468
REMARK INTER + INTRA:          -6.184
REMARK INTER:                  -5.699
REMARK INTRA:                  -0.485
REMARK UNBOUND:                -0.434
REMARK SMILES CCO[C@@H]1O[C@@H](CO)[C@@H](O)[C@@H](O)[C@@H]1O
REMARK SMILES IDX 4 1 13 2 11 3 9 4 6 5 5 6 3 7 2 8 1 9 14 10 12 12 7 14 8 15
REMARK SMILES IDX 10 17
REMARK H PARENT 14 11 12 13 8 16 10 18
REMARK Flexibility Score: inf
ROOT
ATOM      1  C   UNL     1      34.473   3.797  42.988  1.00  0.00     0.281 C 
ATOM      2  C   UNL     1      34.614   3.252  44.428  1.00  0.00     0.202 C 
ATOM      3  C   UNL     1      36.064   2.816  44.707  1.00  0.00     0.179 C 
ATOM      4  C   UNL     1      37.057   3.916  44.291  1.00  0.00     0.177 C 
ATOM      5  C   UNL     1      36.743   4.392  42.851  1.00  0.00     0.178 C 
ATOM      6  O   UNL     1      35.402   4.846  42.747  1.00  0.00    -0.341 OA
ENDROOT
BRANCH   1   7
ATOM      7  O   UNL     1      34.634   2.738  42.050  1.00  0.00    -0.350 OA
BRANCH   7   8
ATOM      8  C   UNL     1      33.726   2.845  40.968  1.00  0.00     0.160 C 
ATOM      9  C   UNL     1      32.408   3.486  41.399  1.00  0.00     0.035 C 
ENDBRANCH   7   8
ENDBRANCH   1   7
BRANCH   2  10
ATOM     10  O   UNL     1      33.754   2.156  44.614  1.00  0.00    -0.385 OA
ATOM     11  H   UNL     1      33.154   2.388  45.371  1.00  0.00     0.211 HD
ENDBRANCH   2  10
BRANCH   3  12
ATOM     12  O   UNL     1      36.232   2.524  46.071  1.00  0.00    -0.387 OA
ATOM     13  H   UNL     1      37.103   2.055  46.160  1.00  0.00     0.211 HD
ENDBRANCH   3  12
BRANCH   5  14
ATOM     14  C   UNL     1      37.691   5.524  42.426  1.00  0.00     0.191 C 
BRANCH  14  15
ATOM     15  O   UNL     1      37.220   6.758  42.900  1.00  0.00    -0.394 OA
ATOM     16  H   UNL     1      37.615   6.887  43.801  1.00  0.00     0.210 HD
ENDBRANCH  14  15
ENDBRANCH   5  14
BRANCH   4  17
ATOM     17  O   UNL     1      37.057   4.982  45.212  1.00  0.00    -0.387 OA
ATOM     18  H   UNL     1      37.654   5.693  44.865  1.00  0.00     0.211 HD
ENDBRANCH   4  17
TORSDOF 7
ENDMDL
MODEL 7
REMARK VINA RESULT:    -4.400     12.505     13.727
REMARK INTER + INTRA:          -6.120
REMARK INTER:                  -5.693
REMARK INTRA:                  -0.426
REMARK UNBOUND:                -0.434
REMARK SMILES CCO[C@@H]1O[C@@H](CO)[C@@H](O)[C@@H](O)[C@@H]1O
REMARK SMILES IDX 4 1 13 2 11 3 9 4 6 5 5 6 3 7 2 8 1 9 14 10 12 12 7 14 8 15
REMARK SMILES IDX 10 17
REMARK H PARENT 14 11 12 13 8 16 10 18
REMARK Flexibility Score: inf
ROOT
ATOM      1  C   UNL     1      35.189   3.317  42.522  1.00  0.00     0.281 C 
ATOM      2  C   UNL     1      35.754   4.755  42.557  1.00  0.00     0.202 C 
ATOM      3  C   UNL     1      35.901   5.249  44.008  1.00  0.00     0.179 C 
ATOM      4  C   UNL     1      36.633   4.204  44.870  1.00  0.00     0.177 C 
ATOM      5  C   UNL     1      35.983   2.812  44.676  1.00  0.00     0.178 C 
ATOM      6  O   UNL     1      35.984   2.438  43.307  1.00  0.00    -0.341 OA
ENDROOT
BRANCH   1   7
ATOM      7  O   UNL     1      33.834   3.316  42.958  1.00  0.00    -0.350 OA
BRANCH   7   8
ATOM      8  C   UNL     1      32.983   2.641  42.049  1.00  0.00     0.160 C 
ATOM      9  C   UNL     1      31.970   3.591  41.412  1.00  0.00     0.035 C 
ENDBRANCH   7   8
ENDBRANCH   1   7
BRANCH   2  10
ATOM     10  O   UNL     1      34.902   5.624  41.854  1.00  0.00    -0.385 OA
ATOM     11  H   UNL     1      35.428   5.990  41.096  1.00  0.00     0.211 HD
ENDBRANCH   2  10
BRANCH   3  12
ATOM     12  O   UNL     1      36.608   6.462  44.042  1.00  0.00    -0.387 OA
ATOM     13  H   UNL     1      35.932   7.190  44.017  1.00  0.00     0.211 HD
ENDBRANCH   3  12
BRANCH   5  14
ATOM     14  C   UNL     1      36.723   1.740  45.491  1.00  0.00     0.191 C 
BRANCH  14  15
ATOM     15  O   UNL     1      37.094   2.250  46.744  1.00  0.00    -0.394 OA
ATOM     16  H   UNL     1      36.587   1.733  47.424  1.00  0.00     0.210 HD
ENDBRANCH  14  15
ENDBRANCH   5  14
BRANCH   4  17
ATOM     17  O   UNL     1      38.014   4.187  44.593  1.00  0.00    -0.387 OA
ATOM     18  H   UNL     1      38.133   4.181  43.609  1.00  0.00     0.211 HD
ENDBRANCH   4  17
TORSDOF 7
ENDMDL
MODEL 8
REMARK VINA RESULT:    -4.288      3.348      5.976
REMARK INTER + INTRA:          -5.975
REMARK INTER:                  -5.507
REMARK INTRA:                  -0.468
REMARK UNBOUND:                -0.434
REMARK SMILES CCO[C@@H]1O[C@@H](CO)[C@@H](O)[C@@H](O)[C@@H]1O
REMARK SMILES IDX 4 1 13 2 11 3 9 4 6 5 5 6 3 7 2 8 1 9 14 10 12 12 7 14 8 15
REMARK SMILES IDX 10 17
REMARK H PARENT 14 11 12 13 8 16 10 18
REMARK Flexibility Score: inf
ROOT
ATOM      1  C   UNL     1      23.230   5.036  38.245  1.00  0.00     0.281 C 
ATOM      2  C   UNL     1      24.131   4.499  37.110  1.00  0.00     0.202 C 
ATOM      3  C   UNL     1      23.365   3.488  36.237  1.00  0.00     0.179 C 
ATOM      4  C   UNL     1      21.997   4.055  35.815  1.00  0.00     0.177 C 
ATOM      5  C   UNL     1      21.249   4.604  37.055  1.00  0.00     0.178 C 
ATOM      6  O   UNL     1      22.027   5.585  37.723  1.00  0.00    -0.341 OA
ENDROOT
BRANCH   1   7
ATOM      7  O   UNL     1      22.960   4.000  39.184  1.00  0.00    -0.350 OA
BRANCH   7   8
ATOM      8  C   UNL     1      22.753   4.508  40.490  1.00  0.00     0.160 C 
ATOM      9  C   UNL     1      23.751   5.614  40.830  1.00  0.00     0.035 C 
ENDBRANCH   7   8
ENDBRANCH   1   7
BRANCH   2  10
ATOM     10  O   UNL     1      25.269   3.878  37.653  1.00  0.00    -0.385 OA
ATOM     11  H   UNL     1      26.050   4.428  37.386  1.00  0.00     0.211 HD
ENDBRANCH   2  10
BRANCH   3  12
ATOM     12  O   UNL     1      24.113   3.167  35.092  1.00  0.00    -0.387 OA
ATOM     13  H   UNL     1      25.029   3.524  35.236  1.00  0.00     0.211 HD
ENDBRANCH   3  12
BRANCH   5  14
ATOM     14  C   UNL     1      19.899   5.217  36.656  1.00  0.00     0.191 C 
BRANCH  14  15
ATOM     15  O   UNL     1      20.061   6.565  36.302  1.00  0.00    -0.394 OA
ATOM     16  H   UNL     1      20.516   6.577  35.420  1.00  0.00     0.210 HD
ENDBRANCH  14  15
ENDBRANCH   5  14
BRANCH   4  17
ATOM     17  O   UNL     1      22.135   5.028  34.806  1.00  0.00    -0.387 OA
ATOM     18  H   UNL     1      21.778   5.886  35.151  1.00  0.00     0.211 HD
ENDBRANCH   4  17
TORSDOF 7
ENDMDL
MODEL 9
REMARK VINA RESULT:    -4.254     14.808     16.296
REMARK INTER + INTRA:          -5.932
REMARK INTER:                  -5.467
REMARK INTRA:                  -0.465
REMARK UNBOUND:                -0.434
REMARK SMILES CCO[C@@H]1O[C@@H](CO)[C@@H](O)[C@@H](O)[C@@H]1O
REMARK SMILES IDX 4 1 13 2 11 3 9 4 6 5 5 6 3 7 2 8 1 9 14 10 12 12 7 14 8 15
REMARK SMILES IDX 10 17
REMARK H PARENT 14 11 12 13 8 16 10 18
REMARK Flexibility Score: inf
ROOT
ATOM      1  C   UNL     1      38.542   4.720  43.989  1.00  0.00     0.281 C 
ATOM      2  C   UNL     1      37.099   5.050  44.434  1.00  0.00     0.202 C 
ATOM      3  C   UNL     1      36.182   3.825  44.270  1.00  0.00     0.179 C 
ATOM      4  C   UNL     1      36.823   2.574  44.899  1.00  0.00     0.177 C 
ATOM      5  C   UNL     1      38.280   2.419  44.398  1.00  0.00     0.178 C 
ATOM      6  O   UNL     1      39.041   3.583  44.683  1.00  0.00    -0.341 OA
ENDROOT
BRANCH   1   7
ATOM      7  O   UNL     1      38.583   4.523  42.579  1.00  0.00    -0.350 OA
BRANCH   7   8
ATOM      8  C   UNL     1      39.773   5.036  42.006  1.00  0.00     0.160 C 
ATOM      9  C   UNL     1      39.764   6.563  41.959  1.00  0.00     0.035 C 
ENDBRANCH   7   8
ENDBRANCH   1   7
BRANCH   2  10
ATOM     10  O   UNL     1      36.593   6.116  43.670  1.00  0.00    -0.385 OA
ATOM     11  H   UNL     1      36.867   5.951  42.730  1.00  0.00     0.211 HD
ENDBRANCH   2  10
BRANCH   3  12
ATOM     12  O   UNL     1      34.935   4.064  44.870  1.00  0.00    -0.387 OA
ATOM     13  H   UNL     1      34.265   3.537  44.361  1.00  0.00     0.211 HD
ENDBRANCH   3  12
BRANCH   5  14
ATOM     14  C   UNL     1      38.959   1.203  45.046  1.00  0.00     0.191 C 
BRANCH  14  15
ATOM     15  O   UNL     1      39.428   1.532  46.327  1.00  0.00    -0.394 OA
ATOM     16  H   UNL     1      40.057   0.812  46.594  1.00  0.00     0.210 HD
ENDBRANCH  14  15
ENDBRANCH   5  14
BRANCH   4  17
ATOM     17  O   UNL     1      36.748   2.612  46.305  1.00  0.00    -0.387 OA
ATOM     18  H   UNL     1      35.858   2.966  46.560  1.00  0.00     0.211 HD
ENDBRANCH   4  17
TORSDOF 7
ENDMDL
