MODEL 1
REMARK VINA RESULT:    -4.965      0.000      0.000
REMARK INTER + INTRA:         -10.609
REMARK INTER:                  -7.577
REMARK INTRA:                  -3.032
REMARK UNBOUND:                -3.032
REMARK SMILES CC(=O)CCC=C(C)CCC=C(C)CCC=C(C)C
REMARK SMILES IDX 10 1 11 2 12 3 13 4 14 5 15 6 16 7 18 8 17 9 19 10 9 11 7 12
REMARK SMILES IDX 6 13 8 14 5 15 4 16 2 17 3 18 1 19
REMARK H PARENT
REMARK Flexibility Score: inf
ROOT
ATOM      1  C   UNL     1      41.960  58.248  28.051  1.00  0.00     0.032 C 
ENDROOT
BRANCH   1   2
ATOM      2  C   UNL     1      42.541  57.005  28.679  1.00  0.00    -0.028 C 
ATOM      3  C   UNL     1      42.627  56.776  30.009  1.00  0.00    -0.077 C 
ATOM      4  C   UNL     1      43.264  55.491  30.472  1.00  0.00     0.039 C 
BRANCH   3   5
ATOM      5  C   UNL     1      42.051  57.715  31.049  1.00  0.00     0.034 C 
BRANCH   5   6
ATOM      6  C   UNL     1      43.000  57.843  32.244  1.00  0.00     0.032 C 
BRANCH   6   7
ATOM      7  C   UNL     1      43.915  59.030  32.076  1.00  0.00    -0.028 C 
ATOM      8  C   UNL     1      46.034  60.220  31.715  1.00  0.00     0.039 C 
ATOM      9  C   UNL     1      45.254  58.946  31.914  1.00  0.00    -0.080 C 
ATOM     10  C   UNL     1      45.982  57.624  31.942  1.00  0.00     0.039 C 
ENDBRANCH   6   7
ENDBRANCH   5   6
ENDBRANCH   3   5
ENDBRANCH   1   2
BRANCH   1  11
ATOM     11  C   UNL     1      43.012  59.014  27.234  1.00  0.00     0.034 C 
BRANCH  11  12
ATOM     12  C   UNL     1      44.015  59.721  28.127  1.00  0.00    -0.077 C 
ATOM     13  C   UNL     1      45.316  59.357  28.211  1.00  0.00    -0.028 C 
ATOM     14  C   UNL     1      43.544  60.875  28.974  1.00  0.00     0.039 C 
BRANCH  13  15
ATOM     15  C   UNL     1      45.980  58.278  27.386  1.00  0.00     0.035 C 
BRANCH  15  16
ATOM     16  C   UNL     1      46.249  57.027  28.230  1.00  0.00     0.079 C 
BRANCH  16  17
ATOM     17  C   UNL     1      47.686  56.959  28.674  1.00  0.00     0.130 C 
ATOM     18  O   UNL     1      48.450  57.867  28.385  1.00  0.00    -0.300 OA
ATOM     19  C   UNL     1      48.199  55.795  29.472  1.00  0.00     0.087 C 
ENDBRANCH  16  17
ENDBRANCH  15  16
ENDBRANCH  13  15
ENDBRANCH  11  12
ENDBRANCH   1  11
TORSDOF 9
ENDMDL
MODEL 2
REMARK VINA RESULT:    -4.848      2.088      4.291
REMARK INTER + INTRA:         -10.431
REMARK INTER:                  -7.766
REMARK INTRA:                  -2.665
REMARK UNBOUND:                -3.032
REMARK SMILES CC(=O)CCC=C(C)CCC=C(C)CCC=C(C)C
REMARK SMILES IDX 10 1 11 2 12 3 13 4 14 5 15 6 16 7 18 8 17 9 19 10 9 11 7 12
REMARK SMILES IDX 6 13 8 14 5 15 4 16 2 17 3 18 1 19
REMARK H PARENT
REMARK Flexibility Score: inf
ROOT
ATOM      1  C   UNL     1      43.022  58.985  27.405  1.00  0.00     0.032 C 
ENDROOT
BRANCH   1   2
ATOM      2  C   UNL     1      42.483  57.983  28.397  1.00  0.00    -0.028 C 
ATOM      3  C   UNL     1      42.741  56.656  28.375  1.00  0.00    -0.077 C 
ATOM      4  C   UNL     1      42.098  55.786  29.425  1.00  0.00     0.039 C 
BRANCH   3   5
ATOM      5  C   UNL     1      43.701  56.015  27.392  1.00  0.00     0.034 C 
BRANCH   5   6
ATOM      6  C   UNL     1      44.412  54.820  28.035  1.00  0.00     0.032 C 
BRANCH   6   7
ATOM      7  C   UNL     1      45.883  55.105  28.211  1.00  0.00    -0.028 C 
ATOM      8  C   UNL     1      47.964  55.584  29.426  1.00  0.00     0.039 C 
ATOM      9  C   UNL     1      46.474  55.360  29.400  1.00  0.00    -0.080 C 
ATOM     10  C   UNL     1      45.686  55.440  30.685  1.00  0.00     0.039 C 
ENDBRANCH   6   7
ENDBRANCH   5   6
ENDBRANCH   3   5
ENDBRANCH   1   2
BRANCH   1  11
ATOM     11  C   UNL     1      44.066  59.912  28.048  1.00  0.00     0.034 C 
BRANCH  11  12
ATOM     12  C   UNL     1      45.397  59.210  28.246  1.00  0.00    -0.077 C 
ATOM     13  C   UNL     1      45.911  58.929  29.466  1.00  0.00    -0.028 C 
ATOM     14  C   UNL     1      46.198  58.819  27.030  1.00  0.00     0.039 C 
BRANCH  13  15
ATOM     15  C   UNL     1      45.220  59.178  30.788  1.00  0.00     0.035 C 
BRANCH  15  16
ATOM     16  C   UNL     1      45.853  60.364  31.524  1.00  0.00     0.079 C 
BRANCH  16  17
ATOM     17  C   UNL     1      44.881  61.505  31.672  1.00  0.00     0.130 C 
ATOM     18  O   UNL     1      43.857  61.514  31.007  1.00  0.00    -0.300 OA
ATOM     19  C   UNL     1      45.145  62.632  32.628  1.00  0.00     0.087 C 
ENDBRANCH  16  17
ENDBRANCH  15  16
ENDBRANCH  13  15
ENDBRANCH  11  12
ENDBRANCH   1  11
TORSDOF 9
ENDMDL
MODEL 3
REMARK VINA RESULT:    -4.798      1.838      4.720
REMARK INTER + INTRA:         -10.354
REMARK INTER:                  -7.151
REMARK INTRA:                  -3.203
REMARK UNBOUND:                -3.032
REMARK SMILES CC(=O)CCC=C(C)CCC=C(C)CCC=C(C)C
REMARK SMILES IDX 10 1 11 2 12 3 13 4 14 5 15 6 16 7 18 8 17 9 19 10 9 11 7 12
REMARK SMILES IDX 6 13 8 14 5 15 4 16 2 17 3 18 1 19
REMARK H PARENT
REMARK Flexibility Score: inf
ROOT
ATOM      1  C   UNL     1      41.876  57.686  28.246  1.00  0.00     0.032 C 
ENDROOT
BRANCH   1   2
ATOM      2  C   UNL     1      42.583  58.861  28.876  1.00  0.00    -0.028 C 
ATOM      3  C   UNL     1      43.733  59.408  28.420  1.00  0.00    -0.077 C 
ATOM      4  C   UNL     1      44.326  60.564  29.184  1.00  0.00     0.039 C 
BRANCH   3   5
ATOM      5  C   UNL     1      44.411  58.963  27.139  1.00  0.00     0.034 C 
BRANCH   5   6
ATOM      6  C   UNL     1      45.934  59.022  27.288  1.00  0.00     0.032 C 
BRANCH   6   7
ATOM      7  C   UNL     1      46.496  57.655  27.586  1.00  0.00    -0.028 C 
ATOM      8  C   UNL     1      47.470  55.858  28.950  1.00  0.00     0.039 C 
ATOM      9  C   UNL     1      46.979  57.274  28.790  1.00  0.00    -0.080 C 
ATOM     10  C   UNL     1      47.053  58.224  29.960  1.00  0.00     0.039 C 
ENDBRANCH   6   7
ENDBRANCH   5   6
ENDBRANCH   3   5
ENDBRANCH   1   2
BRANCH   1  11
ATOM     11  C   UNL     1      41.934  56.442  29.146  1.00  0.00     0.034 C 
BRANCH  11  12
ATOM     12  C   UNL     1      43.242  55.689  28.984  1.00  0.00    -0.077 C 
ATOM     13  C   UNL     1      44.015  55.314  30.030  1.00  0.00    -0.028 C 
ATOM     14  C   UNL     1      43.716  55.351  27.593  1.00  0.00     0.039 C 
BRANCH  13  15
ATOM     15  C   UNL     1      43.666  55.500  31.489  1.00  0.00     0.035 C 
BRANCH  15  16
ATOM     16  C   UNL     1      44.498  56.625  32.114  1.00  0.00     0.079 C 
BRANCH  16  17
ATOM     17  C   UNL     1      43.679  57.873  32.312  1.00  0.00     0.130 C 
ATOM     18  O   UNL     1      44.230  58.963  32.303  1.00  0.00    -0.300 OA
ATOM     19  C   UNL     1      42.194  57.805  32.516  1.00  0.00     0.087 C 
ENDBRANCH  16  17
ENDBRANCH  15  16
ENDBRANCH  13  15
ENDBRANCH  11  12
ENDBRANCH   1  11
TORSDOF 9
ENDMDL
MODEL 4
REMARK VINA RESULT:    -4.785      1.225      4.197
REMARK INTER + INTRA:         -10.335
REMARK INTER:                  -7.345
REMARK INTRA:                  -2.990
REMARK UNBOUND:                -3.032
REMARK SMILES CC(=O)CCC=C(C)CCC=C(C)CCC=C(C)C
REMARK SMILES IDX 10 1 11 2 12 3 13 4 14 5 15 6 16 7 18 8 17 9 19 10 9 11 7 12
REMARK SMILES IDX 6 13 8 14 5 15 4 16 2 17 3 18 1 19
REMARK H PARENT
REMARK Flexibility Score: inf
ROOT
ATOM      1  C   UNL     1      45.984  58.846  26.912  1.00  0.00     0.032 C 
ENDROOT
BRANCH   1   2
ATOM      2  C   UNL     1      45.279  59.730  27.911  1.00  0.00    -0.028 C 
ATOM      3  C   UNL     1      43.940  59.777  28.096  1.00  0.00    -0.077 C 
ATOM      4  C   UNL     1      43.393  60.740  29.118  1.00  0.00     0.039 C 
BRANCH   3   5
ATOM      5  C   UNL     1      42.974  58.857  27.377  1.00  0.00     0.034 C 
BRANCH   5   6
ATOM      6  C   UNL     1      41.943  58.287  28.357  1.00  0.00     0.032 C 
BRANCH   6   7
ATOM      7  C   UNL     1      42.289  56.867  28.730  1.00  0.00    -0.028 C 
ATOM      8  C   UNL     1      43.093  55.036  30.158  1.00  0.00     0.039 C 
ATOM      9  C   UNL     1      42.842  56.501  29.908  1.00  0.00    -0.080 C 
ATOM     10  C   UNL     1      43.225  57.512  30.962  1.00  0.00     0.039 C 
ENDBRANCH   6   7
ENDBRANCH   5   6
ENDBRANCH   3   5
ENDBRANCH   1   2
BRANCH   1  11
ATOM     11  C   UNL     1      46.953  57.874  27.601  1.00  0.00     0.034 C 
BRANCH  11  12
ATOM     12  C   UNL     1      46.268  56.578  27.995  1.00  0.00    -0.077 C 
ATOM     13  C   UNL     1      46.568  55.895  29.125  1.00  0.00    -0.028 C 
ATOM     14  C   UNL     1      45.212  56.011  27.081  1.00  0.00     0.039 C 
BRANCH  13  15
ATOM     15  C   UNL     1      47.541  56.346  30.190  1.00  0.00     0.035 C 
BRANCH  15  16
ATOM     16  C   UNL     1      46.811  57.047  31.340  1.00  0.00     0.079 C 
BRANCH  16  17
ATOM     17  C   UNL     1      47.278  58.470  31.507  1.00  0.00     0.130 C 
ATOM     18  O   UNL     1      48.458  58.694  31.731  1.00  0.00    -0.300 OA
ATOM     19  C   UNL     1      46.321  59.620  31.397  1.00  0.00     0.087 C 
ENDBRANCH  16  17
ENDBRANCH  15  16
ENDBRANCH  13  15
ENDBRANCH  11  12
ENDBRANCH   1  11
TORSDOF 9
ENDMDL
MODEL 5
REMARK VINA RESULT:    -4.758     16.681     19.165
REMARK INTER + INTRA:         -10.293
REMARK INTER:                  -7.111
REMARK INTRA:                  -3.182
REMARK UNBOUND:                -3.032
REMARK SMILES CC(=O)CCC=C(C)CCC=C(C)CCC=C(C)C
REMARK SMILES IDX 10 1 11 2 12 3 13 4 14 5 15 6 16 7 18 8 17 9 19 10 9 11 7 12
REMARK SMILES IDX 6 13 8 14 5 15 4 16 2 17 3 18 1 19
REMARK H PARENT
REMARK Flexibility Score: inf
ROOT
ATOM      1  C   UNL     1      61.986  69.572  31.287  1.00  0.00     0.032 C 
ENDROOT
BRANCH   1   2
ATOM      2  C   UNL     1      60.917  68.511  31.386  1.00  0.00    -0.028 C 
ATOM      3  C   UNL     1      60.513  67.922  32.534  1.00  0.00    -0.077 C 
ATOM      4  C   UNL     1      59.451  66.855  32.455  1.00  0.00     0.039 C 
BRANCH   3   5
ATOM      5  C   UNL     1      61.027  68.333  33.900  1.00  0.00     0.034 C 
BRANCH   5   6
ATOM      6  C   UNL     1      59.897  68.297  34.933  1.00  0.00     0.032 C 
BRANCH   6   7
ATOM      7  C   UNL     1      59.259  69.657  35.075  1.00  0.00    -0.028 C 
ATOM      8  C   UNL     1      57.433  71.296  35.199  1.00  0.00     0.039 C 
ATOM      9  C   UNL     1      57.929  69.888  34.993  1.00  0.00    -0.080 C 
ATOM     10  C   UNL     1      56.942  68.787  34.690  1.00  0.00     0.039 C 
ENDBRANCH   6   7
ENDBRANCH   5   6
ENDBRANCH   3   5
ENDBRANCH   1   2
BRANCH   1  11
ATOM     11  C   UNL     1      61.400  70.928  30.865  1.00  0.00     0.034 C 
BRANCH  11  12
ATOM     12  C   UNL     1      60.623  71.583  31.992  1.00  0.00    -0.077 C 
ATOM     13  C   UNL     1      59.278  71.733  31.974  1.00  0.00    -0.028 C 
ATOM     14  C   UNL     1      61.381  72.106  33.185  1.00  0.00     0.039 C 
BRANCH  13  15
ATOM     15  C   UNL     1      58.350  71.208  30.902  1.00  0.00     0.035 C 
BRANCH  15  16
ATOM     16  C   UNL     1      57.031  70.720  31.508  1.00  0.00     0.079 C 
BRANCH  16  17
ATOM     17  C   UNL     1      56.626  69.382  30.946  1.00  0.00     0.130 C 
ATOM     18  O   UNL     1      55.626  68.826  31.374  1.00  0.00    -0.300 OA
ATOM     19  C   UNL     1      57.427  68.719  29.864  1.00  0.00     0.087 C 
ENDBRANCH  16  17
ENDBRANCH  15  16
ENDBRANCH  13  15
ENDBRANCH  11  12
ENDBRANCH   1  11
TORSDOF 9
ENDMDL
MODEL 6
REMARK VINA RESULT:    -4.737      1.565      2.006
REMARK INTER + INTRA:         -10.261
REMARK INTER:                  -7.829
REMARK INTRA:                  -2.432
REMARK UNBOUND:                -3.032
REMARK SMILES CC(=O)CCC=C(C)CCC=C(C)CCC=C(C)C
REMARK SMILES IDX 10 1 11 2 12 3 13 4 14 5 15 6 16 7 18 8 17 9 19 10 9 11 7 12
REMARK SMILES IDX 6 13 8 14 5 15 4 16 2 17 3 18 1 19
REMARK H PARENT
REMARK Flexibility Score: inf
ROOT
ATOM      1  C   UNL     1      41.903  58.290  28.040  1.00  0.00     0.032 C 
ENDROOT
BRANCH   1   2
ATOM      2  C   UNL     1      42.295  56.914  28.522  1.00  0.00    -0.028 C 
ATOM      3  C   UNL     1      42.397  56.548  29.819  1.00  0.00    -0.077 C 
ATOM      4  C   UNL     1      42.831  55.138  30.132  1.00  0.00     0.039 C 
BRANCH   3   5
ATOM      5  C   UNL     1      42.028  57.464  30.969  1.00  0.00     0.034 C 
BRANCH   5   6
ATOM      6  C   UNL     1      43.284  57.920  31.718  1.00  0.00     0.032 C 
BRANCH   6   7
ATOM      7  C   UNL     1      43.131  57.698  33.202  1.00  0.00    -0.028 C 
ATOM      8  C   UNL     1      43.563  56.669  35.392  1.00  0.00     0.039 C 
ATOM      9  C   UNL     1      43.784  56.743  33.903  1.00  0.00    -0.080 C 
ATOM     10  C   UNL     1      44.707  55.752  33.236  1.00  0.00     0.039 C 
ENDBRANCH   6   7
ENDBRANCH   5   6
ENDBRANCH   3   5
ENDBRANCH   1   2
BRANCH   1  11
ATOM     11  C   UNL     1      43.021  58.938  27.210  1.00  0.00     0.034 C 
BRANCH  11  12
ATOM     12  C   UNL     1      43.964  59.756  28.074  1.00  0.00    -0.077 C 
ATOM     13  C   UNL     1      45.311  59.689  27.969  1.00  0.00    -0.028 C 
ATOM     14  C   UNL     1      43.377  60.679  29.112  1.00  0.00     0.039 C 
BRANCH  13  15
ATOM     15  C   UNL     1      46.071  58.880  26.942  1.00  0.00     0.035 C 
BRANCH  15  16
ATOM     16  C   UNL     1      47.003  57.869  27.619  1.00  0.00     0.079 C 
BRANCH  16  17
ATOM     17  C   UNL     1      46.226  56.774  28.303  1.00  0.00     0.130 C 
ATOM     18  O   UNL     1      45.557  56.002  27.635  1.00  0.00    -0.300 OA
ATOM     19  C   UNL     1      46.264  56.610  29.794  1.00  0.00     0.087 C 
ENDBRANCH  16  17
ENDBRANCH  15  16
ENDBRANCH  13  15
ENDBRANCH  11  12
ENDBRANCH   1  11
TORSDOF 9
ENDMDL
MODEL 7
REMARK VINA RESULT:    -4.696      2.160      4.192
REMARK INTER + INTRA:         -10.198
REMARK INTER:                  -7.337
REMARK INTRA:                  -2.861
REMARK UNBOUND:                -3.032
REMARK SMILES CC(=O)CCC=C(C)CCC=C(C)CCC=C(C)C
REMARK SMILES IDX 10 1 11 2 12 3 13 4 14 5 15 6 16 7 18 8 17 9 19 10 9 11 7 12
REMARK SMILES IDX 6 13 8 14 5 15 4 16 2 17 3 18 1 19
REMARK H PARENT
REMARK Flexibility Score: inf
ROOT
ATOM      1  C   UNL     1      42.855  59.000  27.540  1.00  0.00     0.032 C 
ENDROOT
BRANCH   1   2
ATOM      2  C   UNL     1      42.279  57.910  28.411  1.00  0.00    -0.028 C 
ATOM      3  C   UNL     1      42.621  56.603  28.345  1.00  0.00    -0.077 C 
ATOM      4  C   UNL     1      41.928  55.636  29.270  1.00  0.00     0.039 C 
BRANCH   3   5
ATOM      5  C   UNL     1      43.716  56.079  27.437  1.00  0.00     0.034 C 
BRANCH   5   6
ATOM      6  C   UNL     1      44.453  54.912  28.101  1.00  0.00     0.032 C 
BRANCH   6   7
ATOM      7  C   UNL     1      45.882  55.286  28.404  1.00  0.00    -0.028 C 
ATOM      8  C   UNL     1      47.808  55.925  29.790  1.00  0.00     0.039 C 
ATOM      9  C   UNL     1      46.342  55.615  29.632  1.00  0.00    -0.080 C 
ATOM     10  C   UNL     1      45.430  55.695  30.833  1.00  0.00     0.039 C 
ENDBRANCH   6   7
ENDBRANCH   5   6
ENDBRANCH   3   5
ENDBRANCH   1   2
BRANCH   1  11
ATOM     11  C   UNL     1      43.610  60.049  28.370  1.00  0.00     0.034 C 
BRANCH  11  12
ATOM     12  C   UNL     1      44.875  59.479  28.985  1.00  0.00    -0.077 C 
ATOM     13  C   UNL     1      45.079  59.401  30.321  1.00  0.00    -0.028 C 
ATOM     14  C   UNL     1      45.967  58.988  28.069  1.00  0.00     0.039 C 
BRANCH  13  15
ATOM     15  C   UNL     1      44.072  59.774  31.385  1.00  0.00     0.035 C 
BRANCH  15  16
ATOM     16  C   UNL     1      43.253  58.554  31.819  1.00  0.00     0.079 C 
BRANCH  16  17
ATOM     17  C   UNL     1      43.572  58.149  33.234  1.00  0.00     0.130 C 
ATOM     18  O   UNL     1      44.104  58.952  33.985  1.00  0.00    -0.300 OA
ATOM     19  C   UNL     1      43.244  56.776  33.743  1.00  0.00     0.087 C 
ENDBRANCH  16  17
ENDBRANCH  15  16
ENDBRANCH  13  15
ENDBRANCH  11  12
ENDBRANCH   1  11
TORSDOF 9
ENDMDL
MODEL 8
REMARK VINA RESULT:    -4.656     16.868     19.631
REMARK INTER + INTRA:         -10.138
REMARK INTER:                  -7.148
REMARK INTRA:                  -2.991
REMARK UNBOUND:                -3.032
REMARK SMILES CC(=O)CCC=C(C)CCC=C(C)CCC=C(C)C
REMARK SMILES IDX 10 1 11 2 12 3 13 4 14 5 15 6 16 7 18 8 17 9 19 10 9 11 7 12
REMARK SMILES IDX 6 13 8 14 5 15 4 16 2 17 3 18 1 19
REMARK H PARENT
REMARK Flexibility Score: inf
ROOT
ATOM      1  C   UNL     1      60.253  67.003  31.461  1.00  0.00     0.032 C 
ENDROOT
BRANCH   1   2
ATOM      2  C   UNL     1      61.001  68.311  31.365  1.00  0.00    -0.028 C 
ATOM      3  C   UNL     1      60.456  69.490  30.990  1.00  0.00    -0.077 C 
ATOM      4  C   UNL     1      61.351  70.700  30.918  1.00  0.00     0.039 C 
BRANCH   3   5
ATOM      5  C   UNL     1      58.976  69.665  30.710  1.00  0.00     0.034 C 
BRANCH   5   6
ATOM      6  C   UNL     1      58.508  71.058  31.142  1.00  0.00     0.032 C 
BRANCH   6   7
ATOM      7  C   UNL     1      58.388  71.140  32.644  1.00  0.00    -0.028 C 
ATOM      8  C   UNL     1      57.283  71.010  34.835  1.00  0.00     0.039 C 
ATOM      9  C   UNL     1      57.241  70.937  33.330  1.00  0.00    -0.080 C 
ATOM     10  C   UNL     1      55.930  70.659  32.634  1.00  0.00     0.039 C 
ENDBRANCH   6   7
ENDBRANCH   5   6
ENDBRANCH   3   5
ENDBRANCH   1   2
BRANCH   1  11
ATOM     11  C   UNL     1      60.124  66.531  32.917  1.00  0.00     0.034 C 
BRANCH  11  12
ATOM     12  C   UNL     1      59.078  67.324  33.678  1.00  0.00    -0.077 C 
ATOM     13  C   UNL     1      59.367  68.082  34.761  1.00  0.00    -0.028 C 
ATOM     14  C   UNL     1      57.644  67.258  33.218  1.00  0.00     0.039 C 
BRANCH  13  15
ATOM     15  C   UNL     1      60.751  68.326  35.317  1.00  0.00     0.035 C 
BRANCH  15  16
ATOM     16  C   UNL     1      61.379  69.580  34.700  1.00  0.00     0.079 C 
BRANCH  16  17
ATOM     17  C   UNL     1      61.294  70.758  35.634  1.00  0.00     0.130 C 
ATOM     18  O   UNL     1      61.527  70.602  36.823  1.00  0.00    -0.300 OA
ATOM     19  C   UNL     1      60.932  72.125  35.131  1.00  0.00     0.087 C 
ENDBRANCH  16  17
ENDBRANCH  15  16
ENDBRANCH  13  15
ENDBRANCH  11  12
ENDBRANCH   1  11
TORSDOF 9
ENDMDL
MODEL 9
REMARK VINA RESULT:    -4.356      2.061      4.829
REMARK INTER + INTRA:          -9.680
REMARK INTER:                  -6.498
REMARK INTRA:                  -3.181
REMARK UNBOUND:                -3.032
REMARK SMILES CC(=O)CCC=C(C)CCC=C(C)CCC=C(C)C
REMARK SMILES IDX 10 1 11 2 12 3 13 4 14 5 15 6 16 7 18 8 17 9 19 10 9 11 7 12
REMARK SMILES IDX 6 13 8 14 5 15 4 16 2 17 3 18 1 19
REMARK H PARENT
REMARK Flexibility Score: inf
ROOT
ATOM      1  C   UNL     1      44.060  61.092  29.613  1.00  0.00     0.032 C 
ENDROOT
BRANCH   1   2
ATOM      2  C   UNL     1      43.414  60.099  28.677  1.00  0.00    -0.028 C 
ATOM      3  C   UNL     1      44.074  59.362  27.754  1.00  0.00    -0.077 C 
ATOM      4  C   UNL     1      43.273  58.436  26.875  1.00  0.00     0.039 C 
BRANCH   3   5
ATOM      5  C   UNL     1      45.583  59.371  27.613  1.00  0.00     0.034 C 
BRANCH   5   6
ATOM      6  C   UNL     1      46.098  57.972  27.261  1.00  0.00     0.032 C 
BRANCH   6   7
ATOM      7  C   UNL     1      46.386  57.178  28.511  1.00  0.00    -0.028 C 
ATOM      8  C   UNL     1      46.329  55.243  30.024  1.00  0.00     0.039 C 
ATOM      9  C   UNL     1      45.923  55.930  28.745  1.00  0.00    -0.080 C 
ATOM     10  C   UNL     1      45.007  55.220  27.777  1.00  0.00     0.039 C 
ENDBRANCH   6   7
ENDBRANCH   5   6
ENDBRANCH   3   5
ENDBRANCH   1   2
BRANCH   1  11
ATOM     11  C   UNL     1      43.988  60.620  31.074  1.00  0.00     0.034 C 
BRANCH  11  12
ATOM     12  C   UNL     1      44.873  59.412  31.321  1.00  0.00    -0.077 C 
ATOM     13  C   UNL     1      44.384  58.166  31.522  1.00  0.00    -0.028 C 
ATOM     14  C   UNL     1      46.367  59.604  31.359  1.00  0.00     0.039 C 
BRANCH  13  15
ATOM     15  C   UNL     1      42.927  57.772  31.446  1.00  0.00     0.035 C 
BRANCH  15  16
ATOM     16  C   UNL     1      42.717  56.631  30.446  1.00  0.00     0.079 C 
BRANCH  16  17
ATOM     17  C   UNL     1      42.655  55.294  31.137  1.00  0.00     0.130 C 
ATOM     18  O   UNL     1      42.617  55.248  32.357  1.00  0.00    -0.300 OA
ATOM     19  C   UNL     1      42.633  54.014  30.354  1.00  0.00     0.087 C 
ENDBRANCH  16  17
ENDBRANCH  15  16
ENDBRANCH  13  15
ENDBRANCH  11  12
ENDBRANCH   1  11
TORSDOF 9
ENDMDL
