MODEL 1
REMARK VINA RESULT:    -7.792      0.000      0.000
REMARK INTER + INTRA:         -12.674
REMARK INTER:                 -11.436
REMARK INTRA:                  -1.238
REMARK UNBOUND:                -1.238
REMARK SMILES O=c1c(O[C@H]2O[C@@H](CO)[C@@H](O)[C@H](O)[C@@H]2O)c(-c2ccc(O)c(O)c2)oc2cc(O)cc(O)c12
REMARK SMILES IDX 4 1 3 2 16 3 25 4 2 5 26 6 1 7 33 8 27 9 31 10 28 11 30 12
REMARK SMILES IDX 17 13 18 14 19 15 20 16 24 17 22 18 21 19 23 21 32 23 29 25
REMARK SMILES IDX 5 27 14 28 6 29 12 30 7 31 10 32 15 33 13 35 8 37 9 38 11 40
REMARK H PARENT 21 20 23 22 32 24 29 26 15 34 13 36 9 39 11 41
REMARK Flexibility Score: inf
ROOT
ATOM      1  O   UNL     1     -15.397  28.311  52.171  1.00  0.00    -0.454 OA
ENDROOT
BRANCH   1   2
ATOM      2  C   UNL     1     -16.020  28.942  51.081  1.00  0.00     0.214 A 
ATOM      3  C   UNL     1     -15.636  28.691  49.751  1.00  0.00     0.180 A 
ATOM      4  O   UNL     1     -15.722  29.682  48.848  1.00  0.00    -0.452 OA
ATOM      5  C   UNL     1     -17.007  29.942  51.247  1.00  0.00     0.239 A 
ATOM      6  C   UNL     1     -16.393  30.796  49.067  1.00  0.00     0.146 A 
ATOM      7  O   UNL     1     -17.705  29.902  52.304  1.00  0.00    -0.285 OA
ATOM      8  C   UNL     1     -17.220  30.924  50.215  1.00  0.00     0.111 A 
ATOM      9  C   UNL     1     -16.264  31.875  48.180  1.00  0.00     0.094 A 
ATOM     10  C   UNL     1     -18.096  32.023  50.321  1.00  0.00     0.134 A 
ATOM     11  C   UNL     1     -17.081  33.020  48.299  1.00  0.00     0.123 A 
ATOM     12  C   UNL     1     -17.993  33.073  49.371  1.00  0.00     0.093 A 
BRANCH   3  13
ATOM     13  C   UNL     1     -15.229  27.393  49.247  1.00  0.00     0.025 A 
ATOM     14  C   UNL     1     -13.922  27.261  48.722  1.00  0.00     0.016 A 
ATOM     15  C   UNL     1     -13.723  26.676  47.438  1.00  0.00     0.051 A 
ATOM     16  C   UNL     1     -14.703  25.744  47.064  1.00  0.00     0.157 A 
ATOM     17  C   UNL     1     -16.276  26.680  48.572  1.00  0.00     0.062 A 
ATOM     18  C   UNL     1     -16.033  26.129  47.300  1.00  0.00     0.158 A 
BRANCH  16  19
ATOM     19  O   UNL     1     -14.393  24.395  47.134  1.00  0.00    -0.504 OA
ATOM     20  H   UNL     1     -14.417  23.811  46.281  1.00  0.00     0.293 HD
ENDBRANCH  16  19
BRANCH  18  21
ATOM     21  O   UNL     1     -16.732  26.762  46.232  1.00  0.00    -0.504 OA
ATOM     22  H   UNL     1     -16.088  27.158  45.513  1.00  0.00     0.293 HD
ENDBRANCH  18  21
ENDBRANCH   3  13
BRANCH  10  23
ATOM     23  O   UNL     1     -19.046  32.100  51.350  1.00  0.00    -0.507 OA
ATOM     24  H   UNL     1     -18.947  31.471  52.144  1.00  0.00     0.293 HD
ENDBRANCH  10  23
BRANCH  11  25
ATOM     25  O   UNL     1     -16.982  34.070  47.406  1.00  0.00    -0.508 OA
ATOM     26  H   UNL     1     -17.370  34.074  46.468  1.00  0.00     0.293 HD
ENDBRANCH  11  25
ENDBRANCH   1   2
BRANCH   1  27
ATOM     27  C   UNL     1     -16.152  27.470  53.105  1.00  0.00     0.339 C 
ATOM     28  C   UNL     1     -15.239  26.801  54.188  1.00  0.00     0.214 C 
ATOM     29  O   UNL     1     -16.790  26.428  52.384  1.00  0.00    -0.332 OA
ATOM     30  C   UNL     1     -15.828  25.389  54.571  1.00  0.00     0.180 C 
ATOM     31  C   UNL     1     -17.833  25.833  53.132  1.00  0.00     0.179 C 
ATOM     32  C   UNL     1     -17.391  25.464  54.567  1.00  0.00     0.177 C 
BRANCH  28  33
ATOM     33  O   UNL     1     -15.219  27.629  55.336  1.00  0.00    -0.384 OA
ATOM     34  H   UNL     1     -14.364  28.154  55.313  1.00  0.00     0.211 HD
ENDBRANCH  28  33
BRANCH  30  35
ATOM     35  O   UNL     1     -15.297  24.959  55.830  1.00  0.00    -0.387 OA
ATOM     36  H   UNL     1     -15.399  25.698  56.507  1.00  0.00     0.211 HD
ENDBRANCH  30  35
BRANCH  31  37
ATOM     37  C   UNL     1     -18.263  24.607  52.266  1.00  0.00     0.191 C 
BRANCH  37  38
ATOM     38  O   UNL     1     -19.535  24.082  52.671  1.00  0.00    -0.394 OA
ATOM     39  H   UNL     1     -19.676  23.247  52.167  1.00  0.00     0.210 HD
ENDBRANCH  37  38
ENDBRANCH  31  37
BRANCH  32  40
ATOM     40  O   UNL     1     -18.060  24.299  54.978  1.00  0.00    -0.387 OA
ATOM     41  H   UNL     1     -18.637  24.001  54.227  1.00  0.00     0.211 HD
ENDBRANCH  32  40
ENDBRANCH   1  27
TORSDOF 12
ENDMDL
MODEL 2
REMARK VINA RESULT:    -7.611      0.778      2.043
REMARK INTER + INTRA:         -12.408
REMARK INTER:                 -11.523
REMARK INTRA:                  -0.885
REMARK UNBOUND:                -1.238
REMARK SMILES O=c1c(O[C@H]2O[C@@H](CO)[C@@H](O)[C@H](O)[C@@H]2O)c(-c2ccc(O)c(O)c2)oc2cc(O)cc(O)c12
REMARK SMILES IDX 4 1 3 2 16 3 25 4 2 5 26 6 1 7 33 8 27 9 31 10 28 11 30 12
REMARK SMILES IDX 17 13 18 14 19 15 20 16 24 17 22 18 21 19 23 21 32 23 29 25
REMARK SMILES IDX 5 27 14 28 6 29 12 30 7 31 10 32 15 33 13 35 8 37 9 38 11 40
REMARK H PARENT 21 20 23 22 32 24 29 26 15 34 13 36 9 39 11 41
REMARK Flexibility Score: inf
ROOT
ATOM      1  O   UNL     1     -15.286  28.333  51.809  1.00  0.00    -0.454 OA
ENDROOT
BRANCH   1   2
ATOM      2  C   UNL     1     -15.953  29.015  50.779  1.00  0.00     0.214 A 
ATOM      3  C   UNL     1     -15.627  28.829  49.423  1.00  0.00     0.180 A 
ATOM      4  O   UNL     1     -15.751  29.863  48.573  1.00  0.00    -0.452 OA
ATOM      5  C   UNL     1     -16.932  30.005  51.034  1.00  0.00     0.239 A 
ATOM      6  C   UNL     1     -16.411  30.964  48.874  1.00  0.00     0.146 A 
ATOM      7  O   UNL     1     -17.584  29.912  52.118  1.00  0.00    -0.285 OA
ATOM      8  C   UNL     1     -17.188  31.035  50.062  1.00  0.00     0.111 A 
ATOM      9  C   UNL     1     -16.318  32.085  48.037  1.00  0.00     0.094 A 
ATOM     10  C   UNL     1     -18.058  32.127  50.258  1.00  0.00     0.134 A 
ATOM     11  C   UNL     1     -17.129  33.221  48.245  1.00  0.00     0.123 A 
ATOM     12  C   UNL     1     -17.995  33.221  49.357  1.00  0.00     0.093 A 
BRANCH   3  13
ATOM     13  C   UNL     1     -15.242  27.558  48.840  1.00  0.00     0.025 A 
ATOM     14  C   UNL     1     -13.888  27.372  48.477  1.00  0.00     0.016 A 
ATOM     15  C   UNL     1     -13.554  26.900  47.175  1.00  0.00     0.051 A 
ATOM     16  C   UNL     1     -14.534  26.092  46.579  1.00  0.00     0.157 A 
ATOM     17  C   UNL     1     -16.233  27.001  47.963  1.00  0.00     0.062 A 
ATOM     18  C   UNL     1     -15.855  26.558  46.681  1.00  0.00     0.158 A 
BRANCH  16  19
ATOM     19  O   UNL     1     -14.327  24.722  46.543  1.00  0.00    -0.504 OA
ATOM     20  H   UNL     1     -14.476  24.151  47.393  1.00  0.00     0.293 HD
ENDBRANCH  16  19
BRANCH  18  21
ATOM     21  O   UNL     1     -16.357  27.347  45.605  1.00  0.00    -0.504 OA
ATOM     22  H   UNL     1     -17.058  26.833  45.027  1.00  0.00     0.293 HD
ENDBRANCH  18  21
ENDBRANCH   3  13
BRANCH  10  23
ATOM     23  O   UNL     1     -18.963  32.152  51.328  1.00  0.00    -0.507 OA
ATOM     24  H   UNL     1     -19.909  31.811  51.167  1.00  0.00     0.293 HD
ENDBRANCH  10  23
BRANCH  11  25
ATOM     25  O   UNL     1     -17.067  34.314  47.400  1.00  0.00    -0.508 OA
ATOM     26  H   UNL     1     -17.871  34.784  46.997  1.00  0.00     0.293 HD
ENDBRANCH  11  25
ENDBRANCH   1   2
BRANCH   1  27
ATOM     27  C   UNL     1     -15.814  27.086  52.373  1.00  0.00     0.339 C 
ATOM     28  C   UNL     1     -17.350  26.913  52.121  1.00  0.00     0.214 C 
ATOM     29  O   UNL     1     -15.611  27.087  53.777  1.00  0.00    -0.332 OA
ATOM     30  C   UNL     1     -17.997  26.139  53.332  1.00  0.00     0.180 C 
ATOM     31  C   UNL     1     -15.722  25.787  54.325  1.00  0.00     0.179 C 
ATOM     32  C   UNL     1     -16.995  25.052  53.844  1.00  0.00     0.177 C 
BRANCH  28  33
ATOM     33  O   UNL     1     -17.530  26.163  50.933  1.00  0.00    -0.384 OA
ATOM     34  H   UNL     1     -18.110  25.376  51.160  1.00  0.00     0.211 HD
ENDBRANCH  28  33
BRANCH  30  35
ATOM     35  O   UNL     1     -19.262  25.589  52.946  1.00  0.00    -0.387 OA
ATOM     36  H   UNL     1     -19.914  25.682  53.707  1.00  0.00     0.211 HD
ENDBRANCH  30  35
BRANCH  31  37
ATOM     37  C   UNL     1     -15.670  26.024  55.867  1.00  0.00     0.191 C 
BRANCH  37  38
ATOM     38  O   UNL     1     -15.349  24.825  56.585  1.00  0.00    -0.394 OA
ATOM     39  H   UNL     1     -16.168  24.541  57.053  1.00  0.00     0.210 HD
ENDBRANCH  37  38
ENDBRANCH  31  37
BRANCH  32  40
ATOM     40  O   UNL     1     -17.469  24.218  54.870  1.00  0.00    -0.387 OA
ATOM     41  H   UNL     1     -18.456  24.171  54.790  1.00  0.00     0.211 HD
ENDBRANCH  32  40
ENDBRANCH   1  27
TORSDOF 12
ENDMDL
MODEL 3
REMARK VINA RESULT:    -7.443      1.551      7.068
REMARK INTER + INTRA:         -12.162
REMARK INTER:                 -10.657
REMARK INTRA:                  -1.505
REMARK UNBOUND:                -1.238
REMARK SMILES O=c1c(O[C@H]2O[C@@H](CO)[C@@H](O)[C@H](O)[C@@H]2O)c(-c2ccc(O)c(O)c2)oc2cc(O)cc(O)c12
REMARK SMILES IDX 4 1 3 2 16 3 25 4 2 5 26 6 1 7 33 8 27 9 31 10 28 11 30 12
REMARK SMILES IDX 17 13 18 14 19 15 20 16 24 17 22 18 21 19 23 21 32 23 29 25
REMARK SMILES IDX 5 27 14 28 6 29 12 30 7 31 10 32 15 33 13 35 8 37 9 38 11 40
REMARK H PARENT 21 20 23 22 32 24 29 26 15 34 13 36 9 39 11 41
REMARK Flexibility Score: inf
ROOT
ATOM      1  O   UNL     1     -17.119  28.408  48.811  1.00  0.00    -0.454 OA
ENDROOT
BRANCH   1   2
ATOM      2  C   UNL     1     -17.098  28.233  50.205  1.00  0.00     0.214 A 
ATOM      3  C   UNL     1     -16.512  29.176  51.070  1.00  0.00     0.180 A 
ATOM      4  O   UNL     1     -15.925  28.749  52.201  1.00  0.00    -0.452 OA
ATOM      5  C   UNL     1     -17.576  27.057  50.829  1.00  0.00     0.239 A 
ATOM      6  C   UNL     1     -16.096  27.534  52.684  1.00  0.00     0.146 A 
ATOM      7  O   UNL     1     -18.483  26.406  50.228  1.00  0.00    -0.285 OA
ATOM      8  C   UNL     1     -17.068  26.666  52.118  1.00  0.00     0.111 A 
ATOM      9  C   UNL     1     -15.290  27.081  53.738  1.00  0.00     0.094 A 
ATOM     10  C   UNL     1     -17.393  25.463  52.778  1.00  0.00     0.134 A 
ATOM     11  C   UNL     1     -15.547  25.850  54.378  1.00  0.00     0.123 A 
ATOM     12  C   UNL     1     -16.605  25.058  53.888  1.00  0.00     0.093 A 
BRANCH   3  13
ATOM     13  C   UNL     1     -16.569  30.612  50.875  1.00  0.00     0.025 A 
ATOM     14  C   UNL     1     -17.803  31.268  51.098  1.00  0.00     0.016 A 
ATOM     15  C   UNL     1     -18.333  32.148  50.112  1.00  0.00     0.051 A 
ATOM     16  C   UNL     1     -17.367  32.772  49.308  1.00  0.00     0.157 A 
ATOM     17  C   UNL     1     -15.775  31.078  49.774  1.00  0.00     0.062 A 
ATOM     18  C   UNL     1     -16.348  31.939  48.820  1.00  0.00     0.158 A 
BRANCH  16  19
ATOM     19  O   UNL     1     -17.061  34.101  49.556  1.00  0.00    -0.504 OA
ATOM     20  H   UNL     1     -17.817  34.793  49.689  1.00  0.00     0.293 HD
ENDBRANCH  16  19
BRANCH  18  21
ATOM     21  O   UNL     1     -16.535  31.361  47.530  1.00  0.00    -0.504 OA
ATOM     22  H   UNL     1     -17.477  30.922  47.422  1.00  0.00     0.293 HD
ENDBRANCH  18  21
ENDBRANCH   3  13
BRANCH  10  23
ATOM     23  O   UNL     1     -18.461  24.662  52.349  1.00  0.00    -0.507 OA
ATOM     24  H   UNL     1     -18.293  24.001  51.593  1.00  0.00     0.293 HD
ENDBRANCH  10  23
BRANCH  11  25
ATOM     25  O   UNL     1     -14.778  25.417  55.441  1.00  0.00    -0.508 OA
ATOM     26  H   UNL     1     -14.150  24.620  55.419  1.00  0.00     0.293 HD
ENDBRANCH  11  25
ENDBRANCH   1   2
BRANCH   1  27
ATOM     27  C   UNL     1     -16.062  27.866  47.953  1.00  0.00     0.339 C 
ATOM     28  C   UNL     1     -16.240  26.336  47.670  1.00  0.00     0.214 C 
ATOM     29  O   UNL     1     -14.807  28.036  48.595  1.00  0.00    -0.332 OA
ATOM     30  C   UNL     1     -14.823  25.659  47.526  1.00  0.00     0.180 C 
ATOM     31  C   UNL     1     -13.731  27.911  47.685  1.00  0.00     0.179 C 
ATOM     32  C   UNL     1     -13.851  26.648  46.801  1.00  0.00     0.177 C 
BRANCH  28  33
ATOM     33  O   UNL     1     -16.959  26.182  46.460  1.00  0.00    -0.384 OA
ATOM     34  H   UNL     1     -17.641  25.460  46.605  1.00  0.00     0.211 HD
ENDBRANCH  28  33
BRANCH  30  35
ATOM     35  O   UNL     1     -14.943  24.403  46.848  1.00  0.00    -0.387 OA
ATOM     36  H   UNL     1     -14.032  23.983  46.759  1.00  0.00     0.211 HD
ENDBRANCH  30  35
BRANCH  31  37
ATOM     37  C   UNL     1     -12.464  27.927  48.600  1.00  0.00     0.191 C 
BRANCH  37  38
ATOM     38  O   UNL     1     -11.410  28.723  48.043  1.00  0.00    -0.394 OA
ATOM     39  H   UNL     1     -10.935  28.158  47.391  1.00  0.00     0.210 HD
ENDBRANCH  37  38
ENDBRANCH  31  37
BRANCH  32  40
ATOM     40  O   UNL     1     -12.568  26.150  46.521  1.00  0.00    -0.387 OA
ATOM     41  H   UNL     1     -12.117  26.797  45.918  1.00  0.00     0.211 HD
ENDBRANCH  32  40
ENDBRANCH   1  27
TORSDOF 12
ENDMDL
MODEL 4
REMARK VINA RESULT:    -7.337      1.544      6.995
REMARK INTER + INTRA:         -12.006
REMARK INTER:                 -10.522
REMARK INTRA:                  -1.484
REMARK UNBOUND:                -1.238
REMARK SMILES O=c1c(O[C@H]2O[C@@H](CO)[C@@H](O)[C@H](O)[C@@H]2O)c(-c2ccc(O)c(O)c2)oc2cc(O)cc(O)c12
REMARK SMILES IDX 4 1 3 2 16 3 25 4 2 5 26 6 1 7 33 8 27 9 31 10 28 11 30 12
REMARK SMILES IDX 17 13 18 14 19 15 20 16 24 17 22 18 21 19 23 21 32 23 29 25
REMARK SMILES IDX 5 27 14 28 6 29 12 30 7 31 10 32 15 33 13 35 8 37 9 38 11 40
REMARK H PARENT 21 20 23 22 32 24 29 26 15 34 13 36 9 39 11 41
REMARK Flexibility Score: inf
ROOT
ATOM      1  O   UNL     1     -16.847  27.756  49.391  1.00  0.00    -0.454 OA
ENDROOT
BRANCH   1   2
ATOM      2  C   UNL     1     -17.030  27.680  50.782  1.00  0.00     0.214 A 
ATOM      3  C   UNL     1     -16.574  28.685  51.654  1.00  0.00     0.180 A 
ATOM      4  O   UNL     1     -16.160  28.343  52.886  1.00  0.00    -0.452 OA
ATOM      5  C   UNL     1     -17.598  26.547  51.411  1.00  0.00     0.239 A 
ATOM      6  C   UNL     1     -16.404  27.164  53.423  1.00  0.00     0.146 A 
ATOM      7  O   UNL     1     -18.410  25.850  50.731  1.00  0.00    -0.285 OA
ATOM      8  C   UNL     1     -17.286  26.251  52.785  1.00  0.00     0.111 A 
ATOM      9  C   UNL     1     -15.762  26.792  54.614  1.00  0.00     0.094 A 
ATOM     10  C   UNL     1     -17.708  25.096  53.474  1.00  0.00     0.134 A 
ATOM     11  C   UNL     1     -16.115  25.608  55.294  1.00  0.00     0.123 A 
ATOM     12  C   UNL     1     -17.092  24.776  54.712  1.00  0.00     0.093 A 
BRANCH   3  13
ATOM     13  C   UNL     1     -16.597  30.104  51.352  1.00  0.00     0.025 A 
ATOM     14  C   UNL     1     -17.809  30.807  51.541  1.00  0.00     0.016 A 
ATOM     15  C   UNL     1     -18.332  31.625  50.498  1.00  0.00     0.051 A 
ATOM     16  C   UNL     1     -17.363  32.161  49.636  1.00  0.00     0.157 A 
ATOM     17  C   UNL     1     -15.808  30.464  50.208  1.00  0.00     0.062 A 
ATOM     18  C   UNL     1     -16.373  31.265  49.199  1.00  0.00     0.158 A 
BRANCH  16  19
ATOM     19  O   UNL     1     -17.018  33.495  49.779  1.00  0.00    -0.504 OA
ATOM     20  H   UNL     1     -17.609  34.233  49.359  1.00  0.00     0.293 HD
ENDBRANCH  16  19
BRANCH  18  21
ATOM     21  O   UNL     1     -16.595  30.597  47.960  1.00  0.00    -0.504 OA
ATOM     22  H   UNL     1     -16.104  31.061  47.163  1.00  0.00     0.293 HD
ENDBRANCH  18  21
ENDBRANCH   3  13
BRANCH  10  23
ATOM     23  O   UNL     1     -18.704  24.260  52.951  1.00  0.00    -0.507 OA
ATOM     24  H   UNL     1     -19.436  24.681  52.381  1.00  0.00     0.293 HD
ENDBRANCH  10  23
BRANCH  11  25
ATOM     25  O   UNL     1     -15.510  25.256  56.487  1.00  0.00    -0.508 OA
ATOM     26  H   UNL     1     -14.902  24.454  56.616  1.00  0.00     0.293 HD
ENDBRANCH  11  25
ENDBRANCH   1   2
BRANCH   1  27
ATOM     27  C   UNL     1     -15.838  26.944  48.704  1.00  0.00     0.339 C 
ATOM     28  C   UNL     1     -14.528  27.744  48.393  1.00  0.00     0.214 C 
ATOM     29  O   UNL     1     -16.366  26.495  47.466  1.00  0.00    -0.332 OA
ATOM     30  C   UNL     1     -13.897  27.216  47.047  1.00  0.00     0.180 C 
ATOM     31  C   UNL     1     -15.629  25.405  46.944  1.00  0.00     0.179 C 
ATOM     32  C   UNL     1     -14.105  25.668  46.953  1.00  0.00     0.177 C 
BRANCH  28  33
ATOM     33  O   UNL     1     -13.613  27.540  49.453  1.00  0.00    -0.384 OA
ATOM     34  H   UNL     1     -14.110  27.084  50.196  1.00  0.00     0.211 HD
ENDBRANCH  28  33
BRANCH  30  35
ATOM     35  O   UNL     1     -12.519  27.597  46.967  1.00  0.00    -0.387 OA
ATOM     36  H   UNL     1     -12.143  27.306  46.079  1.00  0.00     0.211 HD
ENDBRANCH  30  35
BRANCH  31  37
ATOM     37  C   UNL     1     -16.229  25.195  45.518  1.00  0.00     0.191 C 
BRANCH  37  38
ATOM     38  O   UNL     1     -15.976  23.876  45.017  1.00  0.00    -0.394 OA
ATOM     39  H   UNL     1     -16.777  23.336  45.209  1.00  0.00     0.210 HD
ENDBRANCH  37  38
ENDBRANCH  31  37
BRANCH  32  40
ATOM     40  O   UNL     1     -13.516  25.039  45.844  1.00  0.00    -0.387 OA
ATOM     41  H   UNL     1     -14.148  25.112  45.083  1.00  0.00     0.211 HD
ENDBRANCH  32  40
ENDBRANCH   1  27
TORSDOF 12
ENDMDL
MODEL 5
REMARK VINA RESULT:    -7.110      1.768      6.403
REMARK INTER + INTRA:         -11.673
REMARK INTER:                  -9.959
REMARK INTRA:                  -1.714
REMARK UNBOUND:                -1.238
REMARK SMILES O=c1c(O[C@H]2O[C@@H](CO)[C@@H](O)[C@H](O)[C@@H]2O)c(-c2ccc(O)c(O)c2)oc2cc(O)cc(O)c12
REMARK SMILES IDX 4 1 3 2 16 3 25 4 2 5 26 6 1 7 33 8 27 9 31 10 28 11 30 12
REMARK SMILES IDX 17 13 18 14 19 15 20 16 24 17 22 18 21 19 23 21 32 23 29 25
REMARK SMILES IDX 5 27 14 28 6 29 12 30 7 31 10 32 15 33 13 35 8 37 9 38 11 40
REMARK H PARENT 21 20 23 22 32 24 29 26 15 34 13 36 9 39 11 41
REMARK Flexibility Score: inf
ROOT
ATOM      1  O   UNL     1     -15.570  29.091  49.062  1.00  0.00    -0.454 OA
ENDROOT
BRANCH   1   2
ATOM      2  C   UNL     1     -16.152  28.111  49.883  1.00  0.00     0.214 A 
ATOM      3  C   UNL     1     -17.169  27.255  49.422  1.00  0.00     0.180 A 
ATOM      4  O   UNL     1     -18.114  26.839  50.282  1.00  0.00    -0.452 OA
ATOM      5  C   UNL     1     -15.826  27.979  51.253  1.00  0.00     0.239 A 
ATOM      6  C   UNL     1     -17.999  26.966  51.590  1.00  0.00     0.146 A 
ATOM      7  O   UNL     1     -14.672  28.356  51.617  1.00  0.00    -0.285 OA
ATOM      8  C   UNL     1     -16.772  27.390  52.167  1.00  0.00     0.111 A 
ATOM      9  C   UNL     1     -19.105  26.716  52.416  1.00  0.00     0.094 A 
ATOM     10  C   UNL     1     -16.596  27.309  53.563  1.00  0.00     0.134 A 
ATOM     11  C   UNL     1     -18.976  26.693  53.821  1.00  0.00     0.123 A 
ATOM     12  C   UNL     1     -17.715  26.986  54.375  1.00  0.00     0.093 A 
BRANCH   3  13
ATOM     13  C   UNL     1     -17.230  26.703  48.081  1.00  0.00     0.025 A 
ATOM     14  C   UNL     1     -16.153  25.898  47.641  1.00  0.00     0.016 A 
ATOM     15  C   UNL     1     -15.523  26.168  46.392  1.00  0.00     0.051 A 
ATOM     16  C   UNL     1     -16.356  26.771  45.437  1.00  0.00     0.157 A 
ATOM     17  C   UNL     1     -17.815  27.591  47.117  1.00  0.00     0.062 A 
ATOM     18  C   UNL     1     -17.147  27.833  45.902  1.00  0.00     0.158 A 
BRANCH  16  19
ATOM     19  O   UNL     1     -16.853  25.988  44.407  1.00  0.00    -0.504 OA
ATOM     20  H   UNL     1     -17.302  26.431  43.587  1.00  0.00     0.293 HD
ENDBRANCH  16  19
BRANCH  18  21
ATOM     21  O   UNL     1     -16.625  29.152  45.760  1.00  0.00    -0.504 OA
ATOM     22  H   UNL     1     -15.636  29.155  45.426  1.00  0.00     0.293 HD
ENDBRANCH  18  21
ENDBRANCH   3  13
BRANCH  10  23
ATOM     23  O   UNL     1     -15.349  27.555  54.155  1.00  0.00    -0.507 OA
ATOM     24  H   UNL     1     -14.856  28.409  53.902  1.00  0.00     0.293 HD
ENDBRANCH  10  23
BRANCH  11  25
ATOM     25  O   UNL     1     -20.056  26.411  54.637  1.00  0.00    -0.508 OA
ATOM     26  H   UNL     1     -19.995  26.180  55.623  1.00  0.00     0.293 HD
ENDBRANCH  11  25
ENDBRANCH   1   2
BRANCH   1  27
ATOM     27  C   UNL     1     -15.956  30.502  49.160  1.00  0.00     0.339 C 
ATOM     28  C   UNL     1     -17.085  30.747  50.218  1.00  0.00     0.214 C 
ATOM     29  O   UNL     1     -16.450  30.938  47.903  1.00  0.00    -0.332 OA
ATOM     30  C   UNL     1     -18.001  31.939  49.743  1.00  0.00     0.180 C 
ATOM     31  C   UNL     1     -16.464  32.350  47.805  1.00  0.00     0.179 C 
ATOM     32  C   UNL     1     -17.117  33.019  49.036  1.00  0.00     0.177 C 
BRANCH  28  33
ATOM     33  O   UNL     1     -16.479  31.083  51.453  1.00  0.00    -0.384 OA
ATOM     34  H   UNL     1     -17.169  31.555  52.008  1.00  0.00     0.211 HD
ENDBRANCH  28  33
BRANCH  30  35
ATOM     35  O   UNL     1     -18.739  32.466  50.852  1.00  0.00    -0.387 OA
ATOM     36  H   UNL     1     -19.506  33.022  50.510  1.00  0.00     0.211 HD
ENDBRANCH  30  35
BRANCH  31  37
ATOM     37  C   UNL     1     -17.212  32.625  46.462  1.00  0.00     0.191 C 
BRANCH  37  38
ATOM     38  O   UNL     1     -16.494  32.113  45.332  1.00  0.00    -0.394 OA
ATOM     39  H   UNL     1     -17.019  31.361  44.973  1.00  0.00     0.210 HD
ENDBRANCH  37  38
ENDBRANCH  31  37
BRANCH  32  40
ATOM     40  O   UNL     1     -17.783  34.189  48.635  1.00  0.00    -0.387 OA
ATOM     41  H   UNL     1     -17.102  34.821  48.288  1.00  0.00     0.211 HD
ENDBRANCH  32  40
ENDBRANCH   1  27
TORSDOF 12
ENDMDL
MODEL 6
REMARK VINA RESULT:    -7.016      1.797      7.678
REMARK INTER + INTRA:         -11.535
REMARK INTER:                 -10.092
REMARK INTRA:                  -1.442
REMARK UNBOUND:                -1.238
REMARK SMILES O=c1c(O[C@H]2O[C@@H](CO)[C@@H](O)[C@H](O)[C@@H]2O)c(-c2ccc(O)c(O)c2)oc2cc(O)cc(O)c12
REMARK SMILES IDX 4 1 3 2 16 3 25 4 2 5 26 6 1 7 33 8 27 9 31 10 28 11 30 12
REMARK SMILES IDX 17 13 18 14 19 15 20 16 24 17 22 18 21 19 23 21 32 23 29 25
REMARK SMILES IDX 5 27 14 28 6 29 12 30 7 31 10 32 15 33 13 35 8 37 9 38 11 40
REMARK H PARENT 21 20 23 22 32 24 29 26 15 34 13 36 9 39 11 41
REMARK Flexibility Score: inf
ROOT
ATOM      1  O   UNL     1     -17.721  29.971  48.999  1.00  0.00    -0.454 OA
ENDROOT
BRANCH   1   2
ATOM      2  C   UNL     1     -17.166  28.693  48.823  1.00  0.00     0.214 A 
ATOM      3  C   UNL     1     -16.312  28.109  49.777  1.00  0.00     0.180 A 
ATOM      4  O   UNL     1     -15.329  27.292  49.361  1.00  0.00    -0.452 OA
ATOM      5  C   UNL     1     -17.347  27.945  47.636  1.00  0.00     0.239 A 
ATOM      6  C   UNL     1     -15.280  26.792  48.142  1.00  0.00     0.146 A 
ATOM      7  O   UNL     1     -18.402  28.159  46.967  1.00  0.00    -0.285 OA
ATOM      8  C   UNL     1     -16.377  26.950  47.254  1.00  0.00     0.111 A 
ATOM      9  C   UNL     1     -14.123  26.129  47.706  1.00  0.00     0.094 A 
ATOM     10  C   UNL     1     -16.402  26.227  46.045  1.00  0.00     0.134 A 
ATOM     11  C   UNL     1     -14.093  25.450  46.469  1.00  0.00     0.123 A 
ATOM     12  C   UNL     1     -15.242  25.507  45.655  1.00  0.00     0.093 A 
BRANCH   3  13
ATOM     13  C   UNL     1     -16.467  28.255  51.212  1.00  0.00     0.025 A 
ATOM     14  C   UNL     1     -15.305  28.203  52.017  1.00  0.00     0.016 A 
ATOM     15  C   UNL     1     -15.256  27.336  53.147  1.00  0.00     0.051 A 
ATOM     16  C   UNL     1     -16.503  27.073  53.734  1.00  0.00     0.157 A 
ATOM     17  C   UNL     1     -17.647  27.625  51.732  1.00  0.00     0.062 A 
ATOM     18  C   UNL     1     -17.545  26.769  52.843  1.00  0.00     0.158 A 
BRANCH  16  19
ATOM     19  O   UNL     1     -16.823  27.718  54.918  1.00  0.00    -0.504 OA
ATOM     20  H   UNL     1     -17.265  27.194  55.693  1.00  0.00     0.293 HD
ENDBRANCH  16  19
BRANCH  18  21
ATOM     21  O   UNL     1     -17.785  25.393  52.560  1.00  0.00    -0.504 OA
ATOM     22  H   UNL     1     -18.794  25.192  52.381  1.00  0.00     0.293 HD
ENDBRANCH  18  21
ENDBRANCH   3  13
BRANCH  10  23
ATOM     23  O   UNL     1     -17.538  26.223  45.222  1.00  0.00    -0.507 OA
ATOM     24  H   UNL     1     -17.614  26.941  44.504  1.00  0.00     0.293 HD
ENDBRANCH  10  23
BRANCH  11  25
ATOM     25  O   UNL     1     -12.968  24.766  46.051  1.00  0.00    -0.508 OA
ATOM     26  H   UNL     1     -12.081  24.748  46.545  1.00  0.00     0.293 HD
ENDBRANCH  11  25
ENDBRANCH   1   2
BRANCH   1  27
ATOM     27  C   UNL     1     -17.110  31.163  48.402  1.00  0.00     0.339 C 
ATOM     28  C   UNL     1     -17.313  32.447  49.276  1.00  0.00     0.214 C 
ATOM     29  O   UNL     1     -17.708  31.410  47.138  1.00  0.00    -0.332 OA
ATOM     30  C   UNL     1     -17.433  33.708  48.337  1.00  0.00     0.180 C 
ATOM     31  C   UNL     1     -16.918  32.275  46.344  1.00  0.00     0.179 C 
ATOM     32  C   UNL     1     -16.468  33.537  47.117  1.00  0.00     0.177 C 
BRANCH  28  33
ATOM     33  O   UNL     1     -16.188  32.597  50.123  1.00  0.00    -0.384 OA
ATOM     34  H   UNL     1     -16.518  32.963  50.997  1.00  0.00     0.211 HD
ENDBRANCH  28  33
BRANCH  30  35
ATOM     35  O   UNL     1     -17.177  34.904  49.082  1.00  0.00    -0.387 OA
ATOM     36  H   UNL     1     -16.428  34.739  49.733  1.00  0.00     0.211 HD
ENDBRANCH  30  35
BRANCH  31  37
ATOM     37  C   UNL     1     -17.822  32.577  45.107  1.00  0.00     0.191 C 
BRANCH  37  38
ATOM     38  O   UNL     1     -17.054  32.746  43.908  1.00  0.00    -0.394 OA
ATOM     39  H   UNL     1     -16.106  32.764  44.174  1.00  0.00     0.210 HD
ENDBRANCH  37  38
ENDBRANCH  31  37
BRANCH  32  40
ATOM     40  O   UNL     1     -16.399  34.626  46.233  1.00  0.00    -0.387 OA
ATOM     41  H   UNL     1     -17.311  35.010  46.154  1.00  0.00     0.211 HD
ENDBRANCH  32  40
ENDBRANCH   1  27
TORSDOF 12
ENDMDL
MODEL 7
REMARK VINA RESULT:    -6.693      1.358      5.120
REMARK INTER + INTRA:         -11.062
REMARK INTER:                  -9.667
REMARK INTRA:                  -1.395
REMARK UNBOUND:                -1.238
REMARK SMILES O=c1c(O[C@H]2O[C@@H](CO)[C@@H](O)[C@H](O)[C@@H]2O)c(-c2ccc(O)c(O)c2)oc2cc(O)cc(O)c12
REMARK SMILES IDX 4 1 3 2 16 3 25 4 2 5 26 6 1 7 33 8 27 9 31 10 28 11 30 12
REMARK SMILES IDX 17 13 18 14 19 15 20 16 24 17 22 18 21 19 23 21 32 23 29 25
REMARK SMILES IDX 5 27 14 28 6 29 12 30 7 31 10 32 15 33 13 35 8 37 9 38 11 40
REMARK H PARENT 21 20 23 22 32 24 29 26 15 34 13 36 9 39 11 41
REMARK Flexibility Score: inf
ROOT
ATOM      1  O   UNL     1     -15.706  28.730  51.343  1.00  0.00    -0.454 OA
ENDROOT
BRANCH   1   2
ATOM      2  C   UNL     1     -15.870  28.535  49.962  1.00  0.00     0.214 A 
ATOM      3  C   UNL     1     -16.735  29.333  49.190  1.00  0.00     0.180 A 
ATOM      4  O   UNL     1     -17.366  28.784  48.138  1.00  0.00    -0.452 OA
ATOM      5  C   UNL     1     -15.254  27.467  49.268  1.00  0.00     0.239 A 
ATOM      6  C   UNL     1     -17.023  27.620  47.623  1.00  0.00     0.146 A 
ATOM      7  O   UNL     1     -14.167  27.015  49.740  1.00  0.00    -0.285 OA
ATOM      8  C   UNL     1     -15.835  26.967  48.049  1.00  0.00     0.111 A 
ATOM      9  C   UNL     1     -17.852  27.004  46.674  1.00  0.00     0.094 A 
ATOM     10  C   UNL     1     -15.368  25.842  47.339  1.00  0.00     0.134 A 
ATOM     11  C   UNL     1     -17.442  25.838  45.992  1.00  0.00     0.123 A 
ATOM     12  C   UNL     1     -16.196  25.276  46.334  1.00  0.00     0.093 A 
BRANCH   3  13
ATOM     13  C   UNL     1     -16.936  30.755  49.392  1.00  0.00     0.025 A 
ATOM     14  C   UNL     1     -18.262  31.231  49.517  1.00  0.00     0.016 A 
ATOM     15  C   UNL     1     -18.706  32.327  48.722  1.00  0.00     0.051 A 
ATOM     16  C   UNL     1     -17.694  33.225  48.350  1.00  0.00     0.157 A 
ATOM     17  C   UNL     1     -16.015  31.579  48.661  1.00  0.00     0.062 A 
ATOM     18  C   UNL     1     -16.505  32.644  47.882  1.00  0.00     0.158 A 
BRANCH  16  19
ATOM     19  O   UNL     1     -17.610  34.437  49.016  1.00  0.00    -0.504 OA
ATOM     20  H   UNL     1     -17.239  34.476  49.981  1.00  0.00     0.293 HD
ENDBRANCH  16  19
BRANCH  18  21
ATOM     21  O   UNL     1     -16.373  32.463  46.474  1.00  0.00    -0.504 OA
ATOM     22  H   UNL     1     -15.600  33.035  46.069  1.00  0.00     0.293 HD
ENDBRANCH  18  21
ENDBRANCH   3  13
BRANCH  10  23
ATOM     23  O   UNL     1     -14.118  25.272  47.619  1.00  0.00    -0.507 OA
ATOM     24  H   UNL     1     -13.517  25.022  46.836  1.00  0.00     0.293 HD
ENDBRANCH  10  23
BRANCH  11  25
ATOM     25  O   UNL     1     -18.241  25.249  45.031  1.00  0.00    -0.508 OA
ATOM     26  H   UNL     1     -18.237  24.261  44.797  1.00  0.00     0.293 HD
ENDBRANCH  11  25
ENDBRANCH   1   2
BRANCH   1  27
ATOM     27  C   UNL     1     -16.347  27.849  52.324  1.00  0.00     0.339 C 
ATOM     28  C   UNL     1     -15.311  27.110  53.238  1.00  0.00     0.214 C 
ATOM     29  O   UNL     1     -17.094  26.855  51.640  1.00  0.00    -0.332 OA
ATOM     30  C   UNL     1     -15.871  25.687  53.622  1.00  0.00     0.180 C 
ATOM     31  C   UNL     1     -18.040  26.232  52.488  1.00  0.00     0.179 C 
ATOM     32  C   UNL     1     -17.419  25.780  53.830  1.00  0.00     0.177 C 
BRANCH  28  33
ATOM     33  O   UNL     1     -15.124  27.875  54.415  1.00  0.00    -0.384 OA
ATOM     34  H   UNL     1     -15.000  27.231  55.175  1.00  0.00     0.211 HD
ENDBRANCH  28  33
BRANCH  30  35
ATOM     35  O   UNL     1     -15.186  25.183  54.775  1.00  0.00    -0.387 OA
ATOM     36  H   UNL     1     -14.280  24.838  54.502  1.00  0.00     0.211 HD
ENDBRANCH  30  35
BRANCH  31  37
ATOM     37  C   UNL     1     -18.604  25.060  51.623  1.00  0.00     0.191 C 
BRANCH  37  38
ATOM     38  O   UNL     1     -19.918  24.668  52.041  1.00  0.00    -0.394 OA
ATOM     39  H   UNL     1     -19.868  24.470  53.004  1.00  0.00     0.210 HD
ENDBRANCH  37  38
ENDBRANCH  31  37
BRANCH  32  40
ATOM     40  O   UNL     1     -18.050  24.603  54.264  1.00  0.00    -0.387 OA
ATOM     41  H   UNL     1     -17.396  24.091  54.808  1.00  0.00     0.211 HD
ENDBRANCH  32  40
ENDBRANCH   1  27
TORSDOF 12
ENDMDL
MODEL 8
REMARK VINA RESULT:    -6.626      1.905      7.429
REMARK INTER + INTRA:         -10.963
REMARK INTER:                  -9.640
REMARK INTRA:                  -1.323
REMARK UNBOUND:                -1.238
REMARK SMILES O=c1c(O[C@H]2O[C@@H](CO)[C@@H](O)[C@H](O)[C@@H]2O)c(-c2ccc(O)c(O)c2)oc2cc(O)cc(O)c12
REMARK SMILES IDX 4 1 3 2 16 3 25 4 2 5 26 6 1 7 33 8 27 9 31 10 28 11 30 12
REMARK SMILES IDX 17 13 18 14 19 15 20 16 24 17 22 18 21 19 23 21 32 23 29 25
REMARK SMILES IDX 5 27 14 28 6 29 12 30 7 31 10 32 15 33 13 35 8 37 9 38 11 40
REMARK H PARENT 21 20 23 22 32 24 29 26 15 34 13 36 9 39 11 41
REMARK Flexibility Score: inf
ROOT
ATOM      1  O   UNL     1     -18.693  28.685  49.092  1.00  0.00    -0.454 OA
ENDROOT
BRANCH   1   2
ATOM      2  C   UNL     1     -17.707  27.694  48.954  1.00  0.00     0.214 A 
ATOM      3  C   UNL     1     -16.615  27.596  49.837  1.00  0.00     0.180 A 
ATOM      4  O   UNL     1     -15.434  27.157  49.368  1.00  0.00    -0.452 OA
ATOM      5  C   UNL     1     -17.689  26.788  47.868  1.00  0.00     0.239 A 
ATOM      6  C   UNL     1     -15.302  26.561  48.200  1.00  0.00     0.146 A 
ATOM      7  O   UNL     1     -18.799  26.508  47.324  1.00  0.00    -0.285 OA
ATOM      8  C   UNL     1     -16.449  26.186  47.450  1.00  0.00     0.111 A 
ATOM      9  C   UNL     1     -14.022  26.327  47.676  1.00  0.00     0.094 A 
ATOM     10  C   UNL     1     -16.299  25.359  46.319  1.00  0.00     0.134 A 
ATOM     11  C   UNL     1     -13.841  25.557  46.507  1.00  0.00     0.123 A 
ATOM     12  C   UNL     1     -14.990  25.078  45.846  1.00  0.00     0.093 A 
BRANCH   3  13
ATOM     13  C   UNL     1     -16.688  27.853  51.262  1.00  0.00     0.025 A 
ATOM     14  C   UNL     1     -15.484  28.109  51.958  1.00  0.00     0.016 A 
ATOM     15  C   UNL     1     -15.178  27.386  53.147  1.00  0.00     0.051 A 
ATOM     16  C   UNL     1     -16.299  26.949  53.868  1.00  0.00     0.157 A 
ATOM     17  C   UNL     1     -17.677  27.065  51.941  1.00  0.00     0.062 A 
ATOM     18  C   UNL     1     -17.322  26.361  53.108  1.00  0.00     0.158 A 
BRANCH  16  19
ATOM     19  O   UNL     1     -16.654  27.637  55.018  1.00  0.00    -0.504 OA
ATOM     20  H   UNL     1     -17.412  27.281  55.624  1.00  0.00     0.293 HD
ENDBRANCH  16  19
BRANCH  18  21
ATOM     21  O   UNL     1     -17.302  24.943  52.966  1.00  0.00    -0.504 OA
ATOM     22  H   UNL     1     -18.257  24.524  53.011  1.00  0.00     0.293 HD
ENDBRANCH  18  21
ENDBRANCH   3  13
BRANCH  10  23
ATOM     23  O   UNL     1     -17.413  24.828  45.652  1.00  0.00    -0.507 OA
ATOM     24  H   UNL     1     -17.876  24.018  46.059  1.00  0.00     0.293 HD
ENDBRANCH  10  23
BRANCH  11  25
ATOM     25  O   UNL     1     -12.580  25.293  46.008  1.00  0.00    -0.508 OA
ATOM     26  H   UNL     1     -12.112  25.839  45.291  1.00  0.00     0.293 HD
ENDBRANCH  11  25
ENDBRANCH   1   2
BRANCH   1  27
ATOM     27  C   UNL     1     -18.554  30.000  48.458  1.00  0.00     0.339 C 
ATOM     28  C   UNL     1     -17.923  29.915  47.026  1.00  0.00     0.214 C 
ATOM     29  O   UNL     1     -17.702  30.812  49.250  1.00  0.00    -0.332 OA
ATOM     30  C   UNL     1     -17.060  31.207  46.756  1.00  0.00     0.180 C 
ATOM     31  C   UNL     1     -17.837  32.184  48.931  1.00  0.00     0.179 C 
ATOM     32  C   UNL     1     -17.763  32.443  47.408  1.00  0.00     0.177 C 
BRANCH  28  33
ATOM     33  O   UNL     1     -18.970  29.842  46.076  1.00  0.00    -0.384 OA
ATOM     34  H   UNL     1     -19.366  30.761  45.993  1.00  0.00     0.211 HD
ENDBRANCH  28  33
BRANCH  30  35
ATOM     35  O   UNL     1     -16.844  31.370  45.349  1.00  0.00    -0.387 OA
ATOM     36  H   UNL     1     -15.901  31.100  45.121  1.00  0.00     0.211 HD
ENDBRANCH  30  35
BRANCH  31  37
ATOM     37  C   UNL     1     -16.699  32.873  49.748  1.00  0.00     0.191 C 
BRANCH  37  38
ATOM     38  O   UNL     1     -15.890  31.921  50.451  1.00  0.00    -0.394 OA
ATOM     39  H   UNL     1     -16.089  31.035  50.070  1.00  0.00     0.210 HD
ENDBRANCH  37  38
ENDBRANCH  31  37
BRANCH  32  40
ATOM     40  O   UNL     1     -17.154  33.687  47.175  1.00  0.00    -0.387 OA
ATOM     41  H   UNL     1     -17.874  34.351  47.015  1.00  0.00     0.211 HD
ENDBRANCH  32  40
ENDBRANCH   1  27
TORSDOF 12
ENDMDL
MODEL 9
REMARK VINA RESULT:    -6.604      1.566      5.465
REMARK INTER + INTRA:         -10.931
REMARK INTER:                  -9.381
REMARK INTRA:                  -1.550
REMARK UNBOUND:                -1.238
REMARK SMILES O=c1c(O[C@H]2O[C@@H](CO)[C@@H](O)[C@H](O)[C@@H]2O)c(-c2ccc(O)c(O)c2)oc2cc(O)cc(O)c12
REMARK SMILES IDX 4 1 3 2 16 3 25 4 2 5 26 6 1 7 33 8 27 9 31 10 28 11 30 12
REMARK SMILES IDX 17 13 18 14 19 15 20 16 24 17 22 18 21 19 23 21 32 23 29 25
REMARK SMILES IDX 5 27 14 28 6 29 12 30 7 31 10 32 15 33 13 35 8 37 9 38 11 40
REMARK H PARENT 21 20 23 22 32 24 29 26 15 34 13 36 9 39 11 41
REMARK Flexibility Score: inf
ROOT
ATOM      1  O   UNL     1     -15.414  28.276  51.429  1.00  0.00    -0.454 OA
ENDROOT
BRANCH   1   2
ATOM      2  C   UNL     1     -15.562  28.192  50.035  1.00  0.00     0.214 A 
ATOM      3  C   UNL     1     -16.300  29.139  49.301  1.00  0.00     0.180 A 
ATOM      4  O   UNL     1     -16.965  28.741  48.203  1.00  0.00    -0.452 OA
ATOM      5  C   UNL     1     -15.063  27.102  49.283  1.00  0.00     0.239 A 
ATOM      6  C   UNL     1     -16.753  27.579  47.618  1.00  0.00     0.146 A 
ATOM      7  O   UNL     1     -14.054  26.489  49.746  1.00  0.00    -0.285 OA
ATOM      8  C   UNL     1     -15.667  26.757  48.022  1.00  0.00     0.111 A 
ATOM      9  C   UNL     1     -17.625  27.133  46.614  1.00  0.00     0.094 A 
ATOM     10  C   UNL     1     -15.322  25.631  47.248  1.00  0.00     0.134 A 
ATOM     11  C   UNL     1     -17.342  25.972  45.863  1.00  0.00     0.123 A 
ATOM     12  C   UNL     1     -16.185  25.238  46.192  1.00  0.00     0.093 A 
BRANCH   3  13
ATOM     13  C   UNL     1     -16.330  30.559  49.595  1.00  0.00     0.025 A 
ATOM     14  C   UNL     1     -17.356  31.045  50.440  1.00  0.00     0.016 A 
ATOM     15  C   UNL     1     -18.148  32.159  50.036  1.00  0.00     0.051 A 
ATOM     16  C   UNL     1     -17.497  33.053  49.172  1.00  0.00     0.157 A 
ATOM     17  C   UNL     1     -15.957  31.387  48.483  1.00  0.00     0.062 A 
ATOM     18  C   UNL     1     -16.778  32.470  48.117  1.00  0.00     0.158 A 
BRANCH  16  19
ATOM     19  O   UNL     1     -17.036  34.253  49.691  1.00  0.00    -0.504 OA
ATOM     20  H   UNL     1     -16.271  34.259  50.386  1.00  0.00     0.293 HD
ENDBRANCH  16  19
BRANCH  18  21
ATOM     21  O   UNL     1     -17.453  32.312  46.872  1.00  0.00    -0.504 OA
ATOM     22  H   UNL     1     -17.196  33.052  46.181  1.00  0.00     0.293 HD
ENDBRANCH  18  21
ENDBRANCH   3  13
BRANCH  10  23
ATOM     23  O   UNL     1     -14.159  24.893  47.513  1.00  0.00    -0.507 OA
ATOM     24  H   UNL     1     -13.603  24.572  46.724  1.00  0.00     0.293 HD
ENDBRANCH  10  23
BRANCH  11  25
ATOM     25  O   UNL     1     -18.180  25.549  44.849  1.00  0.00    -0.508 OA
ATOM     26  H   UNL     1     -19.035  26.019  44.567  1.00  0.00     0.293 HD
ENDBRANCH  11  25
ENDBRANCH   1   2
BRANCH   1  27
ATOM     27  C   UNL     1     -16.224  27.459  52.338  1.00  0.00     0.339 C 
ATOM     28  C   UNL     1     -17.598  28.126  52.686  1.00  0.00     0.214 C 
ATOM     29  O   UNL     1     -15.518  27.277  53.556  1.00  0.00    -0.332 OA
ATOM     30  C   UNL     1     -18.012  27.737  54.157  1.00  0.00     0.180 C 
ATOM     31  C   UNL     1     -16.039  26.197  54.308  1.00  0.00     0.179 C 
ATOM     32  C   UNL     1     -17.578  26.262  54.443  1.00  0.00     0.177 C 
BRANCH  28  33
ATOM     33  O   UNL     1     -18.574  27.645  51.780  1.00  0.00    -0.384 OA
ATOM     34  H   UNL     1     -18.682  28.336  51.060  1.00  0.00     0.211 HD
ENDBRANCH  28  33
BRANCH  30  35
ATOM     35  O   UNL     1     -19.416  27.948  54.346  1.00  0.00    -0.387 OA
ATOM     36  H   UNL     1     -19.587  28.924  54.527  1.00  0.00     0.211 HD
ENDBRANCH  30  35
BRANCH  31  37
ATOM     37  C   UNL     1     -15.278  26.289  55.669  1.00  0.00     0.191 C 
BRANCH  37  38
ATOM     38  O   UNL     1     -15.308  25.047  56.386  1.00  0.00    -0.394 OA
ATOM     39  H   UNL     1     -15.228  25.265  57.343  1.00  0.00     0.210 HD
ENDBRANCH  37  38
ENDBRANCH  31  37
BRANCH  32  40
ATOM     40  O   UNL     1     -17.960  25.742  55.690  1.00  0.00    -0.387 OA
ATOM     41  H   UNL     1     -18.453  24.896  55.528  1.00  0.00     0.211 HD
ENDBRANCH  32  40
ENDBRANCH   1  27
TORSDOF 12
ENDMDL
