MODEL 1
REMARK VINA RESULT:    -8.578      0.000      0.000
REMARK INTER + INTRA:         -10.213
REMARK INTER:                 -10.083
REMARK INTRA:                  -0.130
REMARK UNBOUND:                -0.130
REMARK SMILES O=c1c(O)c(-c2ccc(O)cc2)oc2cc(O)cc(O)c12
REMARK SMILES IDX 5 1 3 2 2 3 1 4 21 5 19 6 18 7 16 8 15 9 14 10 13 11 6 12
REMARK SMILES IDX 7 13 8 14 9 15 12 16 11 17 10 18 4 20 20 22 17 24
REMARK H PARENT 10 19 4 21 20 23 17 25
REMARK Flexibility Score: inf
ROOT
ATOM      1  C   UNL     1       9.955 -46.231  35.666  1.00  0.00     0.180 A 
ATOM      2  C   UNL     1       9.148 -46.776  36.680  1.00  0.00     0.208 A 
ATOM      3  C   UNL     1       9.737 -47.130  37.904  1.00  0.00     0.238 A 
ATOM      4  O   UNL     1       9.020 -47.666  38.787  1.00  0.00    -0.285 OA
ATOM      5  C   UNL     1      11.123 -46.920  38.103  1.00  0.00     0.111 A 
ATOM      6  C   UNL     1      11.818 -47.206  39.317  1.00  0.00     0.134 A 
ATOM      7  C   UNL     1      13.213 -47.082  39.360  1.00  0.00     0.093 A 
ATOM      8  C   UNL     1      13.929 -46.623  38.256  1.00  0.00     0.123 A 
ATOM      9  C   UNL     1      13.253 -46.285  37.082  1.00  0.00     0.094 A 
ATOM     10  C   UNL     1      11.866 -46.432  36.998  1.00  0.00     0.146 A 
ATOM     11  O   UNL     1      11.262 -46.110  35.860  1.00  0.00    -0.452 OA
ENDROOT
BRANCH   1  12
ATOM     12  C   UNL     1       9.401 -45.811  34.358  1.00  0.00     0.021 A 
ATOM     13  C   UNL     1       9.429 -44.464  33.950  1.00  0.00     0.016 A 
ATOM     14  C   UNL     1       8.922 -44.094  32.700  1.00  0.00     0.047 A 
ATOM     15  C   UNL     1       8.395 -45.062  31.839  1.00  0.00     0.115 A 
ATOM     16  C   UNL     1       8.890 -46.780  33.479  1.00  0.00     0.016 A 
ATOM     17  C   UNL     1       8.383 -46.406  32.230  1.00  0.00     0.047 A 
BRANCH  15  18
ATOM     18  O   UNL     1       7.893 -44.678  30.597  1.00  0.00    -0.508 OA
ATOM     19  H   UNL     1       7.008 -45.029  30.252  1.00  0.00     0.293 HD
ENDBRANCH  15  18
ENDBRANCH   1  12
BRANCH   2  20
ATOM     20  O   UNL     1       7.786 -46.993  36.453  1.00  0.00    -0.502 OA
ATOM     21  H   UNL     1       7.446 -47.571  35.693  1.00  0.00     0.293 HD
ENDBRANCH   2  20
BRANCH   6  22
ATOM     22  O   UNL     1      11.189 -47.583  40.507  1.00  0.00    -0.507 OA
ATOM     23  H   UNL     1      10.944 -48.531  40.752  1.00  0.00     0.293 HD
ENDBRANCH   6  22
BRANCH   8  24
ATOM     24  O   UNL     1      15.314 -46.498  38.338  1.00  0.00    -0.508 OA
ATOM     25  H   UNL     1      15.824 -46.785  39.165  1.00  0.00     0.293 HD
ENDBRANCH   8  24
TORSDOF 5
ENDMDL
MODEL 2
REMARK VINA RESULT:    -8.119      3.687      5.505
REMARK INTER + INTRA:          -9.673
REMARK INTER:                  -9.388
REMARK INTRA:                  -0.285
REMARK UNBOUND:                -0.130
REMARK SMILES O=c1c(O)c(-c2ccc(O)cc2)oc2cc(O)cc(O)c12
REMARK SMILES IDX 5 1 3 2 2 3 1 4 21 5 19 6 18 7 16 8 15 9 14 10 13 11 6 12
REMARK SMILES IDX 7 13 8 14 9 15 12 16 11 17 10 18 4 20 20 22 17 24
REMARK H PARENT 10 19 4 21 20 23 17 25
REMARK Flexibility Score: inf
ROOT
ATOM      1  C   UNL     1       7.492 -48.751  36.016  1.00  0.00     0.180 A 
ATOM      2  C   UNL     1       7.952 -48.186  34.814  1.00  0.00     0.208 A 
ATOM      3  C   UNL     1       9.051 -47.314  34.847  1.00  0.00     0.238 A 
ATOM      4  O   UNL     1       9.424 -46.770  33.776  1.00  0.00    -0.285 OA
ATOM      5  C   UNL     1       9.687 -47.030  36.081  1.00  0.00     0.111 A 
ATOM      6  C   UNL     1      10.833 -46.192  36.227  1.00  0.00     0.134 A 
ATOM      7  C   UNL     1      11.299 -45.876  37.510  1.00  0.00     0.093 A 
ATOM      8  C   UNL     1      10.702 -46.419  38.647  1.00  0.00     0.123 A 
ATOM      9  C   UNL     1       9.616 -47.287  38.512  1.00  0.00     0.094 A 
ATOM     10  C   UNL     1       9.107 -47.591  37.248  1.00  0.00     0.146 A 
ATOM     11  O   UNL     1       8.067 -48.413  37.164  1.00  0.00    -0.452 OA
ENDROOT
BRANCH   1  12
ATOM     12  C   UNL     1       6.355 -49.699  36.057  1.00  0.00     0.021 A 
ATOM     13  C   UNL     1       6.528 -51.065  35.766  1.00  0.00     0.016 A 
ATOM     14  C   UNL     1       5.444 -51.945  35.836  1.00  0.00     0.047 A 
ATOM     15  C   UNL     1       4.179 -51.478  36.208  1.00  0.00     0.115 A 
ATOM     16  C   UNL     1       5.086 -49.241  36.451  1.00  0.00     0.016 A 
ATOM     17  C   UNL     1       4.004 -50.124  36.518  1.00  0.00     0.047 A 
BRANCH  15  18
ATOM     18  O   UNL     1       3.108 -52.367  36.272  1.00  0.00    -0.508 OA
ATOM     19  H   UNL     1       3.241 -53.364  36.157  1.00  0.00     0.293 HD
ENDBRANCH  15  18
ENDBRANCH   1  12
BRANCH   2  20
ATOM     20  O   UNL     1       7.296 -48.464  33.611  1.00  0.00    -0.502 OA
ATOM     21  H   UNL     1       7.542 -49.255  33.027  1.00  0.00     0.293 HD
ENDBRANCH   2  20
BRANCH   6  22
ATOM     22  O   UNL     1      11.561 -45.671  35.154  1.00  0.00    -0.507 OA
ATOM     23  H   UNL     1      12.498 -45.952  34.904  1.00  0.00     0.293 HD
ENDBRANCH   6  22
BRANCH   8  24
ATOM     24  O   UNL     1      11.200 -46.096  39.906  1.00  0.00    -0.508 OA
ATOM     25  H   UNL     1      11.800 -46.733  40.419  1.00  0.00     0.293 HD
ENDBRANCH   8  24
TORSDOF 5
ENDMDL
MODEL 3
REMARK VINA RESULT:    -8.048      1.743      6.914
REMARK INTER + INTRA:          -9.589
REMARK INTER:                  -9.565
REMARK INTRA:                  -0.024
REMARK UNBOUND:                -0.130
REMARK SMILES O=c1c(O)c(-c2ccc(O)cc2)oc2cc(O)cc(O)c12
REMARK SMILES IDX 5 1 3 2 2 3 1 4 21 5 19 6 18 7 16 8 15 9 14 10 13 11 6 12
REMARK SMILES IDX 7 13 8 14 9 15 12 16 11 17 10 18 4 20 20 22 17 24
REMARK H PARENT 10 19 4 21 20 23 17 25
REMARK Flexibility Score: inf
ROOT
ATOM      1  C   UNL     1       9.398 -46.553  35.597  1.00  0.00     0.180 A 
ATOM      2  C   UNL     1       8.871 -47.705  34.989  1.00  0.00     0.208 A 
ATOM      3  C   UNL     1       8.185 -47.581  33.770  1.00  0.00     0.238 A 
ATOM      4  O   UNL     1       7.669 -48.608  33.258  1.00  0.00    -0.285 OA
ATOM      5  C   UNL     1       8.049 -46.306  33.167  1.00  0.00     0.111 A 
ATOM      6  C   UNL     1       7.408 -46.069  31.914  1.00  0.00     0.134 A 
ATOM      7  C   UNL     1       7.215 -44.752  31.476  1.00  0.00     0.093 A 
ATOM      8  C   UNL     1       7.696 -43.670  32.212  1.00  0.00     0.123 A 
ATOM      9  C   UNL     1       8.376 -43.895  33.411  1.00  0.00     0.094 A 
ATOM     10  C   UNL     1       8.552 -45.195  33.891  1.00  0.00     0.146 A 
ATOM     11  O   UNL     1       9.195 -45.365  35.040  1.00  0.00    -0.452 OA
ENDROOT
BRANCH   1  12
ATOM     12  C   UNL     1      10.154 -46.608  36.869  1.00  0.00     0.021 A 
ATOM     13  C   UNL     1       9.601 -47.187  38.026  1.00  0.00     0.016 A 
ATOM     14  C   UNL     1      10.343 -47.250  39.209  1.00  0.00     0.047 A 
ATOM     15  C   UNL     1      11.648 -46.748  39.250  1.00  0.00     0.115 A 
ATOM     16  C   UNL     1      11.472 -46.125  36.911  1.00  0.00     0.016 A 
ATOM     17  C   UNL     1      12.212 -46.188  38.097  1.00  0.00     0.047 A 
BRANCH  15  18
ATOM     18  O   UNL     1      12.375 -46.816  40.436  1.00  0.00    -0.508 OA
ATOM     19  H   UNL     1      12.167 -46.209  41.220  1.00  0.00     0.293 HD
ENDBRANCH  15  18
ENDBRANCH   1  12
BRANCH   2  20
ATOM     20  O   UNL     1       8.999 -48.950  35.613  1.00  0.00    -0.502 OA
ATOM     21  H   UNL     1       9.704 -49.625  35.341  1.00  0.00     0.293 HD
ENDBRANCH   2  20
BRANCH   6  22
ATOM     22  O   UNL     1       6.971 -47.081  31.055  1.00  0.00    -0.507 OA
ATOM     23  H   UNL     1       6.013 -47.384  30.964  1.00  0.00     0.293 HD
ENDBRANCH   6  22
BRANCH   8  24
ATOM     24  O   UNL     1       7.500 -42.375  31.739  1.00  0.00    -0.508 OA
ATOM     25  H   UNL     1       7.817 -41.567  32.261  1.00  0.00     0.293 HD
ENDBRANCH   8  24
TORSDOF 5
ENDMDL
MODEL 4
REMARK VINA RESULT:    -7.907      4.118      8.091
REMARK INTER + INTRA:          -9.424
REMARK INTER:                  -9.437
REMARK INTRA:                   0.013
REMARK UNBOUND:                -0.130
REMARK SMILES O=c1c(O)c(-c2ccc(O)cc2)oc2cc(O)cc(O)c12
REMARK SMILES IDX 5 1 3 2 2 3 1 4 21 5 19 6 18 7 16 8 15 9 14 10 13 11 6 12
REMARK SMILES IDX 7 13 8 14 9 15 12 16 11 17 10 18 4 20 20 22 17 24
REMARK H PARENT 10 19 4 21 20 23 17 25
REMARK Flexibility Score: inf
ROOT
ATOM      1  C   UNL     1       7.090 -47.903  34.237  1.00  0.00     0.180 A 
ATOM      2  C   UNL     1       8.302 -47.224  34.025  1.00  0.00     0.208 A 
ATOM      3  C   UNL     1       8.354 -46.204  33.061  1.00  0.00     0.238 A 
ATOM      4  O   UNL     1       9.454 -45.638  32.838  1.00  0.00    -0.285 OA
ATOM      5  C   UNL     1       7.187 -45.866  32.333  1.00  0.00     0.111 A 
ATOM      6  C   UNL     1       7.114 -44.823  31.361  1.00  0.00     0.134 A 
ATOM      7  C   UNL     1       5.944 -44.662  30.607  1.00  0.00     0.093 A 
ATOM      8  C   UNL     1       4.825 -45.461  30.835  1.00  0.00     0.123 A 
ATOM      9  C   UNL     1       4.866 -46.446  31.824  1.00  0.00     0.094 A 
ATOM     10  C   UNL     1       6.031 -46.654  32.567  1.00  0.00     0.146 A 
ATOM     11  O   UNL     1       6.032 -47.607  33.491  1.00  0.00    -0.452 OA
ENDROOT
BRANCH   1  12
ATOM     12  C   UNL     1       6.952 -48.972  35.252  1.00  0.00     0.021 A 
ATOM     13  C   UNL     1       6.480 -50.253  34.908  1.00  0.00     0.016 A 
ATOM     14  C   UNL     1       6.381 -51.254  35.879  1.00  0.00     0.047 A 
ATOM     15  C   UNL     1       6.762 -50.995  37.199  1.00  0.00     0.115 A 
ATOM     16  C   UNL     1       7.353 -48.726  36.575  1.00  0.00     0.016 A 
ATOM     17  C   UNL     1       7.251 -49.729  37.545  1.00  0.00     0.047 A 
BRANCH  15  18
ATOM     18  O   UNL     1       6.657 -52.002  38.156  1.00  0.00    -0.508 OA
ATOM     19  H   UNL     1       6.386 -51.798  39.111  1.00  0.00     0.293 HD
ENDBRANCH  15  18
ENDBRANCH   1  12
BRANCH   2  20
ATOM     20  O   UNL     1       9.446 -47.589  34.740  1.00  0.00    -0.502 OA
ATOM     21  H   UNL     1       9.465 -47.630  35.752  1.00  0.00     0.293 HD
ENDBRANCH   2  20
BRANCH   6  22
ATOM     22  O   UNL     1       8.143 -43.908  31.118  1.00  0.00    -0.507 OA
ATOM     23  H   UNL     1       8.830 -43.997  30.385  1.00  0.00     0.293 HD
ENDBRANCH   6  22
BRANCH   8  24
ATOM     24  O   UNL     1       3.673 -45.264  30.078  1.00  0.00    -0.508 OA
ATOM     25  H   UNL     1       2.754 -45.252  30.504  1.00  0.00     0.293 HD
ENDBRANCH   8  24
TORSDOF 5
ENDMDL
MODEL 5
REMARK VINA RESULT:    -7.801      3.054      5.189
REMARK INTER + INTRA:          -9.300
REMARK INTER:                  -9.167
REMARK INTRA:                  -0.133
REMARK UNBOUND:                -0.130
REMARK SMILES O=c1c(O)c(-c2ccc(O)cc2)oc2cc(O)cc(O)c12
REMARK SMILES IDX 5 1 3 2 2 3 1 4 21 5 19 6 18 7 16 8 15 9 14 10 13 11 6 12
REMARK SMILES IDX 7 13 8 14 9 15 12 16 11 17 10 18 4 20 20 22 17 24
REMARK H PARENT 10 19 4 21 20 23 17 25
REMARK Flexibility Score: inf
ROOT
ATOM      1  C   UNL     1       7.987 -47.867  37.684  1.00  0.00     0.180 A 
ATOM      2  C   UNL     1       8.319 -47.123  36.539  1.00  0.00     0.208 A 
ATOM      3  C   UNL     1       9.613 -46.591  36.422  1.00  0.00     0.238 A 
ATOM      4  O   UNL     1       9.887 -45.881  35.421  1.00  0.00    -0.285 OA
ATOM      5  C   UNL     1      10.564 -46.825  37.445  1.00  0.00     0.111 A 
ATOM      6  C   UNL     1      11.916 -46.368  37.414  1.00  0.00     0.134 A 
ATOM      7  C   UNL     1      12.731 -46.545  38.539  1.00  0.00     0.093 A 
ATOM      8  C   UNL     1      12.265 -47.217  39.668  1.00  0.00     0.123 A 
ATOM      9  C   UNL     1      10.963 -47.719  39.687  1.00  0.00     0.094 A 
ATOM     10  C   UNL     1      10.115 -47.527  38.594  1.00  0.00     0.146 A 
ATOM     11  O   UNL     1       8.880 -48.012  38.656  1.00  0.00    -0.452 OA
ENDROOT
BRANCH   1  12
ATOM     12  C   UNL     1       6.651 -48.480  37.867  1.00  0.00     0.021 A 
ATOM     13  C   UNL     1       6.166 -49.459  36.980  1.00  0.00     0.016 A 
ATOM     14  C   UNL     1       4.912 -50.041  37.187  1.00  0.00     0.047 A 
ATOM     15  C   UNL     1       4.132 -49.663  38.285  1.00  0.00     0.115 A 
ATOM     16  C   UNL     1       5.872 -48.121  38.979  1.00  0.00     0.016 A 
ATOM     17  C   UNL     1       4.617 -48.704  39.182  1.00  0.00     0.047 A 
BRANCH  15  18
ATOM     18  O   UNL     1       2.884 -50.251  38.477  1.00  0.00    -0.508 OA
ATOM     19  H   UNL     1       2.488 -50.361  39.403  1.00  0.00     0.293 HD
ENDBRANCH  15  18
ENDBRANCH   1  12
BRANCH   2  20
ATOM     20  O   UNL     1       7.358 -46.887  35.552  1.00  0.00    -0.502 OA
ATOM     21  H   UNL     1       6.832 -46.022  35.500  1.00  0.00     0.293 HD
ENDBRANCH   2  20
BRANCH   6  22
ATOM     22  O   UNL     1      12.511 -45.766  36.301  1.00  0.00    -0.507 OA
ATOM     23  H   UNL     1      13.256 -46.174  35.757  1.00  0.00     0.293 HD
ENDBRANCH   6  22
BRANCH   8  24
ATOM     24  O   UNL     1      13.108 -47.387  40.764  1.00  0.00    -0.508 OA
ATOM     25  H   UNL     1      13.512 -46.596  41.250  1.00  0.00     0.293 HD
ENDBRANCH   8  24
TORSDOF 5
ENDMDL
MODEL 6
REMARK VINA RESULT:    -7.791      3.767      6.668
REMARK INTER + INTRA:          -9.288
REMARK INTER:                  -8.991
REMARK INTRA:                  -0.297
REMARK UNBOUND:                -0.130
REMARK SMILES O=c1c(O)c(-c2ccc(O)cc2)oc2cc(O)cc(O)c12
REMARK SMILES IDX 5 1 3 2 2 3 1 4 21 5 19 6 18 7 16 8 15 9 14 10 13 11 6 12
REMARK SMILES IDX 7 13 8 14 9 15 12 16 11 17 10 18 4 20 20 22 17 24
REMARK H PARENT 10 19 4 21 20 23 17 25
REMARK Flexibility Score: inf
ROOT
ATOM      1  C   UNL     1       6.917 -48.557  35.151  1.00  0.00     0.180 A 
ATOM      2  C   UNL     1       7.995 -48.244  35.997  1.00  0.00     0.208 A 
ATOM      3  C   UNL     1       8.936 -47.289  35.578  1.00  0.00     0.238 A 
ATOM      4  O   UNL     1       9.927 -47.053  36.316  1.00  0.00    -0.285 OA
ATOM      5  C   UNL     1       8.778 -46.649  34.325  1.00  0.00     0.111 A 
ATOM      6  C   UNL     1       9.648 -45.639  33.817  1.00  0.00     0.134 A 
ATOM      7  C   UNL     1       9.472 -45.168  32.509  1.00  0.00     0.093 A 
ATOM      8  C   UNL     1       8.419 -45.623  31.717  1.00  0.00     0.123 A 
ATOM      9  C   UNL     1       7.527 -46.569  32.225  1.00  0.00     0.094 A 
ATOM     10  C   UNL     1       7.699 -47.083  33.512  1.00  0.00     0.146 A 
ATOM     11  O   UNL     1       6.834 -47.988  33.954  1.00  0.00    -0.452 OA
ENDROOT
BRANCH   1  12
ATOM     12  C   UNL     1       5.872 -49.534  35.534  1.00  0.00     0.021 A 
ATOM     13  C   UNL     1       4.747 -49.146  36.286  1.00  0.00     0.016 A 
ATOM     14  C   UNL     1       3.760 -50.081  36.614  1.00  0.00     0.047 A 
ATOM     15  C   UNL     1       3.877 -51.408  36.189  1.00  0.00     0.115 A 
ATOM     16  C   UNL     1       5.972 -50.863  35.092  1.00  0.00     0.016 A 
ATOM     17  C   UNL     1       4.984 -51.796  35.424  1.00  0.00     0.047 A 
BRANCH  15  18
ATOM     18  O   UNL     1       2.887 -52.329  36.525  1.00  0.00    -0.508 OA
ATOM     19  H   UNL     1       2.607 -52.477  37.487  1.00  0.00     0.293 HD
ENDBRANCH  15  18
ENDBRANCH   1  12
BRANCH   2  20
ATOM     20  O   UNL     1       8.142 -48.903  37.221  1.00  0.00    -0.502 OA
ATOM     21  H   UNL     1       8.877 -49.581  37.388  1.00  0.00     0.293 HD
ENDBRANCH   2  20
BRANCH   6  22
ATOM     22  O   UNL     1      10.675 -45.048  34.559  1.00  0.00    -0.507 OA
ATOM     23  H   UNL     1      11.544 -45.501  34.801  1.00  0.00     0.293 HD
ENDBRANCH   6  22
BRANCH   8  24
ATOM     24  O   UNL     1       8.264 -45.123  30.426  1.00  0.00    -0.508 OA
ATOM     25  H   UNL     1       7.361 -44.822  30.079  1.00  0.00     0.293 HD
ENDBRANCH   8  24
TORSDOF 5
ENDMDL
MODEL 7
REMARK VINA RESULT:    -7.770      2.963      6.981
REMARK INTER + INTRA:          -9.263
REMARK INTER:                  -9.044
REMARK INTRA:                  -0.219
REMARK UNBOUND:                -0.130
REMARK SMILES O=c1c(O)c(-c2ccc(O)cc2)oc2cc(O)cc(O)c12
REMARK SMILES IDX 5 1 3 2 2 3 1 4 21 5 19 6 18 7 16 8 15 9 14 10 13 11 6 12
REMARK SMILES IDX 7 13 8 14 9 15 12 16 11 17 10 18 4 20 20 22 17 24
REMARK H PARENT 10 19 4 21 20 23 17 25
REMARK Flexibility Score: inf
ROOT
ATOM      1  C   UNL     1       8.121 -47.370  35.494  1.00  0.00     0.180 A 
ATOM      2  C   UNL     1       9.382 -46.763  35.619  1.00  0.00     0.208 A 
ATOM      3  C   UNL     1       9.802 -45.853  34.634  1.00  0.00     0.238 A 
ATOM      4  O   UNL     1      10.953 -45.354  34.724  1.00  0.00    -0.285 OA
ATOM      5  C   UNL     1       8.947 -45.551  33.546  1.00  0.00     0.111 A 
ATOM      6  C   UNL     1       9.253 -44.616  32.513  1.00  0.00     0.134 A 
ATOM      7  C   UNL     1       8.392 -44.492  31.415  1.00  0.00     0.093 A 
ATOM      8  C   UNL     1       7.206 -45.221  31.346  1.00  0.00     0.123 A 
ATOM      9  C   UNL     1       6.868 -46.096  32.380  1.00  0.00     0.094 A 
ATOM     10  C   UNL     1       7.725 -46.267  33.469  1.00  0.00     0.146 A 
ATOM     11  O   UNL     1       7.372 -47.116  34.427  1.00  0.00    -0.452 OA
ENDROOT
BRANCH   1  12
ATOM     12  C   UNL     1       7.599 -48.320  36.503  1.00  0.00     0.021 A 
ATOM     13  C   UNL     1       7.197 -47.884  37.780  1.00  0.00     0.016 A 
ATOM     14  C   UNL     1       6.684 -48.795  38.708  1.00  0.00     0.047 A 
ATOM     15  C   UNL     1       6.556 -50.147  38.372  1.00  0.00     0.115 A 
ATOM     16  C   UNL     1       7.447 -49.675  36.165  1.00  0.00     0.016 A 
ATOM     17  C   UNL     1       6.936 -50.584  37.097  1.00  0.00     0.047 A 
BRANCH  15  18
ATOM     18  O   UNL     1       6.045 -51.043  39.308  1.00  0.00    -0.508 OA
ATOM     19  H   UNL     1       6.640 -51.714  39.778  1.00  0.00     0.293 HD
ENDBRANCH  15  18
ENDBRANCH   1  12
BRANCH   2  20
ATOM     20  O   UNL     1      10.217 -47.092  36.690  1.00  0.00    -0.502 OA
ATOM     21  H   UNL     1      10.859 -46.426  37.105  1.00  0.00     0.293 HD
ENDBRANCH   2  20
BRANCH   6  22
ATOM     22  O   UNL     1      10.366 -43.770  32.529  1.00  0.00    -0.507 OA
ATOM     23  H   UNL     1      10.633 -43.155  31.774  1.00  0.00     0.293 HD
ENDBRANCH   6  22
BRANCH   8  24
ATOM     24  O   UNL     1       6.364 -45.063  30.247  1.00  0.00    -0.508 OA
ATOM     25  H   UNL     1       5.627 -44.368  30.239  1.00  0.00     0.293 HD
ENDBRANCH   8  24
TORSDOF 5
ENDMDL
MODEL 8
REMARK VINA RESULT:    -7.691      1.699      7.324
REMARK INTER + INTRA:          -9.169
REMARK INTER:                  -9.723
REMARK INTRA:                   0.553
REMARK UNBOUND:                -0.130
REMARK SMILES O=c1c(O)c(-c2ccc(O)cc2)oc2cc(O)cc(O)c12
REMARK SMILES IDX 5 1 3 2 2 3 1 4 21 5 19 6 18 7 16 8 15 9 14 10 13 11 6 12
REMARK SMILES IDX 7 13 8 14 9 15 12 16 11 17 10 18 4 20 20 22 17 24
REMARK H PARENT 10 19 4 21 20 23 17 25
REMARK Flexibility Score: inf
ROOT
ATOM      1  C   UNL     1       9.565 -46.335  35.439  1.00  0.00     0.180 A 
ATOM      2  C   UNL     1      10.408 -45.729  34.491  1.00  0.00     0.208 A 
ATOM      3  C   UNL     1       9.910 -45.467  33.205  1.00  0.00     0.238 A 
ATOM      4  O   UNL     1      10.686 -44.974  32.345  1.00  0.00    -0.285 OA
ATOM      5  C   UNL     1       8.571 -45.800  32.888  1.00  0.00     0.111 A 
ATOM      6  C   UNL     1       7.950 -45.543  31.629  1.00  0.00     0.134 A 
ATOM      7  C   UNL     1       6.660 -46.032  31.382  1.00  0.00     0.093 A 
ATOM      8  C   UNL     1       5.947 -46.711  32.369  1.00  0.00     0.123 A 
ATOM      9  C   UNL     1       6.523 -46.916  33.624  1.00  0.00     0.094 A 
ATOM     10  C   UNL     1       7.821 -46.471  33.887  1.00  0.00     0.146 A 
ATOM     11  O   UNL     1       8.336 -46.695  35.090  1.00  0.00    -0.452 OA
ENDROOT
BRANCH   1  12
ATOM     12  C   UNL     1      10.010 -46.620  36.823  1.00  0.00     0.021 A 
ATOM     13  C   UNL     1       9.235 -47.408  37.694  1.00  0.00     0.016 A 
ATOM     14  C   UNL     1       9.688 -47.684  38.988  1.00  0.00     0.047 A 
ATOM     15  C   UNL     1      10.921 -47.189  39.424  1.00  0.00     0.115 A 
ATOM     16  C   UNL     1      11.258 -46.144  37.260  1.00  0.00     0.016 A 
ATOM     17  C   UNL     1      11.707 -46.422  38.555  1.00  0.00     0.047 A 
BRANCH  15  18
ATOM     18  O   UNL     1      11.358 -47.472  40.716  1.00  0.00    -0.508 OA
ATOM     19  H   UNL     1      11.182 -48.370  41.150  1.00  0.00     0.293 HD
ENDBRANCH  15  18
ENDBRANCH   1  12
BRANCH   2  20
ATOM     20  O   UNL     1      11.733 -45.429  34.820  1.00  0.00    -0.502 OA
ATOM     21  H   UNL     1      12.510 -45.657  34.210  1.00  0.00     0.293 HD
ENDBRANCH   2  20
BRANCH   6  22
ATOM     22  O   UNL     1       8.539 -44.795  30.605  1.00  0.00    -0.507 OA
ATOM     23  H   UNL     1       8.221 -44.781  29.647  1.00  0.00     0.293 HD
ENDBRANCH   6  22
BRANCH   8  24
ATOM     24  O   UNL     1       4.661 -47.171  32.094  1.00  0.00    -0.508 OA
ATOM     25  H   UNL     1       4.152 -46.862  31.275  1.00  0.00     0.293 HD
ENDBRANCH   8  24
TORSDOF 5
ENDMDL
MODEL 9
REMARK VINA RESULT:    -6.297      2.201      4.422
REMARK INTER + INTRA:          -7.531
REMARK INTER:                  -7.520
REMARK INTRA:                  -0.011
REMARK UNBOUND:                -0.130
REMARK SMILES O=c1c(O)c(-c2ccc(O)cc2)oc2cc(O)cc(O)c12
REMARK SMILES IDX 5 1 3 2 2 3 1 4 21 5 19 6 18 7 16 8 15 9 14 10 13 11 6 12
REMARK SMILES IDX 7 13 8 14 9 15 12 16 11 17 10 18 4 20 20 22 17 24
REMARK H PARENT 10 19 4 21 20 23 17 25
REMARK Flexibility Score: inf
ROOT
ATOM      1  C   UNL     1       7.876 -45.789  33.390  1.00  0.00     0.180 A 
ATOM      2  C   UNL     1       9.158 -45.359  33.006  1.00  0.00     0.208 A 
ATOM      3  C   UNL     1      10.209 -45.433  33.933  1.00  0.00     0.238 A 
ATOM      4  O   UNL     1      11.341 -44.997  33.601  1.00  0.00    -0.285 OA
ATOM      5  C   UNL     1       9.968 -45.952  35.229  1.00  0.00     0.111 A 
ATOM      6  C   UNL     1      10.967 -46.109  36.236  1.00  0.00     0.134 A 
ATOM      7  C   UNL     1      10.592 -46.510  37.525  1.00  0.00     0.093 A 
ATOM      8  C   UNL     1       9.266 -46.820  37.825  1.00  0.00     0.123 A 
ATOM      9  C   UNL     1       8.290 -46.725  36.831  1.00  0.00     0.094 A 
ATOM     10  C   UNL     1       8.628 -46.294  35.547  1.00  0.00     0.146 A 
ATOM     11  O   UNL     1       7.669 -46.208  34.633  1.00  0.00    -0.452 OA
ENDROOT
BRANCH   1  12
ATOM     12  C   UNL     1       6.724 -45.765  32.460  1.00  0.00     0.021 A 
ATOM     13  C   UNL     1       5.963 -46.922  32.206  1.00  0.00     0.016 A 
ATOM     14  C   UNL     1       4.864 -46.869  31.343  1.00  0.00     0.047 A 
ATOM     15  C   UNL     1       4.504 -45.663  30.734  1.00  0.00     0.115 A 
ATOM     16  C   UNL     1       6.343 -44.553  31.861  1.00  0.00     0.016 A 
ATOM     17  C   UNL     1       5.244 -44.504  30.998  1.00  0.00     0.047 A 
BRANCH  15  18
ATOM     18  O   UNL     1       3.407 -45.626  29.875  1.00  0.00    -0.508 OA
ATOM     19  H   UNL     1       3.122 -44.769  29.418  1.00  0.00     0.293 HD
ENDBRANCH  15  18
ENDBRANCH   1  12
BRANCH   2  20
ATOM     20  O   UNL     1       9.367 -44.831  31.729  1.00  0.00    -0.502 OA
ATOM     21  H   UNL     1       9.544 -43.846  31.569  1.00  0.00     0.293 HD
ENDBRANCH   2  20
BRANCH   6  22
ATOM     22  O   UNL     1      12.334 -45.915  36.017  1.00  0.00    -0.507 OA
ATOM     23  H   UNL     1      12.901 -46.471  35.394  1.00  0.00     0.293 HD
ENDBRANCH   6  22
BRANCH   8  24
ATOM     24  O   UNL     1       8.930 -47.230  39.113  1.00  0.00    -0.508 OA
ATOM     25  H   UNL     1       8.767 -46.561  39.856  1.00  0.00     0.293 HD
ENDBRANCH   8  24
TORSDOF 5
ENDMDL
