MODEL 1
REMARK VINA RESULT:    -7.134      0.000      0.000
REMARK INTER + INTRA:         -12.217
REMARK INTER:                 -11.096
REMARK INTRA:                  -1.121
REMARK UNBOUND:                -1.121
REMARK SMILES COc1cc(CNC(=O)CCCCC=CC(C)C)ccc1O
REMARK SMILES IDX 11 1 12 2 13 3 14 4 15 5 16 6 17 7 18 8 10 9 8 10 9 11 7 12
REMARK SMILES IDX 6 14 5 15 4 16 19 17 3 18 20 19 21 20 2 21 1 22 22 23
REMARK H PARENT 7 13 22 24
REMARK Flexibility Score: inf
ROOT
ATOM      1  C   UNL     1     -26.038 -23.905 -14.580  1.00  0.00     0.010 C 
ENDROOT
BRANCH   1   2
ATOM      2  C   UNL     1     -24.922 -24.935 -14.831  1.00  0.00     0.005 C 
BRANCH   2   3
ATOM      3  C   UNL     1     -23.889 -25.026 -13.695  1.00  0.00     0.027 C 
BRANCH   3   4
ATOM      4  C   UNL     1     -23.270 -23.692 -13.370  1.00  0.00    -0.031 C 
ATOM      5  C   UNL     1     -23.624 -22.999 -12.277  1.00  0.00    -0.028 C 
BRANCH   5   6
ATOM      6  C   UNL     1     -23.023 -21.646 -11.976  1.00  0.00     0.005 C 
ATOM      7  C   UNL     1     -22.517 -20.987 -13.263  1.00  0.00     0.012 C 
ATOM      8  C   UNL     1     -24.047 -20.740 -11.282  1.00  0.00     0.012 C 
ENDBRANCH   5   6
ENDBRANCH   3   4
ENDBRANCH   2   3
ENDBRANCH   1   2
BRANCH   1   9
ATOM      9  C   UNL     1     -25.718 -22.531 -15.179  1.00  0.00     0.100 C 
BRANCH   9  10
ATOM     10  C   UNL     1     -26.136 -21.442 -14.239  1.00  0.00     0.220 C 
ATOM     11  O   UNL     1     -26.729 -21.738 -13.168  1.00  0.00    -0.275 OA
ATOM     12  N   UNL     1     -25.819 -20.075 -14.540  1.00  0.00    -0.352 N 
ATOM     13  H   UNL     1     -25.274 -19.858 -15.404  1.00  0.00     0.163 HD
BRANCH  12  14
ATOM     14  C   UNL     1     -26.203 -18.970 -13.663  1.00  0.00     0.151 C 
BRANCH  14  15
ATOM     15  C   UNL     1     -25.282 -17.797 -13.865  1.00  0.00    -0.025 A 
ATOM     16  C   UNL     1     -25.532 -16.880 -14.897  1.00  0.00     0.056 A 
ATOM     17  C   UNL     1     -24.188 -17.595 -13.013  1.00  0.00     0.009 A 
ATOM     18  C   UNL     1     -24.690 -15.766 -15.085  1.00  0.00     0.160 A 
ATOM     19  C   UNL     1     -23.349 -16.494 -13.194  1.00  0.00     0.050 A 
ATOM     20  C   UNL     1     -23.592 -15.581 -14.224  1.00  0.00     0.157 A 
BRANCH  18  21
ATOM     21  O   UNL     1     -24.913 -14.829 -16.108  1.00  0.00    -0.493 OA
ATOM     22  C   UNL     1     -24.277 -14.854 -17.382  1.00  0.00     0.278 C 
ENDBRANCH  18  21
BRANCH  20  23
ATOM     23  O   UNL     1     -22.731 -14.493 -14.377  1.00  0.00    -0.504 OA
ATOM     24  H   UNL     1     -22.414 -13.944 -13.589  1.00  0.00     0.293 HD
ENDBRANCH  20  23
ENDBRANCH  14  15
ENDBRANCH  12  14
ENDBRANCH   9  10
ENDBRANCH   1   9
TORSDOF 10
ENDMDL
MODEL 2
REMARK VINA RESULT:    -7.124      1.969      7.537
REMARK INTER + INTRA:         -12.201
REMARK INTER:                 -11.439
REMARK INTRA:                  -0.762
REMARK UNBOUND:                -1.121
REMARK SMILES COc1cc(CNC(=O)CCCCC=CC(C)C)ccc1O
REMARK SMILES IDX 11 1 12 2 13 3 14 4 15 5 16 6 17 7 18 8 10 9 8 10 9 11 7 12
REMARK SMILES IDX 6 14 5 15 4 16 19 17 3 18 20 19 21 20 2 21 1 22 22 23
REMARK H PARENT 7 13 22 24
REMARK Flexibility Score: inf
ROOT
ATOM      1  C   UNL     1     -22.031 -16.529 -13.580  1.00  0.00     0.010 C 
ENDROOT
BRANCH   1   2
ATOM      2  C   UNL     1     -21.141 -15.304 -13.304  1.00  0.00     0.005 C 
BRANCH   2   3
ATOM      3  C   UNL     1     -21.480 -14.079 -14.170  1.00  0.00     0.027 C 
BRANCH   3   4
ATOM      4  C   UNL     1     -22.538 -14.375 -15.199  1.00  0.00    -0.031 C 
ATOM      5  C   UNL     1     -23.779 -13.875 -15.098  1.00  0.00    -0.028 C 
BRANCH   5   6
ATOM      6  C   UNL     1     -24.844 -14.205 -16.117  1.00  0.00     0.005 C 
ATOM      7  C   UNL     1     -24.234 -14.947 -17.309  1.00  0.00     0.012 C 
ATOM      8  C   UNL     1     -25.960 -15.046 -15.482  1.00  0.00     0.012 C 
ENDBRANCH   5   6
ENDBRANCH   3   4
ENDBRANCH   2   3
ENDBRANCH   1   2
BRANCH   1   9
ATOM      9  C   UNL     1     -23.357 -16.480 -12.810  1.00  0.00     0.100 C 
BRANCH   9  10
ATOM     10  C   UNL     1     -24.283 -17.551 -13.298  1.00  0.00     0.220 C 
ATOM     11  O   UNL     1     -24.354 -17.798 -14.531  1.00  0.00    -0.275 OA
ATOM     12  N   UNL     1     -25.049 -18.320 -12.358  1.00  0.00    -0.352 N 
ATOM     13  H   UNL     1     -24.928 -18.138 -11.336  1.00  0.00     0.163 HD
BRANCH  12  14
ATOM     14  C   UNL     1     -25.971 -19.374 -12.775  1.00  0.00     0.151 C 
BRANCH  14  15
ATOM     15  C   UNL     1     -25.244 -20.686 -12.902  1.00  0.00    -0.025 A 
ATOM     16  C   UNL     1     -25.646 -21.618 -13.870  1.00  0.00     0.056 A 
ATOM     17  C   UNL     1     -24.149 -20.976 -12.077  1.00  0.00     0.009 A 
ATOM     18  C   UNL     1     -24.962 -22.842 -14.014  1.00  0.00     0.160 A 
ATOM     19  C   UNL     1     -23.467 -22.186 -12.214  1.00  0.00     0.050 A 
ATOM     20  C   UNL     1     -23.867 -23.120 -13.174  1.00  0.00     0.157 A 
BRANCH  18  21
ATOM     21  O   UNL     1     -25.339 -23.796 -14.974  1.00  0.00    -0.493 OA
ATOM     22  C   UNL     1     -26.409 -24.722 -14.819  1.00  0.00     0.278 C 
ENDBRANCH  18  21
BRANCH  20  23
ATOM     23  O   UNL     1     -23.164 -24.321 -13.281  1.00  0.00    -0.504 OA
ATOM     24  H   UNL     1     -22.221 -24.424 -12.928  1.00  0.00     0.293 HD
ENDBRANCH  20  23
ENDBRANCH  14  15
ENDBRANCH  12  14
ENDBRANCH   9  10
ENDBRANCH   1   9
TORSDOF 10
ENDMDL
MODEL 3
REMARK VINA RESULT:    -7.072      2.847      7.714
REMARK INTER + INTRA:         -12.120
REMARK INTER:                 -11.419
REMARK INTRA:                  -0.701
REMARK UNBOUND:                -1.121
REMARK SMILES COc1cc(CNC(=O)CCCCC=CC(C)C)ccc1O
REMARK SMILES IDX 11 1 12 2 13 3 14 4 15 5 16 6 17 7 18 8 10 9 8 10 9 11 7 12
REMARK SMILES IDX 6 14 5 15 4 16 19 17 3 18 20 19 21 20 2 21 1 22 22 23
REMARK H PARENT 7 13 22 24
REMARK Flexibility Score: inf
ROOT
ATOM      1  C   UNL     1     -24.321 -16.994 -13.648  1.00  0.00     0.010 C 
ENDROOT
BRANCH   1   2
ATOM      2  C   UNL     1     -23.227 -16.124 -13.001  1.00  0.00     0.005 C 
BRANCH   2   3
ATOM      3  C   UNL     1     -22.450 -15.252 -14.002  1.00  0.00     0.027 C 
BRANCH   3   4
ATOM      4  C   UNL     1     -21.074 -14.893 -13.508  1.00  0.00    -0.031 C 
ATOM      5  C   UNL     1     -20.310 -15.778 -12.849  1.00  0.00    -0.028 C 
BRANCH   5   6
ATOM      6  C   UNL     1     -18.943 -15.401 -12.326  1.00  0.00     0.005 C 
ATOM      7  C   UNL     1     -17.863 -16.272 -12.973  1.00  0.00     0.012 C 
ATOM      8  C   UNL     1     -18.654 -13.917 -12.585  1.00  0.00     0.012 C 
ENDBRANCH   5   6
ENDBRANCH   3   4
ENDBRANCH   2   3
ENDBRANCH   1   2
BRANCH   1   9
ATOM      9  C   UNL     1     -23.785 -18.343 -14.142  1.00  0.00     0.100 C 
BRANCH   9  10
ATOM     10  C   UNL     1     -24.749 -19.440 -13.807  1.00  0.00     0.220 C 
ATOM     11  O   UNL     1     -25.680 -19.717 -14.610  1.00  0.00    -0.275 OA
ATOM     12  N   UNL     1     -24.581 -20.199 -12.601  1.00  0.00    -0.352 N 
ATOM     13  H   UNL     1     -23.767 -19.992 -11.980  1.00  0.00     0.163 HD
BRANCH  12  14
ATOM     14  C   UNL     1     -25.490 -21.279 -12.221  1.00  0.00     0.151 C 
BRANCH  14  15
ATOM     15  C   UNL     1     -24.975 -22.599 -12.725  1.00  0.00    -0.025 A 
ATOM     16  C   UNL     1     -25.789 -23.404 -13.537  1.00  0.00     0.056 A 
ATOM     17  C   UNL     1     -23.677 -23.024 -12.413  1.00  0.00     0.009 A 
ATOM     18  C   UNL     1     -25.312 -24.635 -14.033  1.00  0.00     0.160 A 
ATOM     19  C   UNL     1     -23.199 -24.242 -12.900  1.00  0.00     0.050 A 
ATOM     20  C   UNL     1     -24.008 -25.049 -13.706  1.00  0.00     0.157 A 
BRANCH  18  21
ATOM     21  O   UNL     1     -26.101 -25.462 -14.849  1.00  0.00    -0.493 OA
ATOM     22  C   UNL     1     -27.404 -25.132 -15.320  1.00  0.00     0.278 C 
ENDBRANCH  18  21
BRANCH  20  23
ATOM     23  O   UNL     1     -23.498 -26.261 -14.173  1.00  0.00    -0.504 OA
ATOM     24  H   UNL     1     -24.071 -27.092 -14.247  1.00  0.00     0.293 HD
ENDBRANCH  20  23
ENDBRANCH  14  15
ENDBRANCH  12  14
ENDBRANCH   9  10
ENDBRANCH   1   9
TORSDOF 10
ENDMDL
MODEL 4
REMARK VINA RESULT:    -7.005      1.743      3.084
REMARK INTER + INTRA:         -12.017
REMARK INTER:                 -11.212
REMARK INTRA:                  -0.805
REMARK UNBOUND:                -1.121
REMARK SMILES COc1cc(CNC(=O)CCCCC=CC(C)C)ccc1O
REMARK SMILES IDX 11 1 12 2 13 3 14 4 15 5 16 6 17 7 18 8 10 9 8 10 9 11 7 12
REMARK SMILES IDX 6 14 5 15 4 16 19 17 3 18 20 19 21 20 2 21 1 22 22 23
REMARK H PARENT 7 13 22 24
REMARK Flexibility Score: inf
ROOT
ATOM      1  C   UNL     1     -22.931 -23.368 -12.735  1.00  0.00     0.010 C 
ENDROOT
BRANCH   1   2
ATOM      2  C   UNL     1     -23.534 -24.517 -13.562  1.00  0.00     0.005 C 
BRANCH   2   3
ATOM      3  C   UNL     1     -24.897 -24.183 -14.193  1.00  0.00     0.027 C 
BRANCH   3   4
ATOM      4  C   UNL     1     -25.879 -23.638 -13.190  1.00  0.00    -0.031 C 
ATOM      5  C   UNL     1     -26.516 -22.474 -13.388  1.00  0.00    -0.028 C 
BRANCH   5   6
ATOM      6  C   UNL     1     -27.473 -21.917 -12.361  1.00  0.00     0.005 C 
ATOM      7  C   UNL     1     -27.981 -23.032 -11.442  1.00  0.00     0.012 C 
ATOM      8  C   UNL     1     -26.801 -20.813 -11.535  1.00  0.00     0.012 C 
ENDBRANCH   5   6
ENDBRANCH   3   4
ENDBRANCH   2   3
ENDBRANCH   1   2
BRANCH   1   9
ATOM      9  C   UNL     1     -22.818 -22.064 -13.532  1.00  0.00     0.100 C 
BRANCH   9  10
ATOM     10  C   UNL     1     -23.405 -20.925 -12.757  1.00  0.00     0.220 C 
ATOM     11  O   UNL     1     -23.500 -21.009 -11.503  1.00  0.00    -0.275 OA
ATOM     12  N   UNL     1     -23.813 -19.729 -13.437  1.00  0.00    -0.352 N 
ATOM     13  H   UNL     1     -23.669 -19.657 -14.469  1.00  0.00     0.163 HD
BRANCH  12  14
ATOM     14  C   UNL     1     -24.395 -18.587 -12.734  1.00  0.00     0.151 C 
BRANCH  14  15
ATOM     15  C   UNL     1     -24.424 -17.379 -13.631  1.00  0.00    -0.025 A 
ATOM     16  C   UNL     1     -23.280 -16.576 -13.760  1.00  0.00     0.056 A 
ATOM     17  C   UNL     1     -25.576 -17.062 -14.363  1.00  0.00     0.009 A 
ATOM     18  C   UNL     1     -23.286 -15.453 -14.613  1.00  0.00     0.160 A 
ATOM     19  C   UNL     1     -25.589 -15.951 -15.208  1.00  0.00     0.050 A 
ATOM     20  C   UNL     1     -24.453 -15.145 -15.336  1.00  0.00     0.157 A 
BRANCH  18  21
ATOM     21  O   UNL     1     -22.158 -14.630 -14.765  1.00  0.00    -0.493 OA
ATOM     22  C   UNL     1     -21.385 -14.108 -13.688  1.00  0.00     0.278 C 
ENDBRANCH  18  21
BRANCH  20  23
ATOM     23  O   UNL     1     -24.502 -14.041 -16.188  1.00  0.00    -0.504 OA
ATOM     24  H   UNL     1     -25.184 -13.302 -16.071  1.00  0.00     0.293 HD
ENDBRANCH  20  23
ENDBRANCH  14  15
ENDBRANCH  12  14
ENDBRANCH   9  10
ENDBRANCH   1   9
TORSDOF 10
ENDMDL
MODEL 5
REMARK VINA RESULT:    -6.995      1.951      3.172
REMARK INTER + INTRA:         -12.001
REMARK INTER:                 -10.480
REMARK INTRA:                  -1.522
REMARK UNBOUND:                -1.121
REMARK SMILES COc1cc(CNC(=O)CCCCC=CC(C)C)ccc1O
REMARK SMILES IDX 11 1 12 2 13 3 14 4 15 5 16 6 17 7 18 8 10 9 8 10 9 11 7 12
REMARK SMILES IDX 6 14 5 15 4 16 19 17 3 18 20 19 21 20 2 21 1 22 22 23
REMARK H PARENT 7 13 22 24
REMARK Flexibility Score: inf
ROOT
ATOM      1  C   UNL     1     -25.456 -23.643 -13.083  1.00  0.00     0.010 C 
ENDROOT
BRANCH   1   2
ATOM      2  C   UNL     1     -26.911 -23.243 -13.390  1.00  0.00     0.005 C 
BRANCH   2   3
ATOM      3  C   UNL     1     -27.585 -22.434 -12.268  1.00  0.00     0.027 C 
BRANCH   3   4
ATOM      4  C   UNL     1     -26.610 -21.568 -11.516  1.00  0.00    -0.031 C 
ATOM      5  C   UNL     1     -26.614 -20.232 -11.639  1.00  0.00    -0.028 C 
BRANCH   5   6
ATOM      6  C   UNL     1     -25.610 -19.373 -10.907  1.00  0.00     0.005 C 
ATOM      7  C   UNL     1     -26.198 -18.870  -9.586  1.00  0.00     0.012 C 
ATOM      8  C   UNL     1     -24.314 -20.152 -10.650  1.00  0.00     0.012 C 
ENDBRANCH   5   6
ENDBRANCH   3   4
ENDBRANCH   2   3
ENDBRANCH   1   2
BRANCH   1   9
ATOM      9  C   UNL     1     -24.499 -23.314 -14.235  1.00  0.00     0.100 C 
BRANCH   9  10
ATOM     10  C   UNL     1     -23.566 -22.211 -13.839  1.00  0.00     0.220 C 
ATOM     11  O   UNL     1     -22.445 -22.494 -13.338  1.00  0.00    -0.275 OA
ATOM     12  N   UNL     1     -23.932 -20.843 -14.075  1.00  0.00    -0.352 N 
ATOM     13  H   UNL     1     -24.840 -20.635 -14.548  1.00  0.00     0.163 HD
BRANCH  12  14
ATOM     14  C   UNL     1     -23.065 -19.725 -13.708  1.00  0.00     0.151 C 
BRANCH  14  15
ATOM     15  C   UNL     1     -23.747 -18.416 -14.000  1.00  0.00    -0.025 A 
ATOM     16  C   UNL     1     -23.008 -17.223 -13.982  1.00  0.00     0.056 A 
ATOM     17  C   UNL     1     -25.111 -18.378 -14.317  1.00  0.00     0.009 A 
ATOM     18  C   UNL     1     -23.629 -15.991 -14.274  1.00  0.00     0.160 A 
ATOM     19  C   UNL     1     -25.733 -17.162 -14.606  1.00  0.00     0.050 A 
ATOM     20  C   UNL     1     -25.002 -15.970 -14.585  1.00  0.00     0.157 A 
BRANCH  18  21
ATOM     21  O   UNL     1     -22.918 -14.780 -14.266  1.00  0.00    -0.493 OA
ATOM     22  C   UNL     1     -21.583 -14.628 -13.795  1.00  0.00     0.278 C 
ENDBRANCH  18  21
BRANCH  20  23
ATOM     23  O   UNL     1     -25.657 -14.773 -14.877  1.00  0.00    -0.504 OA
ATOM     24  H   UNL     1     -25.694 -14.396 -15.815  1.00  0.00     0.293 HD
ENDBRANCH  20  23
ENDBRANCH  14  15
ENDBRANCH  12  14
ENDBRANCH   9  10
ENDBRANCH   1   9
TORSDOF 10
ENDMDL
MODEL 6
REMARK VINA RESULT:    -6.936      1.488      2.353
REMARK INTER + INTRA:         -11.908
REMARK INTER:                 -10.408
REMARK INTRA:                  -1.500
REMARK UNBOUND:                -1.121
REMARK SMILES COc1cc(CNC(=O)CCCCC=CC(C)C)ccc1O
REMARK SMILES IDX 11 1 12 2 13 3 14 4 15 5 16 6 17 7 18 8 10 9 8 10 9 11 7 12
REMARK SMILES IDX 6 14 5 15 4 16 19 17 3 18 20 19 21 20 2 21 1 22 22 23
REMARK H PARENT 7 13 22 24
REMARK Flexibility Score: inf
ROOT
ATOM      1  C   UNL     1     -23.522 -23.612 -14.126  1.00  0.00     0.010 C 
ENDROOT
BRANCH   1   2
ATOM      2  C   UNL     1     -23.924 -23.542 -12.641  1.00  0.00     0.005 C 
BRANCH   2   3
ATOM      3  C   UNL     1     -23.431 -22.275 -11.921  1.00  0.00     0.027 C 
BRANCH   3   4
ATOM      4  C   UNL     1     -24.518 -21.246 -11.756  1.00  0.00    -0.031 C 
ATOM      5  C   UNL     1     -24.369 -20.189 -10.943  1.00  0.00    -0.028 C 
BRANCH   5   6
ATOM      6  C   UNL     1     -25.477 -19.179 -10.756  1.00  0.00     0.005 C 
ATOM      7  C   UNL     1     -26.718 -19.593 -11.552  1.00  0.00     0.012 C 
ATOM      8  C   UNL     1     -25.826 -19.026  -9.270  1.00  0.00     0.012 C 
ENDBRANCH   5   6
ENDBRANCH   3   4
ENDBRANCH   2   3
ENDBRANCH   1   2
BRANCH   1   9
ATOM      9  C   UNL     1     -24.732 -23.576 -15.066  1.00  0.00     0.100 C 
BRANCH   9  10
ATOM     10  C   UNL     1     -25.563 -22.358 -14.801  1.00  0.00     0.220 C 
ATOM     11  O   UNL     1     -26.678 -22.478 -14.226  1.00  0.00    -0.275 OA
ATOM     12  N   UNL     1     -25.067 -21.060 -15.158  1.00  0.00    -0.352 N 
ATOM     13  H   UNL     1     -24.113 -20.979 -15.578  1.00  0.00     0.163 HD
BRANCH  12  14
ATOM     14  C   UNL     1     -25.833 -19.836 -14.927  1.00  0.00     0.151 C 
BRANCH  14  15
ATOM     15  C   UNL     1     -24.912 -18.704 -14.558  1.00  0.00    -0.025 A 
ATOM     16  C   UNL     1     -25.374 -17.380 -14.616  1.00  0.00     0.056 A 
ATOM     17  C   UNL     1     -23.603 -18.961 -14.131  1.00  0.00     0.009 A 
ATOM     18  C   UNL     1     -24.529 -16.311 -14.254  1.00  0.00     0.160 A 
ATOM     19  C   UNL     1     -22.761 -17.907 -13.773  1.00  0.00     0.050 A 
ATOM     20  C   UNL     1     -23.215 -16.585 -13.833  1.00  0.00     0.157 A 
BRANCH  18  21
ATOM     21  O   UNL     1     -24.961 -14.975 -14.300  1.00  0.00    -0.493 OA
ATOM     22  C   UNL     1     -25.067 -14.198 -15.488  1.00  0.00     0.278 C 
ENDBRANCH  18  21
BRANCH  20  23
ATOM     23  O   UNL     1     -22.345 -15.557 -13.469  1.00  0.00    -0.504 OA
ATOM     24  H   UNL     1     -22.067 -14.833 -14.119  1.00  0.00     0.293 HD
ENDBRANCH  20  23
ENDBRANCH  14  15
ENDBRANCH  12  14
ENDBRANCH   9  10
ENDBRANCH   1   9
TORSDOF 10
ENDMDL
MODEL 7
REMARK VINA RESULT:    -6.676      1.528      2.655
REMARK INTER + INTRA:         -11.505
REMARK INTER:                 -10.482
REMARK INTRA:                  -1.022
REMARK UNBOUND:                -1.121
REMARK SMILES COc1cc(CNC(=O)CCCCC=CC(C)C)ccc1O
REMARK SMILES IDX 11 1 12 2 13 3 14 4 15 5 16 6 17 7 18 8 10 9 8 10 9 11 7 12
REMARK SMILES IDX 6 14 5 15 4 16 19 17 3 18 20 19 21 20 2 21 1 22 22 23
REMARK H PARENT 7 13 22 24
REMARK Flexibility Score: inf
ROOT
ATOM      1  C   UNL     1     -27.029 -22.465 -12.136  1.00  0.00     0.010 C 
ENDROOT
BRANCH   1   2
ATOM      2  C   UNL     1     -27.592 -23.236 -13.344  1.00  0.00     0.005 C 
BRANCH   2   3
ATOM      3  C   UNL     1     -26.513 -23.782 -14.295  1.00  0.00     0.027 C 
BRANCH   3   4
ATOM      4  C   UNL     1     -25.130 -23.700 -13.704  1.00  0.00    -0.031 C 
ATOM      5  C   UNL     1     -24.204 -22.861 -14.193  1.00  0.00    -0.028 C 
BRANCH   5   6
ATOM      6  C   UNL     1     -22.808 -22.810 -13.617  1.00  0.00     0.005 C 
ATOM      7  C   UNL     1     -22.383 -21.360 -13.372  1.00  0.00     0.012 C 
ATOM      8  C   UNL     1     -22.729 -23.615 -12.314  1.00  0.00     0.012 C 
ENDBRANCH   5   6
ENDBRANCH   3   4
ENDBRANCH   2   3
ENDBRANCH   1   2
BRANCH   1   9
ATOM      9  C   UNL     1     -27.257 -20.952 -12.245  1.00  0.00     0.100 C 
BRANCH   9  10
ATOM     10  C   UNL     1     -25.957 -20.218 -12.123  1.00  0.00     0.220 C 
ATOM     11  O   UNL     1     -24.997 -20.752 -11.505  1.00  0.00    -0.275 OA
ATOM     12  N   UNL     1     -25.796 -18.936 -12.747  1.00  0.00    -0.352 N 
ATOM     13  H   UNL     1     -26.585 -18.541 -13.305  1.00  0.00     0.163 HD
BRANCH  12  14
ATOM     14  C   UNL     1     -24.553 -18.172 -12.659  1.00  0.00     0.151 C 
BRANCH  14  15
ATOM     15  C   UNL     1     -24.571 -17.029 -13.638  1.00  0.00    -0.025 A 
ATOM     16  C   UNL     1     -23.467 -16.168 -13.729  1.00  0.00     0.056 A 
ATOM     17  C   UNL     1     -25.673 -16.830 -14.481  1.00  0.00     0.009 A 
ATOM     18  C   UNL     1     -23.461 -15.106 -14.655  1.00  0.00     0.160 A 
ATOM     19  C   UNL     1     -25.674 -15.780 -15.400  1.00  0.00     0.050 A 
ATOM     20  C   UNL     1     -24.578 -14.916 -15.491  1.00  0.00     0.157 A 
BRANCH  18  21
ATOM     21  O   UNL     1     -22.372 -14.227 -14.772  1.00  0.00    -0.493 OA
ATOM     22  C   UNL     1     -21.357 -14.059 -13.787  1.00  0.00     0.278 C 
ENDBRANCH  18  21
BRANCH  20  23
ATOM     23  O   UNL     1     -24.615 -13.875 -16.419  1.00  0.00    -0.504 OA
ATOM     24  H   UNL     1     -24.834 -12.924 -16.151  1.00  0.00     0.293 HD
ENDBRANCH  20  23
ENDBRANCH  14  15
ENDBRANCH  12  14
ENDBRANCH   9  10
ENDBRANCH   1   9
TORSDOF 10
ENDMDL
MODEL 8
REMARK VINA RESULT:    -6.638      2.753      7.668
REMARK INTER + INTRA:         -11.445
REMARK INTER:                 -10.955
REMARK INTRA:                  -0.490
REMARK UNBOUND:                -1.121
REMARK SMILES COc1cc(CNC(=O)CCCCC=CC(C)C)ccc1O
REMARK SMILES IDX 11 1 12 2 13 3 14 4 15 5 16 6 17 7 18 8 10 9 8 10 9 11 7 12
REMARK SMILES IDX 6 14 5 15 4 16 19 17 3 18 20 19 21 20 2 21 1 22 22 23
REMARK H PARENT 7 13 22 24
REMARK Flexibility Score: inf
ROOT
ATOM      1  C   UNL     1     -23.845 -16.103 -13.532  1.00  0.00     0.010 C 
ENDROOT
BRANCH   1   2
ATOM      2  C   UNL     1     -22.989 -15.575 -14.699  1.00  0.00     0.005 C 
BRANCH   2   3
ATOM      3  C   UNL     1     -22.385 -14.183 -14.449  1.00  0.00     0.027 C 
BRANCH   3   4
ATOM      4  C   UNL     1     -21.154 -14.236 -13.583  1.00  0.00    -0.031 C 
ATOM      5  C   UNL     1     -20.474 -15.378 -13.395  1.00  0.00    -0.028 C 
BRANCH   5   6
ATOM      6  C   UNL     1     -19.259 -15.430 -12.498  1.00  0.00     0.005 C 
ATOM      7  C   UNL     1     -18.264 -16.477 -13.005  1.00  0.00     0.012 C 
ATOM      8  C   UNL     1     -18.587 -14.054 -12.414  1.00  0.00     0.012 C 
ENDBRANCH   5   6
ENDBRANCH   3   4
ENDBRANCH   2   3
ENDBRANCH   1   2
BRANCH   1   9
ATOM      9  C   UNL     1     -24.790 -17.232 -13.959  1.00  0.00     0.100 C 
BRANCH   9  10
ATOM     10  C   UNL     1     -24.358 -18.532 -13.352  1.00  0.00     0.220 C 
ATOM     11  O   UNL     1     -23.333 -19.115 -13.796  1.00  0.00    -0.275 OA
ATOM     12  N   UNL     1     -25.082 -19.082 -12.242  1.00  0.00    -0.352 N 
ATOM     13  H   UNL     1     -25.893 -18.550 -11.852  1.00  0.00     0.163 HD
BRANCH  12  14
ATOM     14  C   UNL     1     -24.710 -20.347 -11.612  1.00  0.00     0.151 C 
BRANCH  14  15
ATOM     15  C   UNL     1     -25.284 -21.505 -12.382  1.00  0.00    -0.025 A 
ATOM     16  C   UNL     1     -24.433 -22.358 -13.101  1.00  0.00     0.056 A 
ATOM     17  C   UNL     1     -26.662 -21.756 -12.368  1.00  0.00     0.009 A 
ATOM     18  C   UNL     1     -24.955 -23.459 -13.810  1.00  0.00     0.160 A 
ATOM     19  C   UNL     1     -27.186 -22.844 -13.069  1.00  0.00     0.050 A 
ATOM     20  C   UNL     1     -26.342 -23.695 -13.790  1.00  0.00     0.157 A 
BRANCH  18  21
ATOM     21  O   UNL     1     -24.130 -24.332 -14.538  1.00  0.00    -0.493 OA
ATOM     22  C   UNL     1     -23.833 -25.672 -14.158  1.00  0.00     0.278 C 
ENDBRANCH  18  21
BRANCH  20  23
ATOM     23  O   UNL     1     -26.900 -24.771 -14.481  1.00  0.00    -0.504 OA
ATOM     24  H   UNL     1     -26.501 -25.121 -15.342  1.00  0.00     0.293 HD
ENDBRANCH  20  23
ENDBRANCH  14  15
ENDBRANCH  12  14
ENDBRANCH   9  10
ENDBRANCH   1   9
TORSDOF 10
ENDMDL
