MODEL 1
REMARK VINA RESULT:    -7.364      0.000      0.000
REMARK INTER + INTRA:          -8.738
REMARK INTER:                  -8.225
REMARK INTRA:                  -0.513
REMARK UNBOUND:                -0.513
REMARK SMILES CC1(C)CC[C@]2(C(=O)[O-])[C@@H](O)C[C@@]3(C)C(=CC[C@H]4[C@@]5(C)CC[C@@H](O)C(C)(C)[C@H]5CC[C@]43C)[C@@H]2C1
REMARK SMILES IDX 6 1 5 2 33 3 10 4 4 5 34 6 15 7 12 8 2 9 16 10 13 11 1 12
REMARK SMILES IDX 3 13 17 14 31 15 14 16 18 17 30 18 32 19 19 20 29 21 21 22
REMARK SMILES IDX 20 23 28 24 22 25 25 26 23 27 26 28 27 29 7 30 8 31 9 32
REMARK SMILES IDX 11 33 24 35
REMARK H PARENT 11 34 24 36
REMARK Flexibility Score: inf
ROOT
ATOM      1  C   UNL     1       5.631 -22.010  12.227  1.00  0.00     0.042 C 
ATOM      2  C   UNL     1       6.230 -23.453  12.088  1.00  0.00     0.017 C 
ATOM      3  C   UNL     1       5.454 -21.607  13.744  1.00  0.00     0.030 C 
ATOM      4  C   UNL     1       6.631 -21.002  11.589  1.00  0.00     0.127 C 
ATOM      5  C   UNL     1       5.801 -24.369  13.238  1.00  0.00     0.007 C 
ATOM      6  C   UNL     1       6.533 -22.320  14.613  1.00  0.00     0.015 C 
ATOM      7  C   UNL     1       5.454 -20.089  14.009  1.00  0.00    -0.063 C 
ATOM      8  C   UNL     1       6.076 -19.568  11.545  1.00  0.00     0.044 C 
ATOM      9  C   UNL     1       6.365 -23.873  14.602  1.00  0.00    -0.035 C 
ATOM     10  C   UNL     1       5.211 -19.691  15.271  1.00  0.00    -0.027 C 
ATOM     11  C   UNL     1       5.457 -19.026  12.896  1.00  0.00    -0.003 C 
ATOM     12  C   UNL     1       5.401 -24.303  15.731  1.00  0.00     0.011 C 
ATOM     13  C   UNL     1       7.739 -24.527  14.869  1.00  0.00     0.011 C 
ATOM     14  C   UNL     1       5.601 -18.347  15.796  1.00  0.00     0.032 C 
ATOM     15  C   UNL     1       6.218 -17.688  13.379  1.00  0.00    -0.020 C 
ATOM     16  C   UNL     1       3.947 -18.728  12.623  1.00  0.00     0.017 C 
ATOM     17  C   UNL     1       5.661 -17.179  14.766  1.00  0.00     0.006 C 
ATOM     18  C   UNL     1       7.753 -17.971  13.540  1.00  0.00     0.008 C 
ATOM     19  C   UNL     1       5.991 -16.582  12.288  1.00  0.00     0.012 C 
ATOM     20  C   UNL     1       6.384 -15.842  15.334  1.00  0.00    -0.025 C 
ATOM     21  C   UNL     1       8.490 -17.184  14.651  1.00  0.00     0.005 C 
ATOM     22  C   UNL     1       6.247 -15.769  16.899  1.00  0.00     0.010 C 
ATOM     23  C   UNL     1       5.606 -14.605  14.766  1.00  0.00     0.012 C 
ATOM     24  C   UNL     1       7.919 -15.763  14.886  1.00  0.00     0.003 C 
ATOM     25  C   UNL     1       7.091 -14.691  17.580  1.00  0.00     0.033 C 
ATOM     26  C   UNL     1       8.866 -14.800  15.745  1.00  0.00    -0.006 C 
ATOM     27  C   UNL     1       8.575 -14.895  17.270  1.00  0.00     0.120 C 
ATOM     28  C   UNL     1       8.698 -13.325  15.276  1.00  0.00     0.014 C 
ATOM     29  C   UNL     1      10.377 -15.102  15.528  1.00  0.00     0.014 C 
ENDROOT
BRANCH   1  30
ATOM     30  C   UNL     1       4.283 -22.016  11.503  1.00  0.00     0.051 C 
ATOM     31  O   UNL     1       3.204 -22.096  12.151  1.00  0.00    -0.549 OA
ATOM     32  O   UNL     1       4.220 -22.067  10.116  1.00  0.00    -0.549 OA
ENDBRANCH   1  30
BRANCH   4  33
ATOM     33  O   UNL     1       7.085 -21.433  10.323  1.00  0.00    -0.392 OA
ATOM     34  H   UNL     1       7.371 -22.380  10.377  1.00  0.00     0.210 HD
ENDBRANCH   4  33
BRANCH  27  35
ATOM     35  O   UNL     1       8.998 -16.140  17.771  1.00  0.00    -0.393 OA
ATOM     36  H   UNL     1       8.265 -16.487  18.344  1.00  0.00     0.210 HD
ENDBRANCH  27  35
TORSDOF 3
ENDMDL
MODEL 2
REMARK VINA RESULT:    -6.898      2.442      3.500
REMARK INTER + INTRA:          -8.218
REMARK INTER:                  -7.813
REMARK INTRA:                  -0.405
REMARK UNBOUND:                -0.513
REMARK SMILES CC1(C)CC[C@]2(C(=O)[O-])[C@@H](O)C[C@@]3(C)C(=CC[C@H]4[C@@]5(C)CC[C@@H](O)C(C)(C)[C@H]5CC[C@]43C)[C@@H]2C1
REMARK SMILES IDX 6 1 5 2 33 3 10 4 4 5 34 6 15 7 12 8 2 9 16 10 13 11 1 12
REMARK SMILES IDX 3 13 17 14 31 15 14 16 18 17 30 18 32 19 19 20 29 21 21 22
REMARK SMILES IDX 20 23 28 24 22 25 25 26 23 27 26 28 27 29 7 30 8 31 9 32
REMARK SMILES IDX 11 33 24 35
REMARK H PARENT 11 34 24 36
REMARK Flexibility Score: inf
ROOT
ATOM      1  C   UNL     1       7.137 -23.730  16.076  1.00  0.00     0.042 C 
ATOM      2  C   UNL     1       7.338 -24.850  17.156  1.00  0.00     0.017 C 
ATOM      3  C   UNL     1       6.070 -22.666  16.548  1.00  0.00     0.030 C 
ATOM      4  C   UNL     1       8.489 -22.984  15.888  1.00  0.00     0.127 C 
ATOM      5  C   UNL     1       6.058 -25.123  17.951  1.00  0.00     0.007 C 
ATOM      6  C   UNL     1       6.081 -22.554  18.102  1.00  0.00     0.015 C 
ATOM      7  C   UNL     1       6.218 -21.276  15.899  1.00  0.00    -0.063 C 
ATOM      8  C   UNL     1       8.441 -21.954  14.746  1.00  0.00     0.044 C 
ATOM      9  C   UNL     1       5.634 -23.882  18.791  1.00  0.00    -0.035 C 
ATOM     10  C   UNL     1       5.277 -20.361  16.194  1.00  0.00    -0.027 C 
ATOM     11  C   UNL     1       7.207 -20.965  14.761  1.00  0.00    -0.003 C 
ATOM     12  C   UNL     1       4.097 -23.892  18.962  1.00  0.00     0.011 C 
ATOM     13  C   UNL     1       6.274 -23.959  20.195  1.00  0.00     0.011 C 
ATOM     14  C   UNL     1       5.485 -18.890  16.035  1.00  0.00     0.032 C 
ATOM     15  C   UNL     1       7.702 -19.432  14.831  1.00  0.00    -0.020 C 
ATOM     16  C   UNL     1       6.398 -21.219  13.447  1.00  0.00     0.017 C 
ATOM     17  C   UNL     1       6.480 -18.436  14.924  1.00  0.00     0.006 C 
ATOM     18  C   UNL     1       8.608 -19.216  16.095  1.00  0.00     0.008 C 
ATOM     19  C   UNL     1       8.524 -19.128  13.528  1.00  0.00     0.012 C 
ATOM     20  C   UNL     1       6.891 -16.869  15.014  1.00  0.00    -0.025 C 
ATOM     21  C   UNL     1       8.540 -17.823  16.767  1.00  0.00     0.005 C 
ATOM     22  C   UNL     1       5.747 -16.042  15.710  1.00  0.00     0.010 C 
ATOM     23  C   UNL     1       7.000 -16.323  13.548  1.00  0.00     0.012 C 
ATOM     24  C   UNL     1       8.289 -16.665  15.768  1.00  0.00     0.003 C 
ATOM     25  C   UNL     1       6.110 -14.603  16.075  1.00  0.00     0.033 C 
ATOM     26  C   UNL     1       8.578 -15.206  16.357  1.00  0.00    -0.006 C 
ATOM     27  C   UNL     1       7.317 -14.576  17.015  1.00  0.00     0.120 C 
ATOM     28  C   UNL     1       9.098 -14.266  15.230  1.00  0.00     0.014 C 
ATOM     29  C   UNL     1       9.718 -15.205  17.414  1.00  0.00     0.014 C 
ENDROOT
BRANCH   1  30
ATOM     30  C   UNL     1       6.682 -24.427  14.792  1.00  0.00     0.051 C 
ATOM     31  O   UNL     1       7.524 -24.914  13.990  1.00  0.00    -0.549 OA
ATOM     32  O   UNL     1       5.345 -24.422  14.415  1.00  0.00    -0.549 OA
ENDBRANCH   1  30
BRANCH   4  33
ATOM     33  O   UNL     1       9.574 -23.878  15.749  1.00  0.00    -0.392 OA
ATOM     34  H   UNL     1       9.981 -24.045  16.636  1.00  0.00     0.210 HD
ENDBRANCH   4  33
BRANCH  27  35
ATOM     35  O   UNL     1       7.003 -15.248  18.211  1.00  0.00    -0.393 OA
ATOM     36  H   UNL     1       6.783 -14.554  18.886  1.00  0.00     0.210 HD
ENDBRANCH  27  35
TORSDOF 3
ENDMDL
MODEL 3
REMARK VINA RESULT:    -6.311      3.457      7.900
REMARK INTER + INTRA:          -7.562
REMARK INTER:                  -7.424
REMARK INTRA:                  -0.138
REMARK UNBOUND:                -0.513
REMARK SMILES CC1(C)CC[C@]2(C(=O)[O-])[C@@H](O)C[C@@]3(C)C(=CC[C@H]4[C@@]5(C)CC[C@@H](O)C(C)(C)[C@H]5CC[C@]43C)[C@@H]2C1
REMARK SMILES IDX 6 1 5 2 33 3 10 4 4 5 34 6 15 7 12 8 2 9 16 10 13 11 1 12
REMARK SMILES IDX 3 13 17 14 31 15 14 16 18 17 30 18 32 19 19 20 29 21 21 22
REMARK SMILES IDX 20 23 28 24 22 25 25 26 23 27 26 28 27 29 7 30 8 31 9 32
REMARK SMILES IDX 11 33 24 35
REMARK H PARENT 11 34 24 36
REMARK Flexibility Score: inf
ROOT
ATOM      1  C   UNL     1       4.258 -16.369  20.035  1.00  0.00     0.042 C 
ATOM      2  C   UNL     1       3.185 -15.380  20.610  1.00  0.00     0.017 C 
ATOM      3  C   UNL     1       3.581 -17.527  19.202  1.00  0.00     0.030 C 
ATOM      4  C   UNL     1       5.185 -15.576  19.068  1.00  0.00     0.127 C 
ATOM      5  C   UNL     1       1.861 -16.083  20.922  1.00  0.00     0.007 C 
ATOM      6  C   UNL     1       2.259 -17.014  18.556  1.00  0.00     0.015 C 
ATOM      7  C   UNL     1       4.494 -18.172  18.141  1.00  0.00    -0.063 C 
ATOM      8  C   UNL     1       6.363 -16.421  18.555  1.00  0.00     0.044 C 
ATOM      9  C   UNL     1       1.190 -16.633  19.628  1.00  0.00    -0.035 C 
ATOM     10  C   UNL     1       3.996 -19.227  17.469  1.00  0.00    -0.027 C 
ATOM     11  C   UNL     1       5.992 -17.853  17.992  1.00  0.00    -0.003 C 
ATOM     12  C   UNL     1       0.344 -17.876  19.990  1.00  0.00     0.011 C 
ATOM     13  C   UNL     1       0.244 -15.565  19.036  1.00  0.00     0.011 C 
ATOM     14  C   UNL     1       4.527 -19.681  16.148  1.00  0.00     0.032 C 
ATOM     15  C   UNL     1       6.465 -18.006  16.458  1.00  0.00    -0.020 C 
ATOM     16  C   UNL     1       6.717 -18.903  18.896  1.00  0.00     0.017 C 
ATOM     17  C   UNL     1       6.033 -19.402  15.860  1.00  0.00     0.006 C 
ATOM     18  C   UNL     1       5.821 -16.876  15.581  1.00  0.00     0.008 C 
ATOM     19  C   UNL     1       8.031 -17.884  16.419  1.00  0.00     0.012 C 
ATOM     20  C   UNL     1       6.458 -19.633  14.311  1.00  0.00    -0.025 C 
ATOM     21  C   UNL     1       5.488 -17.242  14.114  1.00  0.00     0.005 C 
ATOM     22  C   UNL     1       5.504 -20.685  13.633  1.00  0.00     0.010 C 
ATOM     23  C   UNL     1       7.891 -20.270  14.303  1.00  0.00     0.012 C 
ATOM     24  C   UNL     1       6.476 -18.259  13.490  1.00  0.00     0.003 C 
ATOM     25  C   UNL     1       5.641 -20.810  12.116  1.00  0.00     0.033 C 
ATOM     26  C   UNL     1       6.390 -18.377  11.896  1.00  0.00    -0.006 C 
ATOM     27  C   UNL     1       5.376 -19.464  11.439  1.00  0.00     0.120 C 
ATOM     28  C   UNL     1       7.795 -18.699  11.306  1.00  0.00     0.014 C 
ATOM     29  C   UNL     1       5.988 -17.035  11.221  1.00  0.00     0.014 C 
ENDROOT
BRANCH   1  30
ATOM     30  C   UNL     1       5.028 -16.935  21.231  1.00  0.00     0.051 C 
ATOM     31  O   UNL     1       5.154 -18.180  21.384  1.00  0.00    -0.549 OA
ATOM     32  O   UNL     1       5.489 -16.100  22.240  1.00  0.00    -0.549 OA
ENDBRANCH   1  30
BRANCH   4  33
ATOM     33  O   UNL     1       5.615 -14.353  19.627  1.00  0.00    -0.392 OA
ATOM     34  H   UNL     1       5.721 -14.454  20.606  1.00  0.00     0.210 HD
ENDBRANCH   4  33
BRANCH  27  35
ATOM     35  O   UNL     1       4.059 -19.048  11.710  1.00  0.00    -0.393 OA
ATOM     36  H   UNL     1       3.494 -19.864  11.725  1.00  0.00     0.210 HD
ENDBRANCH  27  35
TORSDOF 3
ENDMDL
MODEL 4
REMARK VINA RESULT:    -6.243      3.111      7.585
REMARK INTER + INTRA:          -7.487
REMARK INTER:                  -6.983
REMARK INTRA:                  -0.504
REMARK UNBOUND:                -0.513
REMARK SMILES CC1(C)CC[C@]2(C(=O)[O-])[C@@H](O)C[C@@]3(C)C(=CC[C@H]4[C@@]5(C)CC[C@@H](O)C(C)(C)[C@H]5CC[C@]43C)[C@@H]2C1
REMARK SMILES IDX 6 1 5 2 33 3 10 4 4 5 34 6 15 7 12 8 2 9 16 10 13 11 1 12
REMARK SMILES IDX 3 13 17 14 31 15 14 16 18 17 30 18 32 19 19 20 29 21 21 22
REMARK SMILES IDX 20 23 28 24 22 25 25 26 23 27 26 28 27 29 7 30 8 31 9 32
REMARK SMILES IDX 11 33 24 35
REMARK H PARENT 11 34 24 36
REMARK Flexibility Score: inf
ROOT
ATOM      1  C   UNL     1       5.750 -16.583  14.685  1.00  0.00     0.042 C 
ATOM      2  C   UNL     1       5.523 -15.068  15.021  1.00  0.00     0.017 C 
ATOM      3  C   UNL     1       6.854 -17.218  15.619  1.00  0.00     0.030 C 
ATOM      4  C   UNL     1       4.420 -17.347  14.947  1.00  0.00     0.127 C 
ATOM      5  C   UNL     1       6.801 -14.391  15.525  1.00  0.00     0.007 C 
ATOM      6  C   UNL     1       6.859 -16.498  17.001  1.00  0.00     0.015 C 
ATOM      7  C   UNL     1       6.744 -18.745  15.798  1.00  0.00    -0.063 C 
ATOM      8  C   UNL     1       4.490 -18.821  14.513  1.00  0.00     0.044 C 
ATOM      9  C   UNL     1       7.271 -14.996  16.881  1.00  0.00    -0.035 C 
ATOM     10  C   UNL     1       7.715 -19.347  16.507  1.00  0.00    -0.027 C 
ATOM     11  C   UNL     1       5.755 -19.629  15.016  1.00  0.00    -0.003 C 
ATOM     12  C   UNL     1       8.807 -14.864  16.985  1.00  0.00     0.011 C 
ATOM     13  C   UNL     1       6.640 -14.209  18.051  1.00  0.00     0.011 C 
ATOM     14  C   UNL     1       7.552 -20.688  17.147  1.00  0.00     0.032 C 
ATOM     15  C   UNL     1       5.308 -20.907  15.891  1.00  0.00    -0.020 C 
ATOM     16  C   UNL     1       6.544 -20.084  13.745  1.00  0.00     0.017 C 
ATOM     17  C   UNL     1       6.562 -21.678  16.464  1.00  0.00     0.006 C 
ATOM     18  C   UNL     1       4.421 -20.447  17.101  1.00  0.00     0.008 C 
ATOM     19  C   UNL     1       4.485 -21.868  14.960  1.00  0.00     0.012 C 
ATOM     20  C   UNL     1       6.200 -22.974  17.371  1.00  0.00    -0.025 C 
ATOM     21  C   UNL     1       4.537 -21.279  18.402  1.00  0.00     0.005 C 
ATOM     22  C   UNL     1       7.375 -23.287  18.370  1.00  0.00     0.010 C 
ATOM     23  C   UNL     1       6.096 -24.210  16.412  1.00  0.00     0.012 C 
ATOM     24  C   UNL     1       4.816 -22.782  18.153  1.00  0.00     0.003 C 
ATOM     25  C   UNL     1       7.060 -24.328  19.444  1.00  0.00     0.033 C 
ATOM     26  C   UNL     1       4.577 -23.722  19.426  1.00  0.00    -0.006 C 
ATOM     27  C   UNL     1       5.863 -23.885  20.287  1.00  0.00     0.120 C 
ATOM     28  C   UNL     1       4.077 -25.125  18.971  1.00  0.00     0.014 C 
ATOM     29  C   UNL     1       3.446 -23.193  20.353  1.00  0.00     0.014 C 
ENDROOT
BRANCH   1  30
ATOM     30  C   UNL     1       6.172 -16.654  13.215  1.00  0.00     0.051 C 
ATOM     31  O   UNL     1       7.371 -16.888  12.900  1.00  0.00    -0.549 OA
ATOM     32  O   UNL     1       5.278 -16.335  12.202  1.00  0.00    -0.549 OA
ENDBRANCH   1  30
BRANCH   4  33
ATOM     33  O   UNL     1       3.307 -16.683  14.386  1.00  0.00    -0.392 OA
ATOM     34  H   UNL     1       3.324 -16.780  13.401  1.00  0.00     0.210 HD
ENDBRANCH   4  33
BRANCH  27  35
ATOM     35  O   UNL     1       6.165 -22.679  20.945  1.00  0.00    -0.393 OA
ATOM     36  H   UNL     1       6.311 -22.898  21.902  1.00  0.00     0.210 HD
ENDBRANCH  27  35
TORSDOF 3
ENDMDL
MODEL 5
REMARK VINA RESULT:    -6.005      3.408      7.534
REMARK INTER + INTRA:          -7.221
REMARK INTER:                  -6.706
REMARK INTRA:                  -0.514
REMARK UNBOUND:                -0.513
REMARK SMILES CC1(C)CC[C@]2(C(=O)[O-])[C@@H](O)C[C@@]3(C)C(=CC[C@H]4[C@@]5(C)CC[C@@H](O)C(C)(C)[C@H]5CC[C@]43C)[C@@H]2C1
REMARK SMILES IDX 6 1 5 2 33 3 10 4 4 5 34 6 15 7 12 8 2 9 16 10 13 11 1 12
REMARK SMILES IDX 3 13 17 14 31 15 14 16 18 17 30 18 32 19 19 20 29 21 21 22
REMARK SMILES IDX 20 23 28 24 22 25 25 26 23 27 26 28 27 29 7 30 8 31 9 32
REMARK SMILES IDX 11 33 24 35
REMARK H PARENT 11 34 24 36
REMARK Flexibility Score: inf
ROOT
ATOM      1  C   UNL     1       7.103 -17.121  15.064  1.00  0.00     0.042 C 
ATOM      2  C   UNL     1       7.523 -16.943  13.563  1.00  0.00     0.017 C 
ATOM      3  C   UNL     1       5.759 -17.942  15.188  1.00  0.00     0.030 C 
ATOM      4  C   UNL     1       8.215 -17.932  15.790  1.00  0.00     0.127 C 
ATOM      5  C   UNL     1       6.311 -16.870  12.629  1.00  0.00     0.007 C 
ATOM      6  C   UNL     1       5.633 -18.940  13.999  1.00  0.00     0.015 C 
ATOM      7  C   UNL     1       5.573 -18.668  16.535  1.00  0.00    -0.063 C 
ATOM      8  C   UNL     1       7.970 -18.043  17.305  1.00  0.00     0.044 C 
ATOM      9  C   UNL     1       5.513 -18.207  12.625  1.00  0.00    -0.035 C 
ATOM     10  C   UNL     1       4.403 -19.303  16.728  1.00  0.00    -0.027 C 
ATOM     11  C   UNL     1       6.517 -18.496  17.738  1.00  0.00    -0.003 C 
ATOM     12  C   UNL     1       4.028 -17.905  12.321  1.00  0.00     0.011 C 
ATOM     13  C   UNL     1       6.053 -19.134  11.513  1.00  0.00     0.011 C 
ATOM     14  C   UNL     1       4.218 -20.395  17.732  1.00  0.00     0.032 C 
ATOM     15  C   UNL     1       6.577 -19.844  18.621  1.00  0.00    -0.020 C 
ATOM     16  C   UNL     1       5.899 -17.324  18.568  1.00  0.00     0.017 C 
ATOM     17  C   UNL     1       5.129 -20.350  18.996  1.00  0.00     0.006 C 
ATOM     18  C   UNL     1       7.302 -20.981  17.820  1.00  0.00     0.008 C 
ATOM     19  C   UNL     1       7.375 -19.525  19.937  1.00  0.00     0.012 C 
ATOM     20  C   UNL     1       5.097 -21.713  19.875  1.00  0.00    -0.025 C 
ATOM     21  C   UNL     1       6.817 -22.428  18.078  1.00  0.00     0.005 C 
ATOM     22  C   UNL     1       3.728 -22.462  19.673  1.00  0.00     0.010 C 
ATOM     23  C   UNL     1       5.155 -21.303  21.388  1.00  0.00     0.012 C 
ATOM     24  C   UNL     1       6.333 -22.670  19.530  1.00  0.00     0.003 C 
ATOM     25  C   UNL     1       3.665 -23.876  20.250  1.00  0.00     0.033 C 
ATOM     26  C   UNL     1       6.178 -24.212  19.931  1.00  0.00    -0.006 C 
ATOM     27  C   UNL     1       4.753 -24.758  19.633  1.00  0.00     0.120 C 
ATOM     28  C   UNL     1       6.503 -24.408  21.441  1.00  0.00     0.014 C 
ATOM     29  C   UNL     1       7.202 -25.124  19.196  1.00  0.00     0.014 C 
ENDROOT
BRANCH   1  30
ATOM     30  C   UNL     1       6.941 -15.717  15.650  1.00  0.00     0.051 C 
ATOM     31  O   UNL     1       5.796 -15.214  15.812  1.00  0.00    -0.549 OA
ATOM     32  O   UNL     1       8.049 -14.915  15.893  1.00  0.00    -0.549 OA
ENDBRANCH   1  30
BRANCH   4  33
ATOM     33  O   UNL     1       9.507 -17.442  15.497  1.00  0.00    -0.392 OA
ATOM     34  H   UNL     1       9.556 -16.479  15.721  1.00  0.00     0.210 HD
ENDBRANCH   4  33
BRANCH  27  35
ATOM     35  O   UNL     1       4.550 -24.860  18.244  1.00  0.00    -0.393 OA
ATOM     36  H   UNL     1       5.394 -25.205  17.852  1.00  0.00     0.210 HD
ENDBRANCH  27  35
TORSDOF 3
ENDMDL
MODEL 6
REMARK VINA RESULT:    -5.944      2.497      7.812
REMARK INTER + INTRA:          -7.153
REMARK INTER:                  -6.938
REMARK INTRA:                  -0.215
REMARK UNBOUND:                -0.513
REMARK SMILES CC1(C)CC[C@]2(C(=O)[O-])[C@@H](O)C[C@@]3(C)C(=CC[C@H]4[C@@]5(C)CC[C@@H](O)C(C)(C)[C@H]5CC[C@]43C)[C@@H]2C1
REMARK SMILES IDX 6 1 5 2 33 3 10 4 4 5 34 6 15 7 12 8 2 9 16 10 13 11 1 12
REMARK SMILES IDX 3 13 17 14 31 15 14 16 18 17 30 18 32 19 19 20 29 21 21 22
REMARK SMILES IDX 20 23 28 24 22 25 25 26 23 27 26 28 27 29 7 30 8 31 9 32
REMARK SMILES IDX 11 33 24 35
REMARK H PARENT 11 34 24 36
REMARK Flexibility Score: inf
ROOT
ATOM      1  C   UNL     1       7.270 -15.962  17.205  1.00  0.00     0.042 C 
ATOM      2  C   UNL     1       8.682 -15.536  17.738  1.00  0.00     0.017 C 
ATOM      3  C   UNL     1       7.004 -15.379  15.762  1.00  0.00     0.030 C 
ATOM      4  C   UNL     1       7.236 -17.514  17.095  1.00  0.00     0.127 C 
ATOM      5  C   UNL     1       9.110 -14.164  17.209  1.00  0.00     0.007 C 
ATOM      6  C   UNL     1       8.350 -15.228  14.992  1.00  0.00     0.015 C 
ATOM      7  C   UNL     1       5.982 -16.174  14.926  1.00  0.00    -0.063 C 
ATOM      8  C   UNL     1       5.845 -18.049  16.714  1.00  0.00     0.044 C 
ATOM      9  C   UNL     1       9.298 -14.184  15.663  1.00  0.00    -0.035 C 
ATOM     10  C   UNL     1       5.648 -15.665  13.726  1.00  0.00    -0.027 C 
ATOM     11  C   UNL     1       5.150 -17.344  15.479  1.00  0.00    -0.003 C 
ATOM     12  C   UNL     1       9.005 -12.774  15.103  1.00  0.00     0.011 C 
ATOM     13  C   UNL     1      10.762 -14.542  15.319  1.00  0.00     0.011 C 
ATOM     14  C   UNL     1       5.051 -16.482  12.626  1.00  0.00     0.032 C 
ATOM     15  C   UNL     1       4.820 -18.415  14.320  1.00  0.00    -0.020 C 
ATOM     16  C   UNL     1       3.834 -16.686  16.007  1.00  0.00     0.017 C 
ATOM     17  C   UNL     1       4.196 -17.714  13.050  1.00  0.00     0.006 C 
ATOM     18  C   UNL     1       6.133 -19.152  13.878  1.00  0.00     0.008 C 
ATOM     19  C   UNL     1       3.794 -19.455  14.899  1.00  0.00     0.012 C 
ATOM     20  C   UNL     1       3.846 -18.721  11.827  1.00  0.00    -0.025 C 
ATOM     21  C   UNL     1       6.222 -19.578  12.392  1.00  0.00     0.005 C 
ATOM     22  C   UNL     1       3.840 -17.940  10.461  1.00  0.00     0.010 C 
ATOM     23  C   UNL     1       2.382 -19.240  12.043  1.00  0.00     0.012 C 
ATOM     24  C   UNL     1       4.854 -19.964  11.775  1.00  0.00     0.003 C 
ATOM     25  C   UNL     1       3.766 -18.814   9.209  1.00  0.00     0.033 C 
ATOM     26  C   UNL     1       4.950 -20.749  10.384  1.00  0.00    -0.006 C 
ATOM     27  C   UNL     1       4.946 -19.787   9.162  1.00  0.00     0.120 C 
ATOM     28  C   UNL     1       3.770 -21.757  10.255  1.00  0.00     0.014 C 
ATOM     29  C   UNL     1       6.224 -21.636  10.288  1.00  0.00     0.014 C 
ENDROOT
BRANCH   1  30
ATOM     30  C   UNL     1       6.239 -15.435  18.205  1.00  0.00     0.051 C 
ATOM     31  O   UNL     1       5.929 -14.213  18.228  1.00  0.00    -0.549 OA
ATOM     32  O   UNL     1       5.721 -16.261  19.194  1.00  0.00    -0.549 OA
ENDBRANCH   1  30
BRANCH   4  33
ATOM     33  O   UNL     1       7.744 -18.140  18.255  1.00  0.00    -0.392 OA
ATOM     34  H   UNL     1       8.121 -17.456  18.863  1.00  0.00     0.210 HD
ENDBRANCH   4  33
BRANCH  27  35
ATOM     35  O   UNL     1       6.153 -19.067   9.103  1.00  0.00    -0.393 OA
ATOM     36  H   UNL     1       6.283 -18.644   9.992  1.00  0.00     0.210 HD
ENDBRANCH  27  35
TORSDOF 3
ENDMDL
MODEL 7
REMARK VINA RESULT:    -5.772      3.979      5.971
REMARK INTER + INTRA:          -6.960
REMARK INTER:                  -6.463
REMARK INTRA:                  -0.497
REMARK UNBOUND:                -0.513
REMARK SMILES CC1(C)CC[C@]2(C(=O)[O-])[C@@H](O)C[C@@]3(C)C(=CC[C@H]4[C@@]5(C)CC[C@@H](O)C(C)(C)[C@H]5CC[C@]43C)[C@@H]2C1
REMARK SMILES IDX 6 1 5 2 33 3 10 4 4 5 34 6 15 7 12 8 2 9 16 10 13 11 1 12
REMARK SMILES IDX 3 13 17 14 31 15 14 16 18 17 30 18 32 19 19 20 29 21 21 22
REMARK SMILES IDX 20 23 28 24 22 25 25 26 23 27 26 28 27 29 7 30 8 31 9 32
REMARK SMILES IDX 11 33 24 35
REMARK H PARENT 11 34 24 36
REMARK Flexibility Score: inf
ROOT
ATOM      1  C   UNL     1       3.508 -22.812  19.049  1.00  0.00     0.042 C 
ATOM      2  C   UNL     1       2.267 -22.842  20.009  1.00  0.00     0.017 C 
ATOM      3  C   UNL     1       3.192 -22.001  17.732  1.00  0.00     0.030 C 
ATOM      4  C   UNL     1       4.673 -22.084  19.779  1.00  0.00     0.127 C 
ATOM      5  C   UNL     1       0.942 -22.816  19.242  1.00  0.00     0.007 C 
ATOM      6  C   UNL     1       2.142 -20.888  18.031  1.00  0.00     0.015 C 
ATOM      7  C   UNL     1       4.430 -21.410  17.029  1.00  0.00    -0.063 C 
ATOM      8  C   UNL     1       5.987 -22.122  18.978  1.00  0.00     0.044 C 
ATOM      9  C   UNL     1       0.763 -21.481  18.461  1.00  0.00    -0.035 C 
ATOM     10  C   UNL     1       4.225 -20.792  15.852  1.00  0.00    -0.027 C 
ATOM     11  C   UNL     1       5.878 -21.707  17.455  1.00  0.00    -0.003 C 
ATOM     12  C   UNL     1      -0.107 -21.742  17.210  1.00  0.00     0.011 C 
ATOM     13  C   UNL     1       0.030 -20.451  19.349  1.00  0.00     0.011 C 
ATOM     14  C   UNL     1       5.183 -19.804  15.267  1.00  0.00     0.032 C 
ATOM     15  C   UNL     1       6.842 -20.454  17.134  1.00  0.00    -0.020 C 
ATOM     16  C   UNL     1       6.299 -22.952  16.608  1.00  0.00     0.017 C 
ATOM     17  C   UNL     1       6.687 -19.980  15.636  1.00  0.00     0.006 C 
ATOM     18  C   UNL     1       6.485 -19.247  18.070  1.00  0.00     0.008 C 
ATOM     19  C   UNL     1       8.325 -20.905  17.387  1.00  0.00     0.012 C 
ATOM     20  C   UNL     1       7.613 -18.710  15.231  1.00  0.00    -0.025 C 
ATOM     21  C   UNL     1       6.675 -17.829  17.477  1.00  0.00     0.005 C 
ATOM     22  C   UNL     1       6.980 -17.937  14.015  1.00  0.00     0.010 C 
ATOM     23  C   UNL     1       8.989 -19.268  14.728  1.00  0.00     0.012 C 
ATOM     24  C   UNL     1       7.852 -17.730  16.474  1.00  0.00     0.003 C 
ATOM     25  C   UNL     1       7.620 -16.587  13.694  1.00  0.00     0.033 C 
ATOM     26  C   UNL     1       8.308 -16.236  16.129  1.00  0.00    -0.006 C 
ATOM     27  C   UNL     1       7.546 -15.655  14.904  1.00  0.00     0.120 C 
ATOM     28  C   UNL     1       9.840 -16.192  15.855  1.00  0.00     0.014 C 
ATOM     29  C   UNL     1       8.104 -15.260  17.324  1.00  0.00     0.014 C 
ENDROOT
BRANCH   1  30
ATOM     30  C   UNL     1       3.854 -24.267  18.724  1.00  0.00     0.051 C 
ATOM     31  O   UNL     1       3.606 -24.749  17.586  1.00  0.00    -0.549 OA
ATOM     32  O   UNL     1       4.326 -25.123  19.711  1.00  0.00    -0.549 OA
ENDBRANCH   1  30
BRANCH   4  33
ATOM     33  O   UNL     1       4.846 -22.549  21.101  1.00  0.00    -0.392 OA
ATOM     34  H   UNL     1       4.370 -21.949  21.729  1.00  0.00     0.210 HD
ENDBRANCH   4  33
BRANCH  27  35
ATOM     35  O   UNL     1       6.200 -15.414  15.236  1.00  0.00    -0.393 OA
ATOM     36  H   UNL     1       5.691 -15.382  14.384  1.00  0.00     0.210 HD
ENDBRANCH  27  35
TORSDOF 3
ENDMDL
MODEL 8
REMARK VINA RESULT:    -5.640      3.022      6.221
REMARK INTER + INTRA:          -6.813
REMARK INTER:                  -6.304
REMARK INTRA:                  -0.509
REMARK UNBOUND:                -0.513
REMARK SMILES CC1(C)CC[C@]2(C(=O)[O-])[C@@H](O)C[C@@]3(C)C(=CC[C@H]4[C@@]5(C)CC[C@@H](O)C(C)(C)[C@H]5CC[C@]43C)[C@@H]2C1
REMARK SMILES IDX 6 1 5 2 33 3 10 4 4 5 34 6 15 7 12 8 2 9 16 10 13 11 1 12
REMARK SMILES IDX 3 13 17 14 31 15 14 16 18 17 30 18 32 19 19 20 29 21 21 22
REMARK SMILES IDX 20 23 28 24 22 25 25 26 23 27 26 28 27 29 7 30 8 31 9 32
REMARK SMILES IDX 11 33 24 35
REMARK H PARENT 11 34 24 36
REMARK Flexibility Score: inf
ROOT
ATOM      1  C   UNL     1       6.151 -19.217  10.981  1.00  0.00     0.042 C 
ATOM      2  C   UNL     1       5.498 -19.482   9.580  1.00  0.00     0.017 C 
ATOM      3  C   UNL     1       5.051 -18.982  12.090  1.00  0.00     0.030 C 
ATOM      4  C   UNL     1       6.964 -20.479  11.389  1.00  0.00     0.127 C 
ATOM      5  C   UNL     1       4.168 -18.741   9.413  1.00  0.00     0.007 C 
ATOM      6  C   UNL     1       3.759 -19.776  11.734  1.00  0.00     0.015 C 
ATOM      7  C   UNL     1       5.510 -19.300  13.527  1.00  0.00    -0.063 C 
ATOM      8  C   UNL     1       7.764 -20.273  12.687  1.00  0.00     0.044 C 
ATOM      9  C   UNL     1       3.096 -19.261  10.417  1.00  0.00    -0.035 C 
ATOM     10  C   UNL     1       4.643 -19.027  14.518  1.00  0.00    -0.027 C 
ATOM     11  C   UNL     1       6.959 -19.659  13.903  1.00  0.00    -0.003 C 
ATOM     12  C   UNL     1       2.111 -18.114  10.740  1.00  0.00     0.011 C 
ATOM     13  C   UNL     1       2.295 -20.415   9.774  1.00  0.00     0.011 C 
ATOM     14  C   UNL     1       4.719 -19.657  15.871  1.00  0.00     0.032 C 
ATOM     15  C   UNL     1       6.996 -20.651  15.174  1.00  0.00    -0.020 C 
ATOM     16  C   UNL     1       7.631 -18.292  14.256  1.00  0.00     0.017 C 
ATOM     17  C   UNL     1       6.132 -20.086  16.369  1.00  0.00     0.006 C 
ATOM     18  C   UNL     1       6.423 -22.057  14.776  1.00  0.00     0.008 C 
ATOM     19  C   UNL     1       8.491 -20.795  15.633  1.00  0.00     0.012 C 
ATOM     20  C   UNL     1       6.103 -21.033  17.686  1.00  0.00    -0.025 C 
ATOM     21  C   UNL     1       5.669 -22.836  15.881  1.00  0.00     0.005 C 
ATOM     22  C   UNL     1       4.803 -20.757  18.529  1.00  0.00     0.010 C 
ATOM     23  C   UNL     1       7.312 -20.619  18.595  1.00  0.00     0.012 C 
ATOM     24  C   UNL     1       6.223 -22.583  17.305  1.00  0.00     0.003 C 
ATOM     25  C   UNL     1       4.534 -21.750  19.660  1.00  0.00     0.033 C 
ATOM     26  C   UNL     1       5.727 -23.632  18.407  1.00  0.00    -0.006 C 
ATOM     27  C   UNL     1       4.416 -23.173  19.109  1.00  0.00     0.120 C 
ATOM     28  C   UNL     1       6.837 -23.852  19.477  1.00  0.00     0.014 C 
ATOM     29  C   UNL     1       5.478 -25.048  17.813  1.00  0.00     0.014 C 
ENDROOT
BRANCH   1  30
ATOM     30  C   UNL     1       7.044 -17.984  10.829  1.00  0.00     0.051 C 
ATOM     31  O   UNL     1       6.681 -16.865  11.283  1.00  0.00    -0.549 OA
ATOM     32  O   UNL     1       8.210 -18.038  10.075  1.00  0.00    -0.549 OA
ENDBRANCH   1  30
BRANCH   4  33
ATOM     33  O   UNL     1       7.778 -20.950  10.335  1.00  0.00    -0.392 OA
ATOM     34  H   UNL     1       8.647 -21.256  10.698  1.00  0.00     0.210 HD
ENDBRANCH   4  33
BRANCH  27  35
ATOM     35  O   UNL     1       3.332 -23.248  18.215  1.00  0.00    -0.393 OA
ATOM     36  H   UNL     1       3.422 -24.103  17.720  1.00  0.00     0.210 HD
ENDBRANCH  27  35
TORSDOF 3
ENDMDL
MODEL 9
REMARK VINA RESULT:    -5.474      3.045      6.610
REMARK INTER + INTRA:          -6.628
REMARK INTER:                  -6.115
REMARK INTRA:                  -0.512
REMARK UNBOUND:                -0.513
REMARK SMILES CC1(C)CC[C@]2(C(=O)[O-])[C@@H](O)C[C@@]3(C)C(=CC[C@H]4[C@@]5(C)CC[C@@H](O)C(C)(C)[C@H]5CC[C@]43C)[C@@H]2C1
REMARK SMILES IDX 6 1 5 2 33 3 10 4 4 5 34 6 15 7 12 8 2 9 16 10 13 11 1 12
REMARK SMILES IDX 3 13 17 14 31 15 14 16 18 17 30 18 32 19 19 20 29 21 21 22
REMARK SMILES IDX 20 23 28 24 22 25 25 26 23 27 26 28 27 29 7 30 8 31 9 32
REMARK SMILES IDX 11 33 24 35
REMARK H PARENT 11 34 24 36
REMARK Flexibility Score: inf
ROOT
ATOM      1  C   UNL     1       3.857 -18.565  10.939  1.00  0.00     0.042 C 
ATOM      2  C   UNL     1       2.618 -17.610  10.826  1.00  0.00     0.017 C 
ATOM      3  C   UNL     1       4.827 -18.110  12.099  1.00  0.00     0.030 C 
ATOM      4  C   UNL     1       3.345 -19.992  11.292  1.00  0.00     0.127 C 
ATOM      5  C   UNL     1       2.959 -16.172  11.226  1.00  0.00     0.007 C 
ATOM      6  C   UNL     1       4.015 -17.403  13.226  1.00  0.00     0.015 C 
ATOM      7  C   UNL     1       5.705 -19.234  12.682  1.00  0.00    -0.063 C 
ATOM      8  C   UNL     1       4.470 -21.041  11.288  1.00  0.00     0.044 C 
ATOM      9  C   UNL     1       3.353 -16.077  12.731  1.00  0.00    -0.035 C 
ATOM     10  C   UNL     1       6.616 -18.880  13.606  1.00  0.00    -0.027 C 
ATOM     11  C   UNL     1       5.776 -20.656  12.096  1.00  0.00    -0.003 C 
ATOM     12  C   UNL     1       4.335 -14.899  12.920  1.00  0.00     0.011 C 
ATOM     13  C   UNL     1       2.096 -15.796  13.583  1.00  0.00     0.011 C 
ATOM     14  C   UNL     1       7.219 -19.845  14.575  1.00  0.00     0.032 C 
ATOM     15  C   UNL     1       6.077 -21.741  13.249  1.00  0.00    -0.020 C 
ATOM     16  C   UNL     1       6.953 -20.607  11.068  1.00  0.00     0.017 C 
ATOM     17  C   UNL     1       7.334 -21.328  14.112  1.00  0.00     0.006 C 
ATOM     18  C   UNL     1       4.842 -21.864  14.209  1.00  0.00     0.008 C 
ATOM     19  C   UNL     1       6.352 -23.123  12.555  1.00  0.00     0.012 C 
ATOM     20  C   UNL     1       7.699 -22.362  15.309  1.00  0.00    -0.025 C 
ATOM     21  C   UNL     1       5.146 -22.182  15.693  1.00  0.00     0.005 C 
ATOM     22  C   UNL     1       8.493 -21.621  16.448  1.00  0.00     0.010 C 
ATOM     23  C   UNL     1       8.675 -23.440  14.722  1.00  0.00     0.012 C 
ATOM     24  C   UNL     1       6.392 -23.080  15.892  1.00  0.00     0.003 C 
ATOM     25  C   UNL     1       8.683 -22.419  17.737  1.00  0.00     0.033 C 
ATOM     26  C   UNL     1       6.522 -23.726  17.350  1.00  0.00    -0.006 C 
ATOM     27  C   UNL     1       7.330 -22.822  18.325  1.00  0.00     0.120 C 
ATOM     28  C   UNL     1       7.198 -25.125  17.260  1.00  0.00     0.014 C 
ATOM     29  C   UNL     1       5.137 -24.010  18.000  1.00  0.00     0.014 C 
ENDROOT
BRANCH   1  30
ATOM     30  C   UNL     1       4.571 -18.531   9.586  1.00  0.00     0.051 C 
ATOM     31  O   UNL     1       5.603 -17.826   9.420  1.00  0.00    -0.549 OA
ATOM     32  O   UNL     1       4.027 -19.168   8.478  1.00  0.00    -0.549 OA
ENDBRANCH   1  30
BRANCH   4  33
ATOM     33  O   UNL     1       2.256 -20.381  10.481  1.00  0.00    -0.392 OA
ATOM     34  H   UNL     1       2.594 -20.814   9.658  1.00  0.00     0.210 HD
ENDBRANCH   4  33
BRANCH  27  35
ATOM     35  O   UNL     1       6.590 -21.669  18.648  1.00  0.00    -0.393 OA
ATOM     36  H   UNL     1       6.979 -20.919  18.127  1.00  0.00     0.210 HD
ENDBRANCH  27  35
TORSDOF 3
ENDMDL
