MODEL 1
REMARK VINA RESULT:    -2.895      0.000      0.000
REMARK INTER + INTRA:          -6.925
REMARK INTER:                  -5.096
REMARK INTRA:                  -1.830
REMARK UNBOUND:                -1.830
REMARK SMILES CCCCCCCCCCCCCCC(=O)[O-]
REMARK SMILES IDX 9 1 10 2 11 3 12 4 13 5 14 6 15 7 16 8 17 9 8 10 7 11 6 12
REMARK SMILES IDX 5 13 4 14 3 15 2 16 1 17
REMARK H PARENT
REMARK Flexibility Score: inf
ROOT
ATOM      1  C   UNL     1      20.173   7.881  15.702  1.00  0.00     0.000 C 
ENDROOT
BRANCH   1   2
ATOM      2  C   UNL     1      18.764   8.399  16.034  1.00  0.00     0.000 C 
BRANCH   2   3
ATOM      3  C   UNL     1      18.786   9.773  16.724  1.00  0.00     0.000 C 
BRANCH   3   4
ATOM      4  C   UNL     1      19.396   9.724  18.136  1.00  0.00     0.000 C 
BRANCH   4   5
ATOM      5  C   UNL     1      20.677  10.563  18.329  1.00  0.00     0.006 C 
BRANCH   5   6
ATOM      6  C   UNL     1      21.260  11.145  17.032  1.00  0.00     0.053 C 
BRANCH   6   7
ATOM      7  C   UNL     1      21.271  12.643  17.046  1.00  0.00     0.041 C 
ATOM      8  O   UNL     1      20.946  13.270  18.088  1.00  0.00    -0.550 OA
ATOM      9  O   UNL     1      21.669  13.346  15.917  1.00  0.00    -0.550 OA
ENDBRANCH   6   7
ENDBRANCH   5   6
ENDBRANCH   4   5
ENDBRANCH   3   4
ENDBRANCH   2   3
ENDBRANCH   1   2
BRANCH   1  10
ATOM     10  C   UNL     1      20.428   6.467  16.253  1.00  0.00     0.000 C 
BRANCH  10  11
ATOM     11  C   UNL     1      21.224   6.475  17.569  1.00  0.00    -0.000 C 
BRANCH  11  12
ATOM     12  C   UNL     1      22.446   7.416  17.588  1.00  0.00    -0.000 C 
BRANCH  12  13
ATOM     13  C   UNL     1      23.793   6.690  17.387  1.00  0.00    -0.000 C 
BRANCH  13  14
ATOM     14  C   UNL     1      24.651   7.350  16.293  1.00  0.00    -0.000 C 
BRANCH  14  15
ATOM     15  C   UNL     1      25.003   6.381  15.154  1.00  0.00    -0.000 C 
BRANCH  15  16
ATOM     16  C   UNL     1      23.940   5.286  14.968  1.00  0.00    -0.003 C 
ATOM     17  C   UNL     1      23.126   5.524  13.700  1.00  0.00     0.004 C 
ENDBRANCH  15  16
ENDBRANCH  14  15
ENDBRANCH  13  14
ENDBRANCH  12  13
ENDBRANCH  11  12
ENDBRANCH  10  11
ENDBRANCH   1  10
TORSDOF 13
ENDMDL
MODEL 2
REMARK VINA RESULT:    -2.777      1.403      2.172
REMARK INTER + INTRA:          -6.717
REMARK INTER:                  -4.864
REMARK INTRA:                  -1.853
REMARK UNBOUND:                -1.830
REMARK SMILES CCCCCCCCCCCCCCC(=O)[O-]
REMARK SMILES IDX 9 1 10 2 11 3 12 4 13 5 14 6 15 7 16 8 17 9 8 10 7 11 6 12
REMARK SMILES IDX 5 13 4 14 3 15 2 16 1 17
REMARK H PARENT
REMARK Flexibility Score: inf
ROOT
ATOM      1  C   UNL     1      19.088   7.815  16.504  1.00  0.00     0.000 C 
ENDROOT
BRANCH   1   2
ATOM      2  C   UNL     1      18.247   9.058  16.173  1.00  0.00     0.000 C 
BRANCH   2   3
ATOM      3  C   UNL     1      18.535  10.237  17.118  1.00  0.00     0.000 C 
BRANCH   3   4
ATOM      4  C   UNL     1      19.480   9.861  18.273  1.00  0.00     0.000 C 
BRANCH   4   5
ATOM      5  C   UNL     1      20.801  10.656  18.326  1.00  0.00     0.006 C 
BRANCH   5   6
ATOM      6  C   UNL     1      21.271  11.207  16.971  1.00  0.00     0.053 C 
BRANCH   6   7
ATOM      7  C   UNL     1      21.283  12.705  16.950  1.00  0.00     0.041 C 
ATOM      8  O   UNL     1      21.636  13.322  15.911  1.00  0.00    -0.550 OA
ATOM      9  O   UNL     1      20.875  13.419  18.069  1.00  0.00    -0.550 OA
ENDBRANCH   6   7
ENDBRANCH   5   6
ENDBRANCH   4   5
ENDBRANCH   3   4
ENDBRANCH   2   3
ENDBRANCH   1   2
BRANCH   1  10
ATOM     10  C   UNL     1      20.167   7.533  15.443  1.00  0.00     0.000 C 
BRANCH  10  11
ATOM     11  C   UNL     1      21.410   6.842  16.027  1.00  0.00    -0.000 C 
BRANCH  11  12
ATOM     12  C   UNL     1      21.446   6.753  17.566  1.00  0.00    -0.000 C 
BRANCH  12  13
ATOM     13  C   UNL     1      22.662   7.459  18.201  1.00  0.00    -0.000 C 
BRANCH  13  14
ATOM     14  C   UNL     1      23.566   8.122  17.146  1.00  0.00    -0.000 C 
BRANCH  14  15
ATOM     15  C   UNL     1      25.060   7.983  17.476  1.00  0.00    -0.000 C 
BRANCH  15  16
ATOM     16  C   UNL     1      25.499   6.515  17.591  1.00  0.00    -0.003 C 
ATOM     17  C   UNL     1      26.647   6.362  18.584  1.00  0.00     0.004 C 
ENDBRANCH  15  16
ENDBRANCH  14  15
ENDBRANCH  13  14
ENDBRANCH  12  13
ENDBRANCH  11  12
ENDBRANCH  10  11
ENDBRANCH   1  10
TORSDOF 13
ENDMDL
MODEL 3
REMARK VINA RESULT:    -2.746      2.936      5.824
REMARK INTER + INTRA:          -6.662
REMARK INTER:                  -4.837
REMARK INTRA:                  -1.825
REMARK UNBOUND:                -1.830
REMARK SMILES CCCCCCCCCCCCCCC(=O)[O-]
REMARK SMILES IDX 9 1 10 2 11 3 12 4 13 5 14 6 15 7 16 8 17 9 8 10 7 11 6 12
REMARK SMILES IDX 5 13 4 14 3 15 2 16 1 17
REMARK H PARENT
REMARK Flexibility Score: inf
ROOT
ATOM      1  C   UNL     1      19.003   7.626  16.460  1.00  0.00     0.000 C 
ENDROOT
BRANCH   1   2
ATOM      2  C   UNL     1      20.039   7.442  15.340  1.00  0.00     0.000 C 
BRANCH   2   3
ATOM      3  C   UNL     1      21.358   6.835  15.847  1.00  0.00     0.000 C 
BRANCH   3   4
ATOM      4  C   UNL     1      21.547   6.998  17.366  1.00  0.00     0.000 C 
BRANCH   4   5
ATOM      5  C   UNL     1      23.011   6.967  17.853  1.00  0.00     0.006 C 
BRANCH   5   6
ATOM      6  C   UNL     1      23.968   7.871  17.059  1.00  0.00     0.053 C 
BRANCH   6   7
ATOM      7  C   UNL     1      25.058   7.085  16.396  1.00  0.00     0.041 C 
ATOM      8  O   UNL     1      24.897   6.636  15.231  1.00  0.00    -0.550 OA
ATOM      9  O   UNL     1      26.262   6.876  17.055  1.00  0.00    -0.550 OA
ENDBRANCH   6   7
ENDBRANCH   5   6
ENDBRANCH   4   5
ENDBRANCH   3   4
ENDBRANCH   2   3
ENDBRANCH   1   2
BRANCH   1  10
ATOM     10  C   UNL     1      18.120   8.868  16.250  1.00  0.00     0.000 C 
BRANCH  10  11
ATOM     11  C   UNL     1      18.603  10.086  17.056  1.00  0.00    -0.000 C 
BRANCH  11  12
ATOM     12  C   UNL     1      19.372   9.750  18.350  1.00  0.00    -0.000 C 
BRANCH  12  13
ATOM     13  C   UNL     1      20.784  10.369  18.412  1.00  0.00    -0.000 C 
BRANCH  13  14
ATOM     14  C   UNL     1      21.259  10.873  17.037  1.00  0.00    -0.000 C 
BRANCH  14  15
ATOM     15  C   UNL     1      21.413  12.401  16.989  1.00  0.00    -0.000 C 
BRANCH  15  16
ATOM     16  C   UNL     1      21.451  13.029  18.391  1.00  0.00    -0.003 C 
ATOM     17  C   UNL     1      20.246  13.938  18.617  1.00  0.00     0.004 C 
ENDBRANCH  15  16
ENDBRANCH  14  15
ENDBRANCH  13  14
ENDBRANCH  12  13
ENDBRANCH  11  12
ENDBRANCH  10  11
ENDBRANCH   1  10
TORSDOF 13
ENDMDL
MODEL 4
REMARK VINA RESULT:    -2.724      3.057      6.228
REMARK INTER + INTRA:          -6.625
REMARK INTER:                  -4.676
REMARK INTRA:                  -1.948
REMARK UNBOUND:                -1.830
REMARK SMILES CCCCCCCCCCCCCCC(=O)[O-]
REMARK SMILES IDX 9 1 10 2 11 3 12 4 13 5 14 6 15 7 16 8 17 9 8 10 7 11 6 12
REMARK SMILES IDX 5 13 4 14 3 15 2 16 1 17
REMARK H PARENT
REMARK Flexibility Score: inf
ROOT
ATOM      1  C   UNL     1      21.961   9.273  16.999  1.00  0.00     0.000 C 
ENDROOT
BRANCH   1   2
ATOM      2  C   UNL     1      21.990   9.044  18.519  1.00  0.00     0.000 C 
BRANCH   2   3
ATOM      3  C   UNL     1      23.035   7.996  18.940  1.00  0.00     0.000 C 
BRANCH   3   4
ATOM      4  C   UNL     1      22.484   6.559  18.917  1.00  0.00     0.000 C 
BRANCH   4   5
ATOM      5  C   UNL     1      23.141   5.619  17.884  1.00  0.00     0.006 C 
BRANCH   5   6
ATOM      6  C   UNL     1      24.307   6.244  17.103  1.00  0.00     0.053 C 
BRANCH   6   7
ATOM      7  C   UNL     1      24.073   6.205  15.624  1.00  0.00     0.041 C 
ATOM      8  O   UNL     1      25.015   6.452  14.826  1.00  0.00    -0.550 OA
ATOM      9  O   UNL     1      22.821   5.867  15.127  1.00  0.00    -0.550 OA
ENDBRANCH   6   7
ENDBRANCH   5   6
ENDBRANCH   4   5
ENDBRANCH   3   4
ENDBRANCH   2   3
ENDBRANCH   1   2
BRANCH   1  10
ATOM     10  C   UNL     1      20.804   8.526  16.312  1.00  0.00     0.000 C 
BRANCH  10  11
ATOM     11  C   UNL     1      19.507   8.549  17.137  1.00  0.00    -0.000 C 
BRANCH  11  12
ATOM     12  C   UNL     1      18.382   9.433  16.563  1.00  0.00    -0.000 C 
BRANCH  12  13
ATOM     13  C   UNL     1      18.159  10.743  17.348  1.00  0.00    -0.000 C 
BRANCH  13  14
ATOM     14  C   UNL     1      19.196  11.821  16.987  1.00  0.00    -0.000 C 
BRANCH  14  15
ATOM     15  C   UNL     1      19.919  12.382  18.221  1.00  0.00    -0.000 C 
BRANCH  15  16
ATOM     16  C   UNL     1      21.347  12.850  17.900  1.00  0.00    -0.003 C 
ATOM     17  C   UNL     1      21.528  13.069  16.401  1.00  0.00     0.004 C 
ENDBRANCH  15  16
ENDBRANCH  14  15
ENDBRANCH  13  14
ENDBRANCH  12  13
ENDBRANCH  11  12
ENDBRANCH  10  11
ENDBRANCH   1  10
TORSDOF 13
ENDMDL
MODEL 5
REMARK VINA RESULT:    -2.715      1.632      3.022
REMARK INTER + INTRA:          -6.609
REMARK INTER:                  -5.041
REMARK INTRA:                  -1.568
REMARK UNBOUND:                -1.830
REMARK SMILES CCCCCCCCCCCCCCC(=O)[O-]
REMARK SMILES IDX 9 1 10 2 11 3 12 4 13 5 14 6 15 7 16 8 17 9 8 10 7 11 6 12
REMARK SMILES IDX 5 13 4 14 3 15 2 16 1 17
REMARK H PARENT
REMARK Flexibility Score: inf
ROOT
ATOM      1  C   UNL     1      21.259   6.084  16.641  1.00  0.00     0.000 C 
ENDROOT
BRANCH   1   2
ATOM      2  C   UNL     1      20.608   6.946  15.547  1.00  0.00     0.000 C 
BRANCH   2   3
ATOM      3  C   UNL     1      20.188   8.335  16.059  1.00  0.00     0.000 C 
BRANCH   3   4
ATOM      4  C   UNL     1      21.125   8.877  17.154  1.00  0.00     0.000 C 
BRANCH   4   5
ATOM      5  C   UNL     1      21.599  10.332  16.951  1.00  0.00     0.006 C 
BRANCH   5   6
ATOM      6  C   UNL     1      21.050  11.332  17.979  1.00  0.00     0.053 C 
BRANCH   6   7
ATOM      7  C   UNL     1      21.113  12.742  17.476  1.00  0.00     0.041 C 
ATOM      8  O   UNL     1      21.577  12.987  16.332  1.00  0.00    -0.550 OA
ATOM      9  O   UNL     1      20.631  13.782  18.260  1.00  0.00    -0.550 OA
ENDBRANCH   6   7
ENDBRANCH   5   6
ENDBRANCH   4   5
ENDBRANCH   3   4
ENDBRANCH   2   3
ENDBRANCH   1   2
BRANCH   1  10
ATOM     10  C   UNL     1      22.392   5.196  16.097  1.00  0.00     0.000 C 
BRANCH  10  11
ATOM     11  C   UNL     1      23.310   5.938  15.111  1.00  0.00    -0.000 C 
BRANCH  11  12
ATOM     12  C   UNL     1      24.672   6.375  15.688  1.00  0.00    -0.000 C 
BRANCH  12  13
ATOM     13  C   UNL     1      24.646   7.764  16.359  1.00  0.00    -0.000 C 
BRANCH  13  14
ATOM     14  C   UNL     1      24.559   7.666  17.893  1.00  0.00    -0.000 C 
BRANCH  14  15
ATOM     15  C   UNL     1      25.206   6.384  18.441  1.00  0.00    -0.000 C 
BRANCH  15  16
ATOM     16  C   UNL     1      26.705   6.562  18.728  1.00  0.00    -0.003 C 
ATOM     17  C   UNL     1      26.947   7.746  19.660  1.00  0.00     0.004 C 
ENDBRANCH  15  16
ENDBRANCH  14  15
ENDBRANCH  13  14
ENDBRANCH  12  13
ENDBRANCH  11  12
ENDBRANCH  10  11
ENDBRANCH   1  10
TORSDOF 13
ENDMDL
MODEL 6
REMARK VINA RESULT:    -2.687      1.077      2.173
REMARK INTER + INTRA:          -6.559
REMARK INTER:                  -5.431
REMARK INTRA:                  -1.128
REMARK UNBOUND:                -1.830
REMARK SMILES CCCCCCCCCCCCCCC(=O)[O-]
REMARK SMILES IDX 9 1 10 2 11 3 12 4 13 5 14 6 15 7 16 8 17 9 8 10 7 11 6 12
REMARK SMILES IDX 5 13 4 14 3 15 2 16 1 17
REMARK H PARENT
REMARK Flexibility Score: inf
ROOT
ATOM      1  C   UNL     1      20.126   7.658  15.416  1.00  0.00     0.000 C 
ENDROOT
BRANCH   1   2
ATOM      2  C   UNL     1      18.767   7.553  16.127  1.00  0.00     0.000 C 
BRANCH   2   3
ATOM      3  C   UNL     1      18.094   8.922  16.323  1.00  0.00     0.000 C 
BRANCH   3   4
ATOM      4  C   UNL     1      18.761   9.765  17.424  1.00  0.00     0.000 C 
BRANCH   4   5
ATOM      5  C   UNL     1      19.393  11.089  16.947  1.00  0.00     0.006 C 
BRANCH   5   6
ATOM      6  C   UNL     1      20.921  11.157  17.091  1.00  0.00     0.053 C 
BRANCH   6   7
ATOM      7  C   UNL     1      21.413  12.570  17.171  1.00  0.00     0.041 C 
ATOM      8  O   UNL     1      21.653  13.096  18.289  1.00  0.00    -0.550 OA
ATOM      9  O   UNL     1      21.636  13.295  16.007  1.00  0.00    -0.550 OA
ENDBRANCH   6   7
ENDBRANCH   5   6
ENDBRANCH   4   5
ENDBRANCH   3   4
ENDBRANCH   2   3
ENDBRANCH   1   2
BRANCH   1  10
ATOM     10  C   UNL     1      21.285   7.129  16.278  1.00  0.00     0.000 C 
BRANCH  10  11
ATOM     11  C   UNL     1      21.389   5.594  16.259  1.00  0.00    -0.000 C 
BRANCH  11  12
ATOM     12  C   UNL     1      22.788   5.037  15.926  1.00  0.00    -0.000 C 
BRANCH  12  13
ATOM     13  C   UNL     1      23.465   5.736  14.728  1.00  0.00    -0.000 C 
BRANCH  13  14
ATOM     14  C   UNL     1      24.881   6.233  15.070  1.00  0.00    -0.000 C 
BRANCH  14  15
ATOM     15  C   UNL     1      24.879   7.316  16.160  1.00  0.00    -0.000 C 
BRANCH  15  16
ATOM     16  C   UNL     1      25.685   6.898  17.400  1.00  0.00    -0.003 C 
ATOM     17  C   UNL     1      26.140   8.119  18.194  1.00  0.00     0.004 C 
ENDBRANCH  15  16
ENDBRANCH  14  15
ENDBRANCH  13  14
ENDBRANCH  12  13
ENDBRANCH  11  12
ENDBRANCH  10  11
ENDBRANCH   1  10
TORSDOF 13
ENDMDL
MODEL 7
REMARK VINA RESULT:    -2.684      3.477      5.981
REMARK INTER + INTRA:          -6.554
REMARK INTER:                  -4.659
REMARK INTRA:                  -1.895
REMARK UNBOUND:                -1.830
REMARK SMILES CCCCCCCCCCCCCCC(=O)[O-]
REMARK SMILES IDX 9 1 10 2 11 3 12 4 13 5 14 6 15 7 16 8 17 9 8 10 7 11 6 12
REMARK SMILES IDX 5 13 4 14 3 15 2 16 1 17
REMARK H PARENT
REMARK Flexibility Score: inf
ROOT
ATOM      1  C   UNL     1      24.985   6.288  14.767  1.00  0.00     0.000 C 
ENDROOT
BRANCH   1   2
ATOM      2  C   UNL     1      25.309   6.612  16.235  1.00  0.00     0.000 C 
BRANCH   2   3
ATOM      3  C   UNL     1      24.817   8.007  16.656  1.00  0.00     0.000 C 
BRANCH   3   4
ATOM      4  C   UNL     1      23.977   7.982  17.945  1.00  0.00     0.000 C 
BRANCH   4   5
ATOM      5  C   UNL     1      24.358   6.880  18.956  1.00  0.00     0.006 C 
BRANCH   5   6
ATOM      6  C   UNL     1      25.257   7.354  20.109  1.00  0.00     0.053 C 
BRANCH   6   7
ATOM      7  C   UNL     1      26.710   7.266  19.757  1.00  0.00     0.041 C 
ATOM      8  O   UNL     1      27.488   8.217  20.033  1.00  0.00    -0.550 OA
ATOM      9  O   UNL     1      27.210   6.121  19.151  1.00  0.00    -0.550 OA
ENDBRANCH   6   7
ENDBRANCH   5   6
ENDBRANCH   4   5
ENDBRANCH   3   4
ENDBRANCH   2   3
ENDBRANCH   1   2
BRANCH   1  10
ATOM     10  C   UNL     1      23.695   5.463  14.616  1.00  0.00     0.000 C 
BRANCH  10  11
ATOM     11  C   UNL     1      23.183   4.905  15.955  1.00  0.00    -0.000 C 
BRANCH  11  12
ATOM     12  C   UNL     1      21.783   5.397  16.375  1.00  0.00    -0.000 C 
BRANCH  12  13
ATOM     13  C   UNL     1      21.301   6.639  15.597  1.00  0.00    -0.000 C 
BRANCH  13  14
ATOM     14  C   UNL     1      20.318   7.493  16.417  1.00  0.00    -0.000 C 
BRANCH  14  15
ATOM     15  C   UNL     1      20.825   8.927  16.639  1.00  0.00    -0.000 C 
BRANCH  15  16
ATOM     16  C   UNL     1      20.580   9.418  18.075  1.00  0.00    -0.003 C 
ATOM     17  C   UNL     1      21.358  10.701  18.354  1.00  0.00     0.004 C 
ENDBRANCH  15  16
ENDBRANCH  14  15
ENDBRANCH  13  14
ENDBRANCH  12  13
ENDBRANCH  11  12
ENDBRANCH  10  11
ENDBRANCH   1  10
TORSDOF 13
ENDMDL
MODEL 8
REMARK VINA RESULT:    -2.637      2.937      5.602
REMARK INTER + INTRA:          -6.470
REMARK INTER:                  -4.502
REMARK INTRA:                  -1.968
REMARK UNBOUND:                -1.830
REMARK SMILES CCCCCCCCCCCCCCC(=O)[O-]
REMARK SMILES IDX 9 1 10 2 11 3 12 4 13 5 14 6 15 7 16 8 17 9 8 10 7 11 6 12
REMARK SMILES IDX 5 13 4 14 3 15 2 16 1 17
REMARK H PARENT
REMARK Flexibility Score: inf
ROOT
ATOM      1  C   UNL     1      21.209   6.333  15.777  1.00  0.00     0.000 C 
ENDROOT
BRANCH   1   2
ATOM      2  C   UNL     1      22.561   5.647  16.031  1.00  0.00     0.000 C 
BRANCH   2   3
ATOM      3  C   UNL     1      23.569   5.887  14.894  1.00  0.00     0.000 C 
BRANCH   3   4
ATOM      4  C   UNL     1      24.942   6.362  15.401  1.00  0.00     0.000 C 
BRANCH   4   5
ATOM      5  C   UNL     1      25.017   6.659  16.914  1.00  0.00     0.006 C 
BRANCH   5   6
ATOM      6  C   UNL     1      25.905   7.856  17.287  1.00  0.00     0.053 C 
BRANCH   6   7
ATOM      7  C   UNL     1      26.170   7.918  18.760  1.00  0.00     0.041 C 
ATOM      8  O   UNL     1      27.106   7.245  19.266  1.00  0.00    -0.550 OA
ATOM      9  O   UNL     1      25.401   8.743  19.570  1.00  0.00    -0.550 OA
ENDBRANCH   6   7
ENDBRANCH   5   6
ENDBRANCH   4   5
ENDBRANCH   3   4
ENDBRANCH   2   3
ENDBRANCH   1   2
BRANCH   1  10
ATOM     10  C   UNL     1      20.131   5.905  16.789  1.00  0.00     0.000 C 
BRANCH  10  11
ATOM     11  C   UNL     1      18.959   6.898  16.866  1.00  0.00    -0.000 C 
BRANCH  11  12
ATOM     12  C   UNL     1      19.070   8.114  15.925  1.00  0.00    -0.000 C 
BRANCH  12  13
ATOM     13  C   UNL     1      18.800   9.465  16.621  1.00  0.00    -0.000 C 
BRANCH  13  14
ATOM     14  C   UNL     1      19.918   9.843  17.610  1.00  0.00    -0.000 C 
BRANCH  14  15
ATOM     15  C   UNL     1      21.258  10.115  16.910  1.00  0.00    -0.000 C 
BRANCH  15  16
ATOM     16  C   UNL     1      22.382   9.201  17.425  1.00  0.00    -0.003 C 
ATOM     17  C   UNL     1      21.988   8.537  18.741  1.00  0.00     0.004 C 
ENDBRANCH  15  16
ENDBRANCH  14  15
ENDBRANCH  13  14
ENDBRANCH  12  13
ENDBRANCH  11  12
ENDBRANCH  10  11
ENDBRANCH   1  10
TORSDOF 13
ENDMDL
MODEL 9
REMARK VINA RESULT:    -2.613      3.096      5.646
REMARK INTER + INTRA:          -6.429
REMARK INTER:                  -4.421
REMARK INTRA:                  -2.008
REMARK UNBOUND:                -1.830
REMARK SMILES CCCCCCCCCCCCCCC(=O)[O-]
REMARK SMILES IDX 9 1 10 2 11 3 12 4 13 5 14 6 15 7 16 8 17 9 8 10 7 11 6 12
REMARK SMILES IDX 5 13 4 14 3 15 2 16 1 17
REMARK H PARENT
REMARK Flexibility Score: inf
ROOT
ATOM      1  C   UNL     1      21.641   6.766  15.856  1.00  0.00     0.000 C 
ENDROOT
BRANCH   1   2
ATOM      2  C   UNL     1      21.493   5.462  16.657  1.00  0.00     0.000 C 
BRANCH   2   3
ATOM      3  C   UNL     1      22.121   5.552  18.058  1.00  0.00     0.000 C 
BRANCH   3   4
ATOM      4  C   UNL     1      22.262   7.001  18.558  1.00  0.00     0.000 C 
BRANCH   4   5
ATOM      5  C   UNL     1      23.695   7.429  18.938  1.00  0.00     0.006 C 
BRANCH   5   6
ATOM      6  C   UNL     1      24.527   7.981  17.770  1.00  0.00     0.053 C 
BRANCH   6   7
ATOM      7  C   UNL     1      25.441   6.944  17.194  1.00  0.00     0.041 C 
ATOM      8  O   UNL     1      25.259   6.517  16.024  1.00  0.00    -0.550 OA
ATOM      9  O   UNL     1      26.513   6.471  17.940  1.00  0.00    -0.550 OA
ENDBRANCH   6   7
ENDBRANCH   5   6
ENDBRANCH   4   5
ENDBRANCH   3   4
ENDBRANCH   2   3
ENDBRANCH   1   2
BRANCH   1  10
ATOM     10  C   UNL     1      20.338   7.177  15.149  1.00  0.00     0.000 C 
BRANCH  10  11
ATOM     11  C   UNL     1      19.080   6.707  15.900  1.00  0.00    -0.000 C 
BRANCH  11  12
ATOM     12  C   UNL     1      18.439   7.762  16.825  1.00  0.00    -0.000 C 
BRANCH  12  13
ATOM     13  C   UNL     1      18.236   9.136  16.154  1.00  0.00    -0.000 C 
BRANCH  13  14
ATOM     14  C   UNL     1      18.835  10.284  16.987  1.00  0.00    -0.000 C 
BRANCH  14  15
ATOM     15  C   UNL     1      20.116   9.869  17.727  1.00  0.00    -0.000 C 
BRANCH  15  16
ATOM     16  C   UNL     1      21.384  10.425  17.059  1.00  0.00    -0.003 C 
ATOM     17  C   UNL     1      21.291  11.938  16.883  1.00  0.00     0.004 C 
ENDBRANCH  15  16
ENDBRANCH  14  15
ENDBRANCH  13  14
ENDBRANCH  12  13
ENDBRANCH  11  12
ENDBRANCH  10  11
ENDBRANCH   1  10
TORSDOF 13
ENDMDL
