MODEL 1
REMARK VINA RESULT:    -3.982      0.000      0.000
REMARK INTER + INTRA:          -4.703
REMARK INTER:                  -4.681
REMARK INTRA:                  -0.023
REMARK UNBOUND:                -0.023
REMARK SMILES CCCCC(=O)[O-]
REMARK SMILES IDX 4 1 5 2 6 3 7 4 3 5 2 6 1 7
REMARK H PARENT
REMARK Flexibility Score: inf
ROOT
ATOM      1  C   UNL     1      15.254 -11.624  21.588  1.00  0.00     0.053 C 
ENDROOT
BRANCH   1   2
ATOM      2  C   UNL     1      14.144 -11.666  22.590  1.00  0.00     0.041 C 
ATOM      3  O   UNL     1      13.100 -10.985  22.408  1.00  0.00    -0.550 OA
ATOM      4  O   UNL     1      14.241 -12.494  23.700  1.00  0.00    -0.550 OA
ENDBRANCH   1   2
BRANCH   1   5
ATOM      5  C   UNL     1      16.447 -12.456  22.076  1.00  0.00     0.006 C 
BRANCH   5   6
ATOM      6  C   UNL     1      17.787 -11.941  21.528  1.00  0.00    -0.003 C 
ATOM      7  C   UNL     1      18.951 -12.885  21.830  1.00  0.00     0.004 C 
ENDBRANCH   5   6
ENDBRANCH   1   5
TORSDOF 3
ENDMDL
MODEL 2
REMARK VINA RESULT:    -3.943      2.179      2.792
REMARK INTER + INTRA:          -4.657
REMARK INTER:                  -4.551
REMARK INTRA:                  -0.107
REMARK UNBOUND:                -0.023
REMARK SMILES CCCCC(=O)[O-]
REMARK SMILES IDX 4 1 5 2 6 3 7 4 3 5 2 6 1 7
REMARK H PARENT
REMARK Flexibility Score: inf
ROOT
ATOM      1  C   UNL     1      14.502 -10.546  22.540  1.00  0.00     0.053 C 
ENDROOT
BRANCH   1   2
ATOM      2  C   UNL     1      14.721  -9.157  22.027  1.00  0.00     0.041 C 
ATOM      3  O   UNL     1      15.832  -8.587  22.194  1.00  0.00    -0.550 OA
ATOM      4  O   UNL     1      13.715  -8.510  21.321  1.00  0.00    -0.550 OA
ENDBRANCH   1   2
BRANCH   1   5
ATOM      5  C   UNL     1      14.946 -11.577  21.495  1.00  0.00     0.006 C 
BRANCH   5   6
ATOM      6  C   UNL     1      16.204 -12.348  21.925  1.00  0.00    -0.003 C 
ATOM      7  C   UNL     1      17.498 -11.658  21.495  1.00  0.00     0.004 C 
ENDBRANCH   5   6
ENDBRANCH   1   5
TORSDOF 3
ENDMDL
MODEL 3
REMARK VINA RESULT:    -3.884      2.609      3.329
REMARK INTER + INTRA:          -4.588
REMARK INTER:                  -4.501
REMARK INTRA:                  -0.086
REMARK UNBOUND:                -0.023
REMARK SMILES CCCCC(=O)[O-]
REMARK SMILES IDX 4 1 5 2 6 3 7 4 3 5 2 6 1 7
REMARK H PARENT
REMARK Flexibility Score: inf
ROOT
ATOM      1  C   UNL     1      13.440 -11.142  22.353  1.00  0.00     0.053 C 
ENDROOT
BRANCH   1   2
ATOM      2  C   UNL     1      14.457 -12.227  22.528  1.00  0.00     0.041 C 
ATOM      3  O   UNL     1      15.333 -12.422  21.645  1.00  0.00    -0.550 OA
ATOM      4  O   UNL     1      14.467 -12.989  23.689  1.00  0.00    -0.550 OA
ENDBRANCH   1   2
BRANCH   1   5
ATOM      5  C   UNL     1      13.773 -10.292  21.121  1.00  0.00     0.006 C 
BRANCH   5   6
ATOM      6  C   UNL     1      14.136  -8.844  21.486  1.00  0.00    -0.003 C 
ATOM      7  C   UNL     1      15.477  -8.734  22.209  1.00  0.00     0.004 C 
ENDBRANCH   5   6
ENDBRANCH   1   5
TORSDOF 3
ENDMDL
MODEL 4
REMARK VINA RESULT:    -3.795      2.534      2.868
REMARK INTER + INTRA:          -4.484
REMARK INTER:                  -4.383
REMARK INTRA:                  -0.100
REMARK UNBOUND:                -0.023
REMARK SMILES CCCCC(=O)[O-]
REMARK SMILES IDX 4 1 5 2 6 3 7 4 3 5 2 6 1 7
REMARK H PARENT
REMARK Flexibility Score: inf
ROOT
ATOM      1  C   UNL     1      14.381 -10.814  21.222  1.00  0.00     0.053 C 
ENDROOT
BRANCH   1   2
ATOM      2  C   UNL     1      14.528  -9.381  21.627  1.00  0.00     0.041 C 
ATOM      3  O   UNL     1      13.657  -8.535  21.292  1.00  0.00    -0.550 OA
ATOM      4  O   UNL     1      15.600  -8.989  22.418  1.00  0.00    -0.550 OA
ENDBRANCH   1   2
BRANCH   1   5
ATOM      5  C   UNL     1      15.647 -11.602  21.577  1.00  0.00     0.006 C 
BRANCH   5   6
ATOM      6  C   UNL     1      15.359 -12.796  22.501  1.00  0.00    -0.003 C 
ATOM      7  C   UNL     1      15.437 -12.430  23.983  1.00  0.00     0.004 C 
ENDBRANCH   5   6
ENDBRANCH   1   5
TORSDOF 3
ENDMDL
MODEL 5
REMARK VINA RESULT:    -3.793      1.696      3.061
REMARK INTER + INTRA:          -4.481
REMARK INTER:                  -4.394
REMARK INTRA:                  -0.087
REMARK UNBOUND:                -0.023
REMARK SMILES CCCCC(=O)[O-]
REMARK SMILES IDX 4 1 5 2 6 3 7 4 3 5 2 6 1 7
REMARK H PARENT
REMARK Flexibility Score: inf
ROOT
ATOM      1  C   UNL     1      16.306 -12.222  22.512  1.00  0.00     0.053 C 
ENDROOT
BRANCH   1   2
ATOM      2  C   UNL     1      15.528 -12.471  23.767  1.00  0.00     0.041 C 
ATOM      3  O   UNL     1      14.271 -12.527  23.732  1.00  0.00    -0.550 OA
ATOM      4  O   UNL     1      16.195 -12.690  24.965  1.00  0.00    -0.550 OA
ENDBRANCH   1   2
BRANCH   1   5
ATOM      5  C   UNL     1      15.515 -11.311  21.565  1.00  0.00     0.006 C 
BRANCH   5   6
ATOM      6  C   UNL     1      15.579  -9.833  21.980  1.00  0.00    -0.003 C 
ATOM      7  C   UNL     1      14.232  -9.123  21.847  1.00  0.00     0.004 C 
ENDBRANCH   5   6
ENDBRANCH   1   5
TORSDOF 3
ENDMDL
MODEL 6
REMARK VINA RESULT:    -3.791      2.495      4.025
REMARK INTER + INTRA:          -4.478
REMARK INTER:                  -4.391
REMARK INTRA:                  -0.088
REMARK UNBOUND:                -0.023
REMARK SMILES CCCCC(=O)[O-]
REMARK SMILES IDX 4 1 5 2 6 3 7 4 3 5 2 6 1 7
REMARK H PARENT
REMARK Flexibility Score: inf
ROOT
ATOM      1  C   UNL     1      15.948 -10.173  21.946  1.00  0.00     0.053 C 
ENDROOT
BRANCH   1   2
ATOM      2  C   UNL     1      16.451 -11.556  21.679  1.00  0.00     0.041 C 
ATOM      3  O   UNL     1      17.676 -11.753  21.458  1.00  0.00    -0.550 OA
ATOM      4  O   UNL     1      15.577 -12.634  21.722  1.00  0.00    -0.550 OA
ENDBRANCH   1   2
BRANCH   1   5
ATOM      5  C   UNL     1      14.773 -10.213  22.931  1.00  0.00     0.006 C 
BRANCH   5   6
ATOM      6  C   UNL     1      13.528  -9.490  22.393  1.00  0.00    -0.003 C 
ATOM      7  C   UNL     1      13.612  -9.202  20.895  1.00  0.00     0.004 C 
ENDBRANCH   5   6
ENDBRANCH   1   5
TORSDOF 3
ENDMDL
MODEL 7
REMARK VINA RESULT:    -3.256     15.300     16.060
REMARK INTER + INTRA:          -3.850
REMARK INTER:                  -3.730
REMARK INTRA:                  -0.120
REMARK UNBOUND:                -0.023
REMARK SMILES CCCCC(=O)[O-]
REMARK SMILES IDX 4 1 5 2 6 3 7 4 3 5 2 6 1 7
REMARK H PARENT
REMARK Flexibility Score: inf
ROOT
ATOM      1  C   UNL     1      16.643  -9.397  37.552  1.00  0.00     0.053 C 
ENDROOT
BRANCH   1   2
ATOM      2  C   UNL     1      17.787 -10.170  36.976  1.00  0.00     0.041 C 
ATOM      3  O   UNL     1      17.590 -10.995  36.045  1.00  0.00    -0.550 OA
ATOM      4  O   UNL     1      19.079  -9.943  37.433  1.00  0.00    -0.550 OA
ENDBRANCH   1   2
BRANCH   1   5
ATOM      5  C   UNL     1      16.352  -9.859  38.985  1.00  0.00     0.006 C 
BRANCH   5   6
ATOM      6  C   UNL     1      15.783 -11.285  39.040  1.00  0.00    -0.003 C 
ATOM      7  C   UNL     1      14.467 -11.427  38.277  1.00  0.00     0.004 C 
ENDBRANCH   5   6
ENDBRANCH   1   5
TORSDOF 3
ENDMDL
MODEL 8
REMARK VINA RESULT:    -3.247     14.337     14.596
REMARK INTER + INTRA:          -3.839
REMARK INTER:                  -3.812
REMARK INTRA:                  -0.027
REMARK UNBOUND:                -0.023
REMARK SMILES CCCCC(=O)[O-]
REMARK SMILES IDX 4 1 5 2 6 3 7 4 3 5 2 6 1 7
REMARK H PARENT
REMARK Flexibility Score: inf
ROOT
ATOM      1  C   UNL     1      20.828   0.986  28.249  1.00  0.00     0.053 C 
ENDROOT
BRANCH   1   2
ATOM      2  C   UNL     1      19.450   1.508  27.989  1.00  0.00     0.041 C 
ATOM      3  O   UNL     1      19.237   2.749  27.959  1.00  0.00    -0.550 OA
ATOM      4  O   UNL     1      18.410   0.624  27.731  1.00  0.00    -0.550 OA
ENDBRANCH   1   2
BRANCH   1   5
ATOM      5  C   UNL     1      20.761  -0.358  28.983  1.00  0.00     0.006 C 
BRANCH   5   6
ATOM      6  C   UNL     1      21.927  -1.290  28.615  1.00  0.00    -0.003 C 
ATOM      7  C   UNL     1      21.857  -2.637  29.332  1.00  0.00     0.004 C 
ENDBRANCH   5   6
ENDBRANCH   1   5
TORSDOF 3
ENDMDL
MODEL 9
REMARK VINA RESULT:    -3.132     15.583     16.465
REMARK INTER + INTRA:          -3.704
REMARK INTER:                  -3.656
REMARK INTRA:                  -0.048
REMARK UNBOUND:                -0.023
REMARK SMILES CCCCC(=O)[O-]
REMARK SMILES IDX 4 1 5 2 6 3 7 4 3 5 2 6 1 7
REMARK H PARENT
REMARK Flexibility Score: inf
ROOT
ATOM      1  C   UNL     1      16.856 -10.077  38.705  1.00  0.00     0.053 C 
ENDROOT
BRANCH   1   2
ATOM      2  C   UNL     1      17.702 -10.093  37.471  1.00  0.00     0.041 C 
ATOM      3  O   UNL     1      18.918  -9.771  37.532  1.00  0.00    -0.550 OA
ATOM      4  O   UNL     1      17.161 -10.513  36.263  1.00  0.00    -0.550 OA
ENDBRANCH   1   2
BRANCH   1   5
ATOM      5  C   UNL     1      15.424  -9.648  38.365  1.00  0.00     0.006 C 
BRANCH   5   6
ATOM      6  C   UNL     1      15.193  -8.144  38.578  1.00  0.00    -0.003 C 
ATOM      7  C   UNL     1      13.727  -7.802  38.843  1.00  0.00     0.004 C 
ENDBRANCH   5   6
ENDBRANCH   1   5
TORSDOF 3
ENDMDL
