MODEL 1
REMARK VINA RESULT:    -4.935      0.000      0.000
REMARK INTER + INTRA:          -5.697
REMARK INTER:                  -5.512
REMARK INTRA:                  -0.185
REMARK UNBOUND:                -0.185
REMARK SMILES O=C([O-])c1ccccc1C(=O)[O-]
REMARK SMILES IDX 4 1 9 2 5 3 8 4 6 5 7 6 2 7 1 8 3 9 10 10 11 11 12 12
REMARK H PARENT
REMARK Flexibility Score: inf
ROOT
ATOM      1  C   UNL     1      86.689  75.519  69.556  1.00  0.00     0.006 A 
ATOM      2  C   UNL     1      87.340  75.218  68.328  1.00  0.00     0.006 A 
ATOM      3  C   UNL     1      86.204  76.821  69.773  1.00  0.00     0.010 A 
ATOM      4  C   UNL     1      87.541  76.247  67.390  1.00  0.00     0.010 A 
ATOM      5  C   UNL     1      86.393  77.822  68.818  1.00  0.00     0.001 A 
ATOM      6  C   UNL     1      87.071  77.538  67.635  1.00  0.00     0.001 A 
ENDROOT
BRANCH   1   7
ATOM      7  C   UNL     1      86.559  74.534  70.656  1.00  0.00     0.072 C 
ATOM      8  O   UNL     1      85.426  74.089  70.978  1.00  0.00    -0.545 OA
ATOM      9  O   UNL     1      87.673  74.139  71.389  1.00  0.00    -0.545 OA
ENDBRANCH   1   7
BRANCH   2  10
ATOM     10  C   UNL     1      87.762  73.848  67.954  1.00  0.00     0.072 C 
ATOM     11  O   UNL     1      88.890  73.404  68.297  1.00  0.00    -0.545 OA
ATOM     12  O   UNL     1      86.885  73.010  67.273  1.00  0.00    -0.545 OA
ENDBRANCH   2  10
TORSDOF 2
ENDMDL
MODEL 2
REMARK VINA RESULT:    -4.925      0.093      3.030
REMARK INTER + INTRA:          -5.686
REMARK INTER:                  -5.505
REMARK INTRA:                  -0.182
REMARK UNBOUND:                -0.185
REMARK SMILES O=C([O-])c1ccccc1C(=O)[O-]
REMARK SMILES IDX 4 1 9 2 5 3 8 4 6 5 7 6 2 7 1 8 3 9 10 10 11 11 12 12
REMARK H PARENT
REMARK Flexibility Score: inf
ROOT
ATOM      1  C   UNL     1      87.361  75.211  68.285  1.00  0.00     0.006 A 
ATOM      2  C   UNL     1      86.736  75.553  69.517  1.00  0.00     0.006 A 
ATOM      3  C   UNL     1      87.559  76.213  67.318  1.00  0.00     0.010 A 
ATOM      4  C   UNL     1      86.275  76.868  69.708  1.00  0.00     0.010 A 
ATOM      5  C   UNL     1      87.114  77.517  67.538  1.00  0.00     0.001 A 
ATOM      6  C   UNL     1      86.462  77.840  68.726  1.00  0.00     0.001 A 
ENDROOT
BRANCH   1   7
ATOM      7  C   UNL     1      87.751  73.823  67.943  1.00  0.00     0.072 C 
ATOM      8  O   UNL     1      88.887  73.386  68.266  1.00  0.00    -0.545 OA
ATOM      9  O   UNL     1      86.899  73.009  67.206  1.00  0.00    -0.545 OA
ENDBRANCH   1   7
BRANCH   2  10
ATOM     10  C   UNL     1      86.607  74.603  70.646  1.00  0.00     0.072 C 
ATOM     11  O   UNL     1      87.602  74.311  71.361  1.00  0.00    -0.545 OA
ATOM     12  O   UNL     1      85.364  74.071  70.971  1.00  0.00    -0.545 OA
ENDBRANCH   2  10
TORSDOF 2
ENDMDL
MODEL 3
REMARK VINA RESULT:    -4.791      1.911      3.099
REMARK INTER + INTRA:          -5.537
REMARK INTER:                  -5.327
REMARK INTRA:                  -0.209
REMARK UNBOUND:                -0.185
REMARK SMILES O=C([O-])c1ccccc1C(=O)[O-]
REMARK SMILES IDX 4 1 9 2 5 3 8 4 6 5 7 6 2 7 1 8 3 9 10 10 11 11 12 12
REMARK H PARENT
REMARK Flexibility Score: inf
ROOT
ATOM      1  C   UNL     1      86.729  76.124  69.213  1.00  0.00     0.006 A 
ATOM      2  C   UNL     1      86.973  74.779  69.606  1.00  0.00     0.006 A 
ATOM      3  C   UNL     1      86.695  76.441  67.843  1.00  0.00     0.010 A 
ATOM      4  C   UNL     1      87.240  73.815  68.617  1.00  0.00     0.010 A 
ATOM      5  C   UNL     1      86.939  75.464  66.877  1.00  0.00     0.001 A 
ATOM      6  C   UNL     1      87.223  74.157  67.265  1.00  0.00     0.001 A 
ENDROOT
BRANCH   1   7
ATOM      7  C   UNL     1      86.577  77.229  70.189  1.00  0.00     0.072 C 
ATOM      8  O   UNL     1      85.434  77.559  70.601  1.00  0.00    -0.545 OA
ATOM      9  O   UNL     1      87.683  77.958  70.612  1.00  0.00    -0.545 OA
ENDBRANCH   1   7
BRANCH   2  10
ATOM     10  C   UNL     1      86.893  74.324  71.013  1.00  0.00     0.072 C 
ATOM     11  O   UNL     1      87.939  74.112  71.684  1.00  0.00    -0.545 OA
ATOM     12  O   UNL     1      85.656  74.189  71.633  1.00  0.00    -0.545 OA
ENDBRANCH   2  10
TORSDOF 2
ENDMDL
MODEL 4
REMARK VINA RESULT:    -4.790      1.857      3.389
REMARK INTER + INTRA:          -5.536
REMARK INTER:                  -5.348
REMARK INTRA:                  -0.187
REMARK UNBOUND:                -0.185
REMARK SMILES O=C([O-])c1ccccc1C(=O)[O-]
REMARK SMILES IDX 4 1 9 2 5 3 8 4 6 5 7 6 2 7 1 8 3 9 10 10 11 11 12 12
REMARK H PARENT
REMARK Flexibility Score: inf
ROOT
ATOM      1  C   UNL     1      87.299  74.795  69.008  1.00  0.00     0.006 A 
ATOM      2  C   UNL     1      87.337  76.215  68.915  1.00  0.00     0.006 A 
ATOM      3  C   UNL     1      86.506  74.196  70.003  1.00  0.00     0.010 A 
ATOM      4  C   UNL     1      86.634  76.981  69.862  1.00  0.00     0.010 A 
ATOM      5  C   UNL     1      85.798  74.976  70.919  1.00  0.00     0.001 A 
ATOM      6  C   UNL     1      85.872  76.365  70.855  1.00  0.00     0.001 A 
ENDROOT
BRANCH   1   7
ATOM      7  C   UNL     1      88.117  73.914  68.143  1.00  0.00     0.072 C 
ATOM      8  O   UNL     1      87.575  73.248  67.222  1.00  0.00    -0.545 OA
ATOM      9  O   UNL     1      89.479  73.758  68.375  1.00  0.00    -0.545 OA
ENDBRANCH   1   7
BRANCH   2  10
ATOM     10  C   UNL     1      88.031  76.932  67.821  1.00  0.00     0.072 C 
ATOM     11  O   UNL     1      87.380  77.452  66.876  1.00  0.00    -0.545 OA
ATOM     12  O   UNL     1      89.411  77.098  67.861  1.00  0.00    -0.545 OA
ENDBRANCH   2  10
TORSDOF 2
ENDMDL
MODEL 5
REMARK VINA RESULT:    -4.790      1.938      3.214
REMARK INTER + INTRA:          -5.535
REMARK INTER:                  -5.371
REMARK INTRA:                  -0.165
REMARK UNBOUND:                -0.185
REMARK SMILES O=C([O-])c1ccccc1C(=O)[O-]
REMARK SMILES IDX 4 1 9 2 5 3 8 4 6 5 7 6 2 7 1 8 3 9 10 10 11 11 12 12
REMARK H PARENT
REMARK Flexibility Score: inf
ROOT
ATOM      1  C   UNL     1      87.539  76.331  68.986  1.00  0.00     0.006 A 
ATOM      2  C   UNL     1      87.397  74.916  68.975  1.00  0.00     0.006 A 
ATOM      3  C   UNL     1      86.857  77.080  69.963  1.00  0.00     0.010 A 
ATOM      4  C   UNL     1      86.526  74.309  69.898  1.00  0.00     0.010 A 
ATOM      5  C   UNL     1      86.017  76.455  70.885  1.00  0.00     0.001 A 
ATOM      6  C   UNL     1      85.843  75.074  70.844  1.00  0.00     0.001 A 
ENDROOT
BRANCH   1   7
ATOM      7  C   UNL     1      88.322  77.065  67.965  1.00  0.00     0.072 C 
ATOM      8  O   UNL     1      89.565  77.213  68.104  1.00  0.00    -0.545 OA
ATOM      9  O   UNL     1      87.691  77.657  66.877  1.00  0.00    -0.545 OA
ENDBRANCH   1   7
BRANCH   2  10
ATOM     10  C   UNL     1      88.177  74.035  68.076  1.00  0.00     0.072 C 
ATOM     11  O   UNL     1      89.398  73.811  68.293  1.00  0.00    -0.545 OA
ATOM     12  O   UNL     1      87.550  73.388  67.017  1.00  0.00    -0.545 OA
ENDBRANCH   2  10
TORSDOF 2
ENDMDL
MODEL 6
REMARK VINA RESULT:    -4.737      1.925      3.229
REMARK INTER + INTRA:          -5.476
REMARK INTER:                  -5.254
REMARK INTRA:                  -0.222
REMARK UNBOUND:                -0.185
REMARK SMILES O=C([O-])c1ccccc1C(=O)[O-]
REMARK SMILES IDX 4 1 9 2 5 3 8 4 6 5 7 6 2 7 1 8 3 9 10 10 11 11 12 12
REMARK H PARENT
REMARK Flexibility Score: inf
ROOT
ATOM      1  C   UNL     1      86.911  74.799  69.619  1.00  0.00     0.006 A 
ATOM      2  C   UNL     1      86.825  76.150  69.182  1.00  0.00     0.006 A 
ATOM      3  C   UNL     1      87.138  73.786  68.670  1.00  0.00     0.010 A 
ATOM      4  C   UNL     1      86.903  76.430  67.806  1.00  0.00     0.010 A 
ATOM      5  C   UNL     1      87.236  74.089  67.311  1.00  0.00     0.001 A 
ATOM      6  C   UNL     1      87.107  75.407  66.879  1.00  0.00     0.001 A 
ENDROOT
BRANCH   1   7
ATOM      7  C   UNL     1      86.700  74.399  71.030  1.00  0.00     0.072 C 
ATOM      8  O   UNL     1      85.533  74.306  71.495  1.00  0.00    -0.545 OA
ATOM      9  O   UNL     1      87.782  74.187  71.876  1.00  0.00    -0.545 OA
ENDBRANCH   1   7
BRANCH   2  10
ATOM     10  C   UNL     1      86.724  77.295  70.117  1.00  0.00     0.072 C 
ATOM     11  O   UNL     1      85.604  77.785  70.418  1.00  0.00    -0.545 OA
ATOM     12  O   UNL     1      87.868  77.799  70.728  1.00  0.00    -0.545 OA
ENDBRANCH   2  10
TORSDOF 2
ENDMDL
MODEL 7
REMARK VINA RESULT:    -4.519      2.490      4.096
REMARK INTER + INTRA:          -5.232
REMARK INTER:                  -5.100
REMARK INTRA:                  -0.132
REMARK UNBOUND:                -0.185
REMARK SMILES O=C([O-])c1ccccc1C(=O)[O-]
REMARK SMILES IDX 4 1 9 2 5 3 8 4 6 5 7 6 2 7 1 8 3 9 10 10 11 11 12 12
REMARK H PARENT
REMARK Flexibility Score: inf
ROOT
ATOM      1  C   UNL     1      87.646  75.692  69.202  1.00  0.00     0.006 A 
ATOM      2  C   UNL     1      86.474  76.469  69.417  1.00  0.00     0.006 A 
ATOM      3  C   UNL     1      87.884  74.573  70.020  1.00  0.00     0.010 A 
ATOM      4  C   UNL     1      85.620  76.137  70.484  1.00  0.00     0.010 A 
ATOM      5  C   UNL     1      87.011  74.247  71.059  1.00  0.00     0.001 A 
ATOM      6  C   UNL     1      85.888  75.036  71.298  1.00  0.00     0.001 A 
ENDROOT
BRANCH   1   7
ATOM      7  C   UNL     1      88.670  76.051  68.193  1.00  0.00     0.072 C 
ATOM      8  O   UNL     1      88.861  75.311  67.192  1.00  0.00    -0.545 OA
ATOM      9  O   UNL     1      89.478  77.168  68.370  1.00  0.00    -0.545 OA
ENDBRANCH   1   7
BRANCH   2  10
ATOM     10  C   UNL     1      86.068  77.580  68.525  1.00  0.00     0.072 C 
ATOM     11  O   UNL     1      86.057  78.769  68.940  1.00  0.00    -0.545 OA
ATOM     12  O   UNL     1      85.757  77.326  67.194  1.00  0.00    -0.545 OA
ENDBRANCH   2  10
TORSDOF 2
ENDMDL
MODEL 8
REMARK VINA RESULT:    -4.487      2.437      3.425
REMARK INTER + INTRA:          -5.197
REMARK INTER:                  -5.008
REMARK INTRA:                  -0.189
REMARK UNBOUND:                -0.185
REMARK SMILES O=C([O-])c1ccccc1C(=O)[O-]
REMARK SMILES IDX 4 1 9 2 5 3 8 4 6 5 7 6 2 7 1 8 3 9 10 10 11 11 12 12
REMARK H PARENT
REMARK Flexibility Score: inf
ROOT
ATOM      1  C   UNL     1      87.200  75.482  69.216  1.00  0.00     0.006 A 
ATOM      2  C   UNL     1      87.714  75.907  67.959  1.00  0.00     0.006 A 
ATOM      3  C   UNL     1      86.764  74.152  69.362  1.00  0.00     0.010 A 
ATOM      4  C   UNL     1      87.712  75.006  66.880  1.00  0.00     0.010 A 
ATOM      5  C   UNL     1      86.793  73.268  68.283  1.00  0.00     0.001 A 
ATOM      6  C   UNL     1      87.255  73.698  67.042  1.00  0.00     0.001 A 
ENDROOT
BRANCH   1   7
ATOM      7  C   UNL     1      87.035  76.401  70.366  1.00  0.00     0.072 C 
ATOM      8  O   UNL     1      87.709  76.232  71.416  1.00  0.00    -0.545 OA
ATOM      9  O   UNL     1      86.089  77.420  70.329  1.00  0.00    -0.545 OA
ENDBRANCH   1   7
BRANCH   2  10
ATOM     10  C   UNL     1      88.321  77.241  67.747  1.00  0.00     0.072 C 
ATOM     11  O   UNL     1      87.648  78.184  67.250  1.00  0.00    -0.545 OA
ATOM     12  O   UNL     1      89.626  77.488  68.158  1.00  0.00    -0.545 OA
ENDBRANCH   2  10
TORSDOF 2
ENDMDL
MODEL 9
REMARK VINA RESULT:    -4.482      2.242      3.409
REMARK INTER + INTRA:          -5.191
REMARK INTER:                  -5.179
REMARK INTRA:                  -0.012
REMARK UNBOUND:                -0.185
REMARK SMILES O=C([O-])c1ccccc1C(=O)[O-]
REMARK SMILES IDX 4 1 9 2 5 3 8 4 6 5 7 6 2 7 1 8 3 9 10 10 11 11 12 12
REMARK H PARENT
REMARK Flexibility Score: inf
ROOT
ATOM      1  C   UNL     1      86.618  76.316  69.424  1.00  0.00     0.006 A 
ATOM      2  C   UNL     1      87.420  75.194  69.077  1.00  0.00     0.006 A 
ATOM      3  C   UNL     1      86.114  76.418  70.734  1.00  0.00     0.010 A 
ATOM      4  C   UNL     1      87.633  74.184  70.032  1.00  0.00     0.010 A 
ATOM      5  C   UNL     1      86.358  75.416  71.673  1.00  0.00     0.001 A 
ATOM      6  C   UNL     1      87.105  74.295  71.319  1.00  0.00     0.001 A 
ENDROOT
BRANCH   1   7
ATOM      7  C   UNL     1      86.226  77.355  68.443  1.00  0.00     0.072 C 
ATOM      8  O   UNL     1      86.314  78.575  68.742  1.00  0.00    -0.545 OA
ATOM      9  O   UNL     1      85.696  76.999  67.208  1.00  0.00    -0.545 OA
ENDBRANCH   1   7
BRANCH   2  10
ATOM     10  C   UNL     1      88.105  75.067  67.770  1.00  0.00     0.072 C 
ATOM     11  O   UNL     1      87.676  74.272  66.892  1.00  0.00    -0.545 OA
ATOM     12  O   UNL     1      89.195  75.877  67.472  1.00  0.00    -0.545 OA
ENDBRANCH   2  10
TORSDOF 2
ENDMDL
