MODEL 1
REMARK VINA RESULT:    -2.027      0.000      0.000
REMARK INTER + INTRA:          -7.432
REMARK INTER:                  -5.346
REMARK INTRA:                  -2.086
REMARK UNBOUND:                -2.086
REMARK SMILES CCCCCCCCCCCCCCCCCCCCCCCCCCCCCC(=O)[O-]
REMARK SMILES IDX 16 1 17 2 18 3 19 4 20 5 21 6 22 7 23 8 24 9 25 10 26 11
REMARK SMILES IDX 27 12 28 13 29 14 30 15 31 16 32 17 15 18 14 19 13 20 12 21
REMARK SMILES IDX 11 22 10 23 9 24 8 25 7 26 6 27 5 28 4 29 3 30 2 31 1 32
REMARK H PARENT
REMARK Flexibility Score: inf
ROOT
ATOM      1  C   UNL     1      41.202  12.911  12.960  1.00  0.00     0.000 C 
ENDROOT
BRANCH   1   2
ATOM      2  C   UNL     1      41.446  11.400  12.808  1.00  0.00     0.000 C 
BRANCH   2   3
ATOM      3  C   UNL     1      41.165  10.918  11.374  1.00  0.00     0.000 C 
BRANCH   3   4
ATOM      4  C   UNL     1      39.694  11.140  10.965  1.00  0.00     0.000 C 
BRANCH   4   5
ATOM      5  C   UNL     1      38.735  10.195  11.707  1.00  0.00     0.000 C 
BRANCH   5   6
ATOM      6  C   UNL     1      39.299   8.768  11.795  1.00  0.00     0.000 C 
BRANCH   6   7
ATOM      7  C   UNL     1      38.528   7.921  12.816  1.00  0.00     0.000 C 
BRANCH   7   8
ATOM      8  C   UNL     1      38.050   8.790  13.990  1.00  0.00     0.000 C 
BRANCH   8   9
ATOM      9  C   UNL     1      39.002   8.735  15.196  1.00  0.00     0.000 C 
BRANCH   9  10
ATOM     10  C   UNL     1      38.356   8.081  16.428  1.00  0.00     0.000 C 
BRANCH  10  11
ATOM     11  C   UNL     1      37.877   9.112  17.460  1.00  0.00     0.000 C 
BRANCH  11  12
ATOM     12  C   UNL     1      38.923   9.379  18.556  1.00  0.00     0.000 C 
BRANCH  12  13
ATOM     13  C   UNL     1      40.353   9.495  17.996  1.00  0.00     0.006 C 
BRANCH  13  14
ATOM     14  C   UNL     1      41.370  10.091  18.985  1.00  0.00     0.053 C 
BRANCH  14  15
ATOM     15  C   UNL     1      41.885  11.419  18.523  1.00  0.00     0.041 C 
ATOM     16  O   UNL     1      41.547  12.474  19.123  1.00  0.00    -0.550 OA
ATOM     17  O   UNL     1      42.703  11.497  17.403  1.00  0.00    -0.550 OA
ENDBRANCH  14  15
ENDBRANCH  13  14
ENDBRANCH  12  13
ENDBRANCH  11  12
ENDBRANCH  10  11
ENDBRANCH   9  10
ENDBRANCH   8   9
ENDBRANCH   7   8
ENDBRANCH   6   7
ENDBRANCH   5   6
ENDBRANCH   4   5
ENDBRANCH   3   4
ENDBRANCH   2   3
ENDBRANCH   1   2
BRANCH   1  18
ATOM     18  C   UNL     1      39.726  13.300  12.782  1.00  0.00     0.000 C 
BRANCH  18  19
ATOM     19  C   UNL     1      38.903  13.154  14.070  1.00  0.00     0.000 C 
BRANCH  19  20
ATOM     20  C   UNL     1      39.405  11.960  14.896  1.00  0.00     0.000 C 
BRANCH  20  21
ATOM     21  C   UNL     1      39.248  12.175  16.411  1.00  0.00     0.000 C 
BRANCH  21  22
ATOM     22  C   UNL     1      37.920  12.865  16.777  1.00  0.00     0.000 C 
BRANCH  22  23
ATOM     23  C   UNL     1      37.953  13.505  18.175  1.00  0.00     0.000 C 
BRANCH  23  24
ATOM     24  C   UNL     1      37.876  15.041  18.127  1.00  0.00    -0.000 C 
BRANCH  24  25
ATOM     25  C   UNL     1      38.352  15.602  16.770  1.00  0.00    -0.000 C 
BRANCH  25  26
ATOM     26  C   UNL     1      39.845  15.976  16.752  1.00  0.00    -0.000 C 
BRANCH  26  27
ATOM     27  C   UNL     1      40.641  15.308  17.888  1.00  0.00    -0.000 C 
BRANCH  27  28
ATOM     28  C   UNL     1      40.861  16.239  19.093  1.00  0.00    -0.000 C 
BRANCH  28  29
ATOM     29  C   UNL     1      41.580  17.565  18.778  1.00  0.00    -0.000 C 
BRANCH  29  30
ATOM     30  C   UNL     1      40.723  18.799  19.091  1.00  0.00    -0.000 C 
BRANCH  30  31
ATOM     31  C   UNL     1      39.615  18.975  18.045  1.00  0.00    -0.003 C 
ATOM     32  C   UNL     1      38.258  19.206  18.708  1.00  0.00     0.004 C 
ENDBRANCH  30  31
ENDBRANCH  29  30
ENDBRANCH  28  29
ENDBRANCH  27  28
ENDBRANCH  26  27
ENDBRANCH  25  26
ENDBRANCH  24  25
ENDBRANCH  23  24
ENDBRANCH  22  23
ENDBRANCH  21  22
ENDBRANCH  20  21
ENDBRANCH  19  20
ENDBRANCH  18  19
ENDBRANCH   1  18
TORSDOF 28
ENDMDL
MODEL 2
REMARK VINA RESULT:    -1.483      2.037      6.501
REMARK INTER + INTRA:          -5.997
REMARK INTER:                  -2.652
REMARK INTRA:                  -3.345
REMARK UNBOUND:                -2.086
REMARK SMILES CCCCCCCCCCCCCCCCCCCCCCCCCCCCCC(=O)[O-]
REMARK SMILES IDX 16 1 17 2 18 3 19 4 20 5 21 6 22 7 23 8 24 9 25 10 26 11
REMARK SMILES IDX 27 12 28 13 29 14 30 15 31 16 32 17 15 18 14 19 13 20 12 21
REMARK SMILES IDX 11 22 10 23 9 24 8 25 7 26 6 27 5 28 4 29 3 30 2 31 1 32
REMARK H PARENT
REMARK Flexibility Score: inf
ROOT
ATOM      1  C   UNL     1      41.012  12.172  16.563  1.00  0.00     0.000 C 
ENDROOT
BRANCH   1   2
ATOM      2  C   UNL     1      42.345  11.950  17.298  1.00  0.00     0.000 C 
BRANCH   2   3
ATOM      3  C   UNL     1      42.134  11.734  18.806  1.00  0.00     0.000 C 
BRANCH   3   4
ATOM      4  C   UNL     1      41.630  10.311  19.125  1.00  0.00     0.000 C 
BRANCH   4   5
ATOM      5  C   UNL     1      42.305   9.244  18.247  1.00  0.00     0.000 C 
BRANCH   5   6
ATOM      6  C   UNL     1      41.285   8.235  17.697  1.00  0.00     0.000 C 
BRANCH   6   7
ATOM      7  C   UNL     1      40.057   8.941  17.107  1.00  0.00     0.000 C 
BRANCH   7   8
ATOM      8  C   UNL     1      38.831   8.743  18.012  1.00  0.00     0.000 C 
BRANCH   8   9
ATOM      9  C   UNL     1      37.879   9.950  17.996  1.00  0.00     0.000 C 
BRANCH   9  10
ATOM     10  C   UNL     1      38.365  11.096  18.898  1.00  0.00     0.000 C 
BRANCH  10  11
ATOM     11  C   UNL     1      38.181  12.475  18.248  1.00  0.00     0.000 C 
BRANCH  11  12
ATOM     12  C   UNL     1      38.721  13.618  19.125  1.00  0.00     0.000 C 
BRANCH  12  13
ATOM     13  C   UNL     1      39.617  14.595  18.341  1.00  0.00     0.006 C 
BRANCH  13  14
ATOM     14  C   UNL     1      39.420  16.072  18.721  1.00  0.00     0.053 C 
BRANCH  14  15
ATOM     15  C   UNL     1      40.448  16.955  18.082  1.00  0.00     0.041 C 
ATOM     16  O   UNL     1      41.551  17.162  18.655  1.00  0.00    -0.550 OA
ATOM     17  O   UNL     1      40.171  17.584  16.875  1.00  0.00    -0.550 OA
ENDBRANCH  14  15
ENDBRANCH  13  14
ENDBRANCH  12  13
ENDBRANCH  11  12
ENDBRANCH  10  11
ENDBRANCH   9  10
ENDBRANCH   8   9
ENDBRANCH   7   8
ENDBRANCH   6   7
ENDBRANCH   5   6
ENDBRANCH   4   5
ENDBRANCH   3   4
ENDBRANCH   2   3
ENDBRANCH   1   2
BRANCH   1  18
ATOM     18  C   UNL     1      40.794  11.185  15.406  1.00  0.00     0.000 C 
BRANCH  18  19
ATOM     19  C   UNL     1      42.000  11.086  14.461  1.00  0.00     0.000 C 
BRANCH  19  20
ATOM     20  C   UNL     1      42.369  12.473  13.913  1.00  0.00     0.000 C 
BRANCH  20  21
ATOM     21  C   UNL     1      41.144  13.272  13.439  1.00  0.00     0.000 C 
BRANCH  21  22
ATOM     22  C   UNL     1      41.287  14.785  13.698  1.00  0.00     0.000 C 
BRANCH  22  23
ATOM     23  C   UNL     1      40.068  15.376  14.427  1.00  0.00     0.000 C 
BRANCH  23  24
ATOM     24  C   UNL     1      39.244  14.309  15.168  1.00  0.00    -0.000 C 
BRANCH  24  25
ATOM     25  C   UNL     1      37.993  13.885  14.367  1.00  0.00    -0.000 C 
BRANCH  25  26
ATOM     26  C   UNL     1      37.911  12.369  14.117  1.00  0.00    -0.000 C 
BRANCH  26  27
ATOM     27  C   UNL     1      37.993  12.006  12.624  1.00  0.00    -0.000 C 
BRANCH  27  28
ATOM     28  C   UNL     1      38.358  10.531  12.385  1.00  0.00    -0.000 C 
BRANCH  28  29
ATOM     29  C   UNL     1      38.201   9.606  13.607  1.00  0.00    -0.000 C 
BRANCH  29  30
ATOM     30  C   UNL     1      39.222   8.461  13.628  1.00  0.00    -0.000 C 
BRANCH  30  31
ATOM     31  C   UNL     1      39.469   7.923  12.213  1.00  0.00    -0.003 C 
ATOM     32  C   UNL     1      40.607   8.676  11.526  1.00  0.00     0.004 C 
ENDBRANCH  30  31
ENDBRANCH  29  30
ENDBRANCH  28  29
ENDBRANCH  27  28
ENDBRANCH  26  27
ENDBRANCH  25  26
ENDBRANCH  24  25
ENDBRANCH  23  24
ENDBRANCH  22  23
ENDBRANCH  21  22
ENDBRANCH  20  21
ENDBRANCH  19  20
ENDBRANCH  18  19
ENDBRANCH   1  18
TORSDOF 28
ENDMDL
MODEL 3
REMARK VINA RESULT:    -1.196      1.496      5.200
REMARK INTER + INTRA:          -5.241
REMARK INTER:                  -2.135
REMARK INTRA:                  -3.105
REMARK UNBOUND:                -2.086
REMARK SMILES CCCCCCCCCCCCCCCCCCCCCCCCCCCCCC(=O)[O-]
REMARK SMILES IDX 16 1 17 2 18 3 19 4 20 5 21 6 22 7 23 8 24 9 25 10 26 11
REMARK SMILES IDX 27 12 28 13 29 14 30 15 31 16 32 17 15 18 14 19 13 20 12 21
REMARK SMILES IDX 11 22 10 23 9 24 8 25 7 26 6 27 5 28 4 29 3 30 2 31 1 32
REMARK H PARENT
REMARK Flexibility Score: inf
ROOT
ATOM      1  C   UNL     1      38.989  13.745  14.763  1.00  0.00     0.000 C 
ENDROOT
BRANCH   1   2
ATOM      2  C   UNL     1      38.549  13.238  13.378  1.00  0.00     0.000 C 
BRANCH   2   3
ATOM      3  C   UNL     1      37.875  11.858  13.465  1.00  0.00     0.000 C 
BRANCH   3   4
ATOM      4  C   UNL     1      38.757  10.825  14.198  1.00  0.00     0.000 C 
BRANCH   4   5
ATOM      5  C   UNL     1      38.257   9.386  13.995  1.00  0.00     0.000 C 
BRANCH   5   6
ATOM      6  C   UNL     1      38.287   8.978  12.514  1.00  0.00     0.000 C 
BRANCH   6   7
ATOM      7  C   UNL     1      39.377   7.934  12.241  1.00  0.00     0.000 C 
BRANCH   7   8
ATOM      8  C   UNL     1      40.420   8.485  11.255  1.00  0.00     0.000 C 
BRANCH   8   9
ATOM      9  C   UNL     1      41.334   9.547  11.889  1.00  0.00     0.000 C 
BRANCH   9  10
ATOM     10  C   UNL     1      40.950  10.977  11.477  1.00  0.00     0.000 C 
BRANCH  10  11
ATOM     11  C   UNL     1      41.216  12.001  12.589  1.00  0.00     0.000 C 
BRANCH  11  12
ATOM     12  C   UNL     1      42.188  11.472  13.658  1.00  0.00     0.000 C 
BRANCH  12  13
ATOM     13  C   UNL     1      42.270  12.390  14.892  1.00  0.00     0.006 C 
BRANCH  13  14
ATOM     14  C   UNL     1      42.340  11.639  16.232  1.00  0.00     0.053 C 
BRANCH  14  15
ATOM     15  C   UNL     1      41.909  12.501  17.379  1.00  0.00     0.041 C 
ATOM     16  O   UNL     1      41.929  12.049  18.554  1.00  0.00    -0.550 OA
ATOM     17  O   UNL     1      41.444  13.789  17.144  1.00  0.00    -0.550 OA
ENDBRANCH  14  15
ENDBRANCH  13  14
ENDBRANCH  12  13
ENDBRANCH  11  12
ENDBRANCH  10  11
ENDBRANCH   9  10
ENDBRANCH   8   9
ENDBRANCH   7   8
ENDBRANCH   6   7
ENDBRANCH   5   6
ENDBRANCH   4   5
ENDBRANCH   3   4
ENDBRANCH   2   3
ENDBRANCH   1   2
BRANCH   1  18
ATOM     18  C   UNL     1      38.866  15.269  14.910  1.00  0.00     0.000 C 
BRANCH  18  19
ATOM     19  C   UNL     1      40.187  16.010  14.659  1.00  0.00     0.000 C 
BRANCH  19  20
ATOM     20  C   UNL     1      40.392  17.113  15.707  1.00  0.00     0.000 C 
BRANCH  20  21
ATOM     21  C   UNL     1      41.297  16.671  16.870  1.00  0.00     0.000 C 
BRANCH  21  22
ATOM     22  C   UNL     1      40.679  16.974  18.249  1.00  0.00     0.000 C 
BRANCH  22  23
ATOM     23  C   UNL     1      39.222  16.494  18.361  1.00  0.00     0.000 C 
BRANCH  23  24
ATOM     24  C   UNL     1      39.098  15.131  19.064  1.00  0.00    -0.000 C 
BRANCH  24  25
ATOM     25  C   UNL     1      38.347  14.098  18.196  1.00  0.00    -0.000 C 
BRANCH  25  26
ATOM     26  C   UNL     1      37.885  12.858  18.982  1.00  0.00    -0.000 C 
BRANCH  26  27
ATOM     27  C   UNL     1      38.842  11.663  18.827  1.00  0.00    -0.000 C 
BRANCH  27  28
ATOM     28  C   UNL     1      38.372  10.652  17.767  1.00  0.00    -0.000 C 
BRANCH  28  29
ATOM     29  C   UNL     1      39.266   9.407  17.602  1.00  0.00    -0.000 C 
BRANCH  29  30
ATOM     30  C   UNL     1      39.449   8.623  18.908  1.00  0.00    -0.000 C 
BRANCH  30  31
ATOM     31  C   UNL     1      40.858   8.022  18.992  1.00  0.00    -0.003 C 
ATOM     32  C   UNL     1      41.847   8.809  18.134  1.00  0.00     0.004 C 
ENDBRANCH  30  31
ENDBRANCH  29  30
ENDBRANCH  28  29
ENDBRANCH  27  28
ENDBRANCH  26  27
ENDBRANCH  25  26
ENDBRANCH  24  25
ENDBRANCH  23  24
ENDBRANCH  22  23
ENDBRANCH  21  22
ENDBRANCH  20  21
ENDBRANCH  19  20
ENDBRANCH  18  19
ENDBRANCH   1  18
TORSDOF 28
ENDMDL
MODEL 4
REMARK VINA RESULT:    -1.121      1.824      4.918
REMARK INTER + INTRA:          -5.043
REMARK INTER:                  -4.288
REMARK INTRA:                  -0.755
REMARK UNBOUND:                -2.086
REMARK SMILES CCCCCCCCCCCCCCCCCCCCCCCCCCCCCC(=O)[O-]
REMARK SMILES IDX 16 1 17 2 18 3 19 4 20 5 21 6 22 7 23 8 24 9 25 10 26 11
REMARK SMILES IDX 27 12 28 13 29 14 30 15 31 16 32 17 15 18 14 19 13 20 12 21
REMARK SMILES IDX 11 22 10 23 9 24 8 25 7 26 6 27 5 28 4 29 3 30 2 31 1 32
REMARK H PARENT
REMARK Flexibility Score: inf
ROOT
ATOM      1  C   UNL     1      38.099  14.452  15.037  1.00  0.00     0.000 C 
ENDROOT
BRANCH   1   2
ATOM      2  C   UNL     1      38.281  13.468  16.205  1.00  0.00     0.000 C 
BRANCH   2   3
ATOM      3  C   UNL     1      39.551  12.615  16.038  1.00  0.00     0.000 C 
BRANCH   3   4
ATOM      4  C   UNL     1      39.469  11.685  14.809  1.00  0.00     0.000 C 
BRANCH   4   5
ATOM      5  C   UNL     1      38.952  12.416  13.560  1.00  0.00     0.000 C 
BRANCH   5   6
ATOM      6  C   UNL     1      40.104  12.855  12.642  1.00  0.00     0.000 C 
BRANCH   6   7
ATOM      7  C   UNL     1      41.407  12.122  12.986  1.00  0.00     0.000 C 
BRANCH   7   8
ATOM      8  C   UNL     1      41.174  10.603  13.047  1.00  0.00     0.000 C 
BRANCH   8   9
ATOM      9  C   UNL     1      40.853   9.996  11.671  1.00  0.00     0.000 C 
BRANCH   9  10
ATOM     10  C   UNL     1      39.894   8.798  11.765  1.00  0.00     0.000 C 
BRANCH  10  11
ATOM     11  C   UNL     1      38.503   9.197  12.277  1.00  0.00     0.000 C 
BRANCH  11  12
ATOM     12  C   UNL     1      37.972   8.233  13.352  1.00  0.00     0.000 C 
BRANCH  12  13
ATOM     13  C   UNL     1      37.875   8.889  14.742  1.00  0.00     0.006 C 
BRANCH  13  14
ATOM     14  C   UNL     1      38.229   7.951  15.908  1.00  0.00     0.053 C 
BRANCH  14  15
ATOM     15  C   UNL     1      38.115   8.639  17.233  1.00  0.00     0.041 C 
ATOM     16  O   UNL     1      37.972   7.965  18.288  1.00  0.00    -0.550 OA
ATOM     17  O   UNL     1      38.121  10.026  17.300  1.00  0.00    -0.550 OA
ENDBRANCH  14  15
ENDBRANCH  13  14
ENDBRANCH  12  13
ENDBRANCH  11  12
ENDBRANCH  10  11
ENDBRANCH   9  10
ENDBRANCH   8   9
ENDBRANCH   7   8
ENDBRANCH   6   7
ENDBRANCH   5   6
ENDBRANCH   4   5
ENDBRANCH   3   4
ENDBRANCH   2   3
ENDBRANCH   1   2
BRANCH   1  18
ATOM     18  C   UNL     1      37.969  15.912  15.499  1.00  0.00     0.000 C 
BRANCH  18  19
ATOM     19  C   UNL     1      38.943  16.861  14.787  1.00  0.00     0.000 C 
BRANCH  19  20
ATOM     20  C   UNL     1      40.333  16.216  14.671  1.00  0.00     0.000 C 
BRANCH  20  21
ATOM     21  C   UNL     1      40.948  15.874  16.039  1.00  0.00     0.000 C 
BRANCH  21  22
ATOM     22  C   UNL     1      41.372  17.128  16.827  1.00  0.00     0.000 C 
BRANCH  22  23
ATOM     23  C   UNL     1      40.182  17.831  17.502  1.00  0.00     0.000 C 
BRANCH  23  24
ATOM     24  C   UNL     1      39.743  17.138  18.804  1.00  0.00    -0.000 C 
BRANCH  24  25
ATOM     25  C   UNL     1      39.193  15.718  18.546  1.00  0.00    -0.000 C 
BRANCH  25  26
ATOM     26  C   UNL     1      40.090  14.602  19.110  1.00  0.00    -0.000 C 
BRANCH  26  27
ATOM     27  C   UNL     1      41.588  14.948  19.037  1.00  0.00    -0.000 C 
BRANCH  27  28
ATOM     28  C   UNL     1      42.494  13.708  19.125  1.00  0.00    -0.000 C 
BRANCH  28  29
ATOM     29  C   UNL     1      42.807  13.024  17.780  1.00  0.00    -0.000 C 
BRANCH  29  30
ATOM     30  C   UNL     1      42.694  11.495  17.846  1.00  0.00    -0.000 C 
BRANCH  30  31
ATOM     31  C   UNL     1      41.398  11.073  18.549  1.00  0.00    -0.003 C 
ATOM     32  C   UNL     1      41.264   9.551  18.596  1.00  0.00     0.004 C 
ENDBRANCH  30  31
ENDBRANCH  29  30
ENDBRANCH  28  29
ENDBRANCH  27  28
ENDBRANCH  26  27
ENDBRANCH  25  26
ENDBRANCH  24  25
ENDBRANCH  23  24
ENDBRANCH  22  23
ENDBRANCH  21  22
ENDBRANCH  20  21
ENDBRANCH  19  20
ENDBRANCH  18  19
ENDBRANCH   1  18
TORSDOF 28
ENDMDL
MODEL 5
REMARK VINA RESULT:    -0.922      2.085      7.731
REMARK INTER + INTRA:          -4.516
REMARK INTER:                  -3.472
REMARK INTRA:                  -1.045
REMARK UNBOUND:                -2.086
REMARK SMILES CCCCCCCCCCCCCCCCCCCCCCCCCCCCCC(=O)[O-]
REMARK SMILES IDX 16 1 17 2 18 3 19 4 20 5 21 6 22 7 23 8 24 9 25 10 26 11
REMARK SMILES IDX 27 12 28 13 29 14 30 15 31 16 32 17 15 18 14 19 13 20 12 21
REMARK SMILES IDX 11 22 10 23 9 24 8 25 7 26 6 27 5 28 4 29 3 30 2 31 1 32
REMARK H PARENT
REMARK Flexibility Score: inf
ROOT
ATOM      1  C   UNL     1      37.945  14.589  16.585  1.00  0.00     0.000 C 
ENDROOT
BRANCH   1   2
ATOM      2  C   UNL     1      38.364  15.700  15.607  1.00  0.00     0.000 C 
BRANCH   2   3
ATOM      3  C   UNL     1      37.951  17.092  16.115  1.00  0.00     0.000 C 
BRANCH   3   4
ATOM      4  C   UNL     1      39.148  18.063  16.190  1.00  0.00     0.000 C 
BRANCH   4   5
ATOM      5  C   UNL     1      40.387  17.410  16.825  1.00  0.00     0.000 C 
BRANCH   5   6
ATOM      6  C   UNL     1      40.396  17.576  18.353  1.00  0.00     0.000 C 
BRANCH   6   7
ATOM      7  C   UNL     1      41.442  16.666  19.010  1.00  0.00     0.000 C 
BRANCH   7   8
ATOM      8  C   UNL     1      41.677  15.408  18.159  1.00  0.00     0.000 C 
BRANCH   8   9
ATOM      9  C   UNL     1      41.516  14.108  18.963  1.00  0.00     0.000 C 
BRANCH   9  10
ATOM     10  C   UNL     1      41.470  12.861  18.065  1.00  0.00     0.000 C 
BRANCH  10  11
ATOM     11  C   UNL     1      41.867  13.166  16.614  1.00  0.00     0.000 C 
BRANCH  11  12
ATOM     12  C   UNL     1      41.747  11.935  15.698  1.00  0.00     0.000 C 
BRANCH  12  13
ATOM     13  C   UNL     1      41.486  12.312  14.228  1.00  0.00     0.006 C 
BRANCH  13  14
ATOM     14  C   UNL     1      40.346  13.325  14.031  1.00  0.00     0.053 C 
BRANCH  14  15
ATOM     15  C   UNL     1      39.245  12.769  13.180  1.00  0.00     0.041 C 
ATOM     16  O   UNL     1      39.497  12.323  12.029  1.00  0.00    -0.550 OA
ATOM     17  O   UNL     1      37.935  12.784  13.641  1.00  0.00    -0.550 OA
ENDBRANCH  14  15
ENDBRANCH  13  14
ENDBRANCH  12  13
ENDBRANCH  11  12
ENDBRANCH  10  11
ENDBRANCH   9  10
ENDBRANCH   8   9
ENDBRANCH   7   8
ENDBRANCH   6   7
ENDBRANCH   5   6
ENDBRANCH   4   5
ENDBRANCH   3   4
ENDBRANCH   2   3
ENDBRANCH   1   2
BRANCH   1  18
ATOM     18  C   UNL     1      38.550  14.765  17.986  1.00  0.00     0.000 C 
BRANCH  18  19
ATOM     19  C   UNL     1      37.877  13.887  19.050  1.00  0.00     0.000 C 
BRANCH  19  20
ATOM     20  C   UNL     1      37.875  12.415  18.610  1.00  0.00     0.000 C 
BRANCH  20  21
ATOM     21  C   UNL     1      37.951  12.249  17.083  1.00  0.00     0.000 C 
BRANCH  21  22
ATOM     22  C   UNL     1      38.607  10.919  16.664  1.00  0.00     0.000 C 
BRANCH  22  23
ATOM     23  C   UNL     1      39.328  10.223  17.831  1.00  0.00     0.000 C 
BRANCH  23  24
ATOM     24  C   UNL     1      38.595   8.960  18.315  1.00  0.00    -0.000 C 
BRANCH  24  25
ATOM     25  C   UNL     1      37.879   8.229  17.158  1.00  0.00    -0.000 C 
BRANCH  25  26
ATOM     26  C   UNL     1      38.680   8.230  15.844  1.00  0.00    -0.000 C 
BRANCH  26  27
ATOM     27  C   UNL     1      37.913   8.878  14.678  1.00  0.00    -0.000 C 
BRANCH  27  28
ATOM     28  C   UNL     1      38.842   9.477  13.608  1.00  0.00    -0.000 C 
BRANCH  28  29
ATOM     29  C   UNL     1      39.924   8.523  13.066  1.00  0.00    -0.000 C 
BRANCH  29  30
ATOM     30  C   UNL     1      39.725   8.172  11.585  1.00  0.00    -0.000 C 
BRANCH  30  31
ATOM     31  C   UNL     1      40.392   9.218  10.682  1.00  0.00    -0.003 C 
ATOM     32  C   UNL     1      41.519   9.944  11.415  1.00  0.00     0.004 C 
ENDBRANCH  30  31
ENDBRANCH  29  30
ENDBRANCH  28  29
ENDBRANCH  27  28
ENDBRANCH  26  27
ENDBRANCH  25  26
ENDBRANCH  24  25
ENDBRANCH  23  24
ENDBRANCH  22  23
ENDBRANCH  21  22
ENDBRANCH  20  21
ENDBRANCH  19  20
ENDBRANCH  18  19
ENDBRANCH   1  18
TORSDOF 28
ENDMDL
MODEL 6
REMARK VINA RESULT:    -0.810      2.273      5.141
REMARK INTER + INTRA:          -4.222
REMARK INTER:                  -2.677
REMARK INTRA:                  -1.544
REMARK UNBOUND:                -2.086
REMARK SMILES CCCCCCCCCCCCCCCCCCCCCCCCCCCCCC(=O)[O-]
REMARK SMILES IDX 16 1 17 2 18 3 19 4 20 5 21 6 22 7 23 8 24 9 25 10 26 11
REMARK SMILES IDX 27 12 28 13 29 14 30 15 31 16 32 17 15 18 14 19 13 20 12 21
REMARK SMILES IDX 11 22 10 23 9 24 8 25 7 26 6 27 5 28 4 29 3 30 2 31 1 32
REMARK H PARENT
REMARK Flexibility Score: inf
ROOT
ATOM      1  C   UNL     1      38.937   9.424  15.353  1.00  0.00     0.000 C 
ENDROOT
BRANCH   1   2
ATOM      2  C   UNL     1      38.412   8.436  16.409  1.00  0.00     0.000 C 
BRANCH   2   3
ATOM      3  C   UNL     1      39.528   7.974  17.361  1.00  0.00     0.000 C 
BRANCH   3   4
ATOM      4  C   UNL     1      40.020   9.113  18.278  1.00  0.00     0.000 C 
BRANCH   4   5
ATOM      5  C   UNL     1      41.543   9.308  18.198  1.00  0.00     0.000 C 
BRANCH   5   6
ATOM      6  C   UNL     1      41.955  10.732  18.606  1.00  0.00     0.000 C 
BRANCH   6   7
ATOM      7  C   UNL     1      41.837  11.709  17.429  1.00  0.00     0.000 C 
BRANCH   7   8
ATOM      8  C   UNL     1      42.700  11.240  16.246  1.00  0.00     0.000 C 
BRANCH   8   9
ATOM      9  C   UNL     1      42.155  11.712  14.889  1.00  0.00     0.000 C 
BRANCH   9  10
ATOM     10  C   UNL     1      41.829  13.214  14.873  1.00  0.00     0.000 C 
BRANCH  10  11
ATOM     11  C   UNL     1      41.001  13.624  13.647  1.00  0.00     0.000 C 
BRANCH  11  12
ATOM     12  C   UNL     1      40.794  12.463  12.660  1.00  0.00     0.000 C 
BRANCH  12  13
ATOM     13  C   UNL     1      39.333  12.335  12.192  1.00  0.00     0.006 C 
BRANCH  13  14
ATOM     14  C   UNL     1      38.866  10.886  11.972  1.00  0.00     0.053 C 
BRANCH  14  15
ATOM     15  C   UNL     1      39.983  10.004  11.504  1.00  0.00     0.041 C 
ATOM     16  O   UNL     1      39.964   8.769  11.752  1.00  0.00    -0.550 OA
ATOM     17  O   UNL     1      41.068  10.554  10.832  1.00  0.00    -0.550 OA
ENDBRANCH  14  15
ENDBRANCH  13  14
ENDBRANCH  12  13
ENDBRANCH  11  12
ENDBRANCH  10  11
ENDBRANCH   9  10
ENDBRANCH   8   9
ENDBRANCH   7   8
ENDBRANCH   6   7
ENDBRANCH   5   6
ENDBRANCH   4   5
ENDBRANCH   3   4
ENDBRANCH   2   3
ENDBRANCH   1   2
BRANCH   1  18
ATOM     18  C   UNL     1      38.464  10.866  15.593  1.00  0.00     0.000 C 
BRANCH  18  19
ATOM     19  C   UNL     1      37.885  11.086  16.998  1.00  0.00     0.000 C 
BRANCH  19  20
ATOM     20  C   UNL     1      38.719  12.122  17.766  1.00  0.00     0.000 C 
BRANCH  20  21
ATOM     21  C   UNL     1      37.875  12.968  18.735  1.00  0.00     0.000 C 
BRANCH  21  22
ATOM     22  C   UNL     1      38.567  14.289  19.124  1.00  0.00     0.000 C 
BRANCH  22  23
ATOM     23  C   UNL     1      38.126  15.468  18.240  1.00  0.00     0.000 C 
BRANCH  23  24
ATOM     24  C   UNL     1      37.992  15.081  16.757  1.00  0.00    -0.000 C 
BRANCH  24  25
ATOM     25  C   UNL     1      39.304  15.315  15.977  1.00  0.00    -0.000 C 
BRANCH  25  26
ATOM     26  C   UNL     1      40.562  14.885  16.754  1.00  0.00    -0.000 C 
BRANCH  26  27
ATOM     27  C   UNL     1      41.472  16.071  17.118  1.00  0.00    -0.000 C 
BRANCH  27  28
ATOM     28  C   UNL     1      40.691  17.373  17.366  1.00  0.00    -0.000 C 
BRANCH  28  29
ATOM     29  C   UNL     1      40.429  17.713  18.846  1.00  0.00    -0.000 C 
BRANCH  29  30
ATOM     30  C   UNL     1      39.726  19.064  19.035  1.00  0.00    -0.000 C 
BRANCH  30  31
ATOM     31  C   UNL     1      38.218  18.935  18.784  1.00  0.00    -0.003 C 
ATOM     32  C   UNL     1      37.879  19.185  17.316  1.00  0.00     0.004 C 
ENDBRANCH  30  31
ENDBRANCH  29  30
ENDBRANCH  28  29
ENDBRANCH  27  28
ENDBRANCH  26  27
ENDBRANCH  25  26
ENDBRANCH  24  25
ENDBRANCH  23  24
ENDBRANCH  22  23
ENDBRANCH  21  22
ENDBRANCH  20  21
ENDBRANCH  19  20
ENDBRANCH  18  19
ENDBRANCH   1  18
TORSDOF 28
ENDMDL
MODEL 7
REMARK VINA RESULT:    -0.765      1.398      7.138
REMARK INTER + INTRA:          -4.104
REMARK INTER:                  -3.728
REMARK INTRA:                  -0.376
REMARK UNBOUND:                -2.086
REMARK SMILES CCCCCCCCCCCCCCCCCCCCCCCCCCCCCC(=O)[O-]
REMARK SMILES IDX 16 1 17 2 18 3 19 4 20 5 21 6 22 7 23 8 24 9 25 10 26 11
REMARK SMILES IDX 27 12 28 13 29 14 30 15 31 16 32 17 15 18 14 19 13 20 12 21
REMARK SMILES IDX 11 22 10 23 9 24 8 25 7 26 6 27 5 28 4 29 3 30 2 31 1 32
REMARK H PARENT
REMARK Flexibility Score: inf
ROOT
ATOM      1  C   UNL     1      41.804  13.340  13.709  1.00  0.00     0.000 C 
ENDROOT
BRANCH   1   2
ATOM      2  C   UNL     1      40.468  13.949  14.169  1.00  0.00     0.000 C 
BRANCH   2   3
ATOM      3  C   UNL     1      39.348  13.706  13.142  1.00  0.00     0.000 C 
BRANCH   3   4
ATOM      4  C   UNL     1      37.991  13.420  13.818  1.00  0.00     0.000 C 
BRANCH   4   5
ATOM      5  C   UNL     1      37.969  13.863  15.289  1.00  0.00     0.000 C 
BRANCH   5   6
ATOM      6  C   UNL     1      38.879  15.078  15.529  1.00  0.00     0.000 C 
BRANCH   6   7
ATOM      7  C   UNL     1      39.198  15.256  17.020  1.00  0.00     0.000 C 
BRANCH   7   8
ATOM      8  C   UNL     1      38.056  15.996  17.734  1.00  0.00     0.000 C 
BRANCH   8   9
ATOM      9  C   UNL     1      37.881  17.440  17.236  1.00  0.00     0.000 C 
BRANCH   9  10
ATOM     10  C   UNL     1      39.221  18.117  16.905  1.00  0.00     0.000 C 
BRANCH  10  11
ATOM     11  C   UNL     1      40.053  18.418  18.159  1.00  0.00     0.000 C 
BRANCH  11  12
ATOM     12  C   UNL     1      41.534  18.035  17.990  1.00  0.00     0.000 C 
BRANCH  12  13
ATOM     13  C   UNL     1      42.036  17.102  19.108  1.00  0.00     0.006 C 
BRANCH  13  14
ATOM     14  C   UNL     1      41.363  15.719  19.124  1.00  0.00     0.053 C 
BRANCH  14  15
ATOM     15  C   UNL     1      42.354  14.613  18.929  1.00  0.00     0.041 C 
ATOM     16  O   UNL     1      43.582  14.821  19.116  1.00  0.00    -0.550 OA
ATOM     17  O   UNL     1      41.925  13.364  18.499  1.00  0.00    -0.550 OA
ENDBRANCH  14  15
ENDBRANCH  13  14
ENDBRANCH  12  13
ENDBRANCH  11  12
ENDBRANCH  10  11
ENDBRANCH   9  10
ENDBRANCH   8   9
ENDBRANCH   7   8
ENDBRANCH   6   7
ENDBRANCH   5   6
ENDBRANCH   4   5
ENDBRANCH   3   4
ENDBRANCH   2   3
ENDBRANCH   1   2
BRANCH   1  18
ATOM     18  C   UNL     1      41.878  11.822  13.932  1.00  0.00     0.000 C 
BRANCH  18  19
ATOM     19  C   UNL     1      41.908  11.429  15.416  1.00  0.00     0.000 C 
BRANCH  19  20
ATOM     20  C   UNL     1      40.541  11.685  16.067  1.00  0.00     0.000 C 
BRANCH  20  21
ATOM     21  C   UNL     1      40.369  10.945  17.404  1.00  0.00     0.000 C 
BRANCH  21  22
ATOM     22  C   UNL     1      38.977  11.165  18.028  1.00  0.00     0.000 C 
BRANCH  22  23
ATOM     23  C   UNL     1      38.403   9.883  18.656  1.00  0.00     0.000 C 
BRANCH  23  24
ATOM     24  C   UNL     1      38.408   8.691  17.683  1.00  0.00    -0.000 C 
BRANCH  24  25
ATOM     25  C   UNL     1      37.919   9.092  16.274  1.00  0.00    -0.000 C 
BRANCH  25  26
ATOM     26  C   UNL     1      37.881   7.916  15.282  1.00  0.00    -0.000 C 
BRANCH  26  27
ATOM     27  C   UNL     1      37.877   8.375  13.813  1.00  0.00    -0.000 C 
BRANCH  27  28
ATOM     28  C   UNL     1      38.835   9.549  13.549  1.00  0.00    -0.000 C 
BRANCH  28  29
ATOM     29  C   UNL     1      38.519  10.389  12.296  1.00  0.00    -0.000 C 
BRANCH  29  30
ATOM     30  C   UNL     1      39.752  10.643  11.419  1.00  0.00    -0.000 C 
BRANCH  30  31
ATOM     31  C   UNL     1      40.813   9.557  11.640  1.00  0.00    -0.003 C 
ATOM     32  C   UNL     1      40.259   8.170  11.322  1.00  0.00     0.004 C 
ENDBRANCH  30  31
ENDBRANCH  29  30
ENDBRANCH  28  29
ENDBRANCH  27  28
ENDBRANCH  26  27
ENDBRANCH  25  26
ENDBRANCH  24  25
ENDBRANCH  23  24
ENDBRANCH  22  23
ENDBRANCH  21  22
ENDBRANCH  20  21
ENDBRANCH  19  20
ENDBRANCH  18  19
ENDBRANCH   1  18
TORSDOF 28
ENDMDL
MODEL 8
REMARK VINA RESULT:    -0.690      1.272      2.392
REMARK INTER + INTRA:          -3.905
REMARK INTER:                  -1.366
REMARK INTRA:                  -2.539
REMARK UNBOUND:                -2.086
REMARK SMILES CCCCCCCCCCCCCCCCCCCCCCCCCCCCCC(=O)[O-]
REMARK SMILES IDX 16 1 17 2 18 3 19 4 20 5 21 6 22 7 23 8 24 9 25 10 26 11
REMARK SMILES IDX 27 12 28 13 29 14 30 15 31 16 32 17 15 18 14 19 13 20 12 21
REMARK SMILES IDX 11 22 10 23 9 24 8 25 7 26 6 27 5 28 4 29 3 30 2 31 1 32
REMARK H PARENT
REMARK Flexibility Score: inf
ROOT
ATOM      1  C   UNL     1      42.526  11.257  11.675  1.00  0.00     0.000 C 
ENDROOT
BRANCH   1   2
ATOM      2  C   UNL     1      41.182  10.898  11.016  1.00  0.00     0.000 C 
BRANCH   2   3
ATOM      3  C   UNL     1      40.968   9.376  10.953  1.00  0.00     0.000 C 
BRANCH   3   4
ATOM      4  C   UNL     1      39.879   8.900  11.937  1.00  0.00     0.000 C 
BRANCH   4   5
ATOM      5  C   UNL     1      39.429  10.018  12.892  1.00  0.00     0.000 C 
BRANCH   5   6
ATOM      6  C   UNL     1      38.427   9.503  13.937  1.00  0.00     0.000 C 
BRANCH   6   7
ATOM      7  C   UNL     1      39.107   8.586  14.962  1.00  0.00     0.000 C 
BRANCH   7   8
ATOM      8  C   UNL     1      38.165   8.305  16.145  1.00  0.00     0.000 C 
BRANCH   8   9
ATOM      9  C   UNL     1      37.875   9.559  16.985  1.00  0.00     0.000 C 
BRANCH   9  10
ATOM     10  C   UNL     1      39.116  10.063  17.740  1.00  0.00     0.000 C 
BRANCH  10  11
ATOM     11  C   UNL     1      40.184   8.973  17.910  1.00  0.00     0.000 C 
BRANCH  11  12
ATOM     12  C   UNL     1      41.614   9.541  17.894  1.00  0.00     0.000 C 
BRANCH  12  13
ATOM     13  C   UNL     1      41.851  10.583  19.003  1.00  0.00     0.006 C 
BRANCH  13  14
ATOM     14  C   UNL     1      41.263  11.971  18.699  1.00  0.00     0.053 C 
BRANCH  14  15
ATOM     15  C   UNL     1      42.323  13.028  18.649  1.00  0.00     0.041 C 
ATOM     16  O   UNL     1      43.510  12.723  18.357  1.00  0.00    -0.550 OA
ATOM     17  O   UNL     1      42.010  14.343  18.969  1.00  0.00    -0.550 OA
ENDBRANCH  14  15
ENDBRANCH  13  14
ENDBRANCH  12  13
ENDBRANCH  11  12
ENDBRANCH  10  11
ENDBRANCH   9  10
ENDBRANCH   8   9
ENDBRANCH   7   8
ENDBRANCH   6   7
ENDBRANCH   5   6
ENDBRANCH   4   5
ENDBRANCH   3   4
ENDBRANCH   2   3
ENDBRANCH   1   2
BRANCH   1  18
ATOM     18  C   UNL     1      42.404  11.508  13.186  1.00  0.00     0.000 C 
BRANCH  18  19
ATOM     19  C   UNL     1      41.348  12.565  13.540  1.00  0.00     0.000 C 
BRANCH  19  20
ATOM     20  C   UNL     1      40.864  12.378  14.986  1.00  0.00     0.000 C 
BRANCH  20  21
ATOM     21  C   UNL     1      40.335  13.679  15.611  1.00  0.00     0.000 C 
BRANCH  21  22
ATOM     22  C   UNL     1      38.883  13.988  15.196  1.00  0.00     0.000 C 
BRANCH  22  23
ATOM     23  C   UNL     1      37.876  13.720  16.327  1.00  0.00     0.000 C 
BRANCH  23  24
ATOM     24  C   UNL     1      38.547  13.184  17.605  1.00  0.00    -0.000 C 
BRANCH  24  25
ATOM     25  C   UNL     1      38.087  13.951  18.864  1.00  0.00    -0.000 C 
BRANCH  25  26
ATOM     26  C   UNL     1      38.848  15.269  19.090  1.00  0.00    -0.000 C 
BRANCH  26  27
ATOM     27  C   UNL     1      38.072  16.500  18.590  1.00  0.00    -0.000 C 
BRANCH  27  28
ATOM     28  C   UNL     1      38.463  16.917  17.162  1.00  0.00    -0.000 C 
BRANCH  28  29
ATOM     29  C   UNL     1      39.486  18.066  17.068  1.00  0.00    -0.000 C 
BRANCH  29  30
ATOM     30  C   UNL     1      39.585  18.887  18.360  1.00  0.00    -0.000 C 
BRANCH  30  31
ATOM     31  C   UNL     1      41.039  18.980  18.839  1.00  0.00    -0.003 C 
ATOM     32  C   UNL     1      41.898  17.879  18.218  1.00  0.00     0.004 C 
ENDBRANCH  30  31
ENDBRANCH  29  30
ENDBRANCH  28  29
ENDBRANCH  27  28
ENDBRANCH  26  27
ENDBRANCH  25  26
ENDBRANCH  24  25
ENDBRANCH  23  24
ENDBRANCH  22  23
ENDBRANCH  21  22
ENDBRANCH  20  21
ENDBRANCH  19  20
ENDBRANCH  18  19
ENDBRANCH   1  18
TORSDOF 28
ENDMDL
