MODEL 1
REMARK VINA RESULT:    -5.637      0.000      0.000
REMARK INTER + INTRA:          -7.094
REMARK INTER:                  -6.790
REMARK INTRA:                  -0.304
REMARK UNBOUND:                -0.304
REMARK SMILES O=c1c(O)c(-c2ccc(O)c(O)c2)oc2cc(O)cc(O)c12
REMARK SMILES IDX 5 1 3 2 2 3 1 4 22 5 20 6 19 7 17 8 16 9 15 10 14 11 6 12
REMARK SMILES IDX 7 13 8 14 9 15 13 16 11 17 10 18 12 20 4 22 21 24 18 26
REMARK H PARENT 10 19 12 21 4 23 21 25 18 27
REMARK Flexibility Score: inf
ROOT
ATOM      1  C   UNL     1      35.771 181.149 173.032  1.00  0.00     0.180 A 
ATOM      2  C   UNL     1      35.643 182.415 173.630  1.00  0.00     0.208 A 
ATOM      3  C   UNL     1      36.803 183.116 173.994  1.00  0.00     0.238 A 
ATOM      4  O   UNL     1      36.682 184.225 174.578  1.00  0.00    -0.285 OA
ATOM      5  C   UNL     1      38.076 182.550 173.743  1.00  0.00     0.111 A 
ATOM      6  C   UNL     1      39.319 183.190 174.035  1.00  0.00     0.134 A 
ATOM      7  C   UNL     1      40.516 182.482 173.863  1.00  0.00     0.093 A 
ATOM      8  C   UNL     1      40.520 181.186 173.351  1.00  0.00     0.123 A 
ATOM      9  C   UNL     1      39.314 180.574 173.007  1.00  0.00     0.094 A 
ATOM     10  C   UNL     1      38.101 181.240 173.200  1.00  0.00     0.146 A 
ATOM     11  O   UNL     1      36.977 180.618 172.869  1.00  0.00    -0.452 OA
ENDROOT
BRANCH   1  12
ATOM     12  C   UNL     1      34.594 180.360 172.598  1.00  0.00     0.025 A 
ATOM     13  C   UNL     1      33.978 180.658 171.373  1.00  0.00     0.016 A 
ATOM     14  C   UNL     1      32.854 179.940 170.953  1.00  0.00     0.051 A 
ATOM     15  C   UNL     1      32.322 178.928 171.757  1.00  0.00     0.157 A 
ATOM     16  C   UNL     1      34.044 179.356 173.414  1.00  0.00     0.062 A 
ATOM     17  C   UNL     1      32.915 178.636 172.996  1.00  0.00     0.158 A 
BRANCH  15  18
ATOM     18  O   UNL     1      31.201 178.227 171.311  1.00  0.00    -0.504 OA
ATOM     19  H   UNL     1      30.768 177.498 171.863  1.00  0.00     0.293 HD
ENDBRANCH  15  18
BRANCH  17  20
ATOM     20  O   UNL     1      32.381 177.638 173.809  1.00  0.00    -0.504 OA
ATOM     21  H   UNL     1      32.859 177.319 174.643  1.00  0.00     0.293 HD
ENDBRANCH  17  20
ENDBRANCH   1  12
BRANCH   2  22
ATOM     22  O   UNL     1      34.375 182.945 173.889  1.00  0.00    -0.502 OA
ATOM     23  H   UNL     1      33.920 183.597 173.262  1.00  0.00     0.293 HD
ENDBRANCH   2  22
BRANCH   6  24
ATOM     24  O   UNL     1      39.433 184.515 174.463  1.00  0.00    -0.507 OA
ATOM     25  H   UNL     1      39.752 185.280 173.888  1.00  0.00     0.293 HD
ENDBRANCH   6  24
BRANCH   8  26
ATOM     26  O   UNL     1      41.730 180.518 173.180  1.00  0.00    -0.508 OA
ATOM     27  H   UNL     1      42.475 180.588 173.864  1.00  0.00     0.293 HD
ENDBRANCH   8  26
TORSDOF 6
ENDMDL
MODEL 2
REMARK VINA RESULT:    -5.634      0.832      1.519
REMARK INTER + INTRA:          -7.091
REMARK INTER:                  -6.943
REMARK INTRA:                  -0.148
REMARK UNBOUND:                -0.304
REMARK SMILES O=c1c(O)c(-c2ccc(O)c(O)c2)oc2cc(O)cc(O)c12
REMARK SMILES IDX 5 1 3 2 2 3 1 4 22 5 20 6 19 7 17 8 16 9 15 10 14 11 6 12
REMARK SMILES IDX 7 13 8 14 9 15 13 16 11 17 10 18 12 20 4 22 21 24 18 26
REMARK H PARENT 10 19 12 21 4 23 21 25 18 27
REMARK Flexibility Score: inf
ROOT
ATOM      1  C   UNL     1      35.993 181.002 173.406  1.00  0.00     0.180 A 
ATOM      2  C   UNL     1      35.801 182.280 173.960  1.00  0.00     0.208 A 
ATOM      3  C   UNL     1      36.916 182.995 174.424  1.00  0.00     0.238 A 
ATOM      4  O   UNL     1      36.732 184.117 174.967  1.00  0.00    -0.285 OA
ATOM      5  C   UNL     1      38.210 182.432 174.314  1.00  0.00     0.111 A 
ATOM      6  C   UNL     1      39.414 183.086 174.715  1.00  0.00     0.134 A 
ATOM      7  C   UNL     1      40.625 182.382 174.681  1.00  0.00     0.093 A 
ATOM      8  C   UNL     1      40.686 181.075 174.201  1.00  0.00     0.123 A 
ATOM      9  C   UNL     1      39.523 180.448 173.751  1.00  0.00     0.094 A 
ATOM     10  C   UNL     1      38.295 181.111 173.806  1.00  0.00     0.146 A 
ATOM     11  O   UNL     1      37.212 180.475 173.378  1.00  0.00    -0.452 OA
ENDROOT
BRANCH   1  12
ATOM     12  C   UNL     1      34.870 180.197 172.873  1.00  0.00     0.025 A 
ATOM     13  C   UNL     1      34.625 178.920 173.401  1.00  0.00     0.016 A 
ATOM     14  C   UNL     1      33.583 178.135 172.899  1.00  0.00     0.051 A 
ATOM     15  C   UNL     1      32.783 178.606 171.854  1.00  0.00     0.157 A 
ATOM     16  C   UNL     1      34.077 180.661 171.808  1.00  0.00     0.062 A 
ATOM     17  C   UNL     1      33.033 179.873 171.301  1.00  0.00     0.158 A 
BRANCH  15  18
ATOM     18  O   UNL     1      31.750 177.801 171.375  1.00  0.00    -0.504 OA
ATOM     19  H   UNL     1      31.846 177.246 170.534  1.00  0.00     0.293 HD
ENDBRANCH  15  18
BRANCH  17  20
ATOM     20  O   UNL     1      32.249 180.344 170.250  1.00  0.00    -0.504 OA
ATOM     21  H   UNL     1      32.527 180.223 169.283  1.00  0.00     0.293 HD
ENDBRANCH  17  20
ENDBRANCH   1  12
BRANCH   2  22
ATOM     22  O   UNL     1      34.512 182.808 174.079  1.00  0.00    -0.502 OA
ATOM     23  H   UNL     1      34.246 183.692 173.662  1.00  0.00     0.293 HD
ENDBRANCH   2  22
BRANCH   6  24
ATOM     24  O   UNL     1      39.479 184.421 175.124  1.00  0.00    -0.507 OA
ATOM     25  H   UNL     1      39.302 185.214 174.526  1.00  0.00     0.293 HD
ENDBRANCH   6  24
BRANCH   8  26
ATOM     26  O   UNL     1      41.910 180.411 174.168  1.00  0.00    -0.508 OA
ATOM     27  H   UNL     1      42.787 180.918 174.132  1.00  0.00     0.293 HD
ENDBRANCH   8  26
TORSDOF 6
ENDMDL
MODEL 3
REMARK VINA RESULT:    -5.552      1.529      7.005
REMARK INTER + INTRA:          -6.992
REMARK INTER:                  -6.676
REMARK INTRA:                  -0.316
REMARK UNBOUND:                -0.304
REMARK SMILES O=c1c(O)c(-c2ccc(O)c(O)c2)oc2cc(O)cc(O)c12
REMARK SMILES IDX 5 1 3 2 2 3 1 4 22 5 20 6 19 7 17 8 16 9 15 10 14 11 6 12
REMARK SMILES IDX 7 13 8 14 9 15 13 16 11 17 10 18 12 20 4 22 21 24 18 26
REMARK H PARENT 10 19 12 21 4 23 21 25 18 27
REMARK Flexibility Score: inf
ROOT
ATOM      1  C   UNL     1      35.601 180.611 172.886  1.00  0.00     0.180 A 
ATOM      2  C   UNL     1      34.852 180.855 171.722  1.00  0.00     0.208 A 
ATOM      3  C   UNL     1      33.721 180.066 171.462  1.00  0.00     0.238 A 
ATOM      4  O   UNL     1      33.086 180.254 170.391  1.00  0.00    -0.285 OA
ATOM      5  C   UNL     1      33.344 179.053 172.375  1.00  0.00     0.111 A 
ATOM      6  C   UNL     1      32.194 178.219 172.230  1.00  0.00     0.134 A 
ATOM      7  C   UNL     1      31.990 177.163 173.127  1.00  0.00     0.093 A 
ATOM      8  C   UNL     1      32.856 176.949 174.198  1.00  0.00     0.123 A 
ATOM      9  C   UNL     1      33.951 177.795 174.382  1.00  0.00     0.094 A 
ATOM     10  C   UNL     1      34.201 178.835 173.484  1.00  0.00     0.146 A 
ATOM     11  O   UNL     1      35.259 179.610 173.689  1.00  0.00    -0.452 OA
ENDROOT
BRANCH   1  12
ATOM     12  C   UNL     1      36.791 181.417 173.242  1.00  0.00     0.025 A 
ATOM     13  C   UNL     1      36.641 182.543 174.066  1.00  0.00     0.016 A 
ATOM     14  C   UNL     1      37.748 183.331 174.397  1.00  0.00     0.051 A 
ATOM     15  C   UNL     1      39.015 183.015 173.898  1.00  0.00     0.157 A 
ATOM     16  C   UNL     1      38.063 181.113 172.725  1.00  0.00     0.062 A 
ATOM     17  C   UNL     1      39.174 181.903 173.054  1.00  0.00     0.158 A 
BRANCH  15  18
ATOM     18  O   UNL     1      40.101 183.817 174.248  1.00  0.00    -0.504 OA
ATOM     19  H   UNL     1      40.184 184.775 173.932  1.00  0.00     0.293 HD
ENDBRANCH  15  18
BRANCH  17  20
ATOM     20  O   UNL     1      40.432 181.591 172.541  1.00  0.00    -0.504 OA
ATOM     21  H   UNL     1      40.689 180.639 172.308  1.00  0.00     0.293 HD
ENDBRANCH  17  20
ENDBRANCH   1  12
BRANCH   2  22
ATOM     22  O   UNL     1      35.256 181.847 170.823  1.00  0.00    -0.502 OA
ATOM     23  H   UNL     1      35.845 182.623 171.098  1.00  0.00     0.293 HD
ENDBRANCH   2  22
BRANCH   6  24
ATOM     24  O   UNL     1      31.214 178.403 171.250  1.00  0.00    -0.507 OA
ATOM     25  H   UNL     1      30.365 178.931 171.379  1.00  0.00     0.293 HD
ENDBRANCH   6  24
BRANCH   8  26
ATOM     26  O   UNL     1      32.615 175.898 175.079  1.00  0.00    -0.508 OA
ATOM     27  H   UNL     1      32.473 174.950 174.747  1.00  0.00     0.293 HD
ENDBRANCH   8  26
TORSDOF 6
ENDMDL
MODEL 4
REMARK VINA RESULT:    -4.976      1.979      6.862
REMARK INTER + INTRA:          -6.298
REMARK INTER:                  -5.971
REMARK INTRA:                  -0.327
REMARK UNBOUND:                -0.304
REMARK SMILES O=c1c(O)c(-c2ccc(O)c(O)c2)oc2cc(O)cc(O)c12
REMARK SMILES IDX 5 1 3 2 2 3 1 4 22 5 20 6 19 7 17 8 16 9 15 10 14 11 6 12
REMARK SMILES IDX 7 13 8 14 9 15 13 16 11 17 10 18 12 20 4 22 21 24 18 26
REMARK H PARENT 10 19 12 21 4 23 21 25 18 27
REMARK Flexibility Score: inf
ROOT
ATOM      1  C   UNL     1      35.136 180.389 173.461  1.00  0.00     0.180 A 
ATOM      2  C   UNL     1      34.296 181.197 174.246  1.00  0.00     0.208 A 
ATOM      3  C   UNL     1      32.941 180.851 174.370  1.00  0.00     0.238 A 
ATOM      4  O   UNL     1      32.181 181.608 175.031  1.00  0.00    -0.285 OA
ATOM      5  C   UNL     1      32.446 179.694 173.721  1.00  0.00     0.111 A 
ATOM      6  C   UNL     1      31.100 179.229 173.811  1.00  0.00     0.134 A 
ATOM      7  C   UNL     1      30.691 178.146 173.022  1.00  0.00     0.093 A 
ATOM      8  C   UNL     1      31.591 177.474 172.198  1.00  0.00     0.123 A 
ATOM      9  C   UNL     1      32.924 177.885 172.148  1.00  0.00     0.094 A 
ATOM     10  C   UNL     1      33.354 178.984 172.895  1.00  0.00     0.146 A 
ATOM     11  O   UNL     1      34.628 179.348 172.812  1.00  0.00    -0.452 OA
ENDROOT
BRANCH   1  12
ATOM     12  C   UNL     1      36.581 180.675 173.302  1.00  0.00     0.025 A 
ATOM     13  C   UNL     1      37.029 181.353 172.159  1.00  0.00     0.016 A 
ATOM     14  C   UNL     1      38.390 181.614 171.978  1.00  0.00     0.051 A 
ATOM     15  C   UNL     1      39.323 181.189 172.929  1.00  0.00     0.157 A 
ATOM     16  C   UNL     1      37.523 180.230 174.247  1.00  0.00     0.062 A 
ATOM     17  C   UNL     1      38.889 180.489 174.067  1.00  0.00     0.158 A 
BRANCH  15  18
ATOM     18  O   UNL     1      40.674 181.467 172.723  1.00  0.00    -0.504 OA
ATOM     19  H   UNL     1      41.404 180.996 173.242  1.00  0.00     0.293 HD
ENDBRANCH  15  18
BRANCH  17  20
ATOM     20  O   UNL     1      39.815 180.050 175.011  1.00  0.00    -0.504 OA
ATOM     21  H   UNL     1      39.940 179.066 175.216  1.00  0.00     0.293 HD
ENDBRANCH  17  20
ENDBRANCH   1  12
BRANCH   2  22
ATOM     22  O   UNL     1      34.800 182.347 174.861  1.00  0.00    -0.502 OA
ATOM     23  H   UNL     1      34.728 183.265 174.439  1.00  0.00     0.293 HD
ENDBRANCH   2  22
BRANCH   6  24
ATOM     24  O   UNL     1      30.142 179.770 174.673  1.00  0.00    -0.507 OA
ATOM     25  H   UNL     1      30.352 180.273 175.522  1.00  0.00     0.293 HD
ENDBRANCH   6  24
BRANCH   8  26
ATOM     26  O   UNL     1      31.152 176.392 171.438  1.00  0.00    -0.508 OA
ATOM     27  H   UNL     1      31.409 176.290 170.462  1.00  0.00     0.293 HD
ENDBRANCH   8  26
TORSDOF 6
ENDMDL
MODEL 5
REMARK VINA RESULT:    -4.720      2.450      4.040
REMARK INTER + INTRA:          -5.990
REMARK INTER:                  -5.722
REMARK INTRA:                  -0.268
REMARK UNBOUND:                -0.304
REMARK SMILES O=c1c(O)c(-c2ccc(O)c(O)c2)oc2cc(O)cc(O)c12
REMARK SMILES IDX 5 1 3 2 2 3 1 4 22 5 20 6 19 7 17 8 16 9 15 10 14 11 6 12
REMARK SMILES IDX 7 13 8 14 9 15 13 16 11 17 10 18 12 20 4 22 21 24 18 26
REMARK H PARENT 10 19 12 21 4 23 21 25 18 27
REMARK Flexibility Score: inf
ROOT
ATOM      1  C   UNL     1      33.365 179.075 172.889  1.00  0.00     0.180 A 
ATOM      2  C   UNL     1      34.179 178.928 174.025  1.00  0.00     0.208 A 
ATOM      3  C   UNL     1      35.346 179.700 174.131  1.00  0.00     0.238 A 
ATOM      4  O   UNL     1      36.099 179.526 175.125  1.00  0.00    -0.285 OA
ATOM      5  C   UNL     1      35.676 180.621 173.108  1.00  0.00     0.111 A 
ATOM      6  C   UNL     1      36.814 181.483 173.131  1.00  0.00     0.134 A 
ATOM      7  C   UNL     1      37.113 182.260 172.004  1.00  0.00     0.093 A 
ATOM      8  C   UNL     1      36.284 182.256 170.884  1.00  0.00     0.123 A 
ATOM      9  C   UNL     1      35.137 181.460 170.875  1.00  0.00     0.094 A 
ATOM     10  C   UNL     1      34.831 180.647 171.969  1.00  0.00     0.146 A 
ATOM     11  O   UNL     1      33.736 179.899 171.916  1.00  0.00    -0.452 OA
ENDROOT
BRANCH   1  12
ATOM     12  C   UNL     1      32.106 178.313 172.717  1.00  0.00     0.025 A 
ATOM     13  C   UNL     1      30.972 178.678 173.460  1.00  0.00     0.016 A 
ATOM     14  C   UNL     1      29.779 177.960 173.329  1.00  0.00     0.051 A 
ATOM     15  C   UNL     1      29.707 176.860 172.469  1.00  0.00     0.157 A 
ATOM     16  C   UNL     1      32.037 177.194 171.869  1.00  0.00     0.062 A 
ATOM     17  C   UNL     1      30.842 176.471 171.739  1.00  0.00     0.158 A 
BRANCH  15  18
ATOM     18  O   UNL     1      28.503 176.165 172.358  1.00  0.00    -0.504 OA
ATOM     19  H   UNL     1      28.249 175.425 173.000  1.00  0.00     0.293 HD
ENDBRANCH  15  18
BRANCH  17  20
ATOM     20  O   UNL     1      30.781 175.367 170.890  1.00  0.00    -0.504 OA
ATOM     21  H   UNL     1      31.099 174.451 171.185  1.00  0.00     0.293 HD
ENDBRANCH  17  20
ENDBRANCH   1  12
BRANCH   2  22
ATOM     22  O   UNL     1      33.845 177.996 175.013  1.00  0.00    -0.502 OA
ATOM     23  H   UNL     1      33.681 177.019 174.805  1.00  0.00     0.293 HD
ENDBRANCH   2  22
BRANCH   6  24
ATOM     24  O   UNL     1      37.657 181.634 174.235  1.00  0.00    -0.507 OA
ATOM     25  H   UNL     1      37.388 181.461 175.191  1.00  0.00     0.293 HD
ENDBRANCH   6  24
BRANCH   8  26
ATOM     26  O   UNL     1      36.605 183.052 169.787  1.00  0.00    -0.508 OA
ATOM     27  H   UNL     1      36.217 182.870 168.869  1.00  0.00     0.293 HD
ENDBRANCH   8  26
TORSDOF 6
ENDMDL
MODEL 6
REMARK VINA RESULT:    -4.662      7.464     10.922
REMARK INTER + INTRA:          -5.919
REMARK INTER:                  -5.596
REMARK INTRA:                  -0.323
REMARK UNBOUND:                -0.304
REMARK SMILES O=c1c(O)c(-c2ccc(O)c(O)c2)oc2cc(O)cc(O)c12
REMARK SMILES IDX 5 1 3 2 2 3 1 4 22 5 20 6 19 7 17 8 16 9 15 10 14 11 6 12
REMARK SMILES IDX 7 13 8 14 9 15 13 16 11 17 10 18 12 20 4 22 21 24 18 26
REMARK H PARENT 10 19 12 21 4 23 21 25 18 27
REMARK Flexibility Score: inf
ROOT
ATOM      1  C   UNL     1      32.748 172.282 172.926  1.00  0.00     0.180 A 
ATOM      2  C   UNL     1      32.157 171.477 173.915  1.00  0.00     0.208 A 
ATOM      3  C   UNL     1      32.704 170.212 174.180  1.00  0.00     0.238 A 
ATOM      4  O   UNL     1      32.139 169.474 175.029  1.00  0.00    -0.285 OA
ATOM      5  C   UNL     1      33.843 169.773 173.463  1.00  0.00     0.111 A 
ATOM      6  C   UNL     1      34.504 168.526 173.677  1.00  0.00     0.134 A 
ATOM      7  C   UNL     1      35.543 168.140 172.821  1.00  0.00     0.093 A 
ATOM      8  C   UNL     1      35.988 168.981 171.802  1.00  0.00     0.123 A 
ATOM      9  C   UNL     1      35.388 170.228 171.623  1.00  0.00     0.094 A 
ATOM     10  C   UNL     1      34.325 170.626 172.437  1.00  0.00     0.146 A 
ATOM     11  O   UNL     1      33.775 171.816 172.226  1.00  0.00    -0.452 OA
ENDROOT
BRANCH   1  12
ATOM     12  C   UNL     1      32.243 173.638 172.609  1.00  0.00     0.025 A 
ATOM     13  C   UNL     1      32.746 174.744 173.311  1.00  0.00     0.016 A 
ATOM     14  C   UNL     1      32.269 176.030 173.042  1.00  0.00     0.051 A 
ATOM     15  C   UNL     1      31.274 176.228 172.081  1.00  0.00     0.157 A 
ATOM     16  C   UNL     1      31.227 173.837 171.657  1.00  0.00     0.062 A 
ATOM     17  C   UNL     1      30.745 175.126 171.388  1.00  0.00     0.158 A 
BRANCH  15  18
ATOM     18  O   UNL     1      30.819 177.523 171.832  1.00  0.00    -0.504 OA
ATOM     19  H   UNL     1      30.455 177.800 170.929  1.00  0.00     0.293 HD
ENDBRANCH  15  18
BRANCH  17  20
ATOM     20  O   UNL     1      29.742 175.314 170.438  1.00  0.00    -0.504 OA
ATOM     21  H   UNL     1      29.803 174.907 169.512  1.00  0.00     0.293 HD
ENDBRANCH  17  20
ENDBRANCH   1  12
BRANCH   2  22
ATOM     22  O   UNL     1      31.019 171.921 174.596  1.00  0.00    -0.502 OA
ATOM     23  H   UNL     1      30.997 172.036 175.602  1.00  0.00     0.293 HD
ENDBRANCH   2  22
BRANCH   6  24
ATOM     24  O   UNL     1      34.200 167.651 174.724  1.00  0.00    -0.507 OA
ATOM     25  H   UNL     1      33.999 167.935 175.670  1.00  0.00     0.293 HD
ENDBRANCH   6  24
BRANCH   8  26
ATOM     26  O   UNL     1      37.034 168.571 170.979  1.00  0.00    -0.508 OA
ATOM     27  H   UNL     1      37.130 167.605 170.686  1.00  0.00     0.293 HD
ENDBRANCH   8  26
TORSDOF 6
ENDMDL
MODEL 7
REMARK VINA RESULT:    -4.651      1.319      2.156
REMARK INTER + INTRA:          -5.907
REMARK INTER:                  -5.787
REMARK INTRA:                  -0.120
REMARK UNBOUND:                -0.304
REMARK SMILES O=c1c(O)c(-c2ccc(O)c(O)c2)oc2cc(O)cc(O)c12
REMARK SMILES IDX 5 1 3 2 2 3 1 4 22 5 20 6 19 7 17 8 16 9 15 10 14 11 6 12
REMARK SMILES IDX 7 13 8 14 9 15 13 16 11 17 10 18 12 20 4 22 21 24 18 26
REMARK H PARENT 10 19 12 21 4 23 21 25 18 27
REMARK Flexibility Score: inf
ROOT
ATOM      1  C   UNL     1      34.621 180.412 173.382  1.00  0.00     0.180 A 
ATOM      2  C   UNL     1      34.139 181.652 173.835  1.00  0.00     0.208 A 
ATOM      3  C   UNL     1      35.037 182.721 173.976  1.00  0.00     0.238 A 
ATOM      4  O   UNL     1      34.610 183.814 174.433  1.00  0.00    -0.285 OA
ATOM      5  C   UNL     1      36.403 182.542 173.647  1.00  0.00     0.111 A 
ATOM      6  C   UNL     1      37.393 183.568 173.715  1.00  0.00     0.134 A 
ATOM      7  C   UNL     1      38.738 183.245 173.492  1.00  0.00     0.093 A 
ATOM      8  C   UNL     1      39.119 181.951 173.141  1.00  0.00     0.123 A 
ATOM      9  C   UNL     1      38.151 180.954 173.014  1.00  0.00     0.094 A 
ATOM     10  C   UNL     1      36.806 181.237 173.266  1.00  0.00     0.146 A 
ATOM     11  O   UNL     1      35.919 180.258 173.145  1.00  0.00    -0.452 OA
ENDROOT
BRANCH   1  12
ATOM     12  C   UNL     1      33.731 179.244 173.184  1.00  0.00     0.025 A 
ATOM     13  C   UNL     1      34.023 178.035 173.833  1.00  0.00     0.016 A 
ATOM     14  C   UNL     1      33.209 176.915 173.644  1.00  0.00     0.051 A 
ATOM     15  C   UNL     1      32.101 176.982 172.794  1.00  0.00     0.157 A 
ATOM     16  C   UNL     1      32.629 179.304 172.312  1.00  0.00     0.062 A 
ATOM     17  C   UNL     1      31.812 178.180 172.120  1.00  0.00     0.158 A 
BRANCH  15  18
ATOM     18  O   UNL     1      31.305 175.849 172.627  1.00  0.00    -0.504 OA
ATOM     19  H   UNL     1      30.733 175.711 171.804  1.00  0.00     0.293 HD
ENDBRANCH  15  18
BRANCH  17  20
ATOM     20  O   UNL     1      30.717 178.250 171.259  1.00  0.00    -0.504 OA
ATOM     21  H   UNL     1      30.658 177.676 170.427  1.00  0.00     0.293 HD
ENDBRANCH  17  20
ENDBRANCH   1  12
BRANCH   2  22
ATOM     22  O   UNL     1      32.791 181.800 174.174  1.00  0.00    -0.502 OA
ATOM     23  H   UNL     1      32.493 182.176 175.067  1.00  0.00     0.293 HD
ENDBRANCH   2  22
BRANCH   6  24
ATOM     24  O   UNL     1      37.108 184.914 173.966  1.00  0.00    -0.507 OA
ATOM     25  H   UNL     1      37.539 185.691 173.490  1.00  0.00     0.293 HD
ENDBRANCH   6  24
BRANCH   8  26
ATOM     26  O   UNL     1      40.464 181.669 172.912  1.00  0.00    -0.508 OA
ATOM     27  H   UNL     1      40.841 181.614 171.973  1.00  0.00     0.293 HD
ENDBRANCH   8  26
TORSDOF 6
ENDMDL
MODEL 8
REMARK VINA RESULT:    -4.608     17.281     20.247
REMARK INTER + INTRA:          -5.854
REMARK INTER:                  -5.538
REMARK INTRA:                  -0.316
REMARK UNBOUND:                -0.304
REMARK SMILES O=c1c(O)c(-c2ccc(O)c(O)c2)oc2cc(O)cc(O)c12
REMARK SMILES IDX 5 1 3 2 2 3 1 4 22 5 20 6 19 7 17 8 16 9 15 10 14 11 6 12
REMARK SMILES IDX 7 13 8 14 9 15 13 16 11 17 10 18 12 20 4 22 21 24 18 26
REMARK H PARENT 10 19 12 21 4 23 21 25 18 27
REMARK Flexibility Score: inf
ROOT
ATOM      1  C   UNL     1      29.185 167.786 160.857  1.00  0.00     0.180 A 
ATOM      2  C   UNL     1      30.048 166.994 161.634  1.00  0.00     0.208 A 
ATOM      3  C   UNL     1      31.034 166.230 160.990  1.00  0.00     0.238 A 
ATOM      4  O   UNL     1      31.770 165.481 161.685  1.00  0.00    -0.285 OA
ATOM      5  C   UNL     1      31.155 166.280 159.580  1.00  0.00     0.111 A 
ATOM      6  C   UNL     1      32.144 165.577 158.827  1.00  0.00     0.134 A 
ATOM      7  C   UNL     1      32.087 165.597 157.427  1.00  0.00     0.093 A 
ATOM      8  C   UNL     1      31.121 166.344 156.755  1.00  0.00     0.123 A 
ATOM      9  C   UNL     1      30.187 167.081 157.483  1.00  0.00     0.094 A 
ATOM     10  C   UNL     1      30.194 167.053 158.880  1.00  0.00     0.146 A 
ATOM     11  O   UNL     1      29.282 167.761 159.533  1.00  0.00    -0.452 OA
ENDROOT
BRANCH   1  12
ATOM     12  C   UNL     1      28.137 168.638 161.466  1.00  0.00     0.025 A 
ATOM     13  C   UNL     1      26.804 168.200 161.465  1.00  0.00     0.016 A 
ATOM     14  C   UNL     1      25.796 168.997 162.015  1.00  0.00     0.051 A 
ATOM     15  C   UNL     1      26.102 170.248 162.558  1.00  0.00     0.157 A 
ATOM     16  C   UNL     1      28.440 169.906 161.994  1.00  0.00     0.062 A 
ATOM     17  C   UNL     1      27.429 170.708 162.544  1.00  0.00     0.158 A 
BRANCH  15  18
ATOM     18  O   UNL     1      25.076 171.020 163.102  1.00  0.00    -0.504 OA
ATOM     19  H   UNL     1      24.449 171.564 162.524  1.00  0.00     0.293 HD
ENDBRANCH  15  18
BRANCH  17  20
ATOM     20  O   UNL     1      27.739 171.961 163.071  1.00  0.00    -0.504 OA
ATOM     21  H   UNL     1      28.690 172.217 163.309  1.00  0.00     0.293 HD
ENDBRANCH  17  20
ENDBRANCH   1  12
BRANCH   2  22
ATOM     22  O   UNL     1      29.897 166.943 163.023  1.00  0.00    -0.502 OA
ATOM     23  H   UNL     1      30.524 167.425 163.656  1.00  0.00     0.293 HD
ENDBRANCH   2  22
BRANCH   6  24
ATOM     24  O   UNL     1      33.209 164.875 159.399  1.00  0.00    -0.507 OA
ATOM     25  H   UNL     1      34.183 165.049 159.202  1.00  0.00     0.293 HD
ENDBRANCH   6  24
BRANCH   8  26
ATOM     26  O   UNL     1      31.105 166.352 155.362  1.00  0.00    -0.508 OA
ATOM     27  H   UNL     1      31.917 166.629 154.824  1.00  0.00     0.293 HD
ENDBRANCH   8  26
TORSDOF 6
ENDMDL
MODEL 9
REMARK VINA RESULT:    -4.590      2.617      4.656
REMARK INTER + INTRA:          -5.833
REMARK INTER:                  -5.537
REMARK INTRA:                  -0.297
REMARK UNBOUND:                -0.304
REMARK SMILES O=c1c(O)c(-c2ccc(O)c(O)c2)oc2cc(O)cc(O)c12
REMARK SMILES IDX 5 1 3 2 2 3 1 4 22 5 20 6 19 7 17 8 16 9 15 10 14 11 6 12
REMARK SMILES IDX 7 13 8 14 9 15 13 16 11 17 10 18 12 20 4 22 21 24 18 26
REMARK H PARENT 10 19 12 21 4 23 21 25 18 27
REMARK Flexibility Score: inf
ROOT
ATOM      1  C   UNL     1      32.867 178.608 173.336  1.00  0.00     0.180 A 
ATOM      2  C   UNL     1      32.039 179.436 174.113  1.00  0.00     0.208 A 
ATOM      3  C   UNL     1      32.453 180.750 174.384  1.00  0.00     0.238 A 
ATOM      4  O   UNL     1      31.733 181.471 175.125  1.00  0.00    -0.285 OA
ATOM      5  C   UNL     1      33.681 181.223 173.863  1.00  0.00     0.111 A 
ATOM      6  C   UNL     1      34.180 182.549 174.042  1.00  0.00     0.134 A 
ATOM      7  C   UNL     1      35.467 182.869 173.592  1.00  0.00     0.093 A 
ATOM      8  C   UNL     1      36.246 181.933 172.914  1.00  0.00     0.123 A 
ATOM      9  C   UNL     1      35.744 180.652 172.682  1.00  0.00     0.094 A 
ATOM     10  C   UNL     1      34.478 180.291 173.150  1.00  0.00     0.146 A 
ATOM     11  O   UNL     1      34.043 179.060 172.917  1.00  0.00    -0.452 OA
ENDROOT
BRANCH   1  12
ATOM     12  C   UNL     1      32.487 177.219 172.988  1.00  0.00     0.025 A 
ATOM     13  C   UNL     1      33.106 176.147 173.648  1.00  0.00     0.016 A 
ATOM     14  C   UNL     1      32.778 174.829 173.320  1.00  0.00     0.051 A 
ATOM     15  C   UNL     1      31.840 174.562 172.318  1.00  0.00     0.157 A 
ATOM     16  C   UNL     1      31.559 176.949 171.966  1.00  0.00     0.062 A 
ATOM     17  C   UNL     1      31.231 175.626 171.633  1.00  0.00     0.158 A 
BRANCH  15  18
ATOM     18  O   UNL     1      31.531 173.236 172.014  1.00  0.00    -0.504 OA
ATOM     19  H   UNL     1      30.897 172.991 171.265  1.00  0.00     0.293 HD
ENDBRANCH  15  18
BRANCH  17  20
ATOM     20  O   UNL     1      30.305 175.368 170.624  1.00  0.00    -0.504 OA
ATOM     21  H   UNL     1      30.006 174.425 170.405  1.00  0.00     0.293 HD
ENDBRANCH  17  20
ENDBRANCH   1  12
BRANCH   2  22
ATOM     22  O   UNL     1      30.841 178.941 174.637  1.00  0.00    -0.502 OA
ATOM     23  H   UNL     1      30.742 178.671 175.608  1.00  0.00     0.293 HD
ENDBRANCH   2  22
BRANCH   6  24
ATOM     24  O   UNL     1      33.446 183.587 174.624  1.00  0.00    -0.507 OA
ATOM     25  H   UNL     1      33.851 184.381 175.096  1.00  0.00     0.293 HD
ENDBRANCH   6  24
BRANCH   8  26
ATOM     26  O   UNL     1      37.517 182.290 172.467  1.00  0.00    -0.508 OA
ATOM     27  H   UNL     1      37.646 182.958 171.716  1.00  0.00     0.293 HD
ENDBRANCH   8  26
TORSDOF 6
ENDMDL
