MODEL 1
REMARK VINA RESULT:    -4.020      0.000      0.000
REMARK INTER + INTRA:          -7.264
REMARK INTER:                  -5.901
REMARK INTRA:                  -1.363
REMARK UNBOUND:                -1.363
REMARK SMILES Cc1cc2c(C(C)C)c(O)c(O)c(C=O)c2c(O)c1-c1c(C)cc2c(C(C)C)c(O)c(O)c(C=O)c2c1O
REMARK SMILES IDX 1 1 2 2 3 3 4 4 16 5 13 6 11 7 9 8 5 9 17 10 19 11 20 12
REMARK SMILES IDX 37 13 21 14 36 15 23 16 22 17 24 18 33 19 25 20 31 21 29 22
REMARK SMILES IDX 38 23 34 25 35 26 26 27 27 28 28 29 32 30 30 32 18 34 6 36
REMARK SMILES IDX 7 37 8 38 14 39 15 40 10 41 12 43
REMARK H PARENT 38 24 32 31 30 33 18 35 10 42 12 44
REMARK Flexibility Score: inf
ROOT
ATOM      1  C   UNL     1     124.223   4.311 136.570  1.00  0.00     0.045 C 
ATOM      2  C   UNL     1     124.320   5.815 136.488  1.00  0.00    -0.039 A 
ATOM      3  C   UNL     1     123.316   6.532 135.834  1.00  0.00     0.013 A 
ATOM      4  C   UNL     1     123.348   7.942 135.742  1.00  0.00    -0.006 A 
ATOM      5  C   UNL     1     124.504   8.631 136.212  1.00  0.00     0.039 A 
ATOM      6  C   UNL     1     124.646  10.018 135.919  1.00  0.00     0.072 A 
ATOM      7  C   UNL     1     123.631  10.700 135.223  1.00  0.00     0.169 A 
ATOM      8  C   UNL     1     122.465  10.024 134.814  1.00  0.00     0.162 A 
ATOM      9  C   UNL     1     122.265   8.670 135.161  1.00  0.00     0.008 A 
ATOM     10  C   UNL     1     125.463   7.911 136.985  1.00  0.00     0.132 A 
ATOM     11  C   UNL     1     125.377   6.508 137.100  1.00  0.00     0.031 A 
ENDROOT
BRANCH  11  12
ATOM     12  C   UNL     1     126.408   5.755 137.861  1.00  0.00     0.031 A 
ATOM     13  C   UNL     1     127.594   5.329 137.224  1.00  0.00     0.132 A 
ATOM     14  C   UNL     1     126.198   5.463 139.219  1.00  0.00    -0.039 A 
ATOM     15  C   UNL     1     128.576   4.590 137.947  1.00  0.00     0.039 A 
ATOM     16  C   UNL     1     127.206   4.834 139.951  1.00  0.00     0.013 A 
ATOM     17  C   UNL     1     124.908   5.843 139.905  1.00  0.00     0.045 C 
ATOM     18  C   UNL     1     128.432   4.458 139.359  1.00  0.00    -0.006 A 
ATOM     19  C   UNL     1     129.710   4.002 137.314  1.00  0.00     0.072 A 
ATOM     20  C   UNL     1     129.499   3.926 140.143  1.00  0.00     0.008 A 
ATOM     21  C   UNL     1     130.693   3.354 138.083  1.00  0.00     0.169 A 
ATOM     22  C   UNL     1     130.572   3.284 139.485  1.00  0.00     0.162 A 
BRANCH  13  23
ATOM     23  O   UNL     1     127.813   5.674 135.885  1.00  0.00    -0.507 OA
ATOM     24  H   UNL     1     127.346   6.439 135.415  1.00  0.00     0.293 HD
ENDBRANCH  13  23
BRANCH  19  25
ATOM     25  C   UNL     1     129.840   3.933 135.838  1.00  0.00     0.264 C 
ATOM     26  O   UNL     1     130.648   4.678 135.224  1.00  0.00    -0.298 OA
ENDBRANCH  19  25
BRANCH  20  27
ATOM     27  C   UNL     1     129.494   4.026 141.680  1.00  0.00     0.017 C 
ATOM     28  C   UNL     1     129.256   5.468 142.137  1.00  0.00     0.012 C 
ATOM     29  C   UNL     1     128.515   3.051 142.361  1.00  0.00     0.012 C 
ENDBRANCH  20  27
BRANCH  21  30
ATOM     30  O   UNL     1     131.785   2.779 137.420  1.00  0.00    -0.504 OA
ATOM     31  H   UNL     1     132.457   3.291 136.870  1.00  0.00     0.293 HD
ENDBRANCH  21  30
BRANCH  22  32
ATOM     32  O   UNL     1     131.483   2.547 140.247  1.00  0.00    -0.504 OA
ATOM     33  H   UNL     1     131.663   1.560 140.135  1.00  0.00     0.293 HD
ENDBRANCH  22  32
ENDBRANCH  11  12
BRANCH  10  34
ATOM     34  O   UNL     1     126.474   8.595 137.669  1.00  0.00    -0.507 OA
ATOM     35  H   UNL     1     126.714   9.564 137.500  1.00  0.00     0.293 HD
ENDBRANCH  10  34
BRANCH   9  36
ATOM     36  C   UNL     1     120.902   8.005 134.892  1.00  0.00     0.017 C 
ATOM     37  C   UNL     1     120.238   7.564 136.201  1.00  0.00     0.012 C 
ATOM     38  C   UNL     1     120.965   6.848 133.877  1.00  0.00     0.012 C 
ENDBRANCH   9  36
BRANCH   6  39
ATOM     39  C   UNL     1     125.898  10.757 136.205  1.00  0.00     0.264 C 
ATOM     40  O   UNL     1     125.959  11.589 137.151  1.00  0.00    -0.298 OA
ENDBRANCH   6  39
BRANCH   8  41
ATOM     41  O   UNL     1     121.507  10.665 134.024  1.00  0.00    -0.504 OA
ATOM     42  H   UNL     1     121.380  11.664 133.968  1.00  0.00     0.293 HD
ENDBRANCH   8  41
BRANCH   7  43
ATOM     43  O   UNL     1     123.816  12.061 134.945  1.00  0.00    -0.504 OA
ATOM     44  H   UNL     1     123.339  12.815 135.419  1.00  0.00     0.293 HD
ENDBRANCH   7  43
TORSDOF 11
ENDMDL
MODEL 2
REMARK VINA RESULT:    -3.994      2.812      8.822
REMARK INTER + INTRA:          -7.225
REMARK INTER:                  -6.004
REMARK INTRA:                  -1.221
REMARK UNBOUND:                -1.363
REMARK SMILES Cc1cc2c(C(C)C)c(O)c(O)c(C=O)c2c(O)c1-c1c(C)cc2c(C(C)C)c(O)c(O)c(C=O)c2c1O
REMARK SMILES IDX 1 1 2 2 3 3 4 4 16 5 13 6 11 7 9 8 5 9 17 10 19 11 20 12
REMARK SMILES IDX 37 13 21 14 36 15 23 16 22 17 24 18 33 19 25 20 31 21 29 22
REMARK SMILES IDX 38 23 34 25 35 26 26 27 27 28 28 29 32 30 30 32 18 34 6 36
REMARK SMILES IDX 7 37 8 38 14 39 15 40 10 41 12 43
REMARK H PARENT 38 24 32 31 30 33 18 35 10 42 12 44
REMARK Flexibility Score: inf
ROOT
ATOM      1  C   UNL     1     128.109   6.818 135.439  1.00  0.00     0.045 C 
ATOM      2  C   UNL     1     128.512   6.846 136.894  1.00  0.00    -0.039 A 
ATOM      3  C   UNL     1     129.858   6.996 137.230  1.00  0.00     0.013 A 
ATOM      4  C   UNL     1     130.288   7.045 138.575  1.00  0.00    -0.006 A 
ATOM      5  C   UNL     1     129.335   6.799 139.606  1.00  0.00     0.039 A 
ATOM      6  C   UNL     1     129.796   6.621 140.942  1.00  0.00     0.072 A 
ATOM      7  C   UNL     1     131.166   6.740 141.239  1.00  0.00     0.169 A 
ATOM      8  C   UNL     1     132.094   7.042 140.223  1.00  0.00     0.162 A 
ATOM      9  C   UNL     1     131.653   7.302 138.907  1.00  0.00     0.008 A 
ATOM     10  C   UNL     1     127.950   6.771 139.266  1.00  0.00     0.132 A 
ATOM     11  C   UNL     1     127.548   6.772 137.913  1.00  0.00     0.031 A 
ENDROOT
BRANCH  11  12
ATOM     12  C   UNL     1     126.106   6.688 137.561  1.00  0.00     0.031 A 
ATOM     13  C   UNL     1     125.375   7.861 137.272  1.00  0.00     0.132 A 
ATOM     14  C   UNL     1     125.471   5.436 137.520  1.00  0.00    -0.039 A 
ATOM     15  C   UNL     1     123.987   7.784 136.952  1.00  0.00     0.039 A 
ATOM     16  C   UNL     1     124.141   5.354 137.102  1.00  0.00     0.013 A 
ATOM     17  C   UNL     1     126.211   4.175 137.894  1.00  0.00     0.045 C 
ATOM     18  C   UNL     1     123.403   6.501 136.739  1.00  0.00    -0.006 A 
ATOM     19  C   UNL     1     123.170   8.943 136.810  1.00  0.00     0.072 A 
ATOM     20  C   UNL     1     122.086   6.393 136.201  1.00  0.00     0.008 A 
ATOM     21  C   UNL     1     121.827   8.819 136.412  1.00  0.00     0.169 A 
ATOM     22  C   UNL     1     121.277   7.550 136.144  1.00  0.00     0.162 A 
BRANCH  13  23
ATOM     23  O   UNL     1     126.035   9.095 137.265  1.00  0.00    -0.507 OA
ATOM     24  H   UNL     1     126.084   9.705 136.459  1.00  0.00     0.293 HD
ENDBRANCH  13  23
BRANCH  19  25
ATOM     25  C   UNL     1     123.648  10.295 137.192  1.00  0.00     0.264 C 
ATOM     26  O   UNL     1     124.050  11.110 136.320  1.00  0.00    -0.298 OA
ENDBRANCH  19  25
BRANCH  20  27
ATOM     27  C   UNL     1     121.531   5.047 135.699  1.00  0.00     0.017 C 
ATOM     28  C   UNL     1     120.472   4.496 136.658  1.00  0.00     0.012 C 
ATOM     29  C   UNL     1     121.008   5.093 134.251  1.00  0.00     0.012 C 
ENDBRANCH  20  27
BRANCH  21  30
ATOM     30  O   UNL     1     121.056   9.983 136.297  1.00  0.00    -0.504 OA
ATOM     31  H   UNL     1     120.083  10.003 136.034  1.00  0.00     0.293 HD
ENDBRANCH  21  30
BRANCH  22  32
ATOM     32  O   UNL     1     119.916   7.406 135.858  1.00  0.00    -0.504 OA
ATOM     33  H   UNL     1     119.205   8.087 136.080  1.00  0.00     0.293 HD
ENDBRANCH  22  32
ENDBRANCH  11  12
BRANCH  10  34
ATOM     34  O   UNL     1     126.976   6.781 140.271  1.00  0.00    -0.507 OA
ATOM     35  H   UNL     1     127.186   6.826 141.260  1.00  0.00     0.293 HD
ENDBRANCH  10  34
BRANCH   9  36
ATOM     36  C   UNL     1     132.649   7.834 137.858  1.00  0.00     0.017 C 
ATOM     37  C   UNL     1     133.695   6.772 137.505  1.00  0.00     0.012 C 
ATOM     38  C   UNL     1     133.311   9.168 138.253  1.00  0.00     0.012 C 
ENDBRANCH   9  36
BRANCH   6  39
ATOM     39  C   UNL     1     128.894   6.176 142.032  1.00  0.00     0.264 C 
ATOM     40  O   UNL     1     128.727   4.951 142.276  1.00  0.00    -0.298 OA
ENDBRANCH   6  39
BRANCH   8  41
ATOM     41  O   UNL     1     133.466   7.049 140.487  1.00  0.00    -0.504 OA
ATOM     42  H   UNL     1     133.891   6.724 141.343  1.00  0.00     0.293 HD
ENDBRANCH   8  41
BRANCH   7  43
ATOM     43  O   UNL     1     131.578   6.545 142.564  1.00  0.00    -0.504 OA
ATOM     44  H   UNL     1     132.106   7.215 143.106  1.00  0.00     0.293 HD
ENDBRANCH   7  43
TORSDOF 11
ENDMDL
MODEL 3
REMARK VINA RESULT:    -3.860      5.784      9.563
REMARK INTER + INTRA:          -7.028
REMARK INTER:                  -5.621
REMARK INTRA:                  -1.408
REMARK UNBOUND:                -1.363
REMARK SMILES Cc1cc2c(C(C)C)c(O)c(O)c(C=O)c2c(O)c1-c1c(C)cc2c(C(C)C)c(O)c(O)c(C=O)c2c1O
REMARK SMILES IDX 1 1 2 2 3 3 4 4 16 5 13 6 11 7 9 8 5 9 17 10 19 11 20 12
REMARK SMILES IDX 37 13 21 14 36 15 23 16 22 17 24 18 33 19 25 20 31 21 29 22
REMARK SMILES IDX 38 23 34 25 35 26 26 27 27 28 28 29 32 30 30 32 18 34 6 36
REMARK SMILES IDX 7 37 8 38 14 39 15 40 10 41 12 43
REMARK H PARENT 38 24 32 31 30 33 18 35 10 42 12 44
REMARK Flexibility Score: inf
ROOT
ATOM      1  C   UNL     1     117.857   9.335 139.918  1.00  0.00     0.045 C 
ATOM      2  C   UNL     1     117.435  10.402 138.937  1.00  0.00    -0.039 A 
ATOM      3  C   UNL     1     116.844  11.574 139.411  1.00  0.00     0.013 A 
ATOM      4  C   UNL     1     116.445  12.612 138.538  1.00  0.00    -0.006 A 
ATOM      5  C   UNL     1     116.530  12.392 137.133  1.00  0.00     0.039 A 
ATOM      6  C   UNL     1     115.924  13.333 136.251  1.00  0.00     0.072 A 
ATOM      7  C   UNL     1     115.300  14.484 136.766  1.00  0.00     0.169 A 
ATOM      8  C   UNL     1     115.274  14.723 138.153  1.00  0.00     0.162 A 
ATOM      9  C   UNL     1     115.936  13.847 139.042  1.00  0.00     0.008 A 
ATOM     10  C   UNL     1     117.246  11.253 136.659  1.00  0.00     0.132 A 
ATOM     11  C   UNL     1     117.674  10.255 137.560  1.00  0.00     0.031 A 
ENDROOT
BRANCH  11  12
ATOM     12  C   UNL     1     118.372   9.043 137.059  1.00  0.00     0.031 A 
ATOM     13  C   UNL     1     119.777   9.038 136.915  1.00  0.00     0.132 A 
ATOM     14  C   UNL     1     117.628   7.899 136.723  1.00  0.00    -0.039 A 
ATOM     15  C   UNL     1     120.447   7.883 136.415  1.00  0.00     0.039 A 
ATOM     16  C   UNL     1     118.295   6.735 136.337  1.00  0.00     0.013 A 
ATOM     17  C   UNL     1     116.121   7.902 136.799  1.00  0.00     0.045 C 
ATOM     18  C   UNL     1     119.703   6.678 136.250  1.00  0.00    -0.006 A 
ATOM     19  C   UNL     1     121.837   7.881 136.101  1.00  0.00     0.072 A 
ATOM     20  C   UNL     1     120.377   5.451 135.971  1.00  0.00     0.008 A 
ATOM     21  C   UNL     1     122.469   6.693 135.690  1.00  0.00     0.169 A 
ATOM     22  C   UNL     1     121.737   5.493 135.590  1.00  0.00     0.162 A 
BRANCH  13  23
ATOM     23  O   UNL     1     120.508  10.167 137.303  1.00  0.00    -0.507 OA
ATOM     24  H   UNL     1     120.109  11.091 137.405  1.00  0.00     0.293 HD
ENDBRANCH  13  23
BRANCH  19  25
ATOM     25  C   UNL     1     122.638   9.129 136.067  1.00  0.00     0.264 C 
ATOM     26  O   UNL     1     123.528   9.351 136.930  1.00  0.00    -0.298 OA
ENDBRANCH  19  25
BRANCH  20  27
ATOM     27  C   UNL     1     119.651   4.097 136.063  1.00  0.00     0.017 C 
ATOM     28  C   UNL     1     119.412   3.504 134.671  1.00  0.00     0.012 C 
ATOM     29  C   UNL     1     120.344   3.083 136.993  1.00  0.00     0.012 C 
ENDBRANCH  20  27
BRANCH  21  30
ATOM     30  O   UNL     1     123.834   6.739 135.379  1.00  0.00    -0.504 OA
ATOM     31  H   UNL     1     124.391   7.579 135.363  1.00  0.00     0.293 HD
ENDBRANCH  21  30
BRANCH  22  32
ATOM     32  O   UNL     1     122.328   4.335 135.077  1.00  0.00    -0.504 OA
ATOM     33  H   UNL     1     122.776   3.622 135.632  1.00  0.00     0.293 HD
ENDBRANCH  22  32
ENDBRANCH  11  12
BRANCH  10  34
ATOM     34  O   UNL     1     117.563  11.133 135.301  1.00  0.00    -0.507 OA
ATOM     35  H   UNL     1     118.480  11.327 134.917  1.00  0.00     0.293 HD
ENDBRANCH  10  34
BRANCH   9  36
ATOM     36  C   UNL     1     116.078  14.229 140.528  1.00  0.00     0.017 C 
ATOM     37  C   UNL     1     114.793  13.915 141.302  1.00  0.00     0.012 C 
ATOM     38  C   UNL     1     116.529  15.686 140.754  1.00  0.00     0.012 C 
ENDBRANCH   9  36
BRANCH   6  39
ATOM     39  C   UNL     1     115.803  13.080 134.795  1.00  0.00     0.264 C 
ATOM     40  O   UNL     1     116.520  13.704 133.967  1.00  0.00    -0.298 OA
ENDBRANCH   6  39
BRANCH   8  41
ATOM     41  O   UNL     1     114.559  15.802 138.680  1.00  0.00    -0.504 OA
ATOM     42  H   UNL     1     114.973  16.595 139.147  1.00  0.00     0.293 HD
ENDBRANCH   8  41
BRANCH   7  43
ATOM     43  O   UNL     1     114.707  15.377 135.864  1.00  0.00    -0.504 OA
ATOM     44  H   UNL     1     115.214  15.964 135.217  1.00  0.00     0.293 HD
ENDBRANCH   7  43
TORSDOF 11
ENDMDL
MODEL 4
REMARK VINA RESULT:    -3.834      1.518      8.984
REMARK INTER + INTRA:          -6.990
REMARK INTER:                  -5.732
REMARK INTRA:                  -1.258
REMARK UNBOUND:                -1.363
REMARK SMILES Cc1cc2c(C(C)C)c(O)c(O)c(C=O)c2c(O)c1-c1c(C)cc2c(C(C)C)c(O)c(O)c(C=O)c2c1O
REMARK SMILES IDX 1 1 2 2 3 3 4 4 16 5 13 6 11 7 9 8 5 9 17 10 19 11 20 12
REMARK SMILES IDX 37 13 21 14 36 15 23 16 22 17 24 18 33 19 25 20 31 21 29 22
REMARK SMILES IDX 38 23 34 25 35 26 26 27 27 28 28 29 32 30 30 32 18 34 6 36
REMARK SMILES IDX 7 37 8 38 14 39 15 40 10 41 12 43
REMARK H PARENT 38 24 32 31 30 33 18 35 10 42 12 44
REMARK Flexibility Score: inf
ROOT
ATOM      1  C   UNL     1     127.319   7.609 140.250  1.00  0.00     0.045 C 
ATOM      2  C   UNL     1     128.212   6.824 139.319  1.00  0.00    -0.039 A 
ATOM      3  C   UNL     1     129.411   6.296 139.802  1.00  0.00     0.013 A 
ATOM      4  C   UNL     1     130.276   5.540 138.979  1.00  0.00    -0.006 A 
ATOM      5  C   UNL     1     129.975   5.432 137.590  1.00  0.00     0.039 A 
ATOM      6  C   UNL     1     130.950   4.872 136.715  1.00  0.00     0.072 A 
ATOM      7  C   UNL     1     132.166   4.386 137.231  1.00  0.00     0.169 A 
ATOM      8  C   UNL     1     132.429   4.443 138.613  1.00  0.00     0.162 A 
ATOM      9  C   UNL     1     131.448   4.920 139.510  1.00  0.00     0.008 A 
ATOM     10  C   UNL     1     128.695   5.864 137.130  1.00  0.00     0.132 A 
ATOM     11  C   UNL     1     127.831   6.574 137.990  1.00  0.00     0.031 A 
ENDROOT
BRANCH  11  12
ATOM     12  C   UNL     1     126.521   7.069 137.493  1.00  0.00     0.031 A 
ATOM     13  C   UNL     1     126.417   8.356 136.921  1.00  0.00     0.132 A 
ATOM     14  C   UNL     1     125.382   6.253 137.599  1.00  0.00    -0.039 A 
ATOM     15  C   UNL     1     125.157   8.841 136.461  1.00  0.00     0.039 A 
ATOM     16  C   UNL     1     124.173   6.687 137.051  1.00  0.00     0.013 A 
ATOM     17  C   UNL     1     125.452   4.904 138.271  1.00  0.00     0.045 C 
ATOM     18  C   UNL     1     124.054   7.939 136.410  1.00  0.00    -0.006 A 
ATOM     19  C   UNL     1     124.967  10.184 136.026  1.00  0.00     0.072 A 
ATOM     20  C   UNL     1     122.847   8.319 135.750  1.00  0.00     0.008 A 
ATOM     21  C   UNL     1     123.727  10.591 135.503  1.00  0.00     0.169 A 
ATOM     22  C   UNL     1     122.661   9.676 135.399  1.00  0.00     0.162 A 
BRANCH  13  23
ATOM     23  O   UNL     1     127.570   9.135 136.775  1.00  0.00    -0.507 OA
ATOM     24  H   UNL     1     127.561  10.139 136.647  1.00  0.00     0.293 HD
ENDBRANCH  13  23
BRANCH  19  25
ATOM     25  C   UNL     1     126.004  11.228 136.218  1.00  0.00     0.264 C 
ATOM     26  O   UNL     1     126.059  11.898 137.282  1.00  0.00    -0.298 OA
ENDBRANCH  19  25
BRANCH  20  27
ATOM     27  C   UNL     1     121.747   7.290 135.431  1.00  0.00     0.017 C 
ATOM     28  C   UNL     1     120.529   7.486 136.338  1.00  0.00     0.012 C 
ATOM     29  C   UNL     1     121.342   7.256 133.945  1.00  0.00     0.012 C 
ENDBRANCH  20  27
BRANCH  21  30
ATOM     30  O   UNL     1     123.580  11.924 135.098  1.00  0.00    -0.504 OA
ATOM     31  H   UNL     1     123.087  12.221 134.269  1.00  0.00     0.293 HD
ENDBRANCH  21  30
BRANCH  22  32
ATOM     32  O   UNL     1     121.393  10.096 134.987  1.00  0.00    -0.504 OA
ATOM     33  H   UNL     1     121.019   9.974 134.057  1.00  0.00     0.293 HD
ENDBRANCH  22  32
ENDBRANCH  11  12
BRANCH  10  34
ATOM     34  O   UNL     1     128.268   5.551 135.835  1.00  0.00    -0.507 OA
ATOM     35  H   UNL     1     128.863   5.602 135.017  1.00  0.00     0.293 HD
ENDBRANCH  10  34
BRANCH   9  36
ATOM     36  C   UNL     1     131.666   4.782 141.028  1.00  0.00     0.017 C 
ATOM     37  C   UNL     1     130.408   4.245 141.718  1.00  0.00     0.012 C 
ATOM     38  C   UNL     1     132.170   6.073 141.702  1.00  0.00     0.012 C 
ENDBRANCH   9  36
BRANCH   6  39
ATOM     39  C   UNL     1     130.792   4.898 135.241  1.00  0.00     0.264 C 
ATOM     40  O   UNL     1     130.513   3.850 134.600  1.00  0.00    -0.298 OA
ENDBRANCH   6  39
BRANCH   8  41
ATOM     41  O   UNL     1     133.677   4.069 139.119  1.00  0.00    -0.504 OA
ATOM     42  H   UNL     1     133.972   3.118 139.283  1.00  0.00     0.293 HD
ENDBRANCH   8  41
BRANCH   7  43
ATOM     43  O   UNL     1     133.101   3.853 136.335  1.00  0.00    -0.504 OA
ATOM     44  H   UNL     1     134.098   3.824 136.494  1.00  0.00     0.293 HD
ENDBRANCH   7  43
TORSDOF 11
ENDMDL
MODEL 5
REMARK VINA RESULT:    -3.826      2.987      4.586
REMARK INTER + INTRA:          -6.978
REMARK INTER:                  -5.666
REMARK INTRA:                  -1.312
REMARK UNBOUND:                -1.363
REMARK SMILES Cc1cc2c(C(C)C)c(O)c(O)c(C=O)c2c(O)c1-c1c(C)cc2c(C(C)C)c(O)c(O)c(C=O)c2c1O
REMARK SMILES IDX 1 1 2 2 3 3 4 4 16 5 13 6 11 7 9 8 5 9 17 10 19 11 20 12
REMARK SMILES IDX 37 13 21 14 36 15 23 16 22 17 24 18 33 19 25 20 31 21 29 22
REMARK SMILES IDX 38 23 34 25 35 26 26 27 27 28 28 29 32 30 30 32 18 34 6 36
REMARK SMILES IDX 7 37 8 38 14 39 15 40 10 41 12 43
REMARK H PARENT 38 24 32 31 30 33 18 35 10 42 12 44
REMARK Flexibility Score: inf
ROOT
ATOM      1  C   UNL     1     127.991   7.564 137.278  1.00  0.00     0.045 C 
ATOM      2  C   UNL     1     126.808   6.764 137.769  1.00  0.00    -0.039 A 
ATOM      3  C   UNL     1     125.620   6.779 137.037  1.00  0.00     0.013 A 
ATOM      4  C   UNL     1     124.488   6.036 137.442  1.00  0.00    -0.006 A 
ATOM      5  C   UNL     1     124.525   5.366 138.699  1.00  0.00     0.039 A 
ATOM      6  C   UNL     1     123.320   4.809 139.219  1.00  0.00     0.072 A 
ATOM      7  C   UNL     1     122.131   4.877 138.471  1.00  0.00     0.169 A 
ATOM      8  C   UNL     1     122.117   5.489 137.202  1.00  0.00     0.162 A 
ATOM      9  C   UNL     1     123.313   5.978 136.632  1.00  0.00     0.008 A 
ATOM     10  C   UNL     1     125.774   5.252 139.378  1.00  0.00     0.132 A 
ATOM     11  C   UNL     1     126.901   5.968 138.922  1.00  0.00     0.031 A 
ENDROOT
BRANCH  11  12
ATOM     12  C   UNL     1     128.187   5.890 139.663  1.00  0.00     0.031 A 
ATOM     13  C   UNL     1     129.091   4.835 139.410  1.00  0.00     0.132 A 
ATOM     14  C   UNL     1     128.501   6.869 140.621  1.00  0.00    -0.039 A 
ATOM     15  C   UNL     1     130.317   4.747 140.133  1.00  0.00     0.039 A 
ATOM     16  C   UNL     1     129.747   6.841 141.249  1.00  0.00     0.013 A 
ATOM     17  C   UNL     1     127.521   7.966 140.961  1.00  0.00     0.045 C 
ATOM     18  C   UNL     1     130.700   5.839 140.967  1.00  0.00    -0.006 A 
ATOM     19  C   UNL     1     131.186   3.622 140.032  1.00  0.00     0.072 A 
ATOM     20  C   UNL     1     132.013   5.889 141.524  1.00  0.00     0.008 A 
ATOM     21  C   UNL     1     132.423   3.620 140.700  1.00  0.00     0.169 A 
ATOM     22  C   UNL     1     132.820   4.730 141.472  1.00  0.00     0.162 A 
BRANCH  13  23
ATOM     23  O   UNL     1     128.788   3.898 138.416  1.00  0.00    -0.507 OA
ATOM     24  H   UNL     1     128.125   3.143 138.534  1.00  0.00     0.293 HD
ENDBRANCH  13  23
BRANCH  19  25
ATOM     25  C   UNL     1     130.780   2.374 139.339  1.00  0.00     0.264 C 
ATOM     26  O   UNL     1     131.260   2.073 138.214  1.00  0.00    -0.298 OA
ENDBRANCH  19  25
BRANCH  20  27
ATOM     27  C   UNL     1     132.555   7.167 142.190  1.00  0.00     0.017 C 
ATOM     28  C   UNL     1     133.026   6.887 143.620  1.00  0.00     0.012 C 
ATOM     29  C   UNL     1     133.646   7.879 141.368  1.00  0.00     0.012 C 
ENDBRANCH  20  27
BRANCH  21  30
ATOM     30  O   UNL     1     133.241   2.488 140.584  1.00  0.00    -0.504 OA
ATOM     31  H   UNL     1     134.103   2.454 140.062  1.00  0.00     0.293 HD
ENDBRANCH  21  30
BRANCH  22  32
ATOM     32  O   UNL     1     133.994   4.692 142.229  1.00  0.00    -0.504 OA
ATOM     33  H   UNL     1     134.732   5.379 142.183  1.00  0.00     0.293 HD
ENDBRANCH  22  32
ENDBRANCH  11  12
BRANCH  10  34
ATOM     34  O   UNL     1     125.903   4.399 140.480  1.00  0.00    -0.507 OA
ATOM     35  H   UNL     1     125.708   4.676 141.434  1.00  0.00     0.293 HD
ENDBRANCH  10  34
BRANCH   9  36
ATOM     36  C   UNL     1     123.323   6.451 135.166  1.00  0.00     0.017 C 
ATOM     37  C   UNL     1     122.567   7.775 135.011  1.00  0.00     0.012 C 
ATOM     38  C   UNL     1     122.814   5.392 134.168  1.00  0.00     0.012 C 
ENDBRANCH   9  36
BRANCH   6  39
ATOM     39  C   UNL     1     123.235   4.267 140.596  1.00  0.00     0.264 C 
ATOM     40  O   UNL     1     123.127   3.028 140.800  1.00  0.00    -0.298 OA
ENDBRANCH   6  39
BRANCH   8  41
ATOM     41  O   UNL     1     120.919   5.663 136.505  1.00  0.00    -0.504 OA
ATOM     42  H   UNL     1     120.647   6.509 136.027  1.00  0.00     0.293 HD
ENDBRANCH   8  41
BRANCH   7  43
ATOM     43  O   UNL     1     120.967   4.327 139.024  1.00  0.00    -0.504 OA
ATOM     44  H   UNL     1     120.043   4.726 138.934  1.00  0.00     0.293 HD
ENDBRANCH   7  43
TORSDOF 11
ENDMDL
MODEL 6
REMARK VINA RESULT:    -3.820      2.102      8.953
REMARK INTER + INTRA:          -6.969
REMARK INTER:                  -5.789
REMARK INTRA:                  -1.180
REMARK UNBOUND:                -1.363
REMARK SMILES Cc1cc2c(C(C)C)c(O)c(O)c(C=O)c2c(O)c1-c1c(C)cc2c(C(C)C)c(O)c(O)c(C=O)c2c1O
REMARK SMILES IDX 1 1 2 2 3 3 4 4 16 5 13 6 11 7 9 8 5 9 17 10 19 11 20 12
REMARK SMILES IDX 37 13 21 14 36 15 23 16 22 17 24 18 33 19 25 20 31 21 29 22
REMARK SMILES IDX 38 23 34 25 35 26 26 27 27 28 28 29 32 30 30 32 18 34 6 36
REMARK SMILES IDX 7 37 8 38 14 39 15 40 10 41 12 43
REMARK H PARENT 38 24 32 31 30 33 18 35 10 42 12 44
REMARK Flexibility Score: inf
ROOT
ATOM      1  C   UNL     1     128.592   5.720 135.139  1.00  0.00     0.045 C 
ATOM      2  C   UNL     1     129.099   5.906 136.549  1.00  0.00    -0.039 A 
ATOM      3  C   UNL     1     130.403   5.522 136.865  1.00  0.00     0.013 A 
ATOM      4  C   UNL     1     130.934   5.689 138.164  1.00  0.00    -0.006 A 
ATOM      5  C   UNL     1     130.067   6.136 139.203  1.00  0.00     0.039 A 
ATOM      6  C   UNL     1     130.527   6.090 140.551  1.00  0.00     0.072 A 
ATOM      7  C   UNL     1     131.835   5.659 140.837  1.00  0.00     0.169 A 
ATOM      8  C   UNL     1     132.705   5.275 139.798  1.00  0.00     0.162 A 
ATOM      9  C   UNL     1     132.301   5.387 138.449  1.00  0.00     0.008 A 
ATOM     10  C   UNL     1     128.781   6.642 138.852  1.00  0.00     0.132 A 
ATOM     11  C   UNL     1     128.296   6.505 137.534  1.00  0.00     0.031 A 
ENDROOT
BRANCH  11  12
ATOM     12  C   UNL     1     126.934   6.984 137.183  1.00  0.00     0.031 A 
ATOM     13  C   UNL     1     126.742   8.302 136.715  1.00  0.00     0.132 A 
ATOM     14  C   UNL     1     125.834   6.122 137.324  1.00  0.00    -0.039 A 
ATOM     15  C   UNL     1     125.434   8.771 136.397  1.00  0.00     0.039 A 
ATOM     16  C   UNL     1     124.570   6.547 136.910  1.00  0.00     0.013 A 
ATOM     17  C   UNL     1     126.002   4.733 137.890  1.00  0.00     0.045 C 
ATOM     18  C   UNL     1     124.358   7.836 136.372  1.00  0.00    -0.006 A 
ATOM     19  C   UNL     1     125.167  10.134 136.075  1.00  0.00     0.072 A 
ATOM     20  C   UNL     1     123.089   8.216 135.842  1.00  0.00     0.008 A 
ATOM     21  C   UNL     1     123.874  10.530 135.687  1.00  0.00     0.169 A 
ATOM     22  C   UNL     1     122.832   9.585 135.606  1.00  0.00     0.162 A 
BRANCH  13  23
ATOM     23  O   UNL     1     127.855   9.132 136.531  1.00  0.00    -0.507 OA
ATOM     24  H   UNL     1     127.930  10.068 136.908  1.00  0.00     0.293 HD
ENDBRANCH  13  23
BRANCH  19  25
ATOM     25  C   UNL     1     126.183  11.199 136.255  1.00  0.00     0.264 C 
ATOM     26  O   UNL     1     126.260  11.845 137.333  1.00  0.00    -0.298 OA
ENDBRANCH  19  25
BRANCH  20  27
ATOM     27  C   UNL     1     121.998   7.171 135.542  1.00  0.00     0.017 C 
ATOM     28  C   UNL     1     120.771   7.384 136.433  1.00  0.00     0.012 C 
ATOM     29  C   UNL     1     121.606   7.094 134.054  1.00  0.00     0.012 C 
ENDBRANCH  20  27
BRANCH  21  30
ATOM     30  O   UNL     1     123.653  11.881 135.391  1.00  0.00    -0.504 OA
ATOM     31  H   UNL     1     123.177  12.531 135.999  1.00  0.00     0.293 HD
ENDBRANCH  21  30
BRANCH  22  32
ATOM     32  O   UNL     1     121.522   9.986 135.330  1.00  0.00    -0.504 OA
ATOM     33  H   UNL     1     120.815  10.167 136.028  1.00  0.00     0.293 HD
ENDBRANCH  22  32
ENDBRANCH  11  12
BRANCH  10  34
ATOM     34  O   UNL     1     128.003   7.314 139.802  1.00  0.00    -0.507 OA
ATOM     35  H   UNL     1     128.365   8.025 140.426  1.00  0.00     0.293 HD
ENDBRANCH  10  34
BRANCH   9  36
ATOM     36  C   UNL     1     133.327   5.165 137.322  1.00  0.00     0.017 C 
ATOM     37  C   UNL     1     133.411   6.391 136.406  1.00  0.00     0.012 C 
ATOM     38  C   UNL     1     133.092   3.874 136.514  1.00  0.00     0.012 C 
ENDBRANCH   9  36
BRANCH   6  39
ATOM     39  C   UNL     1     129.626   6.356 141.698  1.00  0.00     0.264 C 
ATOM     40  O   UNL     1     128.962   5.426 142.230  1.00  0.00    -0.298 OA
ENDBRANCH   6  39
BRANCH   8  41
ATOM     41  O   UNL     1     133.964   4.738 140.080  1.00  0.00    -0.504 OA
ATOM     42  H   UNL     1     134.133   3.956 140.696  1.00  0.00     0.293 HD
ENDBRANCH   8  41
BRANCH   7  43
ATOM     43  O   UNL     1     132.243   5.618 142.177  1.00  0.00    -0.504 OA
ATOM     44  H   UNL     1     132.269   6.416 142.795  1.00  0.00     0.293 HD
ENDBRANCH   7  43
TORSDOF 11
ENDMDL
MODEL 7
REMARK VINA RESULT:    -3.785      1.942      9.009
REMARK INTER + INTRA:          -6.918
REMARK INTER:                  -5.522
REMARK INTRA:                  -1.397
REMARK UNBOUND:                -1.363
REMARK SMILES Cc1cc2c(C(C)C)c(O)c(O)c(C=O)c2c(O)c1-c1c(C)cc2c(C(C)C)c(O)c(O)c(C=O)c2c1O
REMARK SMILES IDX 1 1 2 2 3 3 4 4 16 5 13 6 11 7 9 8 5 9 17 10 19 11 20 12
REMARK SMILES IDX 37 13 21 14 36 15 23 16 22 17 24 18 33 19 25 20 31 21 29 22
REMARK SMILES IDX 38 23 34 25 35 26 26 27 27 28 28 29 32 30 30 32 18 34 6 36
REMARK SMILES IDX 7 37 8 38 14 39 15 40 10 41 12 43
REMARK H PARENT 38 24 32 31 30 33 18 35 10 42 12 44
REMARK Flexibility Score: inf
ROOT
ATOM      1  C   UNL     1     127.710   7.466 139.947  1.00  0.00     0.045 C 
ATOM      2  C   UNL     1     128.334   6.468 139.001  1.00  0.00    -0.039 A 
ATOM      3  C   UNL     1     129.359   5.638 139.458  1.00  0.00     0.013 A 
ATOM      4  C   UNL     1     129.966   4.676 138.621  1.00  0.00    -0.006 A 
ATOM      5  C   UNL     1     129.611   4.650 137.241  1.00  0.00     0.039 A 
ATOM      6  C   UNL     1     130.376   3.846 136.348  1.00  0.00     0.072 A 
ATOM      7  C   UNL     1     131.429   3.051 136.837  1.00  0.00     0.169 A 
ATOM      8  C   UNL     1     131.734   3.038 138.212  1.00  0.00     0.162 A 
ATOM      9  C   UNL     1     130.941   3.764 139.128  1.00  0.00     0.008 A 
ATOM     10  C   UNL     1     128.482   5.409 136.810  1.00  0.00     0.132 A 
ATOM     11  C   UNL     1     127.865   6.328 137.684  1.00  0.00     0.031 A 
ENDROOT
BRANCH  11  12
ATOM     12  C   UNL     1     126.724   7.157 137.216  1.00  0.00     0.031 A 
ATOM     13  C   UNL     1     125.398   6.697 137.375  1.00  0.00     0.132 A 
ATOM     14  C   UNL     1     126.968   8.400 136.610  1.00  0.00    -0.039 A 
ATOM     15  C   UNL     1     124.302   7.481 136.909  1.00  0.00     0.039 A 
ATOM     16  C   UNL     1     125.891   9.213 136.252  1.00  0.00     0.013 A 
ATOM     17  C   UNL     1     128.376   8.882 136.363  1.00  0.00     0.045 C 
ATOM     18  C   UNL     1     124.553   8.811 136.461  1.00  0.00    -0.006 A 
ATOM     19  C   UNL     1     122.963   6.994 136.899  1.00  0.00     0.072 A 
ATOM     20  C   UNL     1     123.466   9.699 136.203  1.00  0.00     0.008 A 
ATOM     21  C   UNL     1     121.906   7.836 136.508  1.00  0.00     0.169 A 
ATOM     22  C   UNL     1     122.158   9.169 136.127  1.00  0.00     0.162 A 
BRANCH  13  23
ATOM     23  O   UNL     1     125.170   5.481 138.029  1.00  0.00    -0.507 OA
ATOM     24  H   UNL     1     125.866   4.753 138.128  1.00  0.00     0.293 HD
ENDBRANCH  13  23
BRANCH  19  25
ATOM     25  C   UNL     1     122.640   5.572 137.170  1.00  0.00     0.264 C 
ATOM     26  O   UNL     1     122.144   5.219 138.273  1.00  0.00    -0.298 OA
ENDBRANCH  19  25
BRANCH  20  27
ATOM     27  C   UNL     1     123.693  11.207 135.993  1.00  0.00     0.017 C 
ATOM     28  C   UNL     1     124.504  11.808 137.144  1.00  0.00     0.012 C 
ATOM     29  C   UNL     1     124.314  11.556 134.627  1.00  0.00     0.012 C 
ENDBRANCH  20  27
BRANCH  21  30
ATOM     30  O   UNL     1     120.606   7.314 136.501  1.00  0.00    -0.504 OA
ATOM     31  H   UNL     1     120.004   7.284 135.693  1.00  0.00     0.293 HD
ENDBRANCH  21  30
BRANCH  22  32
ATOM     32  O   UNL     1     121.132   9.978 135.630  1.00  0.00    -0.504 OA
ATOM     33  H   UNL     1     121.213  10.582 134.826  1.00  0.00     0.293 HD
ENDBRANCH  22  32
ENDBRANCH  11  12
BRANCH  10  34
ATOM     34  O   UNL     1     127.953   5.221 135.528  1.00  0.00    -0.507 OA
ATOM     35  H   UNL     1     128.476   4.831 134.753  1.00  0.00     0.293 HD
ENDBRANCH  10  34
BRANCH   9  36
ATOM     36  C   UNL     1     131.155   3.575 140.642  1.00  0.00     0.017 C 
ATOM     37  C   UNL     1     129.843   3.198 141.339  1.00  0.00     0.012 C 
ATOM     38  C   UNL     1     131.831   4.778 141.328  1.00  0.00     0.012 C 
ENDBRANCH   9  36
BRANCH   6  39
ATOM     39  C   UNL     1     130.191   3.911 134.878  1.00  0.00     0.264 C 
ATOM     40  O   UNL     1     129.619   2.978 134.254  1.00  0.00    -0.298 OA
ENDBRANCH   6  39
BRANCH   8  41
ATOM     41  O   UNL     1     132.848   2.343 138.690  1.00  0.00    -0.504 OA
ATOM     42  H   UNL     1     133.308   1.586 138.205  1.00  0.00     0.293 HD
ENDBRANCH   8  41
BRANCH   7  43
ATOM     43  O   UNL     1     132.162   2.284 135.923  1.00  0.00    -0.504 OA
ATOM     44  H   UNL     1     131.969   1.319 135.696  1.00  0.00     0.293 HD
ENDBRANCH   7  43
TORSDOF 11
ENDMDL
MODEL 8
REMARK VINA RESULT:    -3.782      1.867      2.150
REMARK INTER + INTRA:          -6.914
REMARK INTER:                  -5.693
REMARK INTRA:                  -1.221
REMARK UNBOUND:                -1.363
REMARK SMILES Cc1cc2c(C(C)C)c(O)c(O)c(C=O)c2c(O)c1-c1c(C)cc2c(C(C)C)c(O)c(O)c(C=O)c2c1O
REMARK SMILES IDX 1 1 2 2 3 3 4 4 16 5 13 6 11 7 9 8 5 9 17 10 19 11 20 12
REMARK SMILES IDX 37 13 21 14 36 15 23 16 22 17 24 18 33 19 25 20 31 21 29 22
REMARK SMILES IDX 38 23 34 25 35 26 26 27 27 28 28 29 32 30 30 32 18 34 6 36
REMARK SMILES IDX 7 37 8 38 14 39 15 40 10 41 12 43
REMARK H PARENT 38 24 32 31 30 33 18 35 10 42 12 44
REMARK Flexibility Score: inf
ROOT
ATOM      1  C   UNL     1     125.434   5.234 138.117  1.00  0.00     0.045 C 
ATOM      2  C   UNL     1     125.427   6.603 137.481  1.00  0.00    -0.039 A 
ATOM      3  C   UNL     1     124.229   7.124 136.989  1.00  0.00     0.013 A 
ATOM      4  C   UNL     1     124.162   8.406 136.398  1.00  0.00    -0.006 A 
ATOM      5  C   UNL     1     125.375   9.123 136.184  1.00  0.00     0.039 A 
ATOM      6  C   UNL     1     125.345  10.305 135.389  1.00  0.00     0.072 A 
ATOM      7  C   UNL     1     124.125  10.780 134.875  1.00  0.00     0.169 A 
ATOM      8  C   UNL     1     122.922  10.098 135.143  1.00  0.00     0.162 A 
ATOM      9  C   UNL     1     122.914   8.969 135.992  1.00  0.00     0.008 A 
ATOM     10  C   UNL     1     126.571   8.645 136.797  1.00  0.00     0.132 A 
ATOM     11  C   UNL     1     126.596   7.380 137.422  1.00  0.00     0.031 A 
ENDROOT
BRANCH  11  12
ATOM     12  C   UNL     1     127.857   6.861 138.013  1.00  0.00     0.031 A 
ATOM     13  C   UNL     1     128.748   6.097 137.228  1.00  0.00     0.132 A 
ATOM     14  C   UNL     1     128.159   7.131 139.358  1.00  0.00    -0.039 A 
ATOM     15  C   UNL     1     129.949   5.581 137.798  1.00  0.00     0.039 A 
ATOM     16  C   UNL     1     129.385   6.717 139.883  1.00  0.00     0.013 A 
ATOM     17  C   UNL     1     127.190   7.884 140.237  1.00  0.00     0.045 C 
ATOM     18  C   UNL     1     130.327   6.011 139.104  1.00  0.00    -0.006 A 
ATOM     19  C   UNL     1     130.799   4.675 137.100  1.00  0.00     0.072 A 
ATOM     20  C   UNL     1     131.623   5.699 139.615  1.00  0.00     0.008 A 
ATOM     21  C   UNL     1     132.015   4.260 137.673  1.00  0.00     0.169 A 
ATOM     22  C   UNL     1     132.409   4.740 138.938  1.00  0.00     0.162 A 
BRANCH  13  23
ATOM     23  O   UNL     1     128.458   5.882 135.876  1.00  0.00    -0.507 OA
ATOM     24  H   UNL     1     127.635   6.244 135.411  1.00  0.00     0.293 HD
ENDBRANCH  13  23
BRANCH  19  25
ATOM     25  C   UNL     1     130.392   4.038 135.824  1.00  0.00     0.264 C 
ATOM     26  O   UNL     1     130.883   4.414 134.727  1.00  0.00    -0.298 OA
ENDBRANCH  19  25
BRANCH  20  27
ATOM     27  C   UNL     1     132.168   6.373 140.888  1.00  0.00     0.017 C 
ATOM     28  C   UNL     1     132.522   7.839 140.627  1.00  0.00     0.012 C 
ATOM     29  C   UNL     1     131.241   6.228 142.111  1.00  0.00     0.012 C 
ENDBRANCH  20  27
BRANCH  21  30
ATOM     30  O   UNL     1     132.814   3.359 136.958  1.00  0.00    -0.504 OA
ATOM     31  H   UNL     1     133.799   3.482 136.778  1.00  0.00     0.293 HD
ENDBRANCH  21  30
BRANCH  22  32
ATOM     32  O   UNL     1     133.558   4.249 139.564  1.00  0.00    -0.504 OA
ATOM     33  H   UNL     1     133.567   3.734 140.432  1.00  0.00     0.293 HD
ENDBRANCH  22  32
ENDBRANCH  11  12
BRANCH  10  34
ATOM     34  O   UNL     1     127.721   9.443 136.818  1.00  0.00    -0.507 OA
ATOM     35  H   UNL     1     127.709  10.447 136.949  1.00  0.00     0.293 HD
ENDBRANCH  10  34
BRANCH   9  36
ATOM     36  C   UNL     1     121.573   8.361 136.443  1.00  0.00     0.017 C 
ATOM     37  C   UNL     1     120.962   7.494 135.337  1.00  0.00     0.012 C 
ATOM     38  C   UNL     1     120.563   9.403 136.963  1.00  0.00     0.012 C 
ENDBRANCH   9  36
BRANCH   6  39
ATOM     39  C   UNL     1     126.585  10.998 134.964  1.00  0.00     0.264 C 
ATOM     40  O   UNL     1     127.150  10.706 133.875  1.00  0.00    -0.298 OA
ENDBRANCH   6  39
BRANCH   8  41
ATOM     41  O   UNL     1     121.724  10.496 134.542  1.00  0.00    -0.504 OA
ATOM     42  H   UNL     1     120.808  10.169 134.810  1.00  0.00     0.293 HD
ENDBRANCH   8  41
BRANCH   7  43
ATOM     43  O   UNL     1     124.141  11.940 134.090  1.00  0.00    -0.504 OA
ATOM     44  H   UNL     1     124.737  12.083 133.287  1.00  0.00     0.293 HD
ENDBRANCH   7  43
TORSDOF 11
ENDMDL
MODEL 9
REMARK VINA RESULT:    -3.619      2.735      4.008
REMARK INTER + INTRA:          -6.675
REMARK INTER:                  -5.502
REMARK INTRA:                  -1.173
REMARK UNBOUND:                -1.363
REMARK SMILES Cc1cc2c(C(C)C)c(O)c(O)c(C=O)c2c(O)c1-c1c(C)cc2c(C(C)C)c(O)c(O)c(C=O)c2c1O
REMARK SMILES IDX 1 1 2 2 3 3 4 4 16 5 13 6 11 7 9 8 5 9 17 10 19 11 20 12
REMARK SMILES IDX 37 13 21 14 36 15 23 16 22 17 24 18 33 19 25 20 31 21 29 22
REMARK SMILES IDX 38 23 34 25 35 26 26 27 27 28 28 29 32 30 30 32 18 34 6 36
REMARK SMILES IDX 7 37 8 38 14 39 15 40 10 41 12 43
REMARK H PARENT 38 24 32 31 30 33 18 35 10 42 12 44
REMARK Flexibility Score: inf
ROOT
ATOM      1  C   UNL     1     126.804   4.252 137.132  1.00  0.00     0.045 C 
ATOM      2  C   UNL     1     126.005   5.532 137.083  1.00  0.00    -0.039 A 
ATOM      3  C   UNL     1     124.638   5.477 136.809  1.00  0.00     0.013 A 
ATOM      4  C   UNL     1     123.840   6.643 136.767  1.00  0.00    -0.006 A 
ATOM      5  C   UNL     1     124.480   7.912 136.875  1.00  0.00     0.039 A 
ATOM      6  C   UNL     1     123.723   9.090 136.607  1.00  0.00     0.072 A 
ATOM      7  C   UNL     1     122.355   8.995 136.294  1.00  0.00     0.169 A 
ATOM      8  C   UNL     1     121.717   7.740 136.248  1.00  0.00     0.162 A 
ATOM      9  C   UNL     1     122.425   6.565 136.587  1.00  0.00     0.008 A 
ATOM     10  C   UNL     1     125.848   7.958 137.276  1.00  0.00     0.132 A 
ATOM     11  C   UNL     1     126.607   6.772 137.357  1.00  0.00     0.031 A 
ENDROOT
BRANCH  11  12
ATOM     12  C   UNL     1     128.046   6.827 137.723  1.00  0.00     0.031 A 
ATOM     13  C   UNL     1     128.456   6.542 139.044  1.00  0.00     0.132 A 
ATOM     14  C   UNL     1     129.000   7.170 136.751  1.00  0.00    -0.039 A 
ATOM     15  C   UNL     1     129.834   6.614 139.403  1.00  0.00     0.039 A 
ATOM     16  C   UNL     1     130.357   7.135 137.077  1.00  0.00     0.013 A 
ATOM     17  C   UNL     1     128.583   7.550 135.351  1.00  0.00     0.045 C 
ATOM     18  C   UNL     1     130.802   6.785 138.370  1.00  0.00    -0.006 A 
ATOM     19  C   UNL     1     130.281   6.493 140.751  1.00  0.00     0.072 A 
ATOM     20  C   UNL     1     132.192   6.636 138.659  1.00  0.00     0.008 A 
ATOM     21  C   UNL     1     131.657   6.487 141.043  1.00  0.00     0.169 A 
ATOM     22  C   UNL     1     132.607   6.594 140.009  1.00  0.00     0.162 A 
BRANCH  13  23
ATOM     23  O   UNL     1     127.499   6.151 139.987  1.00  0.00    -0.507 OA
ATOM     24  H   UNL     1     127.715   5.924 140.950  1.00  0.00     0.293 HD
ENDBRANCH  13  23
BRANCH  19  25
ATOM     25  C   UNL     1     129.338   6.498 141.896  1.00  0.00     0.264 C 
ATOM     26  O   UNL     1     128.942   5.420 142.413  1.00  0.00    -0.298 OA
ENDBRANCH  19  25
BRANCH  20  27
ATOM     27  C   UNL     1     133.239   6.536 137.534  1.00  0.00     0.017 C 
ATOM     28  C   UNL     1     134.085   7.811 137.454  1.00  0.00     0.012 C 
ATOM     29  C   UNL     1     134.125   5.279 137.621  1.00  0.00     0.012 C 
ENDBRANCH  20  27
BRANCH  21  30
ATOM     30  O   UNL     1     132.052   6.378 142.383  1.00  0.00    -0.504 OA
ATOM     31  H   UNL     1     131.422   6.230 143.157  1.00  0.00     0.293 HD
ENDBRANCH  21  30
BRANCH  22  32
ATOM     32  O   UNL     1     133.970   6.702 140.298  1.00  0.00    -0.504 OA
ATOM     33  H   UNL     1     134.440   6.222 141.051  1.00  0.00     0.293 HD
ENDBRANCH  22  32
ENDBRANCH  11  12
BRANCH  10  34
ATOM     34  O   UNL     1     126.438   9.176 137.632  1.00  0.00    -0.507 OA
ATOM     35  H   UNL     1     126.229  10.058 137.181  1.00  0.00     0.293 HD
ENDBRANCH  10  34
BRANCH   9  36
ATOM     36  C   UNL     1     121.668   5.232 136.736  1.00  0.00     0.017 C 
ATOM     37  C   UNL     1     121.846   4.654 138.144  1.00  0.00     0.012 C 
ATOM     38  C   UNL     1     122.020   4.194 135.653  1.00  0.00     0.012 C 
ENDBRANCH   9  36
BRANCH   6  39
ATOM     39  C   UNL     1     124.357  10.427 136.512  1.00  0.00     0.264 C 
ATOM     40  O   UNL     1     124.060  11.344 137.324  1.00  0.00    -0.298 OA
ENDBRANCH   6  39
BRANCH   8  41
ATOM     41  O   UNL     1     120.389   7.627 135.827  1.00  0.00    -0.504 OA
ATOM     42  H   UNL     1     119.977   6.793 135.436  1.00  0.00     0.293 HD
ENDBRANCH   8  41
BRANCH   7  43
ATOM     43  O   UNL     1     121.651  10.176 136.027  1.00  0.00    -0.504 OA
ATOM     44  H   UNL     1     121.202  10.749 136.727  1.00  0.00     0.293 HD
ENDBRANCH   7  43
TORSDOF 11
ENDMDL
