MODEL 1
REMARK VINA RESULT:    -6.480      0.000      0.000
REMARK INTER + INTRA:          -7.371
REMARK INTER:                  -7.048
REMARK INTRA:                  -0.323
REMARK UNBOUND:                -0.323
REMARK SMILES C=C1C[C@@]2(O)O[C@@]3(C[C@@H]2C(C)C)[C@@H](C)CC[C@@H]13
REMARK SMILES IDX 14 1 13 2 15 3 16 4 17 5 7 6 8 7 9 8 4 9 6 10 3 11 2 12 1 13
REMARK SMILES IDX 10 14 11 15 12 16 5 17
REMARK H PARENT 5 18
REMARK Flexibility Score: inf
ROOT
ATOM      1  C   UNL     1      13.506  68.535  91.907  1.00  0.00     0.011 C 
ATOM      2  C   UNL     1      12.646  67.350  92.370  1.00  0.00     0.019 C 
ATOM      3  C   UNL     1      12.765  66.138  91.434  1.00  0.00     0.007 C 
ATOM      4  C   UNL     1      12.792  64.888  92.319  1.00  0.00     0.011 C 
ATOM      5  C   UNL     1      12.516  65.365  93.744  1.00  0.00     0.047 C 
ATOM      6  C   UNL     1      13.010  66.822  93.765  1.00  0.00     0.081 C 
ATOM      7  C   UNL     1      12.397  67.617  94.925  1.00  0.00     0.046 C 
ATOM      8  C   UNL     1      13.438  67.462  96.032  1.00  0.00     0.054 C 
ATOM      9  C   UNL     1      14.546  66.607  95.352  1.00  0.00     0.173 C 
ATOM     10  O   UNL     1      14.407  66.827  93.967  1.00  0.00    -0.342 OA
ATOM     11  C   UNL     1      14.351  65.088  95.621  1.00  0.00     0.096 C 
ATOM     12  C   UNL     1      13.212  64.516  94.799  1.00  0.00    -0.066 C 
ATOM     13  C   UNL     1      12.823  63.249  95.001  1.00  0.00     0.008 C 
ENDROOT
BRANCH   8  14
ATOM     14  C   UNL     1      13.929  68.819  96.635  1.00  0.00    -0.009 C 
ATOM     15  C   UNL     1      13.237  69.111  97.975  1.00  0.00     0.008 C 
ATOM     16  C   UNL     1      13.785  70.029  95.689  1.00  0.00     0.008 C 
ENDBRANCH   8  14
BRANCH   9  17
ATOM     17  O   UNL     1      15.829  66.990  95.784  1.00  0.00    -0.365 OA
ATOM     18  H   UNL     1      15.785  67.950  96.032  1.00  0.00     0.214 HD
ENDBRANCH   9  17
TORSDOF 2
ENDMDL
MODEL 2
REMARK VINA RESULT:    -6.354      1.829      4.562
REMARK INTER + INTRA:          -7.234
REMARK INTER:                  -7.038
REMARK INTRA:                  -0.196
REMARK UNBOUND:                -0.323
REMARK SMILES C=C1C[C@@]2(O)O[C@@]3(C[C@@H]2C(C)C)[C@@H](C)CC[C@@H]13
REMARK SMILES IDX 14 1 13 2 15 3 16 4 17 5 7 6 8 7 9 8 4 9 6 10 3 11 2 12 1 13
REMARK SMILES IDX 10 14 11 15 12 16 5 17
REMARK H PARENT 5 18
REMARK Flexibility Score: inf
ROOT
ATOM      1  C   UNL     1      12.268  68.873  96.067  1.00  0.00     0.011 C 
ATOM      2  C   UNL     1      13.636  69.190  95.446  1.00  0.00     0.019 C 
ATOM      3  C   UNL     1      14.559  69.944  96.415  1.00  0.00     0.007 C 
ATOM      4  C   UNL     1      15.969  69.378  96.224  1.00  0.00     0.011 C 
ATOM      5  C   UNL     1      15.892  68.424  95.033  1.00  0.00     0.047 C 
ATOM      6  C   UNL     1      14.430  67.948  95.015  1.00  0.00     0.081 C 
ATOM      7  C   UNL     1      14.028  67.382  93.647  1.00  0.00     0.046 C 
ATOM      8  C   UNL     1      14.301  65.886  93.804  1.00  0.00     0.054 C 
ATOM      9  C   UNL     1      14.807  65.776  95.271  1.00  0.00     0.173 C 
ATOM     10  O   UNL     1      14.281  66.896  95.945  1.00  0.00    -0.342 OA
ATOM     11  C   UNL     1      16.357  65.847  95.355  1.00  0.00     0.096 C 
ATOM     12  C   UNL     1      16.866  67.259  95.141  1.00  0.00    -0.066 C 
ATOM     13  C   UNL     1      18.186  67.480  95.054  1.00  0.00     0.008 C 
ENDROOT
BRANCH   8  14
ATOM     14  C   UNL     1      13.075  64.979  93.459  1.00  0.00    -0.009 C 
ATOM     15  C   UNL     1      12.901  64.840  91.939  1.00  0.00     0.008 C 
ATOM     16  C   UNL     1      11.747  65.424  94.105  1.00  0.00     0.008 C 
ENDBRANCH   8  14
BRANCH   9  17
ATOM     17  O   UNL     1      14.367  64.586  95.879  1.00  0.00    -0.365 OA
ATOM     18  H   UNL     1      15.001  64.375  96.613  1.00  0.00     0.214 HD
ENDBRANCH   9  17
TORSDOF 2
ENDMDL
MODEL 3
REMARK VINA RESULT:    -6.254      1.951      3.721
REMARK INTER + INTRA:          -7.126
REMARK INTER:                  -6.818
REMARK INTRA:                  -0.307
REMARK UNBOUND:                -0.323
REMARK SMILES C=C1C[C@@]2(O)O[C@@]3(C[C@@H]2C(C)C)[C@@H](C)CC[C@@H]13
REMARK SMILES IDX 14 1 13 2 15 3 16 4 17 5 7 6 8 7 9 8 4 9 6 10 3 11 2 12 1 13
REMARK SMILES IDX 10 14 11 15 12 16 5 17
REMARK H PARENT 5 18
REMARK Flexibility Score: inf
ROOT
ATOM      1  C   UNL     1      14.611  69.337  94.689  1.00  0.00     0.011 C 
ATOM      2  C   UNL     1      14.820  67.879  94.252  1.00  0.00     0.019 C 
ATOM      3  C   UNL     1      15.657  67.079  95.260  1.00  0.00     0.007 C 
ATOM      4  C   UNL     1      15.036  65.682  95.350  1.00  0.00     0.011 C 
ATOM      5  C   UNL     1      13.954  65.622  94.274  1.00  0.00     0.047 C 
ATOM      6  C   UNL     1      13.516  67.085  94.086  1.00  0.00     0.081 C 
ATOM      7  C   UNL     1      12.806  67.302  92.744  1.00  0.00     0.046 C 
ATOM      8  C   UNL     1      11.332  67.119  93.105  1.00  0.00     0.054 C 
ATOM      9  C   UNL     1      11.380  66.842  94.635  1.00  0.00     0.173 C 
ATOM     10  O   UNL     1      12.583  67.414  95.094  1.00  0.00    -0.342 OA
ATOM     11  C   UNL     1      11.420  65.320  94.946  1.00  0.00     0.096 C 
ATOM     12  C   UNL     1      12.785  64.725  94.656  1.00  0.00    -0.066 C 
ATOM     13  C   UNL     1      12.961  63.399  94.747  1.00  0.00     0.008 C 
ENDROOT
BRANCH   8  14
ATOM     14  C   UNL     1      10.422  68.319  92.680  1.00  0.00    -0.009 C 
ATOM     15  C   UNL     1       9.875  68.120  91.259  1.00  0.00     0.008 C 
ATOM     16  C   UNL     1      11.090  69.704  92.802  1.00  0.00     0.008 C 
ENDBRANCH   8  14
BRANCH   9  17
ATOM     17  O   UNL     1      10.279  67.418  95.297  1.00  0.00    -0.365 OA
ATOM     18  H   UNL     1      10.354  67.181  96.259  1.00  0.00     0.214 HD
ENDBRANCH   9  17
TORSDOF 2
ENDMDL
MODEL 4
REMARK VINA RESULT:    -6.066      1.649      4.414
REMARK INTER + INTRA:          -6.921
REMARK INTER:                  -7.044
REMARK INTRA:                   0.123
REMARK UNBOUND:                -0.323
REMARK SMILES C=C1C[C@@]2(O)O[C@@]3(C[C@@H]2C(C)C)[C@@H](C)CC[C@@H]13
REMARK SMILES IDX 14 1 13 2 15 3 16 4 17 5 7 6 8 7 9 8 4 9 6 10 3 11 2 12 1 13
REMARK SMILES IDX 10 14 11 15 12 16 5 17
REMARK H PARENT 5 18
REMARK Flexibility Score: inf
ROOT
ATOM      1  C   UNL     1      12.995  68.679  96.615  1.00  0.00     0.011 C 
ATOM      2  C   UNL     1      11.677  68.638  95.828  1.00  0.00     0.019 C 
ATOM      3  C   UNL     1      11.308  70.005  95.232  1.00  0.00     0.007 C 
ATOM      4  C   UNL     1      10.733  69.745  93.836  1.00  0.00     0.011 C 
ATOM      5  C   UNL     1      10.612  68.228  93.697  1.00  0.00     0.047 C 
ATOM      6  C   UNL     1      11.691  67.667  94.638  1.00  0.00     0.081 C 
ATOM      7  C   UNL     1      11.423  66.204  95.010  1.00  0.00     0.046 C 
ATOM      8  C   UNL     1      12.225  65.433  93.961  1.00  0.00     0.054 C 
ATOM      9  C   UNL     1      12.883  66.567  93.123  1.00  0.00     0.173 C 
ATOM     10  O   UNL     1      12.936  67.692  93.971  1.00  0.00    -0.342 OA
ATOM     11  C   UNL     1      12.027  66.939  91.880  1.00  0.00     0.096 C 
ATOM     12  C   UNL     1      10.802  67.746  92.265  1.00  0.00    -0.066 C 
ATOM     13  C   UNL     1       9.886  68.043  91.332  1.00  0.00     0.008 C 
ENDROOT
BRANCH   8  14
ATOM     14  C   UNL     1      13.225  64.394  94.566  1.00  0.00    -0.009 C 
ATOM     15  C   UNL     1      12.484  63.330  95.389  1.00  0.00     0.008 C 
ATOM     16  C   UNL     1      14.364  65.013  95.402  1.00  0.00     0.008 C 
ENDBRANCH   8  14
BRANCH   9  17
ATOM     17  O   UNL     1      14.177  66.210  92.701  1.00  0.00    -0.365 OA
ATOM     18  H   UNL     1      14.508  66.937  92.111  1.00  0.00     0.214 HD
ENDBRANCH   9  17
TORSDOF 2
ENDMDL
MODEL 5
REMARK VINA RESULT:    -6.005      2.082      4.258
REMARK INTER + INTRA:          -6.855
REMARK INTER:                  -6.738
REMARK INTRA:                  -0.117
REMARK UNBOUND:                -0.323
REMARK SMILES C=C1C[C@@]2(O)O[C@@]3(C[C@@H]2C(C)C)[C@@H](C)CC[C@@H]13
REMARK SMILES IDX 14 1 13 2 15 3 16 4 17 5 7 6 8 7 9 8 4 9 6 10 3 11 2 12 1 13
REMARK SMILES IDX 10 14 11 15 12 16 5 17
REMARK H PARENT 5 18
REMARK Flexibility Score: inf
ROOT
ATOM      1  C   UNL     1      13.729  65.256  91.480  1.00  0.00     0.011 C 
ATOM      2  C   UNL     1      12.493  65.346  92.388  1.00  0.00     0.019 C 
ATOM      3  C   UNL     1      12.669  64.561  93.696  1.00  0.00     0.007 C 
ATOM      4  C   UNL     1      12.038  65.400  94.811  1.00  0.00     0.011 C 
ATOM      5  C   UNL     1      11.351  66.580  94.125  1.00  0.00     0.047 C 
ATOM      6  C   UNL     1      12.138  66.777  92.819  1.00  0.00     0.081 C 
ATOM      7  C   UNL     1      11.335  67.571  91.781  1.00  0.00     0.046 C 
ATOM      8  C   UNL     1      11.785  69.010  92.031  1.00  0.00     0.054 C 
ATOM      9  C   UNL     1      12.823  68.856  93.179  1.00  0.00     0.173 C 
ATOM     10  O   UNL     1      13.298  67.533  93.094  1.00  0.00    -0.342 OA
ATOM     11  C   UNL     1      12.171  69.047  94.577  1.00  0.00     0.096 C 
ATOM     12  C   UNL     1      11.344  67.841  94.978  1.00  0.00    -0.066 C 
ATOM     13  C   UNL     1      10.608  67.887  96.099  1.00  0.00     0.008 C 
ENDROOT
BRANCH   8  14
ATOM     14  C   UNL     1      12.317  69.739  90.753  1.00  0.00    -0.009 C 
ATOM     15  C   UNL     1      11.166  70.089  89.798  1.00  0.00     0.008 C 
ATOM     16  C   UNL     1      13.422  68.976  89.994  1.00  0.00     0.008 C 
ENDBRANCH   8  14
BRANCH   9  17
ATOM     17  O   UNL     1      13.885  69.769  93.038  1.00  0.00    -0.365 OA
ATOM     18  H   UNL     1      14.421  69.482  92.253  1.00  0.00     0.214 HD
ENDBRANCH   9  17
TORSDOF 2
ENDMDL
MODEL 6
REMARK VINA RESULT:    -5.877      1.810      2.288
REMARK INTER + INTRA:          -6.715
REMARK INTER:                  -6.431
REMARK INTRA:                  -0.284
REMARK UNBOUND:                -0.323
REMARK SMILES C=C1C[C@@]2(O)O[C@@]3(C[C@@H]2C(C)C)[C@@H](C)CC[C@@H]13
REMARK SMILES IDX 14 1 13 2 15 3 16 4 17 5 7 6 8 7 9 8 4 9 6 10 3 11 2 12 1 13
REMARK SMILES IDX 10 14 11 15 12 16 5 17
REMARK H PARENT 5 18
REMARK Flexibility Score: inf
ROOT
ATOM      1  C   UNL     1      11.026  67.306  92.239  1.00  0.00     0.011 C 
ATOM      2  C   UNL     1      12.036  66.222  92.644  1.00  0.00     0.019 C 
ATOM      3  C   UNL     1      12.932  65.789  91.475  1.00  0.00     0.007 C 
ATOM      4  C   UNL     1      14.342  65.590  92.040  1.00  0.00     0.011 C 
ATOM      5  C   UNL     1      14.223  65.740  93.555  1.00  0.00     0.047 C 
ATOM      6  C   UNL     1      13.002  66.654  93.757  1.00  0.00     0.081 C 
ATOM      7  C   UNL     1      12.429  66.539  95.175  1.00  0.00     0.046 C 
ATOM      8  C   UNL     1      13.141  67.666  95.923  1.00  0.00     0.054 C 
ATOM      9  C   UNL     1      14.026  68.311  94.818  1.00  0.00     0.173 C 
ATOM     10  O   UNL     1      13.405  67.997  93.593  1.00  0.00    -0.342 OA
ATOM     11  C   UNL     1      15.460  67.710  94.801  1.00  0.00     0.096 C 
ATOM     12  C   UNL     1      15.477  66.321  94.195  1.00  0.00    -0.066 C 
ATOM     13  C   UNL     1      16.610  65.603  94.217  1.00  0.00     0.008 C 
ENDROOT
BRANCH   8  14
ATOM     14  C   UNL     1      12.173  68.653  96.653  1.00  0.00    -0.009 C 
ATOM     15  C   UNL     1      12.495  68.735  98.153  1.00  0.00     0.008 C 
ATOM     16  C   UNL     1      10.674  68.348  96.450  1.00  0.00     0.008 C 
ENDBRANCH   8  14
BRANCH   9  17
ATOM     17  O   UNL     1      14.114  69.707  94.980  1.00  0.00    -0.365 OA
ATOM     18  H   UNL     1      14.872  70.023  94.422  1.00  0.00     0.214 HD
ENDBRANCH   9  17
TORSDOF 2
ENDMDL
MODEL 7
REMARK VINA RESULT:    -5.695      1.901      3.152
REMARK INTER + INTRA:          -6.517
REMARK INTER:                  -6.260
REMARK INTRA:                  -0.257
REMARK UNBOUND:                -0.323
REMARK SMILES C=C1C[C@@]2(O)O[C@@]3(C[C@@H]2C(C)C)[C@@H](C)CC[C@@H]13
REMARK SMILES IDX 14 1 13 2 15 3 16 4 17 5 7 6 8 7 9 8 4 9 6 10 3 11 2 12 1 13
REMARK SMILES IDX 10 14 11 15 12 16 5 17
REMARK H PARENT 5 18
REMARK Flexibility Score: inf
ROOT
ATOM      1  C   UNL     1      13.980  65.562  91.377  1.00  0.00     0.011 C 
ATOM      2  C   UNL     1      13.258  66.824  91.871  1.00  0.00     0.019 C 
ATOM      3  C   UNL     1      11.750  66.788  91.581  1.00  0.00     0.007 C 
ATOM      4  C   UNL     1      11.044  67.386  92.801  1.00  0.00     0.011 C 
ATOM      5  C   UNL     1      12.145  67.921  93.715  1.00  0.00     0.047 C 
ATOM      6  C   UNL     1      13.374  67.058  93.384  1.00  0.00     0.081 C 
ATOM      7  C   UNL     1      14.681  67.730  93.824  1.00  0.00     0.046 C 
ATOM      8  C   UNL     1      14.905  67.155  95.222  1.00  0.00     0.054 C 
ATOM      9  C   UNL     1      13.697  66.192  95.401  1.00  0.00     0.173 C 
ATOM     10  O   UNL     1      13.285  65.844  94.100  1.00  0.00    -0.342 OA
ATOM     11  C   UNL     1      12.505  66.887  96.116  1.00  0.00     0.096 C 
ATOM     12  C   UNL     1      11.779  67.846  95.192  1.00  0.00    -0.066 C 
ATOM     13  C   UNL     1      10.804  68.625  95.680  1.00  0.00     0.008 C 
ENDROOT
BRANCH   8  14
ATOM     14  C   UNL     1      16.310  66.495  95.417  1.00  0.00    -0.009 C 
ATOM     15  C   UNL     1      17.375  67.551  95.750  1.00  0.00     0.008 C 
ATOM     16  C   UNL     1      16.779  65.625  94.233  1.00  0.00     0.008 C 
ENDBRANCH   8  14
BRANCH   9  17
ATOM     17  O   UNL     1      14.060  65.041  96.125  1.00  0.00    -0.365 OA
ATOM     18  H   UNL     1      14.908  64.701  95.737  1.00  0.00     0.214 HD
ENDBRANCH   9  17
TORSDOF 2
ENDMDL
MODEL 8
REMARK VINA RESULT:    -5.608      1.556      3.593
REMARK INTER + INTRA:          -6.422
REMARK INTER:                  -6.113
REMARK INTRA:                  -0.310
REMARK UNBOUND:                -0.323
REMARK SMILES C=C1C[C@@]2(O)O[C@@]3(C[C@@H]2C(C)C)[C@@H](C)CC[C@@H]13
REMARK SMILES IDX 14 1 13 2 15 3 16 4 17 5 7 6 8 7 9 8 4 9 6 10 3 11 2 12 1 13
REMARK SMILES IDX 10 14 11 15 12 16 5 17
REMARK H PARENT 5 18
REMARK Flexibility Score: inf
ROOT
ATOM      1  C   UNL     1      12.658  64.953  94.870  1.00  0.00     0.011 C 
ATOM      2  C   UNL     1      13.447  65.353  93.615  1.00  0.00     0.019 C 
ATOM      3  C   UNL     1      12.793  64.841  92.323  1.00  0.00     0.007 C 
ATOM      4  C   UNL     1      12.934  65.952  91.278  1.00  0.00     0.011 C 
ATOM      5  C   UNL     1      13.815  67.028  91.911  1.00  0.00     0.047 C 
ATOM      6  C   UNL     1      13.588  66.870  93.424  1.00  0.00     0.081 C 
ATOM      7  C   UNL     1      14.717  67.511  94.242  1.00  0.00     0.046 C 
ATOM      8  C   UNL     1      14.184  68.917  94.514  1.00  0.00     0.054 C 
ATOM      9  C   UNL     1      12.787  68.899  93.832  1.00  0.00     0.173 C 
ATOM     10  O   UNL     1      12.400  67.545  93.781  1.00  0.00    -0.342 OA
ATOM     11  C   UNL     1      12.847  69.439  92.376  1.00  0.00     0.096 C 
ATOM     12  C   UNL     1      13.474  68.432  91.430  1.00  0.00    -0.066 C 
ATOM     13  C   UNL     1      13.721  68.783  90.160  1.00  0.00     0.008 C 
ENDROOT
BRANCH   8  14
ATOM     14  C   UNL     1      14.174  69.308  96.029  1.00  0.00    -0.009 C 
ATOM     15  C   UNL     1      15.497  69.977  96.435  1.00  0.00     0.008 C 
ATOM     16  C   UNL     1      13.852  68.145  96.989  1.00  0.00     0.008 C 
ENDBRANCH   8  14
BRANCH   9  17
ATOM     17  O   UNL     1      11.848  69.650  94.563  1.00  0.00    -0.365 OA
ATOM     18  H   UNL     1      11.352  70.217  93.915  1.00  0.00     0.214 HD
ENDBRANCH   9  17
TORSDOF 2
ENDMDL
MODEL 9
REMARK VINA RESULT:    -5.465      1.856      3.912
REMARK INTER + INTRA:          -6.267
REMARK INTER:                  -6.025
REMARK INTRA:                  -0.241
REMARK UNBOUND:                -0.323
REMARK SMILES C=C1C[C@@]2(O)O[C@@]3(C[C@@H]2C(C)C)[C@@H](C)CC[C@@H]13
REMARK SMILES IDX 14 1 13 2 15 3 16 4 17 5 7 6 8 7 9 8 4 9 6 10 3 11 2 12 1 13
REMARK SMILES IDX 10 14 11 15 12 16 5 17
REMARK H PARENT 5 18
REMARK Flexibility Score: inf
ROOT
ATOM      1  C   UNL     1      12.859  64.211  95.373  1.00  0.00     0.011 C 
ATOM      2  C   UNL     1      12.461  65.290  94.355  1.00  0.00     0.019 C 
ATOM      3  C   UNL     1      10.983  65.690  94.472  1.00  0.00     0.007 C 
ATOM      4  C   UNL     1      10.912  67.207  94.272  1.00  0.00     0.011 C 
ATOM      5  C   UNL     1      12.317  67.654  93.871  1.00  0.00     0.047 C 
ATOM      6  C   UNL     1      13.248  66.601  94.494  1.00  0.00     0.081 C 
ATOM      7  C   UNL     1      14.628  66.588  93.822  1.00  0.00     0.046 C 
ATOM      8  C   UNL     1      15.444  67.535  94.701  1.00  0.00     0.054 C 
ATOM      9  C   UNL     1      14.424  67.958  95.797  1.00  0.00     0.173 C 
ATOM     10  O   UNL     1      13.465  66.928  95.850  1.00  0.00    -0.342 OA
ATOM     11  C   UNL     1      13.694  69.280  95.428  1.00  0.00     0.096 C 
ATOM     12  C   UNL     1      12.651  69.060  94.349  1.00  0.00    -0.066 C 
ATOM     13  C   UNL     1      12.015  70.116  93.820  1.00  0.00     0.008 C 
ENDROOT
BRANCH   8  14
ATOM     14  C   UNL     1      16.772  66.911  95.241  1.00  0.00    -0.009 C 
ATOM     15  C   UNL     1      17.945  67.891  95.089  1.00  0.00     0.008 C 
ATOM     16  C   UNL     1      17.138  65.547  94.620  1.00  0.00     0.008 C 
ENDBRANCH   8  14
BRANCH   9  17
ATOM     17  O   UNL     1      15.049  68.112  97.049  1.00  0.00    -0.365 OA
ATOM     18  H   UNL     1      14.945  67.255  97.540  1.00  0.00     0.214 HD
ENDBRANCH   9  17
TORSDOF 2
ENDMDL
