MODEL 1
REMARK VINA RESULT:    12.229      0.000      0.000
REMARK INTER + INTRA:          15.243
REMARK INTER:                  14.732
REMARK INTRA:                   0.511
REMARK UNBOUND:                 0.511
REMARK SMILES O=c1c(O)c(-c2ccc(O)c(O)c2)oc2cc(O)cc(O)c12
REMARK SMILES IDX 5 1 3 2 2 3 1 4 22 5 20 6 19 7 17 8 16 9 15 10 14 11 6 12
REMARK SMILES IDX 7 13 8 14 9 15 13 16 11 17 10 18 12 20 4 22 21 24 18 26
REMARK H PARENT 10 19 12 21 4 23 21 25 18 27
REMARK Flexibility Score: inf
ROOT
ATOM      1  C   UNL     1      -6.085 -17.781  -5.405  1.00  0.00     0.180 A 
ATOM      2  C   UNL     1      -6.285 -16.409  -5.167  1.00  0.00     0.208 A 
ATOM      3  C   UNL     1      -6.317 -15.527  -6.259  1.00  0.00     0.238 A 
ATOM      4  O   UNL     1      -6.551 -14.309  -6.045  1.00  0.00    -0.285 OA
ATOM      5  C   UNL     1      -6.133 -16.024  -7.572  1.00  0.00     0.111 A 
ATOM      6  C   UNL     1      -6.105 -15.216  -8.748  1.00  0.00     0.134 A 
ATOM      7  C   UNL     1      -6.048 -15.828 -10.006  1.00  0.00     0.093 A 
ATOM      8  C   UNL     1      -5.948 -17.217 -10.127  1.00  0.00     0.123 A 
ATOM      9  C   UNL     1      -5.914 -18.010  -8.983  1.00  0.00     0.094 A 
ATOM     10  C   UNL     1      -6.007 -17.430  -7.715  1.00  0.00     0.146 A 
ATOM     11  O   UNL     1      -5.982 -18.224  -6.651  1.00  0.00    -0.452 OA
ENDROOT
BRANCH   1  12
ATOM     12  C   UNL     1      -6.015 -18.768  -4.303  1.00  0.00     0.025 A 
ATOM     13  C   UNL     1      -5.921 -18.317  -2.977  1.00  0.00     0.016 A 
ATOM     14  C   UNL     1      -5.875 -19.229  -1.920  1.00  0.00     0.051 A 
ATOM     15  C   UNL     1      -5.938 -20.604  -2.169  1.00  0.00     0.157 A 
ATOM     16  C   UNL     1      -6.099 -20.150  -4.550  1.00  0.00     0.062 A 
ATOM     17  C   UNL     1      -6.055 -21.068  -3.489  1.00  0.00     0.158 A 
BRANCH  15  18
ATOM     18  O   UNL     1      -5.887 -21.490  -1.094  1.00  0.00    -0.504 OA
ATOM     19  H   UNL     1      -5.026 -21.681  -0.595  1.00  0.00     0.293 HD
ENDBRANCH  15  18
BRANCH  17  20
ATOM     20  O   UNL     1      -6.132 -22.436  -3.745  1.00  0.00    -0.504 OA
ATOM     21  H   UNL     1      -5.878 -22.824  -4.646  1.00  0.00     0.293 HD
ENDBRANCH  17  20
ENDBRANCH   1  12
BRANCH   2  22
ATOM     22  O   UNL     1      -6.487 -15.944  -3.865  1.00  0.00    -0.502 OA
ATOM     23  H   UNL     1      -5.771 -15.447  -3.348  1.00  0.00     0.293 HD
ENDBRANCH   2  22
BRANCH   6  24
ATOM     24  O   UNL     1      -6.106 -13.818  -8.733  1.00  0.00    -0.507 OA
ATOM     25  H   UNL     1      -6.912 -13.245  -8.535  1.00  0.00     0.293 HD
ENDBRANCH   6  24
BRANCH   8  26
ATOM     26  O   UNL     1      -5.875 -17.816 -11.382  1.00  0.00    -0.508 OA
ATOM     27  H   UNL     1      -5.620 -17.289 -12.208  1.00  0.00     0.293 HD
ENDBRANCH   8  26
TORSDOF 6
ENDMDL
MODEL 2
REMARK VINA RESULT:    15.228      3.824      4.115
REMARK INTER + INTRA:          18.855
REMARK INTER:                  19.189
REMARK INTRA:                  -0.334
REMARK UNBOUND:                 0.511
REMARK SMILES O=c1c(O)c(-c2ccc(O)c(O)c2)oc2cc(O)cc(O)c12
REMARK SMILES IDX 5 1 3 2 2 3 1 4 22 5 20 6 19 7 17 8 16 9 15 10 14 11 6 12
REMARK SMILES IDX 7 13 8 14 9 15 13 16 11 17 10 18 12 20 4 22 21 24 18 26
REMARK H PARENT 10 19 12 21 4 23 21 25 18 27
REMARK Flexibility Score: inf
ROOT
ATOM      1  C   UNL     1      -9.358 -16.614  -4.879  1.00  0.00     0.180 A 
ATOM      2  C   UNL     1      -9.068 -15.255  -4.662  1.00  0.00     0.208 A 
ATOM      3  C   UNL     1      -8.116 -14.623  -5.479  1.00  0.00     0.238 A 
ATOM      4  O   UNL     1      -7.902 -13.393  -5.316  1.00  0.00    -0.285 OA
ATOM      5  C   UNL     1      -7.454 -15.361  -6.490  1.00  0.00     0.111 A 
ATOM      6  C   UNL     1      -6.443 -14.833  -7.347  1.00  0.00     0.134 A 
ATOM      7  C   UNL     1      -5.951 -15.617  -8.398  1.00  0.00     0.093 A 
ATOM      8  C   UNL     1      -6.384 -16.933  -8.580  1.00  0.00     0.123 A 
ATOM      9  C   UNL     1      -7.327 -17.477  -7.711  1.00  0.00     0.094 A 
ATOM     10  C   UNL     1      -7.864 -16.707  -6.676  1.00  0.00     0.146 A 
ATOM     11  O   UNL     1      -8.768 -17.261  -5.877  1.00  0.00    -0.452 OA
ENDROOT
BRANCH   1  12
ATOM     12  C   UNL     1     -10.331 -17.354  -4.043  1.00  0.00     0.025 A 
ATOM     13  C   UNL     1     -11.660 -17.478  -4.477  1.00  0.00     0.016 A 
ATOM     14  C   UNL     1     -12.590 -18.190  -3.716  1.00  0.00     0.051 A 
ATOM     15  C   UNL     1     -12.204 -18.802  -2.519  1.00  0.00     0.157 A 
ATOM     16  C   UNL     1      -9.939 -17.988  -2.850  1.00  0.00     0.062 A 
ATOM     17  C   UNL     1     -10.872 -18.705  -2.085  1.00  0.00     0.158 A 
BRANCH  15  18
ATOM     18  O   UNL     1     -13.155 -19.503  -1.779  1.00  0.00    -0.504 OA
ATOM     19  H   UNL     1     -14.033 -19.807  -2.184  1.00  0.00     0.293 HD
ENDBRANCH  15  18
BRANCH  17  20
ATOM     20  O   UNL     1     -10.477 -19.324  -0.900  1.00  0.00    -0.504 OA
ATOM     21  H   UNL     1     -10.497 -18.835  -0.012  1.00  0.00     0.293 HD
ENDBRANCH  17  20
ENDBRANCH   1  12
BRANCH   2  22
ATOM     22  O   UNL     1      -9.750 -14.540  -3.673  1.00  0.00    -0.502 OA
ATOM     23  H   UNL     1      -9.447 -13.627  -3.356  1.00  0.00     0.293 HD
ENDBRANCH   2  22
BRANCH   6  24
ATOM     24  O   UNL     1      -5.875 -13.565  -7.195  1.00  0.00    -0.507 OA
ATOM     25  H   UNL     1      -4.951 -13.307  -7.504  1.00  0.00     0.293 HD
ENDBRANCH   6  24
BRANCH   8  26
ATOM     26  O   UNL     1      -5.876 -17.710  -9.618  1.00  0.00    -0.508 OA
ATOM     27  H   UNL     1      -6.280 -17.686 -10.546  1.00  0.00     0.293 HD
ENDBRANCH   8  26
TORSDOF 6
ENDMDL
