MODEL 1
REMARK VINA RESULT:    -4.459      0.000      0.000
REMARK INTER + INTRA:          -6.656
REMARK INTER:                  -6.024
REMARK INTRA:                  -0.632
REMARK UNBOUND:                -0.632
REMARK SMILES CCCCCCCC(=O)[O-]
REMARK SMILES IDX 5 1 6 2 7 3 8 4 9 5 10 6 4 7 3 8 2 9 1 10
REMARK H PARENT
REMARK Flexibility Score: inf
ROOT
ATOM      1  C   UNL     1      22.247  16.048   2.115  1.00  0.00     0.000 C 
ENDROOT
BRANCH   1   2
ATOM      2  C   UNL     1      21.787  14.991   3.132  1.00  0.00     0.006 C 
BRANCH   2   3
ATOM      3  C   UNL     1      22.957  14.368   3.906  1.00  0.00     0.053 C 
BRANCH   3   4
ATOM      4  C   UNL     1      22.786  12.884   4.001  1.00  0.00     0.041 C 
ATOM      5  O   UNL     1      23.422  12.227   4.867  1.00  0.00    -0.550 OA
ATOM      6  O   UNL     1      21.962  12.220   3.101  1.00  0.00    -0.550 OA
ENDBRANCH   3   4
ENDBRANCH   2   3
ENDBRANCH   1   2
BRANCH   1   7
ATOM      7  C   UNL     1      23.215  15.479   1.066  1.00  0.00     0.000 C 
BRANCH   7   8
ATOM      8  C   UNL     1      22.549  14.350   0.264  1.00  0.00    -0.000 C 
BRANCH   8   9
ATOM      9  C   UNL     1      23.539  13.245  -0.135  1.00  0.00    -0.003 C 
ATOM     10  C   UNL     1      24.737  13.154   0.811  1.00  0.00     0.004 C 
ENDBRANCH   8   9
ENDBRANCH   7   8
ENDBRANCH   1   7
TORSDOF 6
ENDMDL
MODEL 2
REMARK VINA RESULT:    -4.208      1.388      2.202
REMARK INTER + INTRA:          -6.316
REMARK INTER:                  -5.897
REMARK INTRA:                  -0.419
REMARK UNBOUND:                -0.632
REMARK SMILES CCCCCCCC(=O)[O-]
REMARK SMILES IDX 5 1 6 2 7 3 8 4 9 5 10 6 4 7 3 8 2 9 1 10
REMARK H PARENT
REMARK Flexibility Score: inf
ROOT
ATOM      1  C   UNL     1      22.116  15.951   2.072  1.00  0.00     0.000 C 
ENDROOT
BRANCH   1   2
ATOM      2  C   UNL     1      22.124  15.142   3.379  1.00  0.00     0.006 C 
BRANCH   2   3
ATOM      3  C   UNL     1      23.298  14.157   3.456  1.00  0.00     0.053 C 
BRANCH   3   4
ATOM      4  C   UNL     1      22.807  12.788   3.806  1.00  0.00     0.041 C 
ATOM      5  O   UNL     1      23.324  12.154   4.764  1.00  0.00    -0.550 OA
ATOM      6  O   UNL     1      21.811  12.191   3.043  1.00  0.00    -0.550 OA
ENDBRANCH   3   4
ENDBRANCH   2   3
ENDBRANCH   1   2
BRANCH   1   7
ATOM      7  C   UNL     1      22.735  15.180   0.894  1.00  0.00     0.000 C 
BRANCH   7   8
ATOM      8  C   UNL     1      21.663  14.371   0.148  1.00  0.00    -0.000 C 
BRANCH   8   9
ATOM      9  C   UNL     1      20.268  15.006   0.246  1.00  0.00    -0.003 C 
ATOM     10  C   UNL     1      19.142  14.002  -0.000  1.00  0.00     0.004 C 
ENDBRANCH   8   9
ENDBRANCH   7   8
ENDBRANCH   1   7
TORSDOF 6
ENDMDL
MODEL 3
REMARK VINA RESULT:    -4.119      3.110      4.693
REMARK INTER + INTRA:          -6.197
REMARK INTER:                  -5.776
REMARK INTRA:                  -0.420
REMARK UNBOUND:                -0.632
REMARK SMILES CCCCCCCC(=O)[O-]
REMARK SMILES IDX 5 1 6 2 7 3 8 4 9 5 10 6 4 7 3 8 2 9 1 10
REMARK H PARENT
REMARK Flexibility Score: inf
ROOT
ATOM      1  C   UNL     1      22.423  11.944  -0.028  1.00  0.00     0.000 C 
ENDROOT
BRANCH   1   2
ATOM      2  C   UNL     1      21.047  12.249   0.586  1.00  0.00     0.006 C 
BRANCH   2   3
ATOM      3  C   UNL     1      19.891  11.945  -0.376  1.00  0.00     0.053 C 
BRANCH   3   4
ATOM      4  C   UNL     1      19.122  13.193  -0.675  1.00  0.00     0.041 C 
ATOM      5  O   UNL     1      19.076  14.128   0.168  1.00  0.00    -0.550 OA
ATOM      6  O   UNL     1      18.414  13.304  -1.866  1.00  0.00    -0.550 OA
ENDBRANCH   3   4
ENDBRANCH   2   3
ENDBRANCH   1   2
BRANCH   1   7
ATOM      7  C   UNL     1      23.394  13.132   0.075  1.00  0.00     0.000 C 
BRANCH   7   8
ATOM      8  C   UNL     1      22.637  14.466  -0.020  1.00  0.00    -0.000 C 
BRANCH   8   9
ATOM      9  C   UNL     1      22.979  15.422   1.133  1.00  0.00    -0.003 C 
ATOM     10  C   UNL     1      21.776  16.246   1.595  1.00  0.00     0.004 C 
ENDBRANCH   8   9
ENDBRANCH   7   8
ENDBRANCH   1   7
TORSDOF 6
ENDMDL
MODEL 4
REMARK VINA RESULT:    -4.112      3.843      5.057
REMARK INTER + INTRA:          -6.187
REMARK INTER:                  -5.782
REMARK INTRA:                  -0.405
REMARK UNBOUND:                -0.632
REMARK SMILES CCCCCCCC(=O)[O-]
REMARK SMILES IDX 5 1 6 2 7 3 8 4 9 5 10 6 4 7 3 8 2 9 1 10
REMARK H PARENT
REMARK Flexibility Score: inf
ROOT
ATOM      1  C   UNL     1      22.345  12.034  -0.049  1.00  0.00     0.000 C 
ENDROOT
BRANCH   1   2
ATOM      2  C   UNL     1      20.968  12.245   0.601  1.00  0.00     0.006 C 
BRANCH   2   3
ATOM      3  C   UNL     1      19.809  11.934  -0.356  1.00  0.00     0.053 C 
BRANCH   3   4
ATOM      4  C   UNL     1      19.116  13.196  -0.762  1.00  0.00     0.041 C 
ATOM      5  O   UNL     1      18.583  13.289  -1.900  1.00  0.00    -0.550 OA
ATOM      6  O   UNL     1      19.100  14.288   0.097  1.00  0.00    -0.550 OA
ENDBRANCH   3   4
ENDBRANCH   2   3
ENDBRANCH   1   2
BRANCH   1   7
ATOM      7  C   UNL     1      22.921  13.328  -0.647  1.00  0.00     0.000 C 
BRANCH   7   8
ATOM      8  C   UNL     1      23.391  13.100  -2.092  1.00  0.00    -0.000 C 
BRANCH   8   9
ATOM      9  C   UNL     1      22.268  12.582  -3.004  1.00  0.00    -0.003 C 
ATOM     10  C   UNL     1      22.693  12.482  -4.469  1.00  0.00     0.004 C 
ENDBRANCH   8   9
ENDBRANCH   7   8
ENDBRANCH   1   7
TORSDOF 6
ENDMDL
MODEL 5
REMARK VINA RESULT:    -4.103      9.616     11.304
REMARK INTER + INTRA:          -6.175
REMARK INTER:                  -5.959
REMARK INTRA:                  -0.216
REMARK UNBOUND:                -0.632
REMARK SMILES CCCCCCCC(=O)[O-]
REMARK SMILES IDX 5 1 6 2 7 3 8 4 9 5 10 6 4 7 3 8 2 9 1 10
REMARK H PARENT
REMARK Flexibility Score: inf
ROOT
ATOM      1  C   UNL     1      13.278  21.016   1.649  1.00  0.00     0.000 C 
ENDROOT
BRANCH   1   2
ATOM      2  C   UNL     1      13.138  19.491   1.505  1.00  0.00     0.006 C 
BRANCH   2   3
ATOM      3  C   UNL     1      14.474  18.757   1.681  1.00  0.00     0.053 C 
BRANCH   3   4
ATOM      4  C   UNL     1      15.268  18.808   0.414  1.00  0.00     0.041 C 
ATOM      5  O   UNL     1      14.684  18.788  -0.701  1.00  0.00    -0.550 OA
ATOM      6  O   UNL     1      16.657  18.829   0.465  1.00  0.00    -0.550 OA
ENDBRANCH   3   4
ENDBRANCH   2   3
ENDBRANCH   1   2
BRANCH   1   7
ATOM      7  C   UNL     1      13.894  21.429   2.995  1.00  0.00     0.000 C 
BRANCH   7   8
ATOM      8  C   UNL     1      14.127  22.947   3.046  1.00  0.00    -0.000 C 
BRANCH   8   9
ATOM      9  C   UNL     1      15.173  23.349   4.097  1.00  0.00    -0.003 C 
ATOM     10  C   UNL     1      16.603  23.288   3.561  1.00  0.00     0.004 C 
ENDBRANCH   8   9
ENDBRANCH   7   8
ENDBRANCH   1   7
TORSDOF 6
ENDMDL
MODEL 6
REMARK VINA RESULT:    -4.099      3.021      4.305
REMARK INTER + INTRA:          -6.168
REMARK INTER:                  -5.664
REMARK INTRA:                  -0.505
REMARK UNBOUND:                -0.632
REMARK SMILES CCCCCCCC(=O)[O-]
REMARK SMILES IDX 5 1 6 2 7 3 8 4 9 5 10 6 4 7 3 8 2 9 1 10
REMARK H PARENT
REMARK Flexibility Score: inf
ROOT
ATOM      1  C   UNL     1      22.006  12.945   1.016  1.00  0.00     0.000 C 
ENDROOT
BRANCH   1   2
ATOM      2  C   UNL     1      22.691  14.053   0.200  1.00  0.00     0.006 C 
BRANCH   2   3
ATOM      3  C   UNL     1      23.108  15.251   1.064  1.00  0.00     0.053 C 
BRANCH   3   4
ATOM      4  C   UNL     1      21.900  15.990   1.547  1.00  0.00     0.041 C 
ATOM      5  O   UNL     1      20.965  16.266   0.750  1.00  0.00    -0.550 OA
ATOM      6  O   UNL     1      21.829  16.418   2.868  1.00  0.00    -0.550 OA
ENDBRANCH   3   4
ENDBRANCH   2   3
ENDBRANCH   1   2
BRANCH   1   7
ATOM      7  C   UNL     1      20.922  12.205   0.215  1.00  0.00     0.000 C 
BRANCH   7   8
ATOM      8  C   UNL     1      19.546  12.854   0.429  1.00  0.00    -0.000 C 
BRANCH   8   9
ATOM      9  C   UNL     1      19.039  13.589  -0.821  1.00  0.00    -0.003 C 
ATOM     10  C   UNL     1      19.779  13.173  -2.093  1.00  0.00     0.004 C 
ENDBRANCH   8   9
ENDBRANCH   7   8
ENDBRANCH   1   7
TORSDOF 6
ENDMDL
MODEL 7
REMARK VINA RESULT:    -4.096      3.110      4.155
REMARK INTER + INTRA:          -6.165
REMARK INTER:                  -5.614
REMARK INTRA:                  -0.551
REMARK UNBOUND:                -0.632
REMARK SMILES CCCCCCCC(=O)[O-]
REMARK SMILES IDX 5 1 6 2 7 3 8 4 9 5 10 6 4 7 3 8 2 9 1 10
REMARK H PARENT
REMARK Flexibility Score: inf
ROOT
ATOM      1  C   UNL     1      19.178  13.295   0.116  1.00  0.00     0.000 C 
ENDROOT
BRANCH   1   2
ATOM      2  C   UNL     1      20.005  14.493  -0.378  1.00  0.00     0.006 C 
BRANCH   2   3
ATOM      3  C   UNL     1      20.043  15.643   0.637  1.00  0.00     0.053 C 
BRANCH   3   4
ATOM      4  C   UNL     1      21.441  15.863   1.122  1.00  0.00     0.041 C 
ATOM      5  O   UNL     1      21.651  16.530   2.170  1.00  0.00    -0.550 OA
ATOM      6  O   UNL     1      22.517  15.373   0.391  1.00  0.00    -0.550 OA
ENDBRANCH   3   4
ENDBRANCH   2   3
ENDBRANCH   1   2
BRANCH   1   7
ATOM      7  C   UNL     1      19.806  11.945  -0.266  1.00  0.00     0.000 C 
BRANCH   7   8
ATOM      8  C   UNL     1      21.339  12.042  -0.288  1.00  0.00    -0.000 C 
BRANCH   8   9
ATOM      9  C   UNL     1      21.992  11.349   0.918  1.00  0.00    -0.003 C 
ATOM     10  C   UNL     1      22.095  12.261   2.141  1.00  0.00     0.004 C 
ENDBRANCH   8   9
ENDBRANCH   7   8
ENDBRANCH   1   7
TORSDOF 6
ENDMDL
MODEL 8
REMARK VINA RESULT:    -4.091      3.056      4.178
REMARK INTER + INTRA:          -6.158
REMARK INTER:                  -5.641
REMARK INTRA:                  -0.517
REMARK UNBOUND:                -0.632
REMARK SMILES CCCCCCCC(=O)[O-]
REMARK SMILES IDX 5 1 6 2 7 3 8 4 9 5 10 6 4 7 3 8 2 9 1 10
REMARK H PARENT
REMARK Flexibility Score: inf
ROOT
ATOM      1  C   UNL     1      20.993  15.205   1.376  1.00  0.00     0.000 C 
ENDROOT
BRANCH   1   2
ATOM      2  C   UNL     1      19.938  15.242   0.259  1.00  0.00     0.006 C 
BRANCH   2   3
ATOM      3  C   UNL     1      19.094  13.963   0.200  1.00  0.00     0.053 C 
BRANCH   3   4
ATOM      4  C   UNL     1      19.488  13.132  -0.981  1.00  0.00     0.041 C 
ATOM      5  O   UNL     1      19.361  13.588  -2.148  1.00  0.00    -0.550 OA
ATOM      6  O   UNL     1      19.950  11.835  -0.795  1.00  0.00    -0.550 OA
ENDBRANCH   3   4
ENDBRANCH   2   3
ENDBRANCH   1   2
BRANCH   1   7
ATOM      7  C   UNL     1      22.328  15.838   0.952  1.00  0.00     0.000 C 
BRANCH   7   8
ATOM      8  C   UNL     1      23.485  14.844   1.133  1.00  0.00    -0.000 C 
BRANCH   8   9
ATOM      9  C   UNL     1      23.113  13.418   0.698  1.00  0.00    -0.003 C 
ATOM     10  C   UNL     1      23.278  13.196  -0.806  1.00  0.00     0.004 C 
ENDBRANCH   8   9
ENDBRANCH   7   8
ENDBRANCH   1   7
TORSDOF 6
ENDMDL
MODEL 9
REMARK VINA RESULT:    -4.085      2.946      4.458
REMARK INTER + INTRA:          -6.150
REMARK INTER:                  -5.815
REMARK INTRA:                  -0.335
REMARK UNBOUND:                -0.632
REMARK SMILES CCCCCCCC(=O)[O-]
REMARK SMILES IDX 5 1 6 2 7 3 8 4 9 5 10 6 4 7 3 8 2 9 1 10
REMARK H PARENT
REMARK Flexibility Score: inf
ROOT
ATOM      1  C   UNL     1      21.811  15.241   0.543  1.00  0.00     0.000 C 
ENDROOT
BRANCH   1   2
ATOM      2  C   UNL     1      20.692  14.266   0.944  1.00  0.00     0.006 C 
BRANCH   2   3
ATOM      3  C   UNL     1      19.404  14.481   0.138  1.00  0.00     0.053 C 
BRANCH   3   4
ATOM      4  C   UNL     1      19.053  13.242  -0.623  1.00  0.00     0.041 C 
ATOM      5  O   UNL     1      19.358  12.109  -0.165  1.00  0.00    -0.550 OA
ATOM      6  O   UNL     1      18.432  13.340  -1.862  1.00  0.00    -0.550 OA
ENDBRANCH   3   4
ENDBRANCH   2   3
ENDBRANCH   1   2
BRANCH   1   7
ATOM      7  C   UNL     1      22.865  15.419   1.648  1.00  0.00     0.000 C 
BRANCH   7   8
ATOM      8  C   UNL     1      22.196  15.585   3.020  1.00  0.00    -0.000 C 
BRANCH   8   9
ATOM      9  C   UNL     1      22.884  14.758   4.117  1.00  0.00    -0.003 C 
ATOM     10  C   UNL     1      22.467  13.288   4.099  1.00  0.00     0.004 C 
ENDBRANCH   8   9
ENDBRANCH   7   8
ENDBRANCH   1   7
TORSDOF 6
ENDMDL
