MODEL 1
REMARK VINA RESULT:     5.563      0.000      0.000
REMARK INTER + INTRA:           7.886
REMARK INTER:                   7.677
REMARK INTRA:                   0.209
REMARK UNBOUND:                 0.209
REMARK SMILES CC[C@@H](CC[C@@H](C)[C@@H]1CC[C@H]2C3=CC[C@H]4C[C@@H](O)CC[C@]4(C)[C@H]3CC[C@@]21C)C(C)C
REMARK SMILES IDX 5 1 4 2 3 3 2 4 1 5 28 6 29 7 30 8 6 9 7 10 8 11 9 12 26 13
REMARK SMILES IDX 10 14 11 15 25 16 27 17 12 18 24 19 23 20 13 21 21 22 14 23
REMARK SMILES IDX 15 24 20 25 22 26 16 27 19 28 17 29 18 30
REMARK H PARENT 18 31
REMARK Flexibility Score: inf
ROOT
ATOM      1  C   UNL     1     136.845 134.238 139.553  1.00  0.00     0.004 C 
ENDROOT
BRANCH   1   2
ATOM      2  C   UNL     1     138.385 134.216 139.679  1.00  0.00     0.004 C 
BRANCH   2   3
ATOM      3  C   UNL     1     138.863 133.803 141.108  1.00  0.00    -0.009 C 
BRANCH   3   4
ATOM      4  C   UNL     1     140.075 134.675 141.543  1.00  0.00     0.000 C 
ATOM      5  C   UNL     1     140.047 135.102 143.014  1.00  0.00     0.004 C 
ENDBRANCH   3   4
BRANCH   3   6
ATOM      6  C   UNL     1     139.138 132.262 141.229  1.00  0.00    -0.014 C 
ATOM      7  C   UNL     1     140.398 131.964 142.061  1.00  0.00     0.007 C 
ATOM      8  C   UNL     1     139.294 131.595 139.848  1.00  0.00     0.007 C 
ENDBRANCH   3   6
ENDBRANCH   2   3
ENDBRANCH   1   2
BRANCH   1   9
ATOM      9  C   UNL     1     136.346 134.627 138.132  1.00  0.00    -0.011 C 
ATOM     10  C   UNL     1     136.893 133.599 137.115  1.00  0.00     0.008 C 
BRANCH   9  11
ATOM     11  C   UNL     1     134.784 134.835 138.103  1.00  0.00    -0.002 C 
ATOM     12  C   UNL     1     134.172 135.315 139.450  1.00  0.00     0.005 C 
ATOM     13  C   UNL     1     133.886 133.628 137.679  1.00  0.00    -0.023 C 
ATOM     14  C   UNL     1     133.149 134.255 139.894  1.00  0.00     0.009 C 
ATOM     15  C   UNL     1     133.455 133.040 139.024  1.00  0.00     0.021 C 
ATOM     16  C   UNL     1     134.543 132.500 136.843  1.00  0.00     0.008 C 
ATOM     17  C   UNL     1     132.663 134.205 136.886  1.00  0.00     0.012 C 
ATOM     18  C   UNL     1     132.435 131.935 138.845  1.00  0.00    -0.067 C 
ATOM     19  C   UNL     1     133.550 131.343 136.585  1.00  0.00     0.009 C 
ATOM     20  C   UNL     1     132.840 130.811 137.875  1.00  0.00     0.021 C 
ATOM     21  C   UNL     1     131.427 131.772 139.733  1.00  0.00    -0.027 C 
ATOM     22  C   UNL     1     131.660 129.815 137.577  1.00  0.00    -0.023 C 
ATOM     23  C   UNL     1     130.473 130.605 139.700  1.00  0.00     0.031 C 
ATOM     24  C   UNL     1     131.066 129.393 138.961  1.00  0.00     0.002 C 
ATOM     25  C   UNL     1     132.209 128.544 136.865  1.00  0.00     0.010 C 
ATOM     26  C   UNL     1     130.582 130.494 136.675  1.00  0.00     0.012 C 
ATOM     27  C   UNL     1     130.040 128.243 138.868  1.00  0.00     0.036 C 
ATOM     28  C   UNL     1     131.163 127.424 136.759  1.00  0.00     0.032 C 
ATOM     29  C   UNL     1     130.634 127.026 138.141  1.00  0.00     0.114 C 
BRANCH  29  30
ATOM     30  O   UNL     1     129.654 126.032 137.984  1.00  0.00    -0.393 OA
ATOM     31  H   UNL     1     130.131 125.191 137.754  1.00  0.00     0.210 HD
ENDBRANCH  29  30
ENDBRANCH   9  11
ENDBRANCH   1   9
TORSDOF 7
ENDMDL
