MODEL 1
REMARK VINA RESULT:    -4.687      0.000      0.000
REMARK INTER + INTRA:          -6.411
REMARK INTER:                  -6.057
REMARK INTRA:                  -0.354
REMARK UNBOUND:                -0.354
REMARK SMILES CCO[C@H]1O[C@H](CO)[C@@H](O)[C@H](O)[C@@H]1O
REMARK SMILES IDX 4 1 13 2 11 3 9 4 6 5 5 6 3 7 2 8 1 9 14 10 12 12 7 14 8 15
REMARK SMILES IDX 10 17
REMARK H PARENT 14 11 12 13 8 16 10 18
REMARK Flexibility Score: inf
ROOT
ATOM      1  C   UNL     1     -23.272  20.202 -30.854  1.00  0.00     0.281 C 
ATOM      2  C   UNL     1     -23.017  19.054 -29.856  1.00  0.00     0.202 C 
ATOM      3  C   UNL     1     -24.081  19.068 -28.748  1.00  0.00     0.179 C 
ATOM      4  C   UNL     1     -24.186  20.478 -28.133  1.00  0.00     0.177 C 
ATOM      5  C   UNL     1     -24.366  21.533 -29.253  1.00  0.00     0.178 C 
ATOM      6  O   UNL     1     -23.300  21.457 -30.188  1.00  0.00    -0.341 OA
ENDROOT
BRANCH   1   7
ATOM      7  O   UNL     1     -24.474  19.964 -31.572  1.00  0.00    -0.350 OA
BRANCH   7   8
ATOM      8  C   UNL     1     -24.236  19.165 -32.716  1.00  0.00     0.160 C 
ATOM      9  C   UNL     1     -25.190  17.976 -32.736  1.00  0.00     0.035 C 
ENDBRANCH   7   8
ENDBRANCH   1   7
BRANCH   2  10
ATOM     10  O   UNL     1     -21.738  19.191 -29.287  1.00  0.00    -0.385 OA
ATOM     11  H   UNL     1     -21.742  20.042 -28.775  1.00  0.00     0.211 HD
ENDBRANCH   2  10
BRANCH   3  12
ATOM     12  O   UNL     1     -23.741  18.129 -27.760  1.00  0.00    -0.387 OA
ATOM     13  H   UNL     1     -24.294  18.336 -26.963  1.00  0.00     0.211 HD
ENDBRANCH   3  12
BRANCH   5  14
ATOM     14  C   UNL     1     -24.391  22.950 -28.662  1.00  0.00     0.191 C 
BRANCH  14  15
ATOM     15  O   UNL     1     -25.535  23.132 -27.872  1.00  0.00    -0.394 OA
ATOM     16  H   UNL     1     -26.314  22.894 -28.440  1.00  0.00     0.210 HD
ENDBRANCH  14  15
ENDBRANCH   5  14
BRANCH   4  17
ATOM     17  O   UNL     1     -25.244  20.534 -27.206  1.00  0.00    -0.387 OA
ATOM     18  H   UNL     1     -24.986  21.176 -26.494  1.00  0.00     0.211 HD
ENDBRANCH   4  17
TORSDOF 7
ENDMDL
MODEL 2
REMARK VINA RESULT:    -4.670      1.719      3.319
REMARK INTER + INTRA:          -6.390
REMARK INTER:                  -5.981
REMARK INTRA:                  -0.409
REMARK UNBOUND:                -0.354
REMARK SMILES CCO[C@H]1O[C@H](CO)[C@@H](O)[C@H](O)[C@@H]1O
REMARK SMILES IDX 4 1 13 2 11 3 9 4 6 5 5 6 3 7 2 8 1 9 14 10 12 12 7 14 8 15
REMARK SMILES IDX 10 17
REMARK H PARENT 14 11 12 13 8 16 10 18
REMARK Flexibility Score: inf
ROOT
ATOM      1  C   UNL     1     -22.597  19.042 -30.030  1.00  0.00     0.281 C 
ATOM      2  C   UNL     1     -23.800  19.743 -30.693  1.00  0.00     0.202 C 
ATOM      3  C   UNL     1     -24.355  20.835 -29.766  1.00  0.00     0.179 C 
ATOM      4  C   UNL     1     -24.610  20.257 -28.359  1.00  0.00     0.177 C 
ATOM      5  C   UNL     1     -23.346  19.520 -27.851  1.00  0.00     0.178 C 
ATOM      6  O   UNL     1     -22.958  18.504 -28.765  1.00  0.00    -0.341 OA
ENDROOT
BRANCH   1   7
ATOM      7  O   UNL     1     -21.507  19.945 -29.923  1.00  0.00    -0.350 OA
BRANCH   7   8
ATOM      8  C   UNL     1     -20.733  19.953 -31.108  1.00  0.00     0.160 C 
ATOM      9  C   UNL     1     -20.375  18.528 -31.512  1.00  0.00     0.035 C 
ENDBRANCH   7   8
ENDBRANCH   1   7
BRANCH   2  10
ATOM     10  O   UNL     1     -24.808  18.802 -30.972  1.00  0.00    -0.385 OA
ATOM     11  H   UNL     1     -24.509  17.938 -30.584  1.00  0.00     0.211 HD
ENDBRANCH   2  10
BRANCH   3  12
ATOM     12  O   UNL     1     -25.547  21.347 -30.306  1.00  0.00    -0.387 OA
ATOM     13  H   UNL     1     -25.380  21.509 -31.271  1.00  0.00     0.211 HD
ENDBRANCH   3  12
BRANCH   5  14
ATOM     14  C   UNL     1     -23.611  18.868 -26.486  1.00  0.00     0.191 C 
BRANCH  14  15
ATOM     15  O   UNL     1     -23.610  19.837 -25.473  1.00  0.00    -0.394 OA
ATOM     16  H   UNL     1     -23.345  19.373 -24.636  1.00  0.00     0.210 HD
ENDBRANCH  14  15
ENDBRANCH   5  14
BRANCH   4  17
ATOM     17  O   UNL     1     -24.998  21.275 -27.469  1.00  0.00    -0.387 OA
ATOM     18  H   UNL     1     -24.636  22.132 -27.816  1.00  0.00     0.211 HD
ENDBRANCH   4  17
TORSDOF 7
ENDMDL
MODEL 3
REMARK VINA RESULT:    -4.580      3.069      5.593
REMARK INTER + INTRA:          -6.273
REMARK INTER:                  -5.869
REMARK INTRA:                  -0.403
REMARK UNBOUND:                -0.354
REMARK SMILES CCO[C@H]1O[C@H](CO)[C@@H](O)[C@H](O)[C@@H]1O
REMARK SMILES IDX 4 1 13 2 11 3 9 4 6 5 5 6 3 7 2 8 1 9 14 10 12 12 7 14 8 15
REMARK SMILES IDX 10 17
REMARK H PARENT 14 11 12 13 8 16 10 18
REMARK Flexibility Score: inf
ROOT
ATOM      1  C   UNL     1     -21.931  23.973 -30.511  1.00  0.00     0.281 C 
ATOM      2  C   UNL     1     -22.754  25.253 -30.260  1.00  0.00     0.202 C 
ATOM      3  C   UNL     1     -23.659  25.069 -29.033  1.00  0.00     0.179 C 
ATOM      4  C   UNL     1     -24.473  23.766 -29.164  1.00  0.00     0.177 C 
ATOM      5  C   UNL     1     -23.529  22.581 -29.487  1.00  0.00     0.178 C 
ATOM      6  O   UNL     1     -22.782  22.844 -30.667  1.00  0.00    -0.341 OA
ENDROOT
BRANCH   1   7
ATOM      7  O   UNL     1     -20.997  23.782 -29.460  1.00  0.00    -0.350 OA
BRANCH   7   8
ATOM      8  C   UNL     1     -19.826  24.549 -29.672  1.00  0.00     0.160 C 
ATOM      9  C   UNL     1     -19.523  25.398 -28.443  1.00  0.00     0.035 C 
ENDBRANCH   7   8
ENDBRANCH   1   7
BRANCH   2  10
ATOM     10  O   UNL     1     -23.541  25.543 -31.390  1.00  0.00    -0.385 OA
ATOM     11  H   UNL     1     -23.015  25.266 -32.185  1.00  0.00     0.211 HD
ENDBRANCH   2  10
BRANCH   3  12
ATOM     12  O   UNL     1     -24.521  26.173 -28.918  1.00  0.00    -0.387 OA
ATOM     13  H   UNL     1     -24.129  26.904 -29.463  1.00  0.00     0.211 HD
ENDBRANCH   3  12
BRANCH   5  14
ATOM     14  C   UNL     1     -24.334  21.291 -29.702  1.00  0.00     0.191 C 
BRANCH  14  15
ATOM     15  O   UNL     1     -25.584  21.582 -30.265  1.00  0.00    -0.394 OA
ATOM     16  H   UNL     1     -25.941  20.728 -30.624  1.00  0.00     0.210 HD
ENDBRANCH  14  15
ENDBRANCH   5  14
BRANCH   4  17
ATOM     17  O   UNL     1     -25.210  23.524 -27.990  1.00  0.00    -0.387 OA
ATOM     18  H   UNL     1     -25.499  24.403 -27.629  1.00  0.00     0.211 HD
ENDBRANCH   4  17
TORSDOF 7
ENDMDL
MODEL 4
REMARK VINA RESULT:    -4.569     13.795     15.189
REMARK INTER + INTRA:          -6.258
REMARK INTER:                  -5.870
REMARK INTRA:                  -0.389
REMARK UNBOUND:                -0.354
REMARK SMILES CCO[C@H]1O[C@H](CO)[C@@H](O)[C@H](O)[C@@H]1O
REMARK SMILES IDX 4 1 13 2 11 3 9 4 6 5 5 6 3 7 2 8 1 9 14 10 12 12 7 14 8 15
REMARK SMILES IDX 10 17
REMARK H PARENT 14 11 12 13 8 16 10 18
REMARK Flexibility Score: inf
ROOT
ATOM      1  C   UNL     1     -28.469  29.241 -40.570  1.00  0.00     0.281 C 
ATOM      2  C   UNL     1     -28.532  28.473 -41.906  1.00  0.00     0.202 C 
ATOM      3  C   UNL     1     -27.263  27.627 -42.092  1.00  0.00     0.179 C 
ATOM      4  C   UNL     1     -26.009  28.497 -41.879  1.00  0.00     0.177 C 
ATOM      5  C   UNL     1     -26.117  29.264 -40.537  1.00  0.00     0.178 C 
ATOM      6  O   UNL     1     -27.301  30.048 -40.502  1.00  0.00    -0.341 OA
ENDROOT
BRANCH   1   7
ATOM      7  O   UNL     1     -28.539  28.330 -39.483  1.00  0.00    -0.350 OA
BRANCH   7   8
ATOM      8  C   UNL     1     -29.770  27.630 -39.482  1.00  0.00     0.160 C 
ATOM      9  C   UNL     1     -30.887  28.531 -38.970  1.00  0.00     0.035 C 
ENDBRANCH   7   8
ENDBRANCH   1   7
BRANCH   2  10
ATOM     10  O   UNL     1     -28.655  29.381 -42.974  1.00  0.00    -0.385 OA
ATOM     11  H   UNL     1     -29.124  28.902 -43.706  1.00  0.00     0.211 HD
ENDBRANCH   2  10
BRANCH   3  12
ATOM     12  O   UNL     1     -27.256  27.069 -43.381  1.00  0.00    -0.387 OA
ATOM     13  H   UNL     1     -26.869  26.159 -43.300  1.00  0.00     0.211 HD
ENDBRANCH   3  12
BRANCH   5  14
ATOM     14  C   UNL     1     -24.913  30.199 -40.350  1.00  0.00     0.191 C 
BRANCH  14  15
ATOM     15  O   UNL     1     -24.397  30.588 -41.594  1.00  0.00    -0.394 OA
ATOM     16  H   UNL     1     -25.155  30.967 -42.110  1.00  0.00     0.210 HD
ENDBRANCH  14  15
ENDBRANCH   5  14
BRANCH   4  17
ATOM     17  O   UNL     1     -24.845  27.707 -41.921  1.00  0.00    -0.387 OA
ATOM     18  H   UNL     1     -24.634  27.532 -42.875  1.00  0.00     0.211 HD
ENDBRANCH   4  17
TORSDOF 7
ENDMDL
MODEL 5
REMARK VINA RESULT:    -4.505      4.431      6.906
REMARK INTER + INTRA:          -6.176
REMARK INTER:                  -5.783
REMARK INTRA:                  -0.393
REMARK UNBOUND:                -0.354
REMARK SMILES CCO[C@H]1O[C@H](CO)[C@@H](O)[C@H](O)[C@@H]1O
REMARK SMILES IDX 4 1 13 2 11 3 9 4 6 5 5 6 3 7 2 8 1 9 14 10 12 12 7 14 8 15
REMARK SMILES IDX 10 17
REMARK H PARENT 14 11 12 13 8 16 10 18
REMARK Flexibility Score: inf
ROOT
ATOM      1  C   UNL     1     -24.190  25.293 -29.474  1.00  0.00     0.281 C 
ATOM      2  C   UNL     1     -24.744  26.497 -30.262  1.00  0.00     0.202 C 
ATOM      3  C   UNL     1     -23.920  26.719 -31.539  1.00  0.00     0.179 C 
ATOM      4  C   UNL     1     -22.418  26.777 -31.198  1.00  0.00     0.177 C 
ATOM      5  C   UNL     1     -22.019  25.547 -30.345  1.00  0.00     0.178 C 
ATOM      6  O   UNL     1     -22.814  25.475 -29.170  1.00  0.00    -0.341 OA
ENDROOT
BRANCH   1   7
ATOM      7  O   UNL     1     -24.411  24.093 -30.201  1.00  0.00    -0.350 OA
BRANCH   7   8
ATOM      8  C   UNL     1     -24.682  23.011 -29.330  1.00  0.00     0.160 C 
ATOM      9  C   UNL     1     -23.514  22.032 -29.327  1.00  0.00     0.035 C 
ENDBRANCH   7   8
ENDBRANCH   1   7
BRANCH   2  10
ATOM     10  O   UNL     1     -24.698  27.653 -29.462  1.00  0.00    -0.385 OA
ATOM     11  H   UNL     1     -24.156  28.322 -29.956  1.00  0.00     0.211 HD
ENDBRANCH   2  10
BRANCH   3  12
ATOM     12  O   UNL     1     -24.327  27.914 -32.157  1.00  0.00    -0.387 OA
ATOM     13  H   UNL     1     -23.524  28.494 -32.220  1.00  0.00     0.211 HD
ENDBRANCH   3  12
BRANCH   5  14
ATOM     14  C   UNL     1     -20.544  25.633 -29.928  1.00  0.00     0.191 C 
BRANCH  14  15
ATOM     15  O   UNL     1     -20.186  26.963 -29.666  1.00  0.00    -0.394 OA
ATOM     16  H   UNL     1     -20.034  27.395 -30.547  1.00  0.00     0.210 HD
ENDBRANCH  14  15
ENDBRANCH   5  14
BRANCH   4  17
ATOM     17  O   UNL     1     -21.647  26.854 -32.373  1.00  0.00    -0.387 OA
ATOM     18  H   UNL     1     -21.905  26.091 -32.953  1.00  0.00     0.211 HD
ENDBRANCH   4  17
TORSDOF 7
ENDMDL
MODEL 6
REMARK VINA RESULT:    -4.504      1.714      3.687
REMARK INTER + INTRA:          -6.174
REMARK INTER:                  -5.988
REMARK INTRA:                  -0.186
REMARK UNBOUND:                -0.354
REMARK SMILES CCO[C@H]1O[C@H](CO)[C@@H](O)[C@H](O)[C@@H]1O
REMARK SMILES IDX 4 1 13 2 11 3 9 4 6 5 5 6 3 7 2 8 1 9 14 10 12 12 7 14 8 15
REMARK SMILES IDX 10 17
REMARK H PARENT 14 11 12 13 8 16 10 18
REMARK Flexibility Score: inf
ROOT
ATOM      1  C   UNL     1     -24.111  19.591 -28.358  1.00  0.00     0.281 C 
ATOM      2  C   UNL     1     -23.515  19.117 -29.699  1.00  0.00     0.202 C 
ATOM      3  C   UNL     1     -22.574  20.189 -30.270  1.00  0.00     0.179 C 
ATOM      4  C   UNL     1     -23.284  21.557 -30.299  1.00  0.00     0.177 C 
ATOM      5  C   UNL     1     -23.896  21.868 -28.910  1.00  0.00     0.178 C 
ATOM      6  O   UNL     1     -24.784  20.833 -28.512  1.00  0.00    -0.341 OA
ENDROOT
BRANCH   1   7
ATOM      7  O   UNL     1     -23.091  19.667 -27.374  1.00  0.00    -0.350 OA
BRANCH   7   8
ATOM      8  C   UNL     1     -23.571  19.252 -26.108  1.00  0.00     0.160 C 
ATOM      9  C   UNL     1     -23.766  17.741 -26.088  1.00  0.00     0.035 C 
ENDBRANCH   7   8
ENDBRANCH   1   7
BRANCH   2  10
ATOM     10  O   UNL     1     -24.550  18.860 -30.617  1.00  0.00    -0.385 OA
ATOM     11  H   UNL     1     -24.164  18.289 -31.332  1.00  0.00     0.211 HD
ENDBRANCH   2  10
BRANCH   3  12
ATOM     12  O   UNL     1     -22.173  19.819 -31.565  1.00  0.00    -0.387 OA
ATOM     13  H   UNL     1     -22.838  20.205 -32.193  1.00  0.00     0.211 HD
ENDBRANCH   3  12
BRANCH   5  14
ATOM     14  C   UNL     1     -24.677  23.189 -28.946  1.00  0.00     0.191 C 
BRANCH  14  15
ATOM     15  O   UNL     1     -25.495  23.306 -27.813  1.00  0.00    -0.394 OA
ATOM     16  H   UNL     1     -25.528  24.271 -27.584  1.00  0.00     0.210 HD
ENDBRANCH  14  15
ENDBRANCH   5  14
BRANCH   4  17
ATOM     17  O   UNL     1     -22.392  22.569 -30.700  1.00  0.00    -0.387 OA
ATOM     18  H   UNL     1     -21.578  22.493 -30.137  1.00  0.00     0.211 HD
ENDBRANCH   4  17
TORSDOF 7
ENDMDL
MODEL 7
REMARK VINA RESULT:    -4.366      1.802      4.091
REMARK INTER + INTRA:          -5.996
REMARK INTER:                  -5.587
REMARK INTRA:                  -0.409
REMARK UNBOUND:                -0.354
REMARK SMILES CCO[C@H]1O[C@H](CO)[C@@H](O)[C@H](O)[C@@H]1O
REMARK SMILES IDX 4 1 13 2 11 3 9 4 6 5 5 6 3 7 2 8 1 9 14 10 12 12 7 14 8 15
REMARK SMILES IDX 10 17
REMARK H PARENT 14 11 12 13 8 16 10 18
REMARK Flexibility Score: inf
ROOT
ATOM      1  C   UNL     1     -23.116  21.528 -30.263  1.00  0.00     0.281 C 
ATOM      2  C   UNL     1     -24.323  21.503 -29.303  1.00  0.00     0.202 C 
ATOM      3  C   UNL     1     -24.161  20.374 -28.275  1.00  0.00     0.179 C 
ATOM      4  C   UNL     1     -23.849  19.045 -28.991  1.00  0.00     0.177 C 
ATOM      5  C   UNL     1     -22.667  19.236 -29.974  1.00  0.00     0.178 C 
ATOM      6  O   UNL     1     -22.953  20.270 -30.905  1.00  0.00    -0.341 OA
ENDROOT
BRANCH   1   7
ATOM      7  O   UNL     1     -21.944  21.912 -29.560  1.00  0.00    -0.350 OA
BRANCH   7   8
ATOM      8  C   UNL     1     -21.616  23.265 -29.815  1.00  0.00     0.160 C 
ATOM      9  C   UNL     1     -21.980  23.634 -31.248  1.00  0.00     0.035 C 
ENDBRANCH   7   8
ENDBRANCH   1   7
BRANCH   2  10
ATOM     10  O   UNL     1     -25.510  21.311 -30.034  1.00  0.00    -0.385 OA
ATOM     11  H   UNL     1     -25.336  21.636 -30.955  1.00  0.00     0.211 HD
ENDBRANCH   2  10
BRANCH   3  12
ATOM     12  O   UNL     1     -25.339  20.256 -27.519  1.00  0.00    -0.387 OA
ATOM     13  H   UNL     1     -25.084  20.374 -26.567  1.00  0.00     0.211 HD
ENDBRANCH   3  12
BRANCH   5  14
ATOM     14  C   UNL     1     -22.398  17.942 -30.755  1.00  0.00     0.191 C 
BRANCH  14  15
ATOM     15  O   UNL     1     -23.586  17.217 -30.925  1.00  0.00    -0.394 OA
ATOM     16  H   UNL     1     -24.283  17.871 -31.194  1.00  0.00     0.210 HD
ENDBRANCH  14  15
ENDBRANCH   5  14
BRANCH   4  17
ATOM     17  O   UNL     1     -23.574  18.031 -28.055  1.00  0.00    -0.387 OA
ATOM     18  H   UNL     1     -23.542  17.169 -28.545  1.00  0.00     0.211 HD
ENDBRANCH   4  17
TORSDOF 7
ENDMDL
MODEL 8
REMARK VINA RESULT:    -4.365      3.577      5.671
REMARK INTER + INTRA:          -5.995
REMARK INTER:                  -5.830
REMARK INTRA:                  -0.165
REMARK UNBOUND:                -0.354
REMARK SMILES CCO[C@H]1O[C@H](CO)[C@@H](O)[C@H](O)[C@@H]1O
REMARK SMILES IDX 4 1 13 2 11 3 9 4 6 5 5 6 3 7 2 8 1 9 14 10 12 12 7 14 8 15
REMARK SMILES IDX 10 17
REMARK H PARENT 14 11 12 13 8 16 10 18
REMARK Flexibility Score: inf
ROOT
ATOM      1  C   UNL     1     -23.316  25.811 -29.899  1.00  0.00     0.281 C 
ATOM      2  C   UNL     1     -21.815  25.512 -30.085  1.00  0.00     0.202 C 
ATOM      3  C   UNL     1     -21.621  24.098 -30.652  1.00  0.00     0.179 C 
ATOM      4  C   UNL     1     -22.407  23.075 -29.808  1.00  0.00     0.177 C 
ATOM      5  C   UNL     1     -23.876  23.539 -29.643  1.00  0.00     0.178 C 
ATOM      6  O   UNL     1     -23.929  24.836 -29.065  1.00  0.00    -0.341 OA
ENDROOT
BRANCH   1   7
ATOM      7  O   UNL     1     -23.955  25.891 -31.165  1.00  0.00    -0.350 OA
BRANCH   7   8
ATOM      8  C   UNL     1     -24.340  27.222 -31.458  1.00  0.00     0.160 C 
ATOM      9  C   UNL     1     -24.064  27.538 -32.923  1.00  0.00     0.035 C 
ENDBRANCH   7   8
ENDBRANCH   1   7
BRANCH   2  10
ATOM     10  O   UNL     1     -21.150  25.621 -28.850  1.00  0.00    -0.385 OA
ATOM     11  H   UNL     1     -20.222  25.911 -29.048  1.00  0.00     0.211 HD
ENDBRANCH   2  10
BRANCH   3  12
ATOM     12  O   UNL     1     -20.253  23.778 -30.657  1.00  0.00    -0.387 OA
ATOM     13  H   UNL     1     -19.756  24.637 -30.643  1.00  0.00     0.211 HD
ENDBRANCH   3  12
BRANCH   5  14
ATOM     14  C   UNL     1     -24.651  22.573 -28.736  1.00  0.00     0.191 C 
BRANCH  14  15
ATOM     15  O   UNL     1     -25.448  23.286 -27.829  1.00  0.00    -0.394 OA
ATOM     16  H   UNL     1     -26.379  22.963 -27.953  1.00  0.00     0.210 HD
ENDBRANCH  14  15
ENDBRANCH   5  14
BRANCH   4  17
ATOM     17  O   UNL     1     -22.340  21.796 -30.391  1.00  0.00    -0.387 OA
ATOM     18  H   UNL     1     -23.249  21.565 -30.716  1.00  0.00     0.211 HD
ENDBRANCH   4  17
TORSDOF 7
ENDMDL
MODEL 9
REMARK VINA RESULT:    -4.357     12.713     14.547
REMARK INTER + INTRA:          -5.985
REMARK INTER:                  -5.611
REMARK INTRA:                  -0.375
REMARK UNBOUND:                -0.354
REMARK SMILES CCO[C@H]1O[C@H](CO)[C@@H](O)[C@H](O)[C@@H]1O
REMARK SMILES IDX 4 1 13 2 11 3 9 4 6 5 5 6 3 7 2 8 1 9 14 10 12 12 7 14 8 15
REMARK SMILES IDX 10 17
REMARK H PARENT 14 11 12 13 8 16 10 18
REMARK Flexibility Score: inf
ROOT
ATOM      1  C   UNL     1     -28.311  28.726 -39.606  1.00  0.00     0.281 C 
ATOM      2  C   UNL     1     -28.892  28.444 -41.007  1.00  0.00     0.202 C 
ATOM      3  C   UNL     1     -27.860  27.703 -41.870  1.00  0.00     0.179 C 
ATOM      4  C   UNL     1     -26.512  28.450 -41.844  1.00  0.00     0.177 C 
ATOM      5  C   UNL     1     -26.089  28.730 -40.381  1.00  0.00     0.178 C 
ATOM      6  O   UNL     1     -27.098  29.462 -39.699  1.00  0.00    -0.341 OA
ENDROOT
BRANCH   1   7
ATOM      7  O   UNL     1     -28.130  27.507 -38.901  1.00  0.00    -0.350 OA
BRANCH   7   8
ATOM      8  C   UNL     1     -29.372  26.969 -38.486  1.00  0.00     0.160 C 
ATOM      9  C   UNL     1     -29.240  26.354 -37.097  1.00  0.00     0.035 C 
ENDBRANCH   7   8
ENDBRANCH   1   7
BRANCH   2  10
ATOM     10  O   UNL     1     -29.248  29.654 -41.629  1.00  0.00    -0.385 OA
ATOM     11  H   UNL     1     -28.614  30.343 -41.299  1.00  0.00     0.211 HD
ENDBRANCH   2  10
BRANCH   3  12
ATOM     12  O   UNL     1     -28.338  27.603 -43.188  1.00  0.00    -0.387 OA
ATOM     13  H   UNL     1     -28.930  26.807 -43.221  1.00  0.00     0.211 HD
ENDBRANCH   3  12
BRANCH   5  14
ATOM     14  C   UNL     1     -24.789  29.547 -40.341  1.00  0.00     0.191 C 
BRANCH  14  15
ATOM     15  O   UNL     1     -23.675  28.699 -40.418  1.00  0.00    -0.394 OA
ATOM     16  H   UNL     1     -22.879  29.283 -40.519  1.00  0.00     0.210 HD
ENDBRANCH  14  15
ENDBRANCH   5  14
BRANCH   4  17
ATOM     17  O   UNL     1     -25.526  27.715 -42.528  1.00  0.00    -0.387 OA
ATOM     18  H   UNL     1     -25.434  28.105 -43.436  1.00  0.00     0.211 HD
ENDBRANCH   4  17
TORSDOF 7
ENDMDL
