MODEL 1
REMARK VINA RESULT:    -4.254      0.000      0.000
REMARK INTER + INTRA:         -16.465
REMARK INTER:                 -11.219
REMARK INTRA:                  -5.246
REMARK UNBOUND:                -5.246
REMARK SMILES CCCCCCCCCCCCCCCCCCCCCCCCCCCCCC(=O)[O-]
REMARK SMILES IDX 16 1 17 2 18 3 19 4 20 5 21 6 22 7 23 8 24 9 25 10 26 11
REMARK SMILES IDX 27 12 28 13 29 14 30 15 31 16 32 17 15 18 14 19 13 20 12 21
REMARK SMILES IDX 11 22 10 23 9 24 8 25 7 26 6 27 5 28 4 29 3 30 2 31 1 32
REMARK H PARENT
REMARK Flexibility Score: inf
ROOT
ATOM      1  C   UNL     1      94.707  86.347  84.596  1.00  0.00     0.000 C 
ENDROOT
BRANCH   1   2
ATOM      2  C   UNL     1      94.024  85.920  85.911  1.00  0.00     0.000 C 
BRANCH   2   3
ATOM      3  C   UNL     1      93.354  84.536  85.873  1.00  0.00     0.000 C 
BRANCH   3   4
ATOM      4  C   UNL     1      91.860  84.607  85.513  1.00  0.00     0.000 C 
BRANCH   4   5
ATOM      5  C   UNL     1      91.576  84.145  84.073  1.00  0.00     0.000 C 
BRANCH   5   6
ATOM      6  C   UNL     1      91.264  85.316  83.124  1.00  0.00     0.000 C 
BRANCH   6   7
ATOM      7  C   UNL     1      92.273  85.434  81.966  1.00  0.00     0.000 C 
BRANCH   7   8
ATOM      8  C   UNL     1      93.151  84.188  81.736  1.00  0.00     0.000 C 
BRANCH   8   9
ATOM      9  C   UNL     1      92.964  83.488  80.374  1.00  0.00     0.000 C 
BRANCH   9  10
ATOM     10  C   UNL     1      92.632  84.428  79.202  1.00  0.00     0.000 C 
BRANCH  10  11
ATOM     11  C   UNL     1      91.251  84.152  78.586  1.00  0.00     0.000 C 
BRANCH  11  12
ATOM     12  C   UNL     1      90.248  85.271  78.911  1.00  0.00     0.000 C 
BRANCH  12  13
ATOM     13  C   UNL     1      89.197  84.826  79.943  1.00  0.00     0.006 C 
BRANCH  13  14
ATOM     14  C   UNL     1      89.354  83.349  80.328  1.00  0.00     0.053 C 
BRANCH  14  15
ATOM     15  C   UNL     1      88.145  82.549  79.946  1.00  0.00     0.041 C 
ATOM     16  O   UNL     1      87.830  81.519  80.600  1.00  0.00    -0.550 OA
ATOM     17  O   UNL     1      87.342  82.965  78.890  1.00  0.00    -0.550 OA
ENDBRANCH  14  15
ENDBRANCH  13  14
ENDBRANCH  12  13
ENDBRANCH  11  12
ENDBRANCH  10  11
ENDBRANCH   9  10
ENDBRANCH   8   9
ENDBRANCH   7   8
ENDBRANCH   6   7
ENDBRANCH   5   6
ENDBRANCH   4   5
ENDBRANCH   3   4
ENDBRANCH   2   3
ENDBRANCH   1   2
BRANCH   1  18
ATOM     18  C   UNL     1      95.588  85.270  83.930  1.00  0.00     0.000 C 
BRANCH  18  19
ATOM     19  C   UNL     1      97.067  85.278  84.356  1.00  0.00     0.000 C 
BRANCH  19  20
ATOM     20  C   UNL     1      97.355  84.315  85.519  1.00  0.00     0.000 C 
BRANCH  20  21
ATOM     21  C   UNL     1      98.453  84.835  86.463  1.00  0.00     0.000 C 
BRANCH  21  22
ATOM     22  C   UNL     1      99.776  84.048  86.420  1.00  0.00     0.000 C 
BRANCH  22  23
ATOM     23  C   UNL     1     100.673  84.403  85.215  1.00  0.00     0.000 C 
BRANCH  23  24
ATOM     24  C   UNL     1     100.611  83.337  84.106  1.00  0.00    -0.000 C 
BRANCH  24  25
ATOM     25  C   UNL     1     100.962  83.906  82.716  1.00  0.00    -0.000 C 
BRANCH  25  26
ATOM     26  C   UNL     1      99.936  83.552  81.625  1.00  0.00    -0.000 C 
BRANCH  26  27
ATOM     27  C   UNL     1      98.791  82.629  82.080  1.00  0.00    -0.000 C 
BRANCH  27  28
ATOM     28  C   UNL     1      97.748  82.300  80.996  1.00  0.00    -0.000 C 
BRANCH  28  29
ATOM     29  C   UNL     1      96.561  83.277  80.985  1.00  0.00    -0.000 C 
BRANCH  29  30
ATOM     30  C   UNL     1      96.670  84.316  79.851  1.00  0.00    -0.000 C 
BRANCH  30  31
ATOM     31  C   UNL     1      96.983  85.735  80.349  1.00  0.00    -0.003 C 
ATOM     32  C   UNL     1      95.734  86.604  80.502  1.00  0.00     0.004 C 
ENDBRANCH  30  31
ENDBRANCH  29  30
ENDBRANCH  28  29
ENDBRANCH  27  28
ENDBRANCH  26  27
ENDBRANCH  25  26
ENDBRANCH  24  25
ENDBRANCH  23  24
ENDBRANCH  22  23
ENDBRANCH  21  22
ENDBRANCH  20  21
ENDBRANCH  19  20
ENDBRANCH  18  19
ENDBRANCH   1  18
TORSDOF 28
ENDMDL
MODEL 2
REMARK VINA RESULT:    -4.221      0.995      3.417
REMARK INTER + INTRA:         -16.377
REMARK INTER:                 -11.353
REMARK INTRA:                  -5.024
REMARK UNBOUND:                -5.246
REMARK SMILES CCCCCCCCCCCCCCCCCCCCCCCCCCCCCC(=O)[O-]
REMARK SMILES IDX 16 1 17 2 18 3 19 4 20 5 21 6 22 7 23 8 24 9 25 10 26 11
REMARK SMILES IDX 27 12 28 13 29 14 30 15 31 16 32 17 15 18 14 19 13 20 12 21
REMARK SMILES IDX 11 22 10 23 9 24 8 25 7 26 6 27 5 28 4 29 3 30 2 31 1 32
REMARK H PARENT
REMARK Flexibility Score: inf
ROOT
ATOM      1  C   UNL     1      94.397  86.334  84.079  1.00  0.00     0.000 C 
ENDROOT
BRANCH   1   2
ATOM      2  C   UNL     1      93.925  85.201  85.013  1.00  0.00     0.000 C 
BRANCH   2   3
ATOM      3  C   UNL     1      92.431  85.243  85.378  1.00  0.00     0.000 C 
BRANCH   3   4
ATOM      4  C   UNL     1      91.657  84.018  84.860  1.00  0.00     0.000 C 
BRANCH   4   5
ATOM      5  C   UNL     1      90.703  84.366  83.706  1.00  0.00     0.000 C 
BRANCH   5   6
ATOM      6  C   UNL     1      91.070  83.649  82.394  1.00  0.00     0.000 C 
BRANCH   6   7
ATOM      7  C   UNL     1      92.354  84.203  81.748  1.00  0.00     0.000 C 
BRANCH   7   8
ATOM      8  C   UNL     1      93.141  83.192  80.890  1.00  0.00     0.000 C 
BRANCH   8   9
ATOM      9  C   UNL     1      93.166  83.488  79.376  1.00  0.00     0.000 C 
BRANCH   9  10
ATOM     10  C   UNL     1      92.642  84.879  78.977  1.00  0.00     0.000 C 
BRANCH  10  11
ATOM     11  C   UNL     1      91.274  84.826  78.280  1.00  0.00     0.000 C 
BRANCH  11  12
ATOM     12  C   UNL     1      90.173  85.477  79.135  1.00  0.00     0.000 C 
BRANCH  12  13
ATOM     13  C   UNL     1      88.872  84.654  79.128  1.00  0.00     0.006 C 
BRANCH  13  14
ATOM     14  C   UNL     1      89.129  83.164  79.389  1.00  0.00     0.053 C 
BRANCH  14  15
ATOM     15  C   UNL     1      87.877  82.454  79.810  1.00  0.00     0.041 C 
ATOM     16  O   UNL     1      86.794  82.659  79.200  1.00  0.00    -0.550 OA
ATOM     17  O   UNL     1      87.917  81.534  80.851  1.00  0.00    -0.550 OA
ENDBRANCH  14  15
ENDBRANCH  13  14
ENDBRANCH  12  13
ENDBRANCH  11  12
ENDBRANCH  10  11
ENDBRANCH   9  10
ENDBRANCH   8   9
ENDBRANCH   7   8
ENDBRANCH   6   7
ENDBRANCH   5   6
ENDBRANCH   4   5
ENDBRANCH   3   4
ENDBRANCH   2   3
ENDBRANCH   1   2
BRANCH   1  18
ATOM     18  C   UNL     1      95.316  85.894  82.920  1.00  0.00     0.000 C 
BRANCH  18  19
ATOM     19  C   UNL     1      95.127  86.668  81.603  1.00  0.00     0.000 C 
BRANCH  19  20
ATOM     20  C   UNL     1      95.805  85.980  80.407  1.00  0.00     0.000 C 
BRANCH  20  21
ATOM     21  C   UNL     1      97.215  85.463  80.740  1.00  0.00     0.000 C 
BRANCH  21  22
ATOM     22  C   UNL     1      97.598  84.132  80.065  1.00  0.00     0.000 C 
BRANCH  22  23
ATOM     23  C   UNL     1      97.214  82.883  80.887  1.00  0.00     0.000 C 
BRANCH  23  24
ATOM     24  C   UNL     1      98.322  82.468  81.871  1.00  0.00    -0.000 C 
BRANCH  24  25
ATOM     25  C   UNL     1      99.719  82.947  81.426  1.00  0.00    -0.000 C 
BRANCH  25  26
ATOM     26  C   UNL     1     100.648  83.321  82.595  1.00  0.00    -0.000 C 
BRANCH  26  27
ATOM     27  C   UNL     1      99.937  83.894  83.835  1.00  0.00    -0.000 C 
BRANCH  27  28
ATOM     28  C   UNL     1      99.598  85.394  83.758  1.00  0.00    -0.000 C 
BRANCH  28  29
ATOM     29  C   UNL     1      98.367  85.778  84.595  1.00  0.00    -0.000 C 
BRANCH  29  30
ATOM     30  C   UNL     1      97.721  84.558  85.280  1.00  0.00    -0.000 C 
BRANCH  30  31
ATOM     31  C   UNL     1      97.721  84.645  86.814  1.00  0.00    -0.003 C 
ATOM     32  C   UNL     1      96.757  85.701  87.353  1.00  0.00     0.004 C 
ENDBRANCH  30  31
ENDBRANCH  29  30
ENDBRANCH  28  29
ENDBRANCH  27  28
ENDBRANCH  26  27
ENDBRANCH  25  26
ENDBRANCH  24  25
ENDBRANCH  23  24
ENDBRANCH  22  23
ENDBRANCH  21  22
ENDBRANCH  20  21
ENDBRANCH  19  20
ENDBRANCH  18  19
ENDBRANCH   1  18
TORSDOF 28
ENDMDL
MODEL 3
REMARK VINA RESULT:    -4.189      2.957      7.485
REMARK INTER + INTRA:         -16.291
REMARK INTER:                 -11.894
REMARK INTRA:                  -4.396
REMARK UNBOUND:                -5.246
REMARK SMILES CCCCCCCCCCCCCCCCCCCCCCCCCCCCCC(=O)[O-]
REMARK SMILES IDX 16 1 17 2 18 3 19 4 20 5 21 6 22 7 23 8 24 9 25 10 26 11
REMARK SMILES IDX 27 12 28 13 29 14 30 15 31 16 32 17 15 18 14 19 13 20 12 21
REMARK SMILES IDX 11 22 10 23 9 24 8 25 7 26 6 27 5 28 4 29 3 30 2 31 1 32
REMARK H PARENT
REMARK Flexibility Score: inf
ROOT
ATOM      1  C   UNL     1      95.652  84.697  86.839  1.00  0.00     0.000 C 
ENDROOT
BRANCH   1   2
ATOM      2  C   UNL     1      97.059  84.477  86.248  1.00  0.00     0.000 C 
BRANCH   2   3
ATOM      3  C   UNL     1      97.123  84.483  84.710  1.00  0.00     0.000 C 
BRANCH   3   4
ATOM      4  C   UNL     1      97.827  85.731  84.149  1.00  0.00     0.000 C 
BRANCH   4   5
ATOM      5  C   UNL     1      99.168  85.399  83.472  1.00  0.00     0.000 C 
BRANCH   5   6
ATOM      6  C   UNL     1      99.702  84.008  83.861  1.00  0.00     0.000 C 
BRANCH   6   7
ATOM      7  C   UNL     1     100.401  83.287  82.693  1.00  0.00     0.000 C 
BRANCH   7   8
ATOM      8  C   UNL     1      99.528  83.073  81.441  1.00  0.00     0.000 C 
BRANCH   8   9
ATOM      9  C   UNL     1      98.190  82.344  81.684  1.00  0.00     0.000 C 
BRANCH   9  10
ATOM     10  C   UNL     1      97.032  82.794  80.776  1.00  0.00     0.000 C 
BRANCH  10  11
ATOM     11  C   UNL     1      96.755  84.303  80.864  1.00  0.00     0.000 C 
BRANCH  11  12
ATOM     12  C   UNL     1      96.395  84.897  79.492  1.00  0.00     0.000 C 
BRANCH  12  13
ATOM     13  C   UNL     1      95.605  86.212  79.619  1.00  0.00     0.006 C 
BRANCH  13  14
ATOM     14  C   UNL     1      96.524  87.441  79.618  1.00  0.00     0.053 C 
BRANCH  14  15
ATOM     15  C   UNL     1      96.532  88.124  80.953  1.00  0.00     0.041 C 
ATOM     16  O   UNL     1      95.451  88.487  81.489  1.00  0.00    -0.550 OA
ATOM     17  O   UNL     1      97.733  88.324  81.623  1.00  0.00    -0.550 OA
ENDBRANCH  14  15
ENDBRANCH  13  14
ENDBRANCH  12  13
ENDBRANCH  11  12
ENDBRANCH  10  11
ENDBRANCH   9  10
ENDBRANCH   8   9
ENDBRANCH   7   8
ENDBRANCH   6   7
ENDBRANCH   5   6
ENDBRANCH   4   5
ENDBRANCH   3   4
ENDBRANCH   2   3
ENDBRANCH   1   2
BRANCH   1  18
ATOM     18  C   UNL     1      94.485  84.533  85.844  1.00  0.00     0.000 C 
BRANCH  18  19
ATOM     19  C   UNL     1      93.090  84.414  86.484  1.00  0.00     0.000 C 
BRANCH  19  20
ATOM     20  C   UNL     1      92.010  85.176  85.698  1.00  0.00     0.000 C 
BRANCH  20  21
ATOM     21  C   UNL     1      91.052  84.238  84.943  1.00  0.00     0.000 C 
BRANCH  21  22
ATOM     22  C   UNL     1      91.406  83.999  83.462  1.00  0.00     0.000 C 
BRANCH  22  23
ATOM     23  C   UNL     1      92.339  85.072  82.864  1.00  0.00     0.000 C 
BRANCH  23  24
ATOM     24  C   UNL     1      93.427  84.463  81.962  1.00  0.00    -0.000 C 
BRANCH  24  25
ATOM     25  C   UNL     1      92.875  83.373  81.020  1.00  0.00    -0.000 C 
BRANCH  25  26
ATOM     26  C   UNL     1      92.850  83.789  79.539  1.00  0.00    -0.000 C 
BRANCH  26  27
ATOM     27  C   UNL     1      91.445  83.955  78.931  1.00  0.00    -0.000 C 
BRANCH  27  28
ATOM     28  C   UNL     1      90.602  85.092  79.537  1.00  0.00    -0.000 C 
BRANCH  28  29
ATOM     29  C   UNL     1      89.174  84.655  79.904  1.00  0.00    -0.000 C 
BRANCH  29  30
ATOM     30  C   UNL     1      89.117  83.196  80.399  1.00  0.00    -0.000 C 
BRANCH  30  31
ATOM     31  C   UNL     1      88.187  82.302  79.566  1.00  0.00    -0.003 C 
ATOM     32  C   UNL     1      87.451  81.257  80.407  1.00  0.00     0.004 C 
ENDBRANCH  30  31
ENDBRANCH  29  30
ENDBRANCH  28  29
ENDBRANCH  27  28
ENDBRANCH  26  27
ENDBRANCH  25  26
ENDBRANCH  24  25
ENDBRANCH  23  24
ENDBRANCH  22  23
ENDBRANCH  21  22
ENDBRANCH  20  21
ENDBRANCH  19  20
ENDBRANCH  18  19
ENDBRANCH   1  18
TORSDOF 28
ENDMDL
MODEL 4
REMARK VINA RESULT:    -4.177      3.553      7.742
REMARK INTER + INTRA:         -16.261
REMARK INTER:                 -11.101
REMARK INTRA:                  -5.160
REMARK UNBOUND:                -5.246
REMARK SMILES CCCCCCCCCCCCCCCCCCCCCCCCCCCCCC(=O)[O-]
REMARK SMILES IDX 16 1 17 2 18 3 19 4 20 5 21 6 22 7 23 8 24 9 25 10 26 11
REMARK SMILES IDX 27 12 28 13 29 14 30 15 31 16 32 17 15 18 14 19 13 20 12 21
REMARK SMILES IDX 11 22 10 23 9 24 8 25 7 26 6 27 5 28 4 29 3 30 2 31 1 32
REMARK H PARENT
REMARK Flexibility Score: inf
ROOT
ATOM      1  C   UNL     1      95.727  86.168  80.195  1.00  0.00     0.000 C 
ENDROOT
BRANCH   1   2
ATOM      2  C   UNL     1      96.409  84.996  79.461  1.00  0.00     0.000 C 
BRANCH   2   3
ATOM      3  C   UNL     1      97.599  84.368  80.209  1.00  0.00     0.000 C 
BRANCH   3   4
ATOM      4  C   UNL     1      97.344  82.906  80.613  1.00  0.00     0.000 C 
BRANCH   4   5
ATOM      5  C   UNL     1      98.295  82.424  81.721  1.00  0.00     0.000 C 
BRANCH   5   6
ATOM      6  C   UNL     1      99.707  83.024  81.596  1.00  0.00     0.000 C 
BRANCH   6   7
ATOM      7  C   UNL     1     100.405  83.204  82.957  1.00  0.00     0.000 C 
BRANCH   7   8
ATOM      8  C   UNL     1     101.294  84.458  83.074  1.00  0.00     0.000 C 
BRANCH   8   9
ATOM      9  C   UNL     1     100.623  85.786  82.664  1.00  0.00     0.000 C 
BRANCH   9  10
ATOM     10  C   UNL     1     101.580  86.844  82.086  1.00  0.00     0.000 C 
BRANCH  10  11
ATOM     11  C   UNL     1     100.905  87.756  81.048  1.00  0.00     0.000 C 
BRANCH  11  12
ATOM     12  C   UNL     1      99.516  88.221  81.515  1.00  0.00     0.000 C 
BRANCH  12  13
ATOM     13  C   UNL     1      98.540  88.402  80.339  1.00  0.00     0.006 C 
BRANCH  13  14
ATOM     14  C   UNL     1      97.867  89.782  80.353  1.00  0.00     0.053 C 
BRANCH  14  15
ATOM     15  C   UNL     1      97.201  90.083  79.045  1.00  0.00     0.041 C 
ATOM     16  O   UNL     1      96.490  91.115  78.916  1.00  0.00    -0.550 OA
ATOM     17  O   UNL     1      97.399  89.243  77.955  1.00  0.00    -0.550 OA
ENDBRANCH  14  15
ENDBRANCH  13  14
ENDBRANCH  12  13
ENDBRANCH  11  12
ENDBRANCH  10  11
ENDBRANCH   9  10
ENDBRANCH   8   9
ENDBRANCH   7   8
ENDBRANCH   6   7
ENDBRANCH   5   6
ENDBRANCH   4   5
ENDBRANCH   3   4
ENDBRANCH   2   3
ENDBRANCH   1   2
BRANCH   1  18
ATOM     18  C   UNL     1      95.386  85.910  81.678  1.00  0.00     0.000 C 
BRANCH  18  19
ATOM     19  C   UNL     1      95.994  86.912  82.675  1.00  0.00     0.000 C 
BRANCH  19  20
ATOM     20  C   UNL     1      97.129  86.301  83.513  1.00  0.00     0.000 C 
BRANCH  20  21
ATOM     21  C   UNL     1      96.866  84.833  83.889  1.00  0.00     0.000 C 
BRANCH  21  22
ATOM     22  C   UNL     1      97.236  84.453  85.335  1.00  0.00     0.000 C 
BRANCH  22  23
ATOM     23  C   UNL     1      96.017  84.132  86.226  1.00  0.00     0.000 C 
BRANCH  23  24
ATOM     24  C   UNL     1      94.832  85.075  85.957  1.00  0.00    -0.000 C 
BRANCH  24  25
ATOM     25  C   UNL     1      93.474  84.441  86.324  1.00  0.00    -0.000 C 
BRANCH  25  26
ATOM     26  C   UNL     1      92.447  84.469  85.178  1.00  0.00    -0.000 C 
BRANCH  26  27
ATOM     27  C   UNL     1      92.676  85.569  84.124  1.00  0.00    -0.000 C 
BRANCH  27  28
ATOM     28  C   UNL     1      91.909  85.375  82.803  1.00  0.00    -0.000 C 
BRANCH  28  29
ATOM     29  C   UNL     1      91.926  83.922  82.302  1.00  0.00    -0.000 C 
BRANCH  29  30
ATOM     30  C   UNL     1      91.595  83.816  80.800  1.00  0.00    -0.000 C 
BRANCH  30  31
ATOM     31  C   UNL     1      92.839  83.697  79.906  1.00  0.00    -0.003 C 
ATOM     32  C   UNL     1      93.800  82.599  80.362  1.00  0.00     0.004 C 
ENDBRANCH  30  31
ENDBRANCH  29  30
ENDBRANCH  28  29
ENDBRANCH  27  28
ENDBRANCH  26  27
ENDBRANCH  25  26
ENDBRANCH  24  25
ENDBRANCH  23  24
ENDBRANCH  22  23
ENDBRANCH  21  22
ENDBRANCH  20  21
ENDBRANCH  19  20
ENDBRANCH  18  19
ENDBRANCH   1  18
TORSDOF 28
ENDMDL
MODEL 5
REMARK VINA RESULT:    -4.148      2.909      7.922
REMARK INTER + INTRA:         -16.184
REMARK INTER:                 -10.719
REMARK INTRA:                  -5.464
REMARK UNBOUND:                -5.246
REMARK SMILES CCCCCCCCCCCCCCCCCCCCCCCCCCCCCC(=O)[O-]
REMARK SMILES IDX 16 1 17 2 18 3 19 4 20 5 21 6 22 7 23 8 24 9 25 10 26 11
REMARK SMILES IDX 27 12 28 13 29 14 30 15 31 16 32 17 15 18 14 19 13 20 12 21
REMARK SMILES IDX 11 22 10 23 9 24 8 25 7 26 6 27 5 28 4 29 3 30 2 31 1 32
REMARK H PARENT
REMARK Flexibility Score: inf
ROOT
ATOM      1  C   UNL     1      96.374  82.989  80.905  1.00  0.00     0.000 C 
ENDROOT
BRANCH   1   2
ATOM      2  C   UNL     1      97.652  82.396  81.531  1.00  0.00     0.000 C 
BRANCH   2   3
ATOM      3  C   UNL     1      98.918  83.252  81.353  1.00  0.00     0.000 C 
BRANCH   3   4
ATOM      4  C   UNL     1      99.980  82.978  82.432  1.00  0.00     0.000 C 
BRANCH   4   5
ATOM      5  C   UNL     1     101.080  84.052  82.465  1.00  0.00     0.000 C 
BRANCH   5   6
ATOM      6  C   UNL     1     101.554  84.374  83.894  1.00  0.00     0.000 C 
BRANCH   6   7
ATOM      7  C   UNL     1     100.962  83.422  84.950  1.00  0.00     0.000 C 
BRANCH   7   8
ATOM      8  C   UNL     1     100.695  84.061  86.328  1.00  0.00     0.000 C 
BRANCH   8   9
ATOM      9  C   UNL     1      99.223  84.418  86.618  1.00  0.00     0.000 C 
BRANCH   9  10
ATOM     10  C   UNL     1      98.573  85.369  85.597  1.00  0.00     0.000 C 
BRANCH  10  11
ATOM     11  C   UNL     1      97.445  84.703  84.792  1.00  0.00     0.000 C 
BRANCH  11  12
ATOM     12  C   UNL     1      96.451  83.968  85.706  1.00  0.00     0.000 C 
BRANCH  12  13
ATOM     13  C   UNL     1      95.538  84.942  86.471  1.00  0.00     0.006 C 
BRANCH  13  14
ATOM     14  C   UNL     1      94.368  84.222  87.155  1.00  0.00     0.053 C 
BRANCH  14  15
ATOM     15  C   UNL     1      93.340  85.192  87.656  1.00  0.00     0.041 C 
ATOM     16  O   UNL     1      92.113  84.957  87.498  1.00  0.00    -0.550 OA
ATOM     17  O   UNL     1      93.740  86.338  88.333  1.00  0.00    -0.550 OA
ENDBRANCH  14  15
ENDBRANCH  13  14
ENDBRANCH  12  13
ENDBRANCH  11  12
ENDBRANCH  10  11
ENDBRANCH   9  10
ENDBRANCH   8   9
ENDBRANCH   7   8
ENDBRANCH   6   7
ENDBRANCH   5   6
ENDBRANCH   4   5
ENDBRANCH   3   4
ENDBRANCH   2   3
ENDBRANCH   1   2
BRANCH   1  18
ATOM     18  C   UNL     1      96.533  84.393  80.284  1.00  0.00     0.000 C 
BRANCH  18  19
ATOM     19  C   UNL     1      95.398  84.824  79.338  1.00  0.00     0.000 C 
BRANCH  19  20
ATOM     20  C   UNL     1      94.200  83.862  79.371  1.00  0.00     0.000 C 
BRANCH  20  21
ATOM     21  C   UNL     1      92.852  84.585  79.206  1.00  0.00     0.000 C 
BRANCH  21  22
ATOM     22  C   UNL     1      91.868  84.407  80.378  1.00  0.00     0.000 C 
BRANCH  22  23
ATOM     23  C   UNL     1      92.501  83.763  81.630  1.00  0.00     0.000 C 
BRANCH  23  24
ATOM     24  C   UNL     1      92.672  84.770  82.781  1.00  0.00    -0.000 C 
BRANCH  24  25
ATOM     25  C   UNL     1      94.143  85.186  82.992  1.00  0.00    -0.000 C 
BRANCH  25  26
ATOM     26  C   UNL     1      94.449  86.627  82.548  1.00  0.00    -0.000 C 
BRANCH  26  27
ATOM     27  C   UNL     1      95.505  87.361  83.395  1.00  0.00    -0.000 C 
BRANCH  27  28
ATOM     28  C   UNL     1      96.412  88.328  82.613  1.00  0.00    -0.000 C 
BRANCH  28  29
ATOM     29  C   UNL     1      96.412  88.064  81.098  1.00  0.00    -0.000 C 
BRANCH  29  30
ATOM     30  C   UNL     1      97.818  87.726  80.564  1.00  0.00    -0.000 C 
BRANCH  30  31
ATOM     31  C   UNL     1      98.760  87.155  81.634  1.00  0.00    -0.003 C 
ATOM     32  C   UNL     1     100.238  87.352  81.297  1.00  0.00     0.004 C 
ENDBRANCH  30  31
ENDBRANCH  29  30
ENDBRANCH  28  29
ENDBRANCH  27  28
ENDBRANCH  26  27
ENDBRANCH  25  26
ENDBRANCH  24  25
ENDBRANCH  23  24
ENDBRANCH  22  23
ENDBRANCH  21  22
ENDBRANCH  20  21
ENDBRANCH  19  20
ENDBRANCH  18  19
ENDBRANCH   1  18
TORSDOF 28
ENDMDL
MODEL 6
REMARK VINA RESULT:    -4.141      3.481      6.437
REMARK INTER + INTRA:         -16.165
REMARK INTER:                 -10.482
REMARK INTRA:                  -5.683
REMARK UNBOUND:                -5.246
REMARK SMILES CCCCCCCCCCCCCCCCCCCCCCCCCCCCCC(=O)[O-]
REMARK SMILES IDX 16 1 17 2 18 3 19 4 20 5 21 6 22 7 23 8 24 9 25 10 26 11
REMARK SMILES IDX 27 12 28 13 29 14 30 15 31 16 32 17 15 18 14 19 13 20 12 21
REMARK SMILES IDX 11 22 10 23 9 24 8 25 7 26 6 27 5 28 4 29 3 30 2 31 1 32
REMARK H PARENT
REMARK Flexibility Score: inf
ROOT
ATOM      1  C   UNL     1      97.532  84.676  84.701  1.00  0.00     0.000 C 
ENDROOT
BRANCH   1   2
ATOM      2  C   UNL     1      98.432  84.499  85.940  1.00  0.00     0.000 C 
BRANCH   2   3
ATOM      3  C   UNL     1      99.829  85.133  85.821  1.00  0.00     0.000 C 
BRANCH   3   4
ATOM      4  C   UNL     1     100.874  84.167  85.238  1.00  0.00     0.000 C 
BRANCH   4   5
ATOM      5  C   UNL     1     101.698  84.800  84.104  1.00  0.00     0.000 C 
BRANCH   5   6
ATOM      6  C   UNL     1     101.450  84.126  82.742  1.00  0.00     0.000 C 
BRANCH   6   7
ATOM      7  C   UNL     1     100.246  83.164  82.760  1.00  0.00     0.000 C 
BRANCH   7   8
ATOM      8  C   UNL     1      99.376  83.185  81.488  1.00  0.00     0.000 C 
BRANCH   8   9
ATOM      9  C   UNL     1      97.952  82.612  81.651  1.00  0.00     0.000 C 
BRANCH   9  10
ATOM     10  C   UNL     1      96.921  83.139  80.636  1.00  0.00     0.000 C 
BRANCH  10  11
ATOM     11  C   UNL     1      97.406  84.389  79.884  1.00  0.00     0.000 C 
BRANCH  11  12
ATOM     12  C   UNL     1      96.288  85.433  79.733  1.00  0.00     0.000 C 
BRANCH  12  13
ATOM     13  C   UNL     1      94.990  84.998  80.437  1.00  0.00     0.006 C 
BRANCH  13  14
ATOM     14  C   UNL     1      93.805  84.913  79.465  1.00  0.00     0.053 C 
BRANCH  14  15
ATOM     15  C   UNL     1      92.896  83.770  79.804  1.00  0.00     0.041 C 
ATOM     16  O   UNL     1      91.724  83.732  79.343  1.00  0.00    -0.550 OA
ATOM     17  O   UNL     1      93.358  82.726  80.597  1.00  0.00    -0.550 OA
ENDBRANCH  14  15
ENDBRANCH  13  14
ENDBRANCH  12  13
ENDBRANCH  11  12
ENDBRANCH  10  11
ENDBRANCH   9  10
ENDBRANCH   8   9
ENDBRANCH   7   8
ENDBRANCH   6   7
ENDBRANCH   5   6
ENDBRANCH   4   5
ENDBRANCH   3   4
ENDBRANCH   2   3
ENDBRANCH   1   2
BRANCH   1  18
ATOM     18  C   UNL     1      97.309  86.135  84.250  1.00  0.00     0.000 C 
BRANCH  18  19
ATOM     19  C   UNL     1      97.772  86.456  82.818  1.00  0.00     0.000 C 
BRANCH  19  20
ATOM     20  C   UNL     1      99.176  87.083  82.774  1.00  0.00     0.000 C 
BRANCH  20  21
ATOM     21  C   UNL     1      99.755  87.143  81.350  1.00  0.00     0.000 C 
BRANCH  21  22
ATOM     22  C   UNL     1     101.242  87.540  81.267  1.00  0.00     0.000 C 
BRANCH  22  23
ATOM     23  C   UNL     1     101.482  89.064  81.315  1.00  0.00     0.000 C 
BRANCH  23  24
ATOM     24  C   UNL     1     102.565  89.516  80.319  1.00  0.00    -0.000 C 
BRANCH  24  25
ATOM     25  C   UNL     1     102.054  90.584  79.330  1.00  0.00    -0.000 C 
BRANCH  25  26
ATOM     26  C   UNL     1     100.728  90.209  78.645  1.00  0.00    -0.000 C 
BRANCH  26  27
ATOM     27  C   UNL     1      99.811  91.398  78.304  1.00  0.00    -0.000 C 
BRANCH  27  28
ATOM     28  C   UNL     1      98.361  91.269  78.808  1.00  0.00    -0.000 C 
BRANCH  28  29
ATOM     29  C   UNL     1      98.210  90.264  79.961  1.00  0.00    -0.000 C 
BRANCH  29  30
ATOM     30  C   UNL     1      97.174  89.165  79.647  1.00  0.00    -0.000 C 
BRANCH  30  31
ATOM     31  C   UNL     1      96.117  88.988  80.747  1.00  0.00    -0.003 C 
ATOM     32  C   UNL     1      96.368  89.875  81.967  1.00  0.00     0.004 C 
ENDBRANCH  30  31
ENDBRANCH  29  30
ENDBRANCH  28  29
ENDBRANCH  27  28
ENDBRANCH  26  27
ENDBRANCH  25  26
ENDBRANCH  24  25
ENDBRANCH  23  24
ENDBRANCH  22  23
ENDBRANCH  21  22
ENDBRANCH  20  21
ENDBRANCH  19  20
ENDBRANCH  18  19
ENDBRANCH   1  18
TORSDOF 28
ENDMDL
MODEL 7
REMARK VINA RESULT:    -4.133      1.427      3.360
REMARK INTER + INTRA:         -16.144
REMARK INTER:                 -10.869
REMARK INTRA:                  -5.275
REMARK UNBOUND:                -5.246
REMARK SMILES CCCCCCCCCCCCCCCCCCCCCCCCCCCCCC(=O)[O-]
REMARK SMILES IDX 16 1 17 2 18 3 19 4 20 5 21 6 22 7 23 8 24 9 25 10 26 11
REMARK SMILES IDX 27 12 28 13 29 14 30 15 31 16 32 17 15 18 14 19 13 20 12 21
REMARK SMILES IDX 11 22 10 23 9 24 8 25 7 26 6 27 5 28 4 29 3 30 2 31 1 32
REMARK H PARENT
REMARK Flexibility Score: inf
ROOT
ATOM      1  C   UNL     1      95.414  85.508  84.111  1.00  0.00     0.000 C 
ENDROOT
BRANCH   1   2
ATOM      2  C   UNL     1      95.185  87.033  84.106  1.00  0.00     0.000 C 
BRANCH   2   3
ATOM      3  C   UNL     1      94.537  87.595  85.383  1.00  0.00     0.000 C 
BRANCH   3   4
ATOM      4  C   UNL     1      95.354  87.289  86.650  1.00  0.00     0.000 C 
BRANCH   4   5
ATOM      5  C   UNL     1      94.509  86.632  87.755  1.00  0.00     0.000 C 
BRANCH   5   6
ATOM      6  C   UNL     1      94.690  85.104  87.813  1.00  0.00     0.000 C 
BRANCH   6   7
ATOM      7  C   UNL     1      93.497  84.336  87.214  1.00  0.00     0.000 C 
BRANCH   7   8
ATOM      8  C   UNL     1      92.193  85.150  87.089  1.00  0.00     0.000 C 
BRANCH   8   9
ATOM      9  C   UNL     1      91.594  85.226  85.669  1.00  0.00     0.000 C 
BRANCH   9  10
ATOM     10  C   UNL     1      92.090  84.141  84.697  1.00  0.00     0.000 C 
BRANCH  10  11
ATOM     11  C   UNL     1      91.396  84.204  83.326  1.00  0.00     0.000 C 
BRANCH  11  12
ATOM     12  C   UNL     1      92.414  84.233  82.174  1.00  0.00     0.000 C 
BRANCH  12  13
ATOM     13  C   UNL     1      91.999  83.312  81.012  1.00  0.00     0.006 C 
BRANCH  13  14
ATOM     14  C   UNL     1      90.572  83.601  80.526  1.00  0.00     0.053 C 
BRANCH  14  15
ATOM     15  C   UNL     1      90.573  84.347  79.226  1.00  0.00     0.041 C 
ATOM     16  O   UNL     1      91.516  84.193  78.404  1.00  0.00    -0.550 OA
ATOM     17  O   UNL     1      89.510  85.183  78.904  1.00  0.00    -0.550 OA
ENDBRANCH  14  15
ENDBRANCH  13  14
ENDBRANCH  12  13
ENDBRANCH  11  12
ENDBRANCH  10  11
ENDBRANCH   9  10
ENDBRANCH   8   9
ENDBRANCH   7   8
ENDBRANCH   6   7
ENDBRANCH   5   6
ENDBRANCH   4   5
ENDBRANCH   3   4
ENDBRANCH   2   3
ENDBRANCH   1   2
BRANCH   1  18
ATOM     18  C   UNL     1      96.889  85.063  84.198  1.00  0.00     0.000 C 
BRANCH  18  19
ATOM     19  C   UNL     1      97.227  84.141  85.383  1.00  0.00     0.000 C 
BRANCH  19  20
ATOM     20  C   UNL     1      98.176  84.800  86.397  1.00  0.00     0.000 C 
BRANCH  20  21
ATOM     21  C   UNL     1      99.581  84.174  86.391  1.00  0.00     0.000 C 
BRANCH  21  22
ATOM     22  C   UNL     1     100.495  84.634  85.239  1.00  0.00     0.000 C 
BRANCH  22  23
ATOM     23  C   UNL     1     100.670  83.580  84.125  1.00  0.00     0.000 C 
BRANCH  23  24
ATOM     24  C   UNL     1     100.334  84.142  82.732  1.00  0.00    -0.000 C 
BRANCH  24  25
ATOM     25  C   UNL     1      99.898  83.044  81.739  1.00  0.00    -0.000 C 
BRANCH  25  26
ATOM     26  C   UNL     1      98.460  82.543  81.962  1.00  0.00    -0.000 C 
BRANCH  26  27
ATOM     27  C   UNL     1      97.600  82.443  80.688  1.00  0.00    -0.000 C 
BRANCH  27  28
ATOM     28  C   UNL     1      96.127  82.857  80.862  1.00  0.00    -0.000 C 
BRANCH  28  29
ATOM     29  C   UNL     1      95.867  84.328  80.498  1.00  0.00    -0.000 C 
BRANCH  29  30
ATOM     30  C   UNL     1      97.150  85.057  80.052  1.00  0.00    -0.000 C 
BRANCH  30  31
ATOM     31  C   UNL     1      97.375  86.397  80.769  1.00  0.00    -0.003 C 
ATOM     32  C   UNL     1      98.711  87.048  80.413  1.00  0.00     0.004 C 
ENDBRANCH  30  31
ENDBRANCH  29  30
ENDBRANCH  28  29
ENDBRANCH  27  28
ENDBRANCH  26  27
ENDBRANCH  25  26
ENDBRANCH  24  25
ENDBRANCH  23  24
ENDBRANCH  22  23
ENDBRANCH  21  22
ENDBRANCH  20  21
ENDBRANCH  19  20
ENDBRANCH  18  19
ENDBRANCH   1  18
TORSDOF 28
ENDMDL
MODEL 8
REMARK VINA RESULT:    -4.097      5.627      8.732
REMARK INTER + INTRA:         -16.050
REMARK INTER:                 -10.561
REMARK INTRA:                  -5.490
REMARK UNBOUND:                -5.246
REMARK SMILES CCCCCCCCCCCCCCCCCCCCCCCCCCCCCC(=O)[O-]
REMARK SMILES IDX 16 1 17 2 18 3 19 4 20 5 21 6 22 7 23 8 24 9 25 10 26 11
REMARK SMILES IDX 27 12 28 13 29 14 30 15 31 16 32 17 15 18 14 19 13 20 12 21
REMARK SMILES IDX 11 22 10 23 9 24 8 25 7 26 6 27 5 28 4 29 3 30 2 31 1 32
REMARK H PARENT
REMARK Flexibility Score: inf
ROOT
ATOM      1  C   UNL     1     100.006  83.070  82.480  1.00  0.00     0.000 C 
ENDROOT
BRANCH   1   2
ATOM      2  C   UNL     1      99.068  83.146  81.258  1.00  0.00     0.000 C 
BRANCH   2   3
ATOM      3  C   UNL     1      97.723  82.418  81.428  1.00  0.00     0.000 C 
BRANCH   3   4
ATOM      4  C   UNL     1      96.557  83.153  80.744  1.00  0.00     0.000 C 
BRANCH   4   5
ATOM      5  C   UNL     1      96.974  84.520  80.174  1.00  0.00     0.000 C 
BRANCH   5   6
ATOM      6  C   UNL     1      95.863  85.579  80.296  1.00  0.00     0.000 C 
BRANCH   6   7
ATOM      7  C   UNL     1      96.106  86.809  79.403  1.00  0.00     0.000 C 
BRANCH   7   8
ATOM      8  C   UNL     1      96.489  88.098  80.157  1.00  0.00     0.000 C 
BRANCH   8   9
ATOM      9  C   UNL     1      96.839  89.308  79.265  1.00  0.00     0.000 C 
BRANCH   9  10
ATOM     10  C   UNL     1      97.875  89.024  78.163  1.00  0.00     0.000 C 
BRANCH  10  11
ATOM     11  C   UNL     1      99.287  89.507  78.532  1.00  0.00     0.000 C 
BRANCH  11  12
ATOM     12  C   UNL     1      99.247  90.761  79.420  1.00  0.00     0.000 C 
BRANCH  12  13
ATOM     13  C   UNL     1     100.655  91.217  79.842  1.00  0.00     0.006 C 
BRANCH  13  14
ATOM     14  C   UNL     1     101.709  90.909  78.770  1.00  0.00     0.053 C 
BRANCH  14  15
ATOM     15  C   UNL     1     103.066  90.708  79.373  1.00  0.00     0.041 C 
ATOM     16  O   UNL     1     103.949  91.601  79.266  1.00  0.00    -0.550 OA
ATOM     17  O   UNL     1     103.343  89.549  80.089  1.00  0.00    -0.550 OA
ENDBRANCH  14  15
ENDBRANCH  13  14
ENDBRANCH  12  13
ENDBRANCH  11  12
ENDBRANCH  10  11
ENDBRANCH   9  10
ENDBRANCH   8   9
ENDBRANCH   7   8
ENDBRANCH   6   7
ENDBRANCH   5   6
ENDBRANCH   4   5
ENDBRANCH   3   4
ENDBRANCH   2   3
ENDBRANCH   1   2
BRANCH   1  18
ATOM     18  C   UNL     1     101.382  83.744  82.299  1.00  0.00     0.000 C 
BRANCH  18  19
ATOM     19  C   UNL     1     101.803  84.692  83.436  1.00  0.00     0.000 C 
BRANCH  19  20
ATOM     20  C   UNL     1     103.072  85.494  83.102  1.00  0.00     0.000 C 
BRANCH  20  21
ATOM     21  C   UNL     1     102.791  86.690  82.176  1.00  0.00     0.000 C 
BRANCH  21  22
ATOM     22  C   UNL     1     101.598  87.571  82.592  1.00  0.00     0.000 C 
BRANCH  22  23
ATOM     23  C   UNL     1     100.601  87.850  81.448  1.00  0.00     0.000 C 
BRANCH  23  24
ATOM     24  C   UNL     1      99.408  86.878  81.462  1.00  0.00    -0.000 C 
BRANCH  24  25
ATOM     25  C   UNL     1      98.967  86.503  82.892  1.00  0.00    -0.000 C 
BRANCH  25  26
ATOM     26  C   UNL     1      97.595  87.077  83.288  1.00  0.00    -0.000 C 
BRANCH  26  27
ATOM     27  C   UNL     1      96.636  86.073  83.955  1.00  0.00    -0.000 C 
BRANCH  27  28
ATOM     28  C   UNL     1      97.251  84.700  84.279  1.00  0.00    -0.000 C 
BRANCH  28  29
ATOM     29  C   UNL     1      97.569  84.519  85.773  1.00  0.00    -0.000 C 
BRANCH  29  30
ATOM     30  C   UNL     1      99.058  84.202  86.020  1.00  0.00    -0.000 C 
BRANCH  30  31
ATOM     31  C   UNL     1      99.867  85.410  86.517  1.00  0.00    -0.003 C 
ATOM     32  C   UNL     1     100.845  85.054  87.636  1.00  0.00     0.004 C 
ENDBRANCH  30  31
ENDBRANCH  29  30
ENDBRANCH  28  29
ENDBRANCH  27  28
ENDBRANCH  26  27
ENDBRANCH  25  26
ENDBRANCH  24  25
ENDBRANCH  23  24
ENDBRANCH  22  23
ENDBRANCH  21  22
ENDBRANCH  20  21
ENDBRANCH  19  20
ENDBRANCH  18  19
ENDBRANCH   1  18
TORSDOF 28
ENDMDL
MODEL 9
REMARK VINA RESULT:    -4.077      1.985      4.930
REMARK INTER + INTRA:         -15.996
REMARK INTER:                 -10.618
REMARK INTRA:                  -5.378
REMARK UNBOUND:                -5.246
REMARK SMILES CCCCCCCCCCCCCCCCCCCCCCCCCCCCCC(=O)[O-]
REMARK SMILES IDX 16 1 17 2 18 3 19 4 20 5 21 6 22 7 23 8 24 9 25 10 26 11
REMARK SMILES IDX 27 12 28 13 29 14 30 15 31 16 32 17 15 18 14 19 13 20 12 21
REMARK SMILES IDX 11 22 10 23 9 24 8 25 7 26 6 27 5 28 4 29 3 30 2 31 1 32
REMARK H PARENT
REMARK Flexibility Score: inf
ROOT
ATOM      1  C   UNL     1      98.925  82.636  82.018  1.00  0.00     0.000 C 
ENDROOT
BRANCH   1   2
ATOM      2  C   UNL     1      97.907  82.565  80.862  1.00  0.00     0.000 C 
BRANCH   2   3
ATOM      3  C   UNL     1      97.667  83.896  80.128  1.00  0.00     0.000 C 
BRANCH   3   4
ATOM      4  C   UNL     1      96.194  84.339  80.164  1.00  0.00     0.000 C 
BRANCH   4   5
ATOM      5  C   UNL     1      95.236  83.179  80.486  1.00  0.00     0.000 C 
BRANCH   5   6
ATOM      6  C   UNL     1      93.825  83.662  80.866  1.00  0.00     0.000 C 
BRANCH   6   7
ATOM      7  C   UNL     1      93.765  85.176  81.147  1.00  0.00     0.000 C 
BRANCH   7   8
ATOM      8  C   UNL     1      93.297  85.558  82.565  1.00  0.00     0.000 C 
BRANCH   8   9
ATOM      9  C   UNL     1      92.344  84.552  83.242  1.00  0.00     0.000 C 
BRANCH   9  10
ATOM     10  C   UNL     1      90.951  85.109  83.588  1.00  0.00     0.000 C 
BRANCH  10  11
ATOM     11  C   UNL     1      89.826  84.456  82.769  1.00  0.00     0.000 C 
BRANCH  11  12
ATOM     12  C   UNL     1      90.369  83.397  81.796  1.00  0.00     0.000 C 
BRANCH  12  13
ATOM     13  C   UNL     1      89.616  83.402  80.454  1.00  0.00     0.006 C 
BRANCH  13  14
ATOM     14  C   UNL     1      89.728  84.752  79.733  1.00  0.00     0.053 C 
BRANCH  14  15
ATOM     15  C   UNL     1      90.872  84.766  78.764  1.00  0.00     0.041 C 
ATOM     16  O   UNL     1      91.537  83.718  78.550  1.00  0.00    -0.550 OA
ATOM     17  O   UNL     1      91.177  85.929  78.066  1.00  0.00    -0.550 OA
ENDBRANCH  14  15
ENDBRANCH  13  14
ENDBRANCH  12  13
ENDBRANCH  11  12
ENDBRANCH  10  11
ENDBRANCH   9  10
ENDBRANCH   8   9
ENDBRANCH   7   8
ENDBRANCH   6   7
ENDBRANCH   5   6
ENDBRANCH   4   5
ENDBRANCH   3   4
ENDBRANCH   2   3
ENDBRANCH   1   2
BRANCH   1  18
ATOM     18  C   UNL     1      99.672  83.979  82.159  1.00  0.00     0.000 C 
BRANCH  18  19
ATOM     19  C   UNL     1     101.050  83.895  82.838  1.00  0.00     0.000 C 
BRANCH  19  20
ATOM     20  C   UNL     1     101.743  85.263  82.948  1.00  0.00     0.000 C 
BRANCH  20  21
ATOM     21  C   UNL     1     100.857  86.326  83.619  1.00  0.00     0.000 C 
BRANCH  21  22
ATOM     22  C   UNL     1     100.744  87.659  82.854  1.00  0.00     0.000 C 
BRANCH  22  23
ATOM     23  C   UNL     1     100.602  87.490  81.327  1.00  0.00     0.000 C 
BRANCH  23  24
ATOM     24  C   UNL     1      99.141  87.271  80.897  1.00  0.00    -0.000 C 
BRANCH  24  25
ATOM     25  C   UNL     1      98.139  88.028  81.793  1.00  0.00    -0.000 C 
BRANCH  25  26
ATOM     26  C   UNL     1      96.958  87.165  82.269  1.00  0.00    -0.000 C 
BRANCH  26  27
ATOM     27  C   UNL     1      97.133  86.531  83.662  1.00  0.00    -0.000 C 
BRANCH  27  28
ATOM     28  C   UNL     1      96.699  85.058  83.768  1.00  0.00    -0.000 C 
BRANCH  28  29
ATOM     29  C   UNL     1      96.879  84.475  85.179  1.00  0.00    -0.000 C 
BRANCH  29  30
ATOM     30  C   UNL     1      98.361  84.416  85.603  1.00  0.00    -0.000 C 
BRANCH  30  31
ATOM     31  C   UNL     1      98.606  84.894  87.042  1.00  0.00    -0.003 C 
ATOM     32  C   UNL     1      99.661  85.998  87.133  1.00  0.00     0.004 C 
ENDBRANCH  30  31
ENDBRANCH  29  30
ENDBRANCH  28  29
ENDBRANCH  27  28
ENDBRANCH  26  27
ENDBRANCH  25  26
ENDBRANCH  24  25
ENDBRANCH  23  24
ENDBRANCH  22  23
ENDBRANCH  21  22
ENDBRANCH  20  21
ENDBRANCH  19  20
ENDBRANCH  18  19
ENDBRANCH   1  18
TORSDOF 28
ENDMDL
