MODEL 1
REMARK VINA RESULT:    -1.377      0.000      0.000
REMARK INTER + INTRA:          -2.560
REMARK INTER:                  -2.101
REMARK INTRA:                  -0.459
REMARK UNBOUND:                -0.459
REMARK SMILES CCCCCCCCCCC(=O)[O-]
REMARK SMILES IDX 7 1 8 2 9 3 10 4 11 5 12 6 13 7 6 8 5 9 4 10 3 11 2 12 1 13
REMARK H PARENT
REMARK Flexibility Score: inf
ROOT
ATOM      1  C   UNL     1       8.069 -29.152 -17.042  1.00  0.00     0.000 C 
ENDROOT
BRANCH   1   2
ATOM      2  C   UNL     1       8.145 -29.159 -15.507  1.00  0.00     0.000 C 
BRANCH   2   3
ATOM      3  C   UNL     1       8.895 -30.401 -15.002  1.00  0.00     0.006 C 
BRANCH   3   4
ATOM      4  C   UNL     1       9.709 -31.079 -16.112  1.00  0.00     0.053 C 
BRANCH   4   5
ATOM      5  C   UNL     1       9.299 -32.506 -16.312  1.00  0.00     0.041 C 
ATOM      6  O   UNL     1       9.280 -33.003 -17.469  1.00  0.00    -0.550 OA
ATOM      7  O   UNL     1       8.906 -33.276 -15.225  1.00  0.00    -0.550 OA
ENDBRANCH   4   5
ENDBRANCH   3   4
ENDBRANCH   2   3
ENDBRANCH   1   2
BRANCH   1   8
ATOM      8  C   UNL     1       6.645 -28.901 -17.564  1.00  0.00     0.000 C 
BRANCH   8   9
ATOM      9  C   UNL     1       6.625 -28.473 -19.043  1.00  0.00    -0.000 C 
BRANCH   9  10
ATOM     10  C   UNL     1       7.577 -29.311 -19.912  1.00  0.00    -0.000 C 
BRANCH  10  11
ATOM     11  C   UNL     1       7.209 -29.273 -21.403  1.00  0.00    -0.000 C 
BRANCH  11  12
ATOM     12  C   UNL     1       6.120 -28.228 -21.673  1.00  0.00    -0.003 C 
ATOM     13  C   UNL     1       6.150 -27.762 -23.125  1.00  0.00     0.004 C 
ENDBRANCH  11  12
ENDBRANCH  10  11
ENDBRANCH   9  10
ENDBRANCH   8   9
ENDBRANCH   1   8
TORSDOF 9
ENDMDL
MODEL 2
REMARK VINA RESULT:     0.274      3.370      6.509
REMARK INTER + INTRA:          -0.041
REMARK INTER:                   0.330
REMARK INTRA:                  -0.370
REMARK UNBOUND:                -0.459
REMARK SMILES CCCCCCCCCCC(=O)[O-]
REMARK SMILES IDX 7 1 8 2 9 3 10 4 11 5 12 6 13 7 6 8 5 9 4 10 3 11 2 12 1 13
REMARK H PARENT
REMARK Flexibility Score: inf
ROOT
ATOM      1  C   UNL     1       8.359 -29.513 -18.766  1.00  0.00     0.000 C 
ENDROOT
BRANCH   1   2
ATOM      2  C   UNL     1       7.013 -28.867 -18.400  1.00  0.00     0.000 C 
BRANCH   2   3
ATOM      3  C   UNL     1       6.290 -28.358 -19.656  1.00  0.00     0.006 C 
BRANCH   3   4
ATOM      4  C   UNL     1       6.675 -29.154 -20.910  1.00  0.00     0.053 C 
BRANCH   4   5
ATOM      5  C   UNL     1       6.806 -28.271 -22.113  1.00  0.00     0.041 C 
ATOM      6  O   UNL     1       5.877 -28.214 -22.961  1.00  0.00    -0.550 OA
ATOM      7  O   UNL     1       7.968 -27.537 -22.314  1.00  0.00    -0.550 OA
ENDBRANCH   4   5
ENDBRANCH   3   4
ENDBRANCH   2   3
ENDBRANCH   1   2
BRANCH   1   8
ATOM      8  C   UNL     1       9.246 -29.772 -17.537  1.00  0.00     0.000 C 
BRANCH   8   9
ATOM      9  C   UNL     1       8.552 -29.395 -16.217  1.00  0.00    -0.000 C 
BRANCH   9  10
ATOM     10  C   UNL     1       8.879 -30.374 -15.078  1.00  0.00    -0.000 C 
BRANCH  10  11
ATOM     11  C   UNL     1       9.871 -31.469 -15.501  1.00  0.00    -0.000 C 
BRANCH  11  12
ATOM     12  C   UNL     1       9.131 -32.705 -16.026  1.00  0.00    -0.003 C 
ATOM     13  C   UNL     1       8.696 -33.614 -14.881  1.00  0.00     0.004 C 
ENDBRANCH  11  12
ENDBRANCH  10  11
ENDBRANCH   9  10
ENDBRANCH   8   9
ENDBRANCH   1   8
TORSDOF 9
ENDMDL
MODEL 3
REMARK VINA RESULT:     1.503      1.811      2.216
REMARK INTER + INTRA:           1.835
REMARK INTER:                   1.327
REMARK INTRA:                   0.507
REMARK UNBOUND:                -0.459
REMARK SMILES CCCCCCCCCCC(=O)[O-]
REMARK SMILES IDX 7 1 8 2 9 3 10 4 11 5 12 6 13 7 6 8 5 9 4 10 3 11 2 12 1 13
REMARK H PARENT
REMARK Flexibility Score: inf
ROOT
ATOM      1  C   UNL     1       8.494 -29.633 -18.644  1.00  0.00     0.000 C 
ENDROOT
BRANCH   1   2
ATOM      2  C   UNL     1       9.479 -29.979 -17.517  1.00  0.00     0.000 C 
BRANCH   2   3
ATOM      3  C   UNL     1       9.401 -31.472 -17.161  1.00  0.00     0.006 C 
BRANCH   3   4
ATOM      4  C   UNL     1       9.249 -31.702 -15.652  1.00  0.00     0.053 C 
BRANCH   4   5
ATOM      5  C   UNL     1       9.109 -30.412 -14.903  1.00  0.00     0.041 C 
ATOM      6  O   UNL     1       9.868 -30.159 -13.930  1.00  0.00    -0.550 OA
ATOM      7  O   UNL     1       8.118 -29.505 -15.257  1.00  0.00    -0.550 OA
ENDBRANCH   4   5
ENDBRANCH   3   4
ENDBRANCH   2   3
ENDBRANCH   1   2
BRANCH   1   8
ATOM      8  C   UNL     1       7.253 -28.880 -18.137  1.00  0.00     0.000 C 
BRANCH   8   9
ATOM      9  C   UNL     1       6.279 -28.514 -19.272  1.00  0.00    -0.000 C 
BRANCH   9  10
ATOM     10  C   UNL     1       7.006 -28.137 -20.573  1.00  0.00    -0.000 C 
BRANCH  10  11
ATOM     11  C   UNL     1       6.753 -29.141 -21.708  1.00  0.00    -0.000 C 
BRANCH  11  12
ATOM     12  C   UNL     1       5.875 -28.522 -22.802  1.00  0.00    -0.003 C 
ATOM     13  C   UNL     1       6.203 -27.046 -23.002  1.00  0.00     0.004 C 
ENDBRANCH  11  12
ENDBRANCH  10  11
ENDBRANCH   9  10
ENDBRANCH   8   9
ENDBRANCH   1   8
TORSDOF 9
ENDMDL
