MODEL 1
REMARK VINA RESULT:    -1.524      0.000      0.000
REMARK INTER + INTRA:          -1.787
REMARK INTER:                  -2.325
REMARK INTRA:                   0.538
REMARK UNBOUND:                 0.538
REMARK SMILES CC1=CCC[C@H](C)C(=O)C[C@@H](C(C)C)C(=O)C1
REMARK SMILES IDX 8 1 9 2 6 3 7 4 5 5 4 6 3 7 2 8 1 9 10 11 11 12 15 13 16 14
REMARK SMILES IDX 17 15 12 17 13 18 14 19
REMARK H PARENT
REMARK Flexibility Score: 70.00
ROOT
ATOM      1  C   UNL     1      26.081  25.535  29.221  1.00  0.00     0.136 C 
ATOM      2  O   UNL     1      25.251  24.658  29.023  1.00  0.00    -0.299 OA
ENDROOT
BRANCH   1   3
ATOM      3  C   UNL     1      27.548  25.247  28.976  1.00  0.00     0.053 C 
ATOM      4  C   UNL     1      28.045  24.141  29.918  1.00  0.00     0.016 C 
BRANCH   3   5
ATOM      5  C   UNL     1      27.778  24.859  27.499  1.00  0.00     0.015 C 
BRANCH   5   6
ATOM      6  C   UNL     1      28.923  25.666  26.855  1.00  0.00     0.028 C 
BRANCH   6   7
ATOM      7  C   UNL     1      28.396  26.830  26.056  1.00  0.00    -0.028 C 
ATOM      8  C   UNL     1      28.050  28.033  26.568  1.00  0.00    -0.070 CG0
ATOM      9  C   UNL     1      27.481  29.064  25.625  1.00  0.00     0.039 C 
ATOM     10  G   UNL     1      28.196  28.389  28.039  1.00  0.00     0.000 G0
ENDBRANCH   6   7
ENDBRANCH   5   6
ENDBRANCH   3   5
ENDBRANCH   1   3
BRANCH   1  11
ATOM     11  C   UNL     1      25.618  26.888  29.710  1.00  0.00     0.087 C 
BRANCH  11  12
ATOM     12  C   UNL     1      25.632  27.960  28.589  1.00  0.00     0.066 C 
BRANCH  12  13
ATOM     13  C   UNL     1      26.889  28.818  28.672  1.00  0.00     0.140 C 
ATOM     14  O   UNL     1      26.853  29.854  29.321  1.00  0.00    -0.299 OA
BRANCH  13  15
ATOM     15  C   UNL     1      28.195  28.390  28.039  1.00  0.00     0.106 CG0
ATOM     16  G   UNL     1      28.035  28.044  26.567  1.00  0.00     0.000 G0
ENDBRANCH  13  15
ENDBRANCH  12  13
BRANCH  12  17
ATOM     17  C   UNL     1      24.339  28.837  28.567  1.00  0.00    -0.006 C 
ATOM     18  C   UNL     1      23.141  28.043  28.013  1.00  0.00     0.008 C 
ATOM     19  C   UNL     1      23.971  29.377  29.960  1.00  0.00     0.008 C 
ENDBRANCH  12  17
ENDBRANCH  11  12
ENDBRANCH   1  11
TORSDOF 1
ENDMDL
MODEL 2
REMARK VINA RESULT:    -0.212     14.781     16.639
REMARK INTER + INTRA:           0.214
REMARK INTER:                  -1.106
REMARK INTRA:                   1.320
REMARK UNBOUND:                 0.538
REMARK SMILES CC1=CCC[C@H](C)C(=O)C[C@@H](C(C)C)C(=O)C1
REMARK SMILES IDX 8 1 9 2 6 3 7 4 5 5 4 6 3 7 2 8 1 9 10 11 11 12 15 13 16 14
REMARK SMILES IDX 17 15 12 17 13 18 14 19
REMARK H PARENT
REMARK Flexibility Score: 70.00
ROOT
ATOM      1  C   UNL     1      28.521  40.463  21.712  1.00  0.00     0.136 C 
ATOM      2  O   UNL     1      28.304  39.299  22.021  1.00  0.00    -0.299 OA
ENDROOT
BRANCH   1   3
ATOM      3  C   UNL     1      28.311  41.561  22.735  1.00  0.00     0.053 C 
ATOM      4  C   UNL     1      28.845  41.127  24.109  1.00  0.00     0.016 C 
BRANCH   3   5
ATOM      5  C   UNL     1      28.989  42.866  22.265  1.00  0.00     0.015 C 
BRANCH   5   6
ATOM      6  C   UNL     1      27.964  43.966  21.924  1.00  0.00     0.028 C 
BRANCH   6   7
ATOM      7  C   UNL     1      27.800  44.124  20.434  1.00  0.00    -0.028 C 
ATOM      8  C   UNL     1      26.978  43.382  19.659  1.00  0.00    -0.070 CG0
ATOM      9  C   UNL     1      26.989  43.638  18.172  1.00  0.00     0.039 C 
ATOM     10  G   UNL     1      26.059  42.302  20.207  1.00  0.00     0.000 G0
ENDBRANCH   6   7
ENDBRANCH   5   6
ENDBRANCH   3   5
ENDBRANCH   1   3
BRANCH   1  11
ATOM     11  C   UNL     1      28.992  40.776  20.311  1.00  0.00     0.087 C 
BRANCH  11  12
ATOM     12  C   UNL     1      27.867  40.608  19.256  1.00  0.00     0.066 C 
BRANCH  12  13
ATOM     13  C   UNL     1      26.500  40.892  19.867  1.00  0.00     0.140 C 
ATOM     14  O   UNL     1      25.765  39.950  20.128  1.00  0.00    -0.299 OA
BRANCH  13  15
ATOM     15  C   UNL     1      26.058  42.294  20.227  1.00  0.00     0.106 CG0
ATOM     16  G   UNL     1      26.971  43.355  19.635  1.00  0.00     0.000 G0
ENDBRANCH  13  15
ENDBRANCH  12  13
BRANCH  12  17
ATOM     17  C   UNL     1      27.900  39.217  18.545  1.00  0.00    -0.006 C 
ATOM     18  C   UNL     1      28.048  39.379  17.020  1.00  0.00     0.008 C 
ATOM     19  C   UNL     1      29.041  38.321  19.059  1.00  0.00     0.008 C 
ENDBRANCH  12  17
ENDBRANCH  11  12
ENDBRANCH   1  11
TORSDOF 1
ENDMDL
MODEL 3
REMARK VINA RESULT:     0.367     13.181     15.904
REMARK INTER + INTRA:           1.098
REMARK INTER:                  -1.339
REMARK INTRA:                   2.437
REMARK UNBOUND:                 0.538
REMARK SMILES CC1=CCC[C@H](C)C(=O)C[C@@H](C(C)C)C(=O)C1
REMARK SMILES IDX 8 1 9 2 6 3 7 4 5 5 4 6 3 7 2 8 1 9 10 11 11 12 15 13 16 14
REMARK SMILES IDX 17 15 12 17 13 18 14 19
REMARK H PARENT
REMARK Flexibility Score: 70.00
ROOT
ATOM      1  C   UNL     1      25.719  41.691  20.832  1.00  0.00     0.136 C 
ATOM      2  O   UNL     1      25.673  41.952  22.027  1.00  0.00    -0.299 OA
ENDROOT
BRANCH   1   3
ATOM      3  C   UNL     1      26.075  42.781  19.840  1.00  0.00     0.053 C 
ATOM      4  C   UNL     1      26.260  44.125  20.560  1.00  0.00     0.016 C 
BRANCH   3   5
ATOM      5  C   UNL     1      27.348  42.394  19.056  1.00  0.00     0.015 C 
BRANCH   5   6
ATOM      6  C   UNL     1      28.628  42.953  19.708  1.00  0.00     0.028 C 
BRANCH   6   7
ATOM      7  C   UNL     1      28.772  42.482  21.132  1.00  0.00    -0.028 C 
ATOM      8  C   UNL     1      28.976  41.200  21.511  1.00  0.00    -0.070 CG0
ATOM      9  C   UNL     1      29.034  40.902  22.989  1.00  0.00     0.039 C 
ATOM     10  G   UNL     1      29.137  40.053  20.527  1.00  0.00     0.000 G0
ENDBRANCH   6   7
ENDBRANCH   5   6
ENDBRANCH   3   5
ENDBRANCH   1   3
BRANCH   1  11
ATOM     11  C   UNL     1      25.416  40.283  20.374  1.00  0.00     0.087 C 
BRANCH  11  12
ATOM     12  C   UNL     1      26.574  39.298  20.681  1.00  0.00     0.066 C 
BRANCH  12  13
ATOM     13  C   UNL     1      27.816  39.649  19.870  1.00  0.00     0.140 C 
ATOM     14  O   UNL     1      27.732  39.683  18.650  1.00  0.00    -0.299 OA
BRANCH  13  15
ATOM     15  C   UNL     1      29.124  40.027  20.530  1.00  0.00     0.106 CG0
ATOM     16  G   UNL     1      28.967  41.192  21.494  1.00  0.00     0.000 G0
ENDBRANCH  13  15
ENDBRANCH  12  13
BRANCH  12  17
ATOM     17  C   UNL     1      26.169  37.801  20.490  1.00  0.00    -0.006 C 
ATOM     18  C   UNL     1      26.482  36.978  21.754  1.00  0.00     0.008 C 
ATOM     19  C   UNL     1      24.677  37.635  20.151  1.00  0.00     0.008 C 
ENDBRANCH  12  17
ENDBRANCH  11  12
ENDBRANCH   1  11
TORSDOF 1
ENDMDL
MODEL 4
REMARK VINA RESULT:     0.384     13.009     14.717
REMARK INTER + INTRA:           1.125
REMARK INTER:                  -0.326
REMARK INTRA:                   1.451
REMARK UNBOUND:                 0.538
REMARK SMILES CC1=CCC[C@H](C)C(=O)C[C@@H](C(C)C)C(=O)C1
REMARK SMILES IDX 8 1 9 2 6 3 7 4 5 5 4 6 3 7 2 8 1 9 10 11 11 12 15 13 16 14
REMARK SMILES IDX 17 15 12 17 13 18 14 19
REMARK H PARENT
REMARK Flexibility Score: 70.00
ROOT
ATOM      1  C   UNL     1      27.901  36.957  20.247  1.00  0.00     0.136 C 
ATOM      2  O   UNL     1      27.981  35.747  20.084  1.00  0.00    -0.299 OA
ENDROOT
BRANCH   1   3
ATOM      3  C   UNL     1      28.962  37.865  19.658  1.00  0.00     0.053 C 
ATOM      4  C   UNL     1      28.712  38.083  18.159  1.00  0.00     0.016 C 
BRANCH   3   5
ATOM      5  C   UNL     1      28.994  39.210  20.415  1.00  0.00     0.015 C 
BRANCH   5   6
ATOM      6  C   UNL     1      29.125  40.414  19.461  1.00  0.00     0.028 C 
BRANCH   6   7
ATOM      7  C   UNL     1      28.222  41.547  19.875  1.00  0.00    -0.028 C 
ATOM      8  C   UNL     1      26.879  41.572  19.710  1.00  0.00    -0.070 CG0
ATOM      9  C   UNL     1      26.140  42.819  20.130  1.00  0.00     0.039 C 
ATOM     10  G   UNL     1      26.087  40.419  19.117  1.00  0.00     0.000 G0
ENDBRANCH   6   7
ENDBRANCH   5   6
ENDBRANCH   3   5
ENDBRANCH   1   3
BRANCH   1  11
ATOM     11  C   UNL     1      26.740  37.517  21.038  1.00  0.00     0.087 C 
BRANCH  11  12
ATOM     12  C   UNL     1      25.579  37.995  20.128  1.00  0.00     0.066 C 
BRANCH  12  13
ATOM     13  C   UNL     1      25.459  39.515  20.154  1.00  0.00     0.140 C 
ATOM     14  O   UNL     1      24.862  40.042  21.082  1.00  0.00    -0.299 OA
BRANCH  13  15
ATOM     15  C   UNL     1      26.116  40.389  19.108  1.00  0.00     0.106 CG0
ATOM     16  G   UNL     1      26.874  41.554  19.725  1.00  0.00     0.000 G0
ENDBRANCH  13  15
ENDBRANCH  12  13
BRANCH  12  17
ATOM     17  C   UNL     1      24.217  37.306  20.462  1.00  0.00    -0.006 C 
ATOM     18  C   UNL     1      23.105  38.351  20.670  1.00  0.00     0.008 C 
ATOM     19  C   UNL     1      23.772  36.322  19.366  1.00  0.00     0.008 C 
ENDBRANCH  12  17
ENDBRANCH  11  12
ENDBRANCH   1  11
TORSDOF 1
ENDMDL
MODEL 5
REMARK VINA RESULT:     0.390     12.885     15.478
REMARK INTER + INTRA:           1.133
REMARK INTER:                   0.127
REMARK INTRA:                   1.006
REMARK UNBOUND:                 0.538
REMARK SMILES CC1=CCC[C@H](C)C(=O)C[C@@H](C(C)C)C(=O)C1
REMARK SMILES IDX 8 1 9 2 6 3 7 4 5 5 4 6 3 7 2 8 1 9 10 11 11 12 15 13 16 14
REMARK SMILES IDX 17 15 12 17 13 18 14 19
REMARK H PARENT
REMARK Flexibility Score: 70.00
ROOT
ATOM      1  C   UNL     1      28.638  38.361  18.990  1.00  0.00     0.136 C 
ATOM      2  O   UNL     1      28.980  37.200  18.807  1.00  0.00    -0.299 OA
ENDROOT
BRANCH   1   3
ATOM      3  C   UNL     1      28.791  39.372  17.871  1.00  0.00     0.053 C 
ATOM      4  C   UNL     1      28.089  38.877  16.598  1.00  0.00     0.016 C 
BRANCH   3   5
ATOM      5  C   UNL     1      28.235  40.744  18.312  1.00  0.00     0.015 C 
BRANCH   5   6
ATOM      6  C   UNL     1      29.121  41.417  19.380  1.00  0.00     0.028 C 
BRANCH   6   7
ATOM      7  C   UNL     1      28.407  42.565  20.044  1.00  0.00    -0.028 C 
ATOM      8  C   UNL     1      27.544  42.451  21.080  1.00  0.00    -0.070 CG0
ATOM      9  C   UNL     1      26.872  43.705  21.580  1.00  0.00     0.039 C 
ATOM     10  G   UNL     1      27.213  41.128  21.751  1.00  0.00     0.000 G0
ENDBRANCH   6   7
ENDBRANCH   5   6
ENDBRANCH   3   5
ENDBRANCH   1   3
BRANCH   1  11
ATOM     11  C   UNL     1      28.073  38.758  20.334  1.00  0.00     0.087 C 
BRANCH  11  12
ATOM     12  C   UNL     1      26.542  39.000  20.285  1.00  0.00     0.066 C 
BRANCH  12  13
ATOM     13  C   UNL     1      26.182  40.336  20.925  1.00  0.00     0.140 C 
ATOM     14  O   UNL     1      25.034  40.747  20.825  1.00  0.00    -0.299 OA
BRANCH  13  15
ATOM     15  C   UNL     1      27.180  41.130  21.739  1.00  0.00     0.106 CG0
ATOM     16  G   UNL     1      27.538  42.453  21.081  1.00  0.00     0.000 G0
ENDBRANCH  13  15
ENDBRANCH  12  13
BRANCH  12  17
ATOM     17  C   UNL     1      25.717  37.827  20.905  1.00  0.00    -0.006 C 
ATOM     18  C   UNL     1      24.630  37.339  19.928  1.00  0.00     0.008 C 
ATOM     19  C   UNL     1      26.602  36.629  21.296  1.00  0.00     0.008 C 
ENDBRANCH  12  17
ENDBRANCH  11  12
ENDBRANCH   1  11
TORSDOF 1
ENDMDL
MODEL 6
REMARK VINA RESULT:     0.658      2.191      4.175
REMARK INTER + INTRA:           1.542
REMARK INTER:                  -0.471
REMARK INTRA:                   2.013
REMARK UNBOUND:                 0.538
REMARK SMILES CC1=CCC[C@H](C)C(=O)C[C@@H](C(C)C)C(=O)C1
REMARK SMILES IDX 8 1 9 2 6 3 7 4 5 5 4 6 3 7 2 8 1 9 10 11 11 12 15 13 16 14
REMARK SMILES IDX 17 15 12 17 13 18 14 19
REMARK H PARENT
REMARK Flexibility Score: 70.00
ROOT
ATOM      1  C   UNL     1      24.260  29.123  29.502  1.00  0.00     0.136 C 
ATOM      2  O   UNL     1      23.237  29.696  29.853  1.00  0.00    -0.299 OA
ENDROOT
BRANCH   1   3
ATOM      3  C   UNL     1      25.521  29.268  30.329  1.00  0.00     0.053 C 
ATOM      4  C   UNL     1      25.207  29.114  31.824  1.00  0.00     0.016 C 
BRANCH   3   5
ATOM      5  C   UNL     1      26.578  28.237  29.877  1.00  0.00     0.015 C 
BRANCH   5   6
ATOM      6  C   UNL     1      26.402  26.875  30.578  1.00  0.00     0.028 C 
BRANCH   6   7
ATOM      7  C   UNL     1      27.192  25.793  29.887  1.00  0.00    -0.028 C 
ATOM      8  C   UNL     1      27.038  25.421  28.596  1.00  0.00    -0.070 CG0
ATOM      9  C   UNL     1      27.876  24.274  28.088  1.00  0.00     0.039 C 
ATOM     10  G   UNL     1      26.062  26.091  27.643  1.00  0.00     0.000 G0
ENDBRANCH   6   7
ENDBRANCH   5   6
ENDBRANCH   3   5
ENDBRANCH   1   3
BRANCH   1  11
ATOM     11  C   UNL     1      24.237  28.283  28.246  1.00  0.00     0.087 C 
BRANCH  11  12
ATOM     12  C   UNL     1      23.652  26.867  28.490  1.00  0.00     0.066 C 
BRANCH  12  13
ATOM     13  C   UNL     1      24.608  25.790  27.991  1.00  0.00     0.140 C 
ATOM     14  O   UNL     1      24.178  24.660  27.809  1.00  0.00    -0.299 OA
BRANCH  13  15
ATOM     15  C   UNL     1      26.050  26.094  27.646  1.00  0.00     0.106 CG0
ATOM     16  G   UNL     1      27.024  25.416  28.595  1.00  0.00     0.000 G0
ENDBRANCH  13  15
ENDBRANCH  12  13
BRANCH  12  17
ATOM     17  C   UNL     1      22.221  26.687  27.890  1.00  0.00    -0.006 C 
ATOM     18  C   UNL     1      21.926  25.203  27.600  1.00  0.00     0.008 C 
ATOM     19  C   UNL     1      21.122  27.236  28.817  1.00  0.00     0.008 C 
ENDBRANCH  12  17
ENDBRANCH  11  12
ENDBRANCH   1  11
TORSDOF 1
ENDMDL
MODEL 7
REMARK VINA RESULT:     1.225     13.043     15.696
REMARK INTER + INTRA:           2.409
REMARK INTER:                   1.029
REMARK INTRA:                   1.380
REMARK UNBOUND:                 0.538
REMARK SMILES CC1=CCC[C@H](C)C(=O)C[C@@H](C(C)C)C(=O)C1
REMARK SMILES IDX 8 1 9 2 6 3 7 4 5 5 4 6 3 7 2 8 1 9 10 11 11 12 15 13 16 14
REMARK SMILES IDX 17 15 12 17 13 18 14 19
REMARK H PARENT
REMARK Flexibility Score: 70.00
ROOT
ATOM      1  C   UNL     1      28.139  41.632  19.750  1.00  0.00     0.136 C 
ATOM      2  O   UNL     1      27.890  42.078  18.638  1.00  0.00    -0.299 OA
ENDROOT
BRANCH   1   3
ATOM      3  C   UNL     1      27.650  42.367  20.981  1.00  0.00     0.053 C 
ATOM      4  C   UNL     1      27.839  43.882  20.814  1.00  0.00     0.016 C 
BRANCH   3   5
ATOM      5  C   UNL     1      26.170  42.022  21.257  1.00  0.00     0.015 C 
BRANCH   5   6
ATOM      6  C   UNL     1      25.989  40.567  21.734  1.00  0.00     0.028 C 
BRANCH   6   7
ATOM      7  C   UNL     1      25.271  39.735  20.704  1.00  0.00    -0.028 C 
ATOM      8  C   UNL     1      25.639  38.494  20.311  1.00  0.00    -0.070 CG0
ATOM      9  C   UNL     1      24.835  37.832  19.219  1.00  0.00     0.039 C 
ATOM     10  G   UNL     1      26.821  37.745  20.904  1.00  0.00     0.000 G0
ENDBRANCH   6   7
ENDBRANCH   5   6
ENDBRANCH   3   5
ENDBRANCH   1   3
BRANCH   1  11
ATOM     11  C   UNL     1      28.935  40.352  19.866  1.00  0.00     0.087 C 
BRANCH  11  12
ATOM     12  C   UNL     1      28.252  39.161  19.145  1.00  0.00     0.066 C 
BRANCH  12  13
ATOM     13  C   UNL     1      28.108  37.968  20.083  1.00  0.00     0.140 C 
ATOM     14  O   UNL     1      29.066  37.226  20.243  1.00  0.00    -0.299 OA
BRANCH  13  15
ATOM     15  C   UNL     1      26.842  37.719  20.875  1.00  0.00     0.106 CG0
ATOM     16  G   UNL     1      25.648  38.466  20.302  1.00  0.00     0.000 G0
ENDBRANCH  13  15
ENDBRANCH  12  13
BRANCH  12  17
ATOM     17  C   UNL     1      28.966  38.761  17.815  1.00  0.00    -0.006 C 
ATOM     18  C   UNL     1      29.123  37.233  17.709  1.00  0.00     0.008 C 
ATOM     19  C   UNL     1      28.216  39.267  16.570  1.00  0.00     0.008 C 
ENDBRANCH  12  17
ENDBRANCH  11  12
ENDBRANCH   1  11
TORSDOF 1
ENDMDL
