MODEL 1
REMARK VINA RESULT:    -4.969      0.000      0.000
REMARK INTER + INTRA:          -5.665
REMARK INTER:                  -5.550
REMARK INTRA:                  -0.116
REMARK UNBOUND:                -0.116
REMARK SMILES COc1cc2ccc(=O)oc2cc1OC
REMARK SMILES IDX 3 1 13 2 12 3 11 4 5 5 4 6 6 7 7 8 8 9 9 10 10 11 2 12 1 13
REMARK SMILES IDX 14 14 15 15
REMARK H PARENT
REMARK Flexibility Score: inf
ROOT
ATOM      1  C   UNL     1      25.578   1.301  13.173  1.00  0.00     0.161 A 
ATOM      2  C   UNL     1      26.103   0.149  13.783  1.00  0.00     0.164 A 
ATOM      3  C   UNL     1      27.498  -0.002  13.909  1.00  0.00     0.098 A 
ATOM      4  C   UNL     1      28.362   0.986  13.433  1.00  0.00     0.142 A 
ATOM      5  C   UNL     1      27.837   2.143  12.822  1.00  0.00     0.022 A 
ATOM      6  C   UNL     1      26.451   2.298  12.692  1.00  0.00     0.062 A 
ATOM      7  C   UNL     1      28.729   3.114  12.355  1.00  0.00     0.019 A 
ATOM      8  C   UNL     1      30.101   2.914  12.507  1.00  0.00     0.094 A 
ATOM      9  C   UNL     1      30.549   1.742  13.124  1.00  0.00     0.336 A 
ATOM     10  O   UNL     1      31.784   1.541  13.270  1.00  0.00    -0.246 OA
ATOM     11  O   UNL     1      29.679   0.834  13.558  1.00  0.00    -0.423 OA
ENDROOT
BRANCH   1  12
ATOM     12  O   UNL     1      24.183   1.419  13.064  1.00  0.00    -0.493 OA
ATOM     13  C   UNL     1      23.508   2.538  12.497  1.00  0.00     0.278 C 
ENDBRANCH   1  12
BRANCH   2  14
ATOM     14  O   UNL     1      25.205  -0.824  14.250  1.00  0.00    -0.493 OA
ATOM     15  C   UNL     1      25.054  -1.193  15.616  1.00  0.00     0.278 C 
ENDBRANCH   2  14
TORSDOF 2
ENDMDL
MODEL 2
REMARK VINA RESULT:    -4.778      1.378      2.993
REMARK INTER + INTRA:          -5.452
REMARK INTER:                  -5.340
REMARK INTRA:                  -0.112
REMARK UNBOUND:                -0.116
REMARK SMILES COc1cc2ccc(=O)oc2cc1OC
REMARK SMILES IDX 3 1 13 2 12 3 11 4 5 5 4 6 6 7 7 8 8 9 9 10 10 11 2 12 1 13
REMARK SMILES IDX 14 14 15 15
REMARK H PARENT
REMARK Flexibility Score: inf
ROOT
ATOM      1  C   UNL     1      25.408  -0.345  14.245  1.00  0.00     0.161 A 
ATOM      2  C   UNL     1      24.812   0.749  13.595  1.00  0.00     0.164 A 
ATOM      3  C   UNL     1      25.622   1.747  13.018  1.00  0.00     0.098 A 
ATOM      4  C   UNL     1      27.014   1.655  13.086  1.00  0.00     0.142 A 
ATOM      5  C   UNL     1      27.614   0.557  13.737  1.00  0.00     0.022 A 
ATOM      6  C   UNL     1      26.813  -0.437  14.314  1.00  0.00     0.062 A 
ATOM      7  C   UNL     1      29.010   0.494  13.789  1.00  0.00     0.019 A 
ATOM      8  C   UNL     1      29.764   1.509  13.199  1.00  0.00     0.094 A 
ATOM      9  C   UNL     1      29.100   2.567  12.570  1.00  0.00     0.336 A 
ATOM     10  O   UNL     1      29.761   3.493  12.033  1.00  0.00    -0.246 OA
ATOM     11  O   UNL     1      27.770   2.603  12.536  1.00  0.00    -0.423 OA
ENDROOT
BRANCH   1  12
ATOM     12  O   UNL     1      24.570  -1.320  14.809  1.00  0.00    -0.493 OA
ATOM     13  C   UNL     1      24.693  -1.819  16.138  1.00  0.00     0.278 C 
ENDBRANCH   1  12
BRANCH   2  14
ATOM     14  O   UNL     1      23.410   0.809  13.546  1.00  0.00    -0.493 OA
ATOM     15  C   UNL     1      22.667   1.501  12.548  1.00  0.00     0.278 C 
ENDBRANCH   2  14
TORSDOF 2
ENDMDL
MODEL 3
REMARK VINA RESULT:    -4.754      1.834      5.681
REMARK INTER + INTRA:          -5.425
REMARK INTER:                  -5.320
REMARK INTRA:                  -0.105
REMARK UNBOUND:                -0.116
REMARK SMILES COc1cc2ccc(=O)oc2cc1OC
REMARK SMILES IDX 3 1 13 2 12 3 11 4 5 5 4 6 6 7 7 8 8 9 9 10 10 11 2 12 1 13
REMARK SMILES IDX 14 14 15 15
REMARK H PARENT
REMARK Flexibility Score: inf
ROOT
ATOM      1  C   UNL     1      26.375   0.972  13.245  1.00  0.00     0.161 A 
ATOM      2  C   UNL     1      25.020   1.169  12.926  1.00  0.00     0.164 A 
ATOM      3  C   UNL     1      24.027   0.441  13.610  1.00  0.00     0.098 A 
ATOM      4  C   UNL     1      24.379  -0.476  14.602  1.00  0.00     0.142 A 
ATOM      5  C   UNL     1      25.737  -0.675  14.924  1.00  0.00     0.022 A 
ATOM      6  C   UNL     1      26.730   0.046  14.247  1.00  0.00     0.062 A 
ATOM      7  C   UNL     1      26.058  -1.600  15.922  1.00  0.00     0.019 A 
ATOM      8  C   UNL     1      25.034  -2.294  16.567  1.00  0.00     0.094 A 
ATOM      9  C   UNL     1      23.709  -2.045  16.196  1.00  0.00     0.336 A 
ATOM     10  O   UNL     1      22.770  -2.660  16.766  1.00  0.00    -0.246 OA
ATOM     11  O   UNL     1      23.433  -1.159  15.242  1.00  0.00    -0.423 OA
ENDROOT
BRANCH   1  12
ATOM     12  O   UNL     1      27.338   1.715  12.544  1.00  0.00    -0.493 OA
ATOM     13  C   UNL     1      28.735   1.693  12.822  1.00  0.00     0.278 C 
ENDBRANCH   1  12
BRANCH   2  14
ATOM     14  O   UNL     1      24.703   2.099  11.923  1.00  0.00    -0.493 OA
ATOM     15  C   UNL     1      23.573   2.965  11.954  1.00  0.00     0.278 C 
ENDBRANCH   2  14
TORSDOF 2
ENDMDL
MODEL 4
REMARK VINA RESULT:    -4.628      7.638      9.805
REMARK INTER + INTRA:          -5.285
REMARK INTER:                  -5.161
REMARK INTRA:                  -0.124
REMARK UNBOUND:                -0.116
REMARK SMILES COc1cc2ccc(=O)oc2cc1OC
REMARK SMILES IDX 3 1 13 2 12 3 11 4 5 5 4 6 6 7 7 8 8 9 9 10 10 11 2 12 1 13
REMARK SMILES IDX 14 14 15 15
REMARK H PARENT
REMARK Flexibility Score: inf
ROOT
ATOM      1  C   UNL     1      32.350  -0.336   7.097  1.00  0.00     0.161 A 
ATOM      2  C   UNL     1      32.518  -0.339   5.701  1.00  0.00     0.164 A 
ATOM      3  C   UNL     1      31.387  -0.357   4.861  1.00  0.00     0.098 A 
ATOM      4  C   UNL     1      30.102  -0.371   5.405  1.00  0.00     0.142 A 
ATOM      5  C   UNL     1      29.932  -0.367   6.804  1.00  0.00     0.022 A 
ATOM      6  C   UNL     1      31.052  -0.350   7.645  1.00  0.00     0.062 A 
ATOM      7  C   UNL     1      28.631  -0.383   7.319  1.00  0.00     0.019 A 
ATOM      8  C   UNL     1      27.548  -0.399   6.440  1.00  0.00     0.094 A 
ATOM      9  C   UNL     1      27.792  -0.401   5.064  1.00  0.00     0.336 A 
ATOM     10  O   UNL     1      26.829  -0.417   4.254  1.00  0.00    -0.246 OA
ATOM     11  O   UNL     1      29.040  -0.388   4.601  1.00  0.00    -0.423 OA
ENDROOT
BRANCH   1  12
ATOM     12  O   UNL     1      33.499  -0.317   7.904  1.00  0.00    -0.493 OA
ATOM     13  C   UNL     1      33.974   0.827   8.607  1.00  0.00     0.278 C 
ENDBRANCH   1  12
BRANCH   2  14
ATOM     14  O   UNL     1      33.825  -0.324   5.189  1.00  0.00    -0.493 OA
ATOM     15  C   UNL     1      34.212   0.326   3.983  1.00  0.00     0.278 C 
ENDBRANCH   2  14
TORSDOF 2
ENDMDL
MODEL 5
REMARK VINA RESULT:    -4.620      4.205      8.358
REMARK INTER + INTRA:          -5.276
REMARK INTER:                  -5.173
REMARK INTRA:                  -0.103
REMARK UNBOUND:                -0.116
REMARK SMILES COc1cc2ccc(=O)oc2cc1OC
REMARK SMILES IDX 3 1 13 2 12 3 11 4 5 5 4 6 6 7 7 8 8 9 9 10 10 11 2 12 1 13
REMARK SMILES IDX 14 14 15 15
REMARK H PARENT
REMARK Flexibility Score: inf
ROOT
ATOM      1  C   UNL     1      25.358  -1.520  16.877  1.00  0.00     0.161 A 
ATOM      2  C   UNL     1      25.154  -1.038  18.181  1.00  0.00     0.164 A 
ATOM      3  C   UNL     1      24.074  -1.522  18.945  1.00  0.00     0.098 A 
ATOM      4  C   UNL     1      23.206  -2.479  18.416  1.00  0.00     0.142 A 
ATOM      5  C   UNL     1      23.410  -2.965  17.108  1.00  0.00     0.022 A 
ATOM      6  C   UNL     1      24.482  -2.486  16.343  1.00  0.00     0.062 A 
ATOM      7  C   UNL     1      22.523  -3.923  16.606  1.00  0.00     0.019 A 
ATOM      8  C   UNL     1      21.471  -4.368  17.407  1.00  0.00     0.094 A 
ATOM      9  C   UNL     1      21.331  -3.841  18.695  1.00  0.00     0.336 A 
ATOM     10  O   UNL     1      20.387  -4.229  19.433  1.00  0.00    -0.246 OA
ATOM     11  O   UNL     1      22.188  -2.930  19.147  1.00  0.00    -0.423 OA
ENDROOT
BRANCH   1  12
ATOM     12  O   UNL     1      26.444  -1.016  16.144  1.00  0.00    -0.493 OA
ATOM     13  C   UNL     1      26.514  -0.984  14.721  1.00  0.00     0.278 C 
ENDBRANCH   1  12
BRANCH   2  14
ATOM     14  O   UNL     1      26.046  -0.076  18.681  1.00  0.00    -0.493 OA
ATOM     15  C   UNL     1      25.841   0.672  19.875  1.00  0.00     0.278 C 
ENDBRANCH   2  14
TORSDOF 2
ENDMDL
MODEL 6
REMARK VINA RESULT:    -4.535      4.629      8.919
REMARK INTER + INTRA:          -5.181
REMARK INTER:                  -5.018
REMARK INTRA:                  -0.163
REMARK UNBOUND:                -0.116
REMARK SMILES COc1cc2ccc(=O)oc2cc1OC
REMARK SMILES IDX 3 1 13 2 12 3 11 4 5 5 4 6 6 7 7 8 8 9 9 10 10 11 2 12 1 13
REMARK SMILES IDX 14 14 15 15
REMARK H PARENT
REMARK Flexibility Score: inf
ROOT
ATOM      1  C   UNL     1      25.099  -2.093  18.302  1.00  0.00     0.161 A 
ATOM      2  C   UNL     1      24.650  -2.210  16.976  1.00  0.00     0.164 A 
ATOM      3  C   UNL     1      23.272  -2.327  16.712  1.00  0.00     0.098 A 
ATOM      4  C   UNL     1      22.348  -2.326  17.758  1.00  0.00     0.142 A 
ATOM      5  C   UNL     1      22.797  -2.207  19.090  1.00  0.00     0.022 A 
ATOM      6  C   UNL     1      24.167  -2.092  19.359  1.00  0.00     0.062 A 
ATOM      7  C   UNL     1      21.847  -2.210  20.117  1.00  0.00     0.019 A 
ATOM      8  C   UNL     1      20.494  -2.328  19.798  1.00  0.00     0.094 A 
ATOM      9  C   UNL     1      20.123  -2.441  18.455  1.00  0.00     0.336 A 
ATOM     10  O   UNL     1      18.907  -2.549  18.145  1.00  0.00    -0.246 OA
ATOM     11  O   UNL     1      21.047  -2.437  17.498  1.00  0.00    -0.423 OA
ENDROOT
BRANCH   1  12
ATOM     12  O   UNL     1      26.480  -1.978  18.529  1.00  0.00    -0.493 OA
ATOM     13  C   UNL     1      27.148  -0.761  18.853  1.00  0.00     0.278 C 
ENDBRANCH   1  12
BRANCH   2  14
ATOM     14  O   UNL     1      25.607  -2.208  15.948  1.00  0.00    -0.493 OA
ATOM     15  C   UNL     1      25.954  -1.066  15.172  1.00  0.00     0.278 C 
ENDBRANCH   2  14
TORSDOF 2
ENDMDL
MODEL 7
REMARK VINA RESULT:    -4.477      6.445      7.916
REMARK INTER + INTRA:          -5.117
REMARK INTER:                  -4.999
REMARK INTRA:                  -0.118
REMARK UNBOUND:                -0.116
REMARK SMILES COc1cc2ccc(=O)oc2cc1OC
REMARK SMILES IDX 3 1 13 2 12 3 11 4 5 5 4 6 6 7 7 8 8 9 9 10 10 11 2 12 1 13
REMARK SMILES IDX 14 14 15 15
REMARK H PARENT
REMARK Flexibility Score: inf
ROOT
ATOM      1  C   UNL     1      23.390  -0.241  20.215  1.00  0.00     0.161 A 
ATOM      2  C   UNL     1      24.593  -0.238  19.488  1.00  0.00     0.164 A 
ATOM      3  C   UNL     1      24.969   0.908  18.761  1.00  0.00     0.098 A 
ATOM      4  C   UNL     1      24.155   2.042  18.757  1.00  0.00     0.142 A 
ATOM      5  C   UNL     1      22.948   2.041  19.485  1.00  0.00     0.022 A 
ATOM      6  C   UNL     1      22.568   0.904  20.210  1.00  0.00     0.062 A 
ATOM      7  C   UNL     1      22.153   3.192  19.461  1.00  0.00     0.019 A 
ATOM      8  C   UNL     1      22.574   4.299  18.724  1.00  0.00     0.094 A 
ATOM      9  C   UNL     1      23.784   4.228  18.026  1.00  0.00     0.336 A 
ATOM     10  O   UNL     1      24.182   5.215  17.355  1.00  0.00    -0.246 OA
ATOM     11  O   UNL     1      24.520   3.120  18.066  1.00  0.00    -0.423 OA
ENDROOT
BRANCH   1  12
ATOM     12  O   UNL     1      23.047  -1.400  20.929  1.00  0.00    -0.493 OA
ATOM     13  C   UNL     1      22.719  -1.428  22.315  1.00  0.00     0.278 C 
ENDBRANCH   1  12
BRANCH   2  14
ATOM     14  O   UNL     1      25.388  -1.396  19.515  1.00  0.00    -0.493 OA
ATOM     15  C   UNL     1      26.098  -1.913  18.395  1.00  0.00     0.278 C 
ENDBRANCH   2  14
TORSDOF 2
ENDMDL
MODEL 8
REMARK VINA RESULT:    -4.430      6.025      7.445
REMARK INTER + INTRA:          -5.064
REMARK INTER:                  -4.941
REMARK INTRA:                  -0.123
REMARK UNBOUND:                -0.116
REMARK SMILES COc1cc2ccc(=O)oc2cc1OC
REMARK SMILES IDX 3 1 13 2 12 3 11 4 5 5 4 6 6 7 7 8 8 9 9 10 10 11 2 12 1 13
REMARK SMILES IDX 14 14 15 15
REMARK H PARENT
REMARK Flexibility Score: inf
ROOT
ATOM      1  C   UNL     1      22.526  -3.499  17.221  1.00  0.00     0.161 A 
ATOM      2  C   UNL     1      22.104  -3.126  18.508  1.00  0.00     0.164 A 
ATOM      3  C   UNL     1      22.909  -2.275  19.290  1.00  0.00     0.098 A 
ATOM      4  C   UNL     1      24.124  -1.799  18.794  1.00  0.00     0.142 A 
ATOM      5  C   UNL     1      24.550  -2.172  17.503  1.00  0.00     0.022 A 
ATOM      6  C   UNL     1      23.753  -3.018  16.720  1.00  0.00     0.062 A 
ATOM      7  C   UNL     1      25.772  -1.679  17.034  1.00  0.00     0.019 A 
ATOM      8  C   UNL     1      26.530  -0.839  17.851  1.00  0.00     0.094 A 
ATOM      9  C   UNL     1      26.044  -0.512  19.121  1.00  0.00     0.336 A 
ATOM     10  O   UNL     1      26.713   0.244  19.873  1.00  0.00    -0.246 OA
ATOM     11  O   UNL     1      24.878  -0.995  19.541  1.00  0.00    -0.423 OA
ENDROOT
BRANCH   1  12
ATOM     12  O   UNL     1      21.698  -4.348  16.469  1.00  0.00    -0.493 OA
ATOM     13  C   UNL     1      22.169  -5.371  15.596  1.00  0.00     0.278 C 
ENDBRANCH   1  12
BRANCH   2  14
ATOM     14  O   UNL     1      20.876  -3.623  18.974  1.00  0.00    -0.493 OA
ATOM     15  C   UNL     1      19.672  -2.866  19.041  1.00  0.00     0.278 C 
ENDBRANCH   2  14
TORSDOF 2
ENDMDL
MODEL 9
REMARK VINA RESULT:    -4.375      6.176      8.590
REMARK INTER + INTRA:          -5.003
REMARK INTER:                  -4.890
REMARK INTRA:                  -0.113
REMARK UNBOUND:                -0.116
REMARK SMILES COc1cc2ccc(=O)oc2cc1OC
REMARK SMILES IDX 3 1 13 2 12 3 11 4 5 5 4 6 6 7 7 8 8 9 9 10 10 11 2 12 1 13
REMARK SMILES IDX 14 14 15 15
REMARK H PARENT
REMARK Flexibility Score: inf
ROOT
ATOM      1  C   UNL     1      24.017  -1.042  19.467  1.00  0.00     0.161 A 
ATOM      2  C   UNL     1      24.946  -1.150  18.418  1.00  0.00     0.164 A 
ATOM      3  C   UNL     1      24.711  -2.057  17.366  1.00  0.00     0.098 A 
ATOM      4  C   UNL     1      23.562  -2.849  17.358  1.00  0.00     0.142 A 
ATOM      5  C   UNL     1      22.628  -2.742  18.409  1.00  0.00     0.022 A 
ATOM      6  C   UNL     1      22.856  -1.842  19.459  1.00  0.00     0.062 A 
ATOM      7  C   UNL     1      21.487  -3.549  18.373  1.00  0.00     0.019 A 
ATOM      8  C   UNL     1      21.304  -4.429  17.307  1.00  0.00     0.094 A 
ATOM      9  C   UNL     1      22.272  -4.482  16.299  1.00  0.00     0.336 A 
ATOM     10  O   UNL     1      22.127  -5.270  15.328  1.00  0.00    -0.246 OA
ATOM     11  O   UNL     1      23.349  -3.703  16.359  1.00  0.00    -0.423 OA
ENDROOT
BRANCH   1  12
ATOM     12  O   UNL     1      24.283  -0.128  20.499  1.00  0.00    -0.493 OA
ATOM     13  C   UNL     1      23.451   0.068  21.639  1.00  0.00     0.278 C 
ENDBRANCH   1  12
BRANCH   2  14
ATOM     14  O   UNL     1      26.091  -0.338  18.459  1.00  0.00    -0.493 OA
ATOM     15  C   UNL     1      27.370  -0.769  18.912  1.00  0.00     0.278 C 
ENDBRANCH   2  14
TORSDOF 2
ENDMDL
