MODEL 1
REMARK VINA RESULT:    -5.600      0.000      0.000
REMARK INTER + INTRA:          -7.970
REMARK INTER:                  -7.891
REMARK INTRA:                  -0.079
REMARK UNBOUND:                -0.079
REMARK SMILES CC1=CCC(=C(C)C)C(=O)CC(C)=CCC1
REMARK SMILES IDX 12 1 14 2 13 3 15 4 16 5 2 6 1 7 3 8 11 10 9 11 10 12 5 13
REMARK SMILES IDX 6 14 7 15 8 16 4 17
REMARK H PARENT
REMARK Flexibility Score: 60.00
ROOT
ATOM      1  C   UNL     1      28.192  12.687  83.824  1.00  0.00    -0.070 C 
ATOM      2  C   UNL     1      27.139  13.488  84.111  1.00  0.00    -0.027 C 
ATOM      3  C   UNL     1      28.395  11.454  84.666  1.00  0.00     0.039 C 
ENDROOT
BRANCH   2   4
ATOM      4  C   UNL     1      26.873  14.826  83.472  1.00  0.00     0.032 C 
BRANCH   4   5
ATOM      5  C   UNL     1      25.622  14.741  82.589  1.00  0.00     0.034 C 
BRANCH   5   6
ATOM      6  C   UNL     1      25.782  15.493  81.283  1.00  0.00    -0.077 C 
ATOM      7  C   UNL     1      25.358  16.940  81.225  1.00  0.00     0.039 C 
ATOM      8  C   UNL     1      26.356  14.960  80.175  1.00  0.00    -0.023 CG0
ATOM      9  G   UNL     1      26.807  13.525  79.970  1.00  0.00     0.000 G0
ENDBRANCH   5   6
ENDBRANCH   4   5
ENDBRANCH   2   4
BRANCH   1  10
ATOM     10  C   UNL     1      29.159  12.958  82.689  1.00  0.00     0.111 C 
BRANCH  10  11
ATOM     11  C   UNL     1      28.664  12.392  81.380  1.00  0.00     0.163 C 
ATOM     12  O   UNL     1      28.540  11.139  81.305  1.00  0.00    -0.294 OA
BRANCH  11  13
ATOM     13  C   UNL     1      28.296  13.235  80.192  1.00  0.00    -0.002 C 
ATOM     14  C   UNL     1      29.244  13.584  79.268  1.00  0.00    -0.069 C 
ATOM     15  C   UNL     1      30.719  13.392  79.539  1.00  0.00     0.039 C 
ATOM     16  C   UNL     1      28.879  14.227  77.950  1.00  0.00     0.039 C 
BRANCH  13  17
ATOM     17  C   UNL     1      26.819  13.527  79.957  1.00  0.00     0.066 CG0
ATOM     18  G   UNL     1      26.371  14.962  80.172  1.00  0.00     0.000 G0
ENDBRANCH  13  17
ENDBRANCH  11  13
ENDBRANCH  10  11
ENDBRANCH   1  10
TORSDOF 0
ENDMDL
MODEL 2
REMARK VINA RESULT:    -5.540      1.971      4.005
REMARK INTER + INTRA:          -7.886
REMARK INTER:                  -7.750
REMARK INTRA:                  -0.136
REMARK UNBOUND:                -0.079
REMARK SMILES CC1=CCC(=C(C)C)C(=O)CC(C)=CCC1
REMARK SMILES IDX 12 1 14 2 13 3 15 4 16 5 2 6 1 7 3 8 11 10 9 11 10 12 5 13
REMARK SMILES IDX 6 14 7 15 8 16 4 17
REMARK H PARENT
REMARK Flexibility Score: 60.00
ROOT
ATOM      1  C   UNL     1      26.375  15.573  81.375  1.00  0.00    -0.070 C 
ATOM      2  C   UNL     1      26.619  15.545  82.706  1.00  0.00    -0.027 C 
ATOM      3  C   UNL     1      26.062  16.902  80.739  1.00  0.00     0.039 C 
ENDROOT
BRANCH   2   4
ATOM      4  C   UNL     1      26.802  14.294  83.525  1.00  0.00     0.032 C 
BRANCH   4   5
ATOM      5  C   UNL     1      28.296  13.977  83.663  1.00  0.00     0.034 C 
BRANCH   5   6
ATOM      6  C   UNL     1      28.593  12.501  83.491  1.00  0.00    -0.077 C 
ATOM      7  C   UNL     1      28.249  11.558  84.617  1.00  0.00     0.039 C 
ATOM      8  C   UNL     1      29.087  11.963  82.347  1.00  0.00    -0.023 CG0
ATOM      9  G   UNL     1      29.560  12.703  81.109  1.00  0.00     0.000 G0
ENDBRANCH   5   6
ENDBRANCH   4   5
ENDBRANCH   2   4
BRANCH   1  10
ATOM     10  C   UNL     1      26.422  14.340  80.494  1.00  0.00     0.111 C 
BRANCH  10  11
ATOM     11  C   UNL     1      27.788  14.138  79.882  1.00  0.00     0.163 C 
ATOM     12  O   UNL     1      28.300  15.122  79.282  1.00  0.00    -0.294 OA
BRANCH  11  13
ATOM     13  C   UNL     1      28.559  12.853  79.971  1.00  0.00    -0.002 C 
ATOM     14  C   UNL     1      28.475  11.921  78.971  1.00  0.00    -0.069 C 
ATOM     15  C   UNL     1      27.411  12.006  77.901  1.00  0.00     0.039 C 
ATOM     16  C   UNL     1      29.404  10.730  78.906  1.00  0.00     0.039 C 
BRANCH  13  17
ATOM     17  C   UNL     1      29.567  12.704  81.105  1.00  0.00     0.066 CG0
ATOM     18  G   UNL     1      29.095  11.948  82.334  1.00  0.00     0.000 G0
ENDBRANCH  13  17
ENDBRANCH  11  13
ENDBRANCH  10  11
ENDBRANCH   1  10
TORSDOF 0
ENDMDL
MODEL 3
REMARK VINA RESULT:    -5.509      1.973      3.894
REMARK INTER + INTRA:          -7.843
REMARK INTER:                  -8.223
REMARK INTRA:                   0.380
REMARK UNBOUND:                -0.079
REMARK SMILES CC1=CCC(=C(C)C)C(=O)CC(C)=CCC1
REMARK SMILES IDX 12 1 14 2 13 3 15 4 16 5 2 6 1 7 3 8 11 10 9 11 10 12 5 13
REMARK SMILES IDX 6 14 7 15 8 16 4 17
REMARK H PARENT
REMARK Flexibility Score: 60.00
ROOT
ATOM      1  C   UNL     1      26.762  14.299  77.658  1.00  0.00    -0.070 C 
ATOM      2  C   UNL     1      25.823  15.166  78.101  1.00  0.00    -0.027 C 
ATOM      3  C   UNL     1      26.368  13.309  76.593  1.00  0.00     0.039 C 
ENDROOT
BRANCH   2   4
ATOM      4  C   UNL     1      26.002  16.117  79.257  1.00  0.00     0.032 C 
BRANCH   4   5
ATOM      5  C   UNL     1      26.065  15.331  80.572  1.00  0.00     0.034 C 
BRANCH   5   6
ATOM      6  C   UNL     1      27.209  15.777  81.459  1.00  0.00    -0.077 C 
ATOM      7  C   UNL     1      27.257  17.217  81.908  1.00  0.00     0.039 C 
ATOM      8  C   UNL     1      28.160  14.937  81.938  1.00  0.00    -0.023 CG0
ATOM      9  G   UNL     1      28.357  13.472  81.589  1.00  0.00     0.000 G0
ENDBRANCH   5   6
ENDBRANCH   4   5
ENDBRANCH   2   4
BRANCH   1  10
ATOM     10  C   UNL     1      28.191  14.288  78.165  1.00  0.00     0.111 C 
BRANCH  10  11
ATOM     11  C   UNL     1      28.472  13.082  79.029  1.00  0.00     0.163 C 
ATOM     12  O   UNL     1      28.098  11.960  78.591  1.00  0.00    -0.294 OA
BRANCH  11  13
ATOM     13  C   UNL     1      29.183  13.150  80.350  1.00  0.00    -0.002 C 
ATOM     14  C   UNL     1      30.550  13.094  80.408  1.00  0.00    -0.069 C 
ATOM     15  C   UNL     1      31.374  12.679  79.210  1.00  0.00     0.039 C 
ATOM     16  C   UNL     1      31.310  13.391  81.680  1.00  0.00     0.039 C 
BRANCH  13  17
ATOM     17  C   UNL     1      28.353  13.467  81.589  1.00  0.00     0.066 CG0
ATOM     18  G   UNL     1      28.176  14.936  81.927  1.00  0.00     0.000 G0
ENDBRANCH  13  17
ENDBRANCH  11  13
ENDBRANCH  10  11
ENDBRANCH   1  10
TORSDOF 0
ENDMDL
MODEL 4
REMARK VINA RESULT:    -5.461      2.195      3.944
REMARK INTER + INTRA:          -7.775
REMARK INTER:                  -7.719
REMARK INTRA:                  -0.057
REMARK UNBOUND:                -0.079
REMARK SMILES CC1=CCC(=C(C)C)C(=O)CC(C)=CCC1
REMARK SMILES IDX 12 1 14 2 13 3 15 4 16 5 2 6 1 7 3 8 11 10 9 11 10 12 5 13
REMARK SMILES IDX 6 14 7 15 8 16 4 17
REMARK H PARENT
REMARK Flexibility Score: 60.00
ROOT
ATOM      1  C   UNL     1      27.691  11.793  82.747  1.00  0.00    -0.070 C 
ATOM      2  C   UNL     1      27.858  10.650  82.043  1.00  0.00    -0.027 C 
ATOM      3  C   UNL     1      28.312  11.882  84.117  1.00  0.00     0.039 C 
ENDROOT
BRANCH   2   4
ATOM      4  C   UNL     1      27.188  10.337  80.730  1.00  0.00     0.032 C 
BRANCH   4   5
ATOM      5  C   UNL     1      28.208  10.436  79.589  1.00  0.00     0.034 C 
BRANCH   5   6
ATOM      6  C   UNL     1      27.600  10.988  78.315  1.00  0.00    -0.077 C 
ATOM      7  C   UNL     1      26.920  10.032  77.366  1.00  0.00     0.039 C 
ATOM      8  C   UNL     1      27.567  12.309  78.010  1.00  0.00    -0.023 CG0
ATOM      9  G   UNL     1      28.225  13.448  78.768  1.00  0.00     0.000 G0
ENDBRANCH   5   6
ENDBRANCH   4   5
ENDBRANCH   2   4
BRANCH   1  10
ATOM     10  C   UNL     1      26.929  12.993  82.218  1.00  0.00     0.111 C 
BRANCH  10  11
ATOM     11  C   UNL     1      27.772  13.828  81.284  1.00  0.00     0.163 C 
ATOM     12  O   UNL     1      28.858  14.278  81.738  1.00  0.00    -0.294 OA
BRANCH  11  13
ATOM     13  C   UNL     1      27.396  14.123  79.860  1.00  0.00    -0.002 C 
ATOM     14  C   UNL     1      26.453  15.074  79.573  1.00  0.00    -0.069 C 
ATOM     15  C   UNL     1      25.560  15.649  80.649  1.00  0.00     0.039 C 
ATOM     16  C   UNL     1      26.214  15.564  78.164  1.00  0.00     0.039 C 
BRANCH  13  17
ATOM     17  C   UNL     1      28.220  13.471  78.756  1.00  0.00     0.066 CG0
ATOM     18  G   UNL     1      27.570  12.313  78.021  1.00  0.00     0.000 G0
ENDBRANCH  13  17
ENDBRANCH  11  13
ENDBRANCH  10  11
ENDBRANCH   1  10
TORSDOF 0
ENDMDL
MODEL 5
REMARK VINA RESULT:    -5.408      2.224      4.905
REMARK INTER + INTRA:          -7.700
REMARK INTER:                  -7.882
REMARK INTRA:                   0.183
REMARK UNBOUND:                -0.079
REMARK SMILES CC1=CCC(=C(C)C)C(=O)CC(C)=CCC1
REMARK SMILES IDX 12 1 14 2 13 3 15 4 16 5 2 6 1 7 3 8 11 10 9 11 10 12 5 13
REMARK SMILES IDX 6 14 7 15 8 16 4 17
REMARK H PARENT
REMARK Flexibility Score: 60.00
ROOT
ATOM      1  C   UNL     1      30.150  14.169  80.718  1.00  0.00    -0.070 C 
ATOM      2  C   UNL     1      30.824  13.429  79.808  1.00  0.00    -0.027 C 
ATOM      3  C   UNL     1      30.875  14.588  81.971  1.00  0.00     0.039 C 
ENDROOT
BRANCH   2   4
ATOM      4  C   UNL     1      30.215  12.806  78.579  1.00  0.00     0.032 C 
BRANCH   4   5
ATOM      5  C   UNL     1      29.970  11.311  78.821  1.00  0.00     0.034 C 
BRANCH   5   6
ATOM      6  C   UNL     1      28.510  10.998  79.078  1.00  0.00    -0.077 C 
ATOM      7  C   UNL     1      27.633  10.627  77.909  1.00  0.00     0.039 C 
ATOM      8  C   UNL     1      27.957  10.961  80.317  1.00  0.00    -0.023 CG0
ATOM      9  G   UNL     1      28.613  11.347  81.631  1.00  0.00     0.000 G0
ENDBRANCH   5   6
ENDBRANCH   4   5
ENDBRANCH   2   4
BRANCH   1  10
ATOM     10  C   UNL     1      28.713  14.614  80.529  1.00  0.00     0.111 C 
BRANCH  10  11
ATOM     11  C   UNL     1      27.754  13.780  81.345  1.00  0.00     0.163 C 
ATOM     12  O   UNL     1      26.524  14.029  81.217  1.00  0.00    -0.294 OA
BRANCH  11  13
ATOM     13  C   UNL     1      28.185  12.676  82.266  1.00  0.00    -0.002 C 
ATOM     14  C   UNL     1      28.044  12.807  83.622  1.00  0.00    -0.069 C 
ATOM     15  C   UNL     1      27.730  14.142  84.257  1.00  0.00     0.039 C 
ATOM     16  C   UNL     1      28.245  11.642  84.564  1.00  0.00     0.039 C 
BRANCH  13  17
ATOM     17  C   UNL     1      28.604  11.350  81.641  1.00  0.00     0.066 CG0
ATOM     18  G   UNL     1      27.944  10.985  80.323  1.00  0.00     0.000 G0
ENDBRANCH  13  17
ENDBRANCH  11  13
ENDBRANCH  10  11
ENDBRANCH   1  10
TORSDOF 0
ENDMDL
MODEL 6
REMARK VINA RESULT:    -5.317      2.100      3.912
REMARK INTER + INTRA:          -7.572
REMARK INTER:                  -7.716
REMARK INTRA:                   0.144
REMARK UNBOUND:                -0.079
REMARK SMILES CC1=CCC(=C(C)C)C(=O)CC(C)=CCC1
REMARK SMILES IDX 12 1 14 2 13 3 15 4 16 5 2 6 1 7 3 8 11 10 9 11 10 12 5 13
REMARK SMILES IDX 6 14 7 15 8 16 4 17
REMARK H PARENT
REMARK Flexibility Score: 60.00
ROOT
ATOM      1  C   UNL     1      26.185  14.753  78.964  1.00  0.00    -0.070 C 
ATOM      2  C   UNL     1      25.513  15.446  79.911  1.00  0.00    -0.027 C 
ATOM      3  C   UNL     1      26.002  15.157  77.524  1.00  0.00     0.039 C 
ENDROOT
BRANCH   2   4
ATOM      4  C   UNL     1      25.464  15.087  81.374  1.00  0.00     0.032 C 
BRANCH   4   5
ATOM      5  C   UNL     1      26.548  15.860  82.135  1.00  0.00     0.034 C 
BRANCH   5   6
ATOM      6  C   UNL     1      27.452  14.948  82.940  1.00  0.00    -0.077 C 
ATOM      7  C   UNL     1      26.934  14.378  84.237  1.00  0.00     0.039 C 
ATOM      8  C   UNL     1      28.682  14.553  82.524  1.00  0.00    -0.023 CG0
ATOM      9  G   UNL     1      29.438  15.028  81.297  1.00  0.00     0.000 G0
ENDBRANCH   5   6
ENDBRANCH   4   5
ENDBRANCH   2   4
BRANCH   1  10
ATOM     10  C   UNL     1      27.126  13.607  79.281  1.00  0.00     0.111 C 
BRANCH  10  11
ATOM     11  C   UNL     1      28.572  13.992  79.072  1.00  0.00     0.163 C 
ATOM     12  O   UNL     1      28.909  14.351  77.912  1.00  0.00    -0.294 OA
BRANCH  11  13
ATOM     13  C   UNL     1      29.601  13.989  80.165  1.00  0.00    -0.002 C 
ATOM     14  C   UNL     1      30.722  13.208  80.062  1.00  0.00    -0.069 C 
ATOM     15  C   UNL     1      30.835  12.125  79.014  1.00  0.00     0.039 C 
ATOM     16  C   UNL     1      31.885  13.348  81.017  1.00  0.00     0.039 C 
BRANCH  13  17
ATOM     17  C   UNL     1      29.450  15.008  81.289  1.00  0.00     0.066 CG0
ATOM     18  G   UNL     1      28.680  14.552  82.515  1.00  0.00     0.000 G0
ENDBRANCH  13  17
ENDBRANCH  11  13
ENDBRANCH  10  11
ENDBRANCH   1  10
TORSDOF 0
ENDMDL
MODEL 7
REMARK VINA RESULT:    -5.295      1.603      3.842
REMARK INTER + INTRA:          -7.541
REMARK INTER:                  -7.810
REMARK INTRA:                   0.270
REMARK UNBOUND:                -0.079
REMARK SMILES CC1=CCC(=C(C)C)C(=O)CC(C)=CCC1
REMARK SMILES IDX 12 1 14 2 13 3 15 4 16 5 2 6 1 7 3 8 11 10 9 11 10 12 5 13
REMARK SMILES IDX 6 14 7 15 8 16 4 17
REMARK H PARENT
REMARK Flexibility Score: 60.00
ROOT
ATOM      1  C   UNL     1      28.060  11.603  80.476  1.00  0.00    -0.070 C 
ATOM      2  C   UNL     1      27.835  12.067  79.225  1.00  0.00    -0.027 C 
ATOM      3  C   UNL     1      26.922  10.933  81.201  1.00  0.00     0.039 C 
ENDROOT
BRANCH   2   4
ATOM      4  C   UNL     1      28.808  12.887  78.419  1.00  0.00     0.032 C 
BRANCH   4   5
ATOM      5  C   UNL     1      28.695  14.365  78.813  1.00  0.00     0.034 C 
BRANCH   5   6
ATOM      6  C   UNL     1      27.316  14.723  79.327  1.00  0.00    -0.077 C 
ATOM      7  C   UNL     1      26.158  14.709  78.361  1.00  0.00     0.039 C 
ATOM      8  C   UNL     1      27.046  14.987  80.630  1.00  0.00    -0.023 CG0
ATOM      9  G   UNL     1      28.040  15.117  81.770  1.00  0.00     0.000 G0
ENDBRANCH   5   6
ENDBRANCH   4   5
ENDBRANCH   2   4
BRANCH   1  10
ATOM     10  C   UNL     1      29.403  11.706  81.172  1.00  0.00     0.111 C 
BRANCH  10  11
ATOM     11  C   UNL     1      29.583  13.042  81.852  1.00  0.00     0.163 C 
ATOM     12  O   UNL     1      30.751  13.517  81.886  1.00  0.00    -0.294 OA
BRANCH  11  13
ATOM     13  C   UNL     1      28.457  13.827  82.460  1.00  0.00    -0.002 C 
ATOM     14  C   UNL     1      27.941  13.475  83.678  1.00  0.00    -0.069 C 
ATOM     15  C   UNL     1      28.270  12.146  84.319  1.00  0.00     0.039 C 
ATOM     16  C   UNL     1      26.976  14.364  84.427  1.00  0.00     0.039 C 
BRANCH  13  17
ATOM     17  C   UNL     1      28.039  15.122  81.771  1.00  0.00     0.066 CG0
ATOM     18  G   UNL     1      27.068  14.987  80.612  1.00  0.00     0.000 G0
ENDBRANCH  13  17
ENDBRANCH  11  13
ENDBRANCH  10  11
ENDBRANCH   1  10
TORSDOF 0
ENDMDL
MODEL 8
REMARK VINA RESULT:    -5.183      2.115      5.031
REMARK INTER + INTRA:          -7.383
REMARK INTER:                  -7.665
REMARK INTRA:                   0.282
REMARK UNBOUND:                -0.079
REMARK SMILES CC1=CCC(=C(C)C)C(=O)CC(C)=CCC1
REMARK SMILES IDX 12 1 14 2 13 3 15 4 16 5 2 6 1 7 3 8 11 10 9 11 10 12 5 13
REMARK SMILES IDX 6 14 7 15 8 16 4 17
REMARK H PARENT
REMARK Flexibility Score: 60.00
ROOT
ATOM      1  C   UNL     1      27.235  14.423  78.445  1.00  0.00    -0.070 C 
ATOM      2  C   UNL     1      26.877  13.185  78.031  1.00  0.00    -0.027 C 
ATOM      3  C   UNL     1      26.209  15.523  78.365  1.00  0.00     0.039 C 
ENDROOT
BRANCH   2   4
ATOM      4  C   UNL     1      27.814  12.012  77.905  1.00  0.00     0.032 C 
BRANCH   4   5
ATOM      5  C   UNL     1      27.472  10.956  78.964  1.00  0.00     0.034 C 
BRANCH   5   6
ATOM      6  C   UNL     1      28.472  10.932  80.101  1.00  0.00    -0.077 C 
ATOM      7  C   UNL     1      29.674  10.027  79.988  1.00  0.00     0.039 C 
ATOM      8  C   UNL     1      28.388  11.735  81.192  1.00  0.00    -0.023 CG0
ATOM      9  G   UNL     1      27.257  12.678  81.558  1.00  0.00     0.000 G0
ENDBRANCH   5   6
ENDBRANCH   4   5
ENDBRANCH   2   4
BRANCH   1  10
ATOM     10  C   UNL     1      28.607  14.750  79.002  1.00  0.00     0.111 C 
BRANCH  10  11
ATOM     11  C   UNL     1      28.661  14.577  80.501  1.00  0.00     0.163 C 
ATOM     12  O   UNL     1      29.764  14.807  81.067  1.00  0.00    -0.294 OA
BRANCH  11  13
ATOM     13  C   UNL     1      27.481  14.172  81.337  1.00  0.00    -0.002 C 
ATOM     14  C   UNL     1      26.563  15.104  81.740  1.00  0.00    -0.069 C 
ATOM     15  C   UNL     1      26.835  16.586  81.615  1.00  0.00     0.039 C 
ATOM     16  C   UNL     1      25.250  14.711  82.378  1.00  0.00     0.039 C 
BRANCH  13  17
ATOM     17  C   UNL     1      27.246  12.683  81.562  1.00  0.00     0.066 CG0
ATOM     18  G   UNL     1      28.386  11.754  81.186  1.00  0.00     0.000 G0
ENDBRANCH  13  17
ENDBRANCH  11  13
ENDBRANCH  10  11
ENDBRANCH   1  10
TORSDOF 0
ENDMDL
MODEL 9
REMARK VINA RESULT:    -5.125      2.038      5.149
REMARK INTER + INTRA:          -7.301
REMARK INTER:                  -7.891
REMARK INTRA:                   0.590
REMARK UNBOUND:                -0.079
REMARK SMILES CC1=CCC(=C(C)C)C(=O)CC(C)=CCC1
REMARK SMILES IDX 12 1 14 2 13 3 15 4 16 5 2 6 1 7 3 8 11 10 9 11 10 12 5 13
REMARK SMILES IDX 6 14 7 15 8 16 4 17
REMARK H PARENT
REMARK Flexibility Score: 60.00
ROOT
ATOM      1  C   UNL     1      27.671  14.644  78.965  1.00  0.00    -0.070 C 
ATOM      2  C   UNL     1      28.466  13.843  78.219  1.00  0.00    -0.027 C 
ATOM      3  C   UNL     1      26.400  15.162  78.343  1.00  0.00     0.039 C 
ENDROOT
BRANCH   2   4
ATOM      4  C   UNL     1      29.833  13.359  78.628  1.00  0.00     0.032 C 
BRANCH   4   5
ATOM      5  C   UNL     1      29.845  11.827  78.692  1.00  0.00     0.034 C 
BRANCH   5   6
ATOM      6  C   UNL     1      28.528  11.257  79.177  1.00  0.00    -0.077 C 
ATOM      7  C   UNL     1      27.654  10.520  78.193  1.00  0.00     0.039 C 
ATOM      8  C   UNL     1      28.118  11.308  80.469  1.00  0.00    -0.023 CG0
ATOM      9  G   UNL     1      28.787  12.035  81.621  1.00  0.00     0.000 G0
ENDBRANCH   5   6
ENDBRANCH   4   5
ENDBRANCH   2   4
BRANCH   1  10
ATOM     10  C   UNL     1      27.985  15.027  80.398  1.00  0.00     0.111 C 
BRANCH  10  11
ATOM     11  C   UNL     1      27.278  14.133  81.388  1.00  0.00     0.163 C 
ATOM     12  O   UNL     1      26.020  14.211  81.435  1.00  0.00    -0.294 OA
BRANCH  11  13
ATOM     13  C   UNL     1      27.984  13.159  82.286  1.00  0.00    -0.002 C 
ATOM     14  C   UNL     1      27.778  13.185  83.639  1.00  0.00    -0.069 C 
ATOM     15  C   UNL     1      27.076  14.345  84.308  1.00  0.00     0.039 C 
ATOM     16  C   UNL     1      28.281  12.087  84.547  1.00  0.00     0.039 C 
BRANCH  13  17
ATOM     17  C   UNL     1      28.784  12.038  81.631  1.00  0.00     0.066 CG0
ATOM     18  G   UNL     1      28.113  11.315  80.478  1.00  0.00     0.000 G0
ENDBRANCH  13  17
ENDBRANCH  11  13
ENDBRANCH  10  11
ENDBRANCH   1  10
TORSDOF 0
ENDMDL
