MODEL 1
REMARK VINA RESULT:    -3.525      0.000      0.000
REMARK INTER + INTRA:          -3.563
REMARK INTER:                  -4.762
REMARK INTRA:                   1.199
REMARK UNBOUND:                 1.199
REMARK SMILES C=C1C(=O)O[C@H]2[C@@H]1CCC(C)=CCC[C@]1(C)O[C@@H]21
REMARK SMILES IDX 6 1 7 2 2 3 1 4 3 5 4 6 5 7 8 8 9 9 10 10 11 11 12 12 18 14
REMARK SMILES IDX 15 15 17 16 16 17 14 18 13 19
REMARK H PARENT
REMARK Flexibility Score: 70.00
ROOT
ATOM      1  C   UNL     1       4.473 108.101 181.659  1.00  0.00     0.216 C 
ATOM      2  C   UNL     1       2.921 107.989 181.890  1.00  0.00     0.070 C 
ATOM      3  C   UNL     1       2.705 109.233 182.707  1.00  0.00     0.037 C 
ATOM      4  C   UNL     1       1.669 109.484 183.506  1.00  0.00     0.021 C 
ATOM      5  C   UNL     1       3.800 110.139 182.410  1.00  0.00     0.334 C 
ATOM      6  O   UNL     1       3.869 111.348 182.753  1.00  0.00    -0.247 OA
ATOM      7  O   UNL     1       4.767 109.493 181.666  1.00  0.00    -0.455 OA
ENDROOT
BRANCH   2   8
ATOM      8  C   UNL     1       1.961 108.107 180.644  1.00  0.00     0.017 C 
BRANCH   8   9
ATOM      9  C   UNL     1       1.816 107.011 179.535  1.00  0.00     0.031 C 
BRANCH   9  10
ATOM     10  C   UNL     1       2.411 107.279 178.159  1.00  0.00    -0.077 C 
ATOM     11  C   UNL     1       1.857 108.440 177.373  1.00  0.00     0.039 C 
ATOM     12  C   UNL     1       3.490 106.615 177.640  1.00  0.00    -0.028 CG0
ATOM     13  G   UNL     1       4.115 105.316 178.153  1.00  0.00     0.000 G0
ENDBRANCH   9  10
ENDBRANCH   8   9
ENDBRANCH   2   8
BRANCH   1  14
ATOM     14  C   UNL     1       4.924 107.389 180.407  1.00  0.00     0.192 C 
ATOM     15  C   UNL     1       5.720 106.153 180.096  1.00  0.00     0.096 C 
ATOM     16  O   UNL     1       4.506 106.065 180.727  1.00  0.00    -0.362 OA
ATOM     17  C   UNL     1       6.871 105.759 181.017  1.00  0.00     0.045 C 
BRANCH  15  18
ATOM     18  C   UNL     1       5.577 105.470 178.710  1.00  0.00     0.042 C 
BRANCH  18  19
ATOM     19  C   UNL     1       4.123 105.309 178.155  1.00  0.00     0.030 CG0
ATOM     20  G   UNL     1       3.511 106.605 177.620  1.00  0.00     0.000 G0
ENDBRANCH  18  19
ENDBRANCH  15  18
ENDBRANCH   1  14
TORSDOF 0
ENDMDL
MODEL 2
REMARK VINA RESULT:    -3.496      3.111      5.282
REMARK INTER + INTRA:          -3.523
REMARK INTER:                  -5.099
REMARK INTRA:                   1.576
REMARK UNBOUND:                 1.199
REMARK SMILES C=C1C(=O)O[C@H]2[C@@H]1CCC(C)=CCC[C@]1(C)O[C@@H]21
REMARK SMILES IDX 6 1 7 2 2 3 1 4 3 5 4 6 5 7 8 8 9 9 10 10 11 11 12 12 18 14
REMARK SMILES IDX 15 15 17 16 16 17 14 18 13 19
REMARK H PARENT
REMARK Flexibility Score: 70.00
ROOT
ATOM      1  C   UNL     1       3.775 110.934 182.922  1.00  0.00     0.216 C 
ATOM      2  C   UNL     1       5.118 111.695 183.223  1.00  0.00     0.070 C 
ATOM      3  C   UNL     1       4.556 112.951 183.832  1.00  0.00     0.037 C 
ATOM      4  C   UNL     1       5.181 114.122 183.946  1.00  0.00     0.021 C 
ATOM      5  C   UNL     1       3.233 112.630 184.336  1.00  0.00     0.334 C 
ATOM      6  O   UNL     1       2.528 113.367 185.075  1.00  0.00    -0.247 OA
ATOM      7  O   UNL     1       2.849 111.376 183.907  1.00  0.00    -0.455 OA
ENDROOT
BRANCH   2   8
ATOM      8  C   UNL     1       6.106 111.090 184.293  1.00  0.00     0.017 C 
BRANCH   8   9
ATOM      9  C   UNL     1       6.276 109.558 184.569  1.00  0.00     0.031 C 
BRANCH   9  10
ATOM     10  C   UNL     1       7.095 108.725 183.591  1.00  0.00    -0.077 C 
ATOM     11  C   UNL     1       8.452 109.247 183.196  1.00  0.00     0.039 C 
ATOM     12  C   UNL     1       6.734 107.483 183.141  1.00  0.00    -0.028 CG0
ATOM     13  G   UNL     1       5.361 106.817 183.258  1.00  0.00     0.000 G0
ENDBRANCH   9  10
ENDBRANCH   8   9
ENDBRANCH   2   8
BRANCH   1  14
ATOM     14  C   UNL     1       3.955 109.436 182.881  1.00  0.00     0.192 C 
ATOM     15  C   UNL     1       3.689 108.344 181.885  1.00  0.00     0.096 C 
ATOM     16  O   UNL     1       4.624 109.315 181.630  1.00  0.00    -0.362 OA
ATOM     17  C   UNL     1       2.481 108.459 180.960  1.00  0.00     0.045 C 
BRANCH  15  18
ATOM     18  C   UNL     1       4.440 106.992 182.002  1.00  0.00     0.042 C 
BRANCH  18  19
ATOM     19  C   UNL     1       5.358 106.805 183.256  1.00  0.00     0.030 CG0
ATOM     20  G   UNL     1       6.729 107.473 183.132  1.00  0.00     0.000 G0
ENDBRANCH  18  19
ENDBRANCH  15  18
ENDBRANCH   1  14
TORSDOF 0
ENDMDL
MODEL 3
REMARK VINA RESULT:    -3.475      3.067      5.572
REMARK INTER + INTRA:          -3.494
REMARK INTER:                  -4.645
REMARK INTRA:                   1.150
REMARK UNBOUND:                 1.199
REMARK SMILES C=C1C(=O)O[C@H]2[C@@H]1CCC(C)=CCC[C@]1(C)O[C@@H]21
REMARK SMILES IDX 6 1 7 2 2 3 1 4 3 5 4 6 5 7 8 8 9 9 10 10 11 11 12 12 18 14
REMARK SMILES IDX 15 15 17 16 16 17 14 18 13 19
REMARK H PARENT
REMARK Flexibility Score: 70.00
ROOT
ATOM      1  C   UNL     1       3.501 108.458 181.202  1.00  0.00     0.216 C 
ATOM      2  C   UNL     1       3.746 106.914 181.377  1.00  0.00     0.070 C 
ATOM      3  C   UNL     1       3.108 106.420 180.107  1.00  0.00     0.037 C 
ATOM      4  C   UNL     1       2.678 105.182 179.869  1.00  0.00     0.021 C 
ATOM      5  C   UNL     1       3.111 107.525 179.166  1.00  0.00     0.334 C 
ATOM      6  O   UNL     1       2.834 107.448 177.940  1.00  0.00    -0.247 OA
ATOM      7  O   UNL     1       3.486 108.693 179.799  1.00  0.00    -0.455 OA
ENDROOT
BRANCH   2   8
ATOM      8  C   UNL     1       5.230 106.379 181.362  1.00  0.00     0.017 C 
BRANCH   8   9
ATOM      9  C   UNL     1       6.264 106.614 182.514  1.00  0.00     0.031 C 
BRANCH   9  10
ATOM     10  C   UNL     1       7.403 107.599 182.286  1.00  0.00    -0.077 C 
ATOM     11  C   UNL     1       8.393 107.280 181.195  1.00  0.00     0.039 C 
ATOM     12  C   UNL     1       7.521 108.806 182.921  1.00  0.00    -0.028 CG0
ATOM     13  G   UNL     1       6.759 109.281 184.160  1.00  0.00     0.000 G0
ENDBRANCH   9  10
ENDBRANCH   8   9
ENDBRANCH   2   8
BRANCH   1  14
ATOM     14  C   UNL     1       4.512 109.293 181.949  1.00  0.00     0.192 C 
ATOM     15  C   UNL     1       4.487 110.207 183.141  1.00  0.00     0.096 C 
ATOM     16  O   UNL     1       4.231 108.867 183.279  1.00  0.00    -0.362 OA
ATOM     17  C   UNL     1       3.245 111.055 183.402  1.00  0.00     0.045 C 
BRANCH  15  18
ATOM     18  C   UNL     1       5.800 110.513 183.908  1.00  0.00     0.042 C 
BRANCH  18  19
ATOM     19  C   UNL     1       6.756 109.301 184.173  1.00  0.00     0.030 CG0
ATOM     20  G   UNL     1       7.510 108.819 182.932  1.00  0.00     0.000 G0
ENDBRANCH  18  19
ENDBRANCH  15  18
ENDBRANCH   1  14
TORSDOF 0
ENDMDL
MODEL 4
REMARK VINA RESULT:    -3.468      2.666      5.037
REMARK INTER + INTRA:          -3.486
REMARK INTER:                  -4.646
REMARK INTRA:                   1.160
REMARK UNBOUND:                 1.199
REMARK SMILES C=C1C(=O)O[C@H]2[C@@H]1CCC(C)=CCC[C@]1(C)O[C@@H]21
REMARK SMILES IDX 6 1 7 2 2 3 1 4 3 5 4 6 5 7 8 8 9 9 10 10 11 11 12 12 18 14
REMARK SMILES IDX 15 15 17 16 16 17 14 18 13 19
REMARK H PARENT
REMARK Flexibility Score: 70.00
ROOT
ATOM      1  C   UNL     1       2.027 107.737 180.210  1.00  0.00     0.216 C 
ATOM      2  C   UNL     1       2.649 106.353 179.795  1.00  0.00     0.070 C 
ATOM      3  C   UNL     1       1.875 106.107 178.529  1.00  0.00     0.037 C 
ATOM      4  C   UNL     1       1.695 104.932 177.928  1.00  0.00     0.021 C 
ATOM      5  C   UNL     1       1.418 107.397 178.046  1.00  0.00     0.334 C 
ATOM      6  O   UNL     1       0.901 107.621 176.920  1.00  0.00    -0.247 OA
ATOM      7  O   UNL     1       1.649 108.373 178.995  1.00  0.00    -0.455 OA
ENDROOT
BRANCH   2   8
ATOM      8  C   UNL     1       4.175 106.299 179.397  1.00  0.00     0.017 C 
BRANCH   8   9
ATOM      9  C   UNL     1       5.357 106.438 180.413  1.00  0.00     0.031 C 
BRANCH   9  10
ATOM     10  C   UNL     1       6.183 107.718 180.405  1.00  0.00    -0.077 C 
ATOM     11  C   UNL     1       6.958 108.040 179.153  1.00  0.00     0.039 C 
ATOM     12  C   UNL     1       6.174 108.651 181.407  1.00  0.00    -0.028 CG0
ATOM     13  G   UNL     1       5.615 108.488 182.822  1.00  0.00     0.000 G0
ENDBRANCH   9  10
ENDBRANCH   8   9
ENDBRANCH   2   8
BRANCH   1  14
ATOM     14  C   UNL     1       2.963 108.560 181.063  1.00  0.00     0.192 C 
ATOM     15  C   UNL     1       3.021 108.978 182.504  1.00  0.00     0.096 C 
ATOM     16  O   UNL     1       3.140 107.658 182.152  1.00  0.00    -0.362 OA
ATOM     17  C   UNL     1       1.720 109.254 183.252  1.00  0.00     0.045 C 
BRANCH  15  18
ATOM     18  C   UNL     1       4.372 109.418 183.127  1.00  0.00     0.042 C 
BRANCH  18  19
ATOM     19  C   UNL     1       5.608 108.500 182.841  1.00  0.00     0.030 CG0
ATOM     20  G   UNL     1       6.172 108.636 181.425  1.00  0.00     0.000 G0
ENDBRANCH  18  19
ENDBRANCH  15  18
ENDBRANCH   1  14
TORSDOF 0
ENDMDL
MODEL 5
REMARK VINA RESULT:    -3.365      2.739      5.376
REMARK INTER + INTRA:          -3.346
REMARK INTER:                  -4.567
REMARK INTRA:                   1.221
REMARK UNBOUND:                 1.199
REMARK SMILES C=C1C(=O)O[C@H]2[C@@H]1CCC(C)=CCC[C@]1(C)O[C@@H]21
REMARK SMILES IDX 6 1 7 2 2 3 1 4 3 5 4 6 5 7 8 8 9 9 10 10 11 11 12 12 18 14
REMARK SMILES IDX 15 15 17 16 16 17 14 18 13 19
REMARK H PARENT
REMARK Flexibility Score: 70.00
ROOT
ATOM      1  C   UNL     1       6.171 106.035 181.478  1.00  0.00     0.216 C 
ATOM      2  C   UNL     1       6.531 106.214 182.999  1.00  0.00     0.070 C 
ATOM      3  C   UNL     1       7.968 105.770 182.964  1.00  0.00     0.037 C 
ATOM      4  C   UNL     1       8.692 105.353 184.002  1.00  0.00     0.021 C 
ATOM      5  C   UNL     1       8.440 105.946 181.603  1.00  0.00     0.334 C 
ATOM      6  O   UNL     1       9.637 105.863 181.222  1.00  0.00    -0.247 OA
ATOM      7  O   UNL     1       7.384 106.245 180.765  1.00  0.00    -0.455 OA
ENDROOT
BRANCH   2   8
ATOM      8  C   UNL     1       6.532 107.668 183.609  1.00  0.00     0.017 C 
BRANCH   8   9
ATOM      9  C   UNL     1       5.240 108.483 183.951  1.00  0.00     0.031 C 
BRANCH   9  10
ATOM     10  C   UNL     1       4.917 109.723 183.128  1.00  0.00    -0.077 C 
ATOM     11  C   UNL     1       5.884 110.877 183.198  1.00  0.00     0.039 C 
ATOM     12  C   UNL     1       3.877 109.815 182.243  1.00  0.00    -0.028 CG0
ATOM     13  G   UNL     1       2.682 108.868 182.113  1.00  0.00     0.000 G0
ENDBRANCH   9  10
ENDBRANCH   8   9
ENDBRANCH   2   8
BRANCH   1  14
ATOM     14  C   UNL     1       5.042 106.937 181.040  1.00  0.00     0.192 C 
ATOM     15  C   UNL     1       3.573 106.774 180.773  1.00  0.00     0.096 C 
ATOM     16  O   UNL     1       4.080 106.607 182.036  1.00  0.00    -0.362 OA
ATOM     17  C   UNL     1       3.066 105.462 180.183  1.00  0.00     0.045 C 
BRANCH  15  18
ATOM     18  C   UNL     1       2.640 108.013 180.805  1.00  0.00     0.042 C 
BRANCH  18  19
ATOM     19  C   UNL     1       2.662 108.874 182.112  1.00  0.00     0.030 CG0
ATOM     20  G   UNL     1       3.868 109.808 182.224  1.00  0.00     0.000 G0
ENDBRANCH  18  19
ENDBRANCH  15  18
ENDBRANCH   1  14
TORSDOF 0
ENDMDL
MODEL 6
REMARK VINA RESULT:    -3.205      1.617      3.300
REMARK INTER + INTRA:          -3.131
REMARK INTER:                  -4.719
REMARK INTRA:                   1.588
REMARK UNBOUND:                 1.199
REMARK SMILES C=C1C(=O)O[C@H]2[C@@H]1CCC(C)=CCC[C@]1(C)O[C@@H]21
REMARK SMILES IDX 6 1 7 2 2 3 1 4 3 5 4 6 5 7 8 8 9 9 10 10 11 11 12 12 18 14
REMARK SMILES IDX 15 15 17 16 16 17 14 18 13 19
REMARK H PARENT
REMARK Flexibility Score: 70.00
ROOT
ATOM      1  C   UNL     1       2.452 108.459 180.449  1.00  0.00     0.216 C 
ATOM      2  C   UNL     1       3.898 108.758 180.993  1.00  0.00     0.070 C 
ATOM      3  C   UNL     1       3.538 109.558 182.215  1.00  0.00     0.037 C 
ATOM      4  C   UNL     1       4.338 110.394 182.875  1.00  0.00     0.021 C 
ATOM      5  C   UNL     1       2.182 109.197 182.583  1.00  0.00     0.334 C 
ATOM      6  O   UNL     1       1.600 109.512 183.654  1.00  0.00    -0.247 OA
ATOM      7  O   UNL     1       1.606 108.426 181.592  1.00  0.00    -0.455 OA
ENDROOT
BRANCH   2   8
ATOM      8  C   UNL     1       4.779 107.552 181.498  1.00  0.00     0.017 C 
BRANCH   8   9
ATOM      9  C   UNL     1       4.730 106.109 180.892  1.00  0.00     0.031 C 
BRANCH   9  10
ATOM     10  C   UNL     1       5.389 105.859 179.542  1.00  0.00    -0.077 C 
ATOM     11  C   UNL     1       6.798 106.359 179.351  1.00  0.00     0.039 C 
ATOM     12  C   UNL     1       4.835 105.112 178.537  1.00  0.00    -0.028 CG0
ATOM     13  G   UNL     1       3.383 104.646 178.419  1.00  0.00     0.000 G0
ENDBRANCH   9  10
ENDBRANCH   8   9
ENDBRANCH   2   8
BRANCH   1  14
ATOM     14  C   UNL     1       2.396 107.204 179.612  1.00  0.00     0.192 C 
ATOM     15  C   UNL     1       1.937 106.851 178.226  1.00  0.00     0.096 C 
ATOM     16  O   UNL     1       3.003 107.691 178.419  1.00  0.00    -0.362 OA
ATOM     17  C   UNL     1       0.735 107.581 177.633  1.00  0.00     0.045 C 
BRANCH  15  18
ATOM     18  C   UNL     1       2.472 105.568 177.538  1.00  0.00     0.042 C 
BRANCH  18  19
ATOM     19  C   UNL     1       3.380 104.634 178.406  1.00  0.00     0.030 CG0
ATOM     20  G   UNL     1       4.827 105.114 178.534  1.00  0.00     0.000 G0
ENDBRANCH  18  19
ENDBRANCH  15  18
ENDBRANCH   1  14
TORSDOF 0
ENDMDL
MODEL 7
REMARK VINA RESULT:    -3.175      2.010      3.838
REMARK INTER + INTRA:          -3.090
REMARK INTER:                  -4.298
REMARK INTRA:                   1.208
REMARK UNBOUND:                 1.199
REMARK SMILES C=C1C(=O)O[C@H]2[C@@H]1CCC(C)=CCC[C@]1(C)O[C@@H]21
REMARK SMILES IDX 6 1 7 2 2 3 1 4 3 5 4 6 5 7 8 8 9 9 10 10 11 11 12 12 18 14
REMARK SMILES IDX 15 15 17 16 16 17 14 18 13 19
REMARK H PARENT
REMARK Flexibility Score: 70.00
ROOT
ATOM      1  C   UNL     1       3.317 108.847 181.032  1.00  0.00     0.216 C 
ATOM      2  C   UNL     1       4.307 109.767 181.837  1.00  0.00     0.070 C 
ATOM      3  C   UNL     1       3.355 110.305 182.870  1.00  0.00     0.037 C 
ATOM      4  C   UNL     1       3.520 111.408 183.599  1.00  0.00     0.021 C 
ATOM      5  C   UNL     1       2.257 109.362 182.976  1.00  0.00     0.334 C 
ATOM      6  O   UNL     1       1.364 109.368 183.864  1.00  0.00    -0.247 OA
ATOM      7  O   UNL     1       2.333 108.422 181.968  1.00  0.00    -0.455 OA
ENDROOT
BRANCH   2   8
ATOM      8  C   UNL     1       5.488 109.090 182.635  1.00  0.00     0.017 C 
BRANCH   8   9
ATOM      9  C   UNL     1       6.756 108.460 181.967  1.00  0.00     0.031 C 
BRANCH   9  10
ATOM     10  C   UNL     1       6.912 106.944 181.978  1.00  0.00    -0.077 C 
ATOM     11  C   UNL     1       7.033 106.265 183.317  1.00  0.00     0.039 C 
ATOM     12  C   UNL     1       6.830 106.150 180.865  1.00  0.00    -0.028 CG0
ATOM     13  G   UNL     1       6.878 106.595 179.402  1.00  0.00     0.000 G0
ENDBRANCH   9  10
ENDBRANCH   8   9
ENDBRANCH   2   8
BRANCH   1  14
ATOM     14  C   UNL     1       4.022 107.712 180.331  1.00  0.00     0.192 C 
ATOM     15  C   UNL     1       4.389 107.381 178.912  1.00  0.00     0.096 C 
ATOM     16  O   UNL     1       4.949 108.459 179.549  1.00  0.00    -0.362 OA
ATOM     17  C   UNL     1       3.454 107.808 177.784  1.00  0.00     0.045 C 
BRANCH  15  18
ATOM     18  C   UNL     1       5.527 106.367 178.624  1.00  0.00     0.042 C 
BRANCH  18  19
ATOM     19  C   UNL     1       6.872 106.584 179.396  1.00  0.00     0.030 CG0
ATOM     20  G   UNL     1       6.827 106.149 180.862  1.00  0.00     0.000 G0
ENDBRANCH  18  19
ENDBRANCH  15  18
ENDBRANCH   1  14
TORSDOF 0
ENDMDL
MODEL 8
REMARK VINA RESULT:    -3.168      2.013      2.867
REMARK INTER + INTRA:          -3.081
REMARK INTER:                  -4.399
REMARK INTRA:                   1.318
REMARK UNBOUND:                 1.199
REMARK SMILES C=C1C(=O)O[C@H]2[C@@H]1CCC(C)=CCC[C@]1(C)O[C@@H]21
REMARK SMILES IDX 6 1 7 2 2 3 1 4 3 5 4 6 5 7 8 8 9 9 10 10 11 11 12 12 18 14
REMARK SMILES IDX 15 15 17 16 16 17 14 18 13 19
REMARK H PARENT
REMARK Flexibility Score: 70.00
ROOT
ATOM      1  C   UNL     1       5.335 108.416 183.108  1.00  0.00     0.216 C 
ATOM      2  C   UNL     1       3.939 107.770 182.776  1.00  0.00     0.070 C 
ATOM      3  C   UNL     1       3.050 108.948 183.065  1.00  0.00     0.037 C 
ATOM      4  C   UNL     1       1.743 108.908 183.320  1.00  0.00     0.021 C 
ATOM      5  C   UNL     1       3.865 110.143 182.945  1.00  0.00     0.334 C 
ATOM      6  O   UNL     1       3.438 111.327 182.929  1.00  0.00    -0.247 OA
ATOM      7  O   UNL     1       5.198 109.803 182.826  1.00  0.00    -0.455 OA
ENDROOT
BRANCH   2   8
ATOM      8  C   UNL     1       3.639 107.345 181.286  1.00  0.00     0.017 C 
BRANCH   8   9
ATOM      9  C   UNL     1       4.362 106.175 180.540  1.00  0.00     0.031 C 
BRANCH   9  10
ATOM     10  C   UNL     1       5.422 106.514 179.500  1.00  0.00    -0.077 C 
ATOM     11  C   UNL     1       4.990 107.318 178.301  1.00  0.00     0.039 C 
ATOM     12  C   UNL     1       6.757 106.242 179.638  1.00  0.00    -0.028 CG0
ATOM     13  G   UNL     1       7.413 105.310 180.659  1.00  0.00     0.000 G0
ENDBRANCH   9  10
ENDBRANCH   8   9
ENDBRANCH   2   8
BRANCH   1  14
ATOM     14  C   UNL     1       6.471 107.752 182.368  1.00  0.00     0.192 C 
ATOM     15  C   UNL     1       7.679 106.944 182.747  1.00  0.00     0.096 C 
ATOM     16  O   UNL     1       6.414 106.460 182.964  1.00  0.00    -0.362 OA
ATOM     17  C   UNL     1       8.402 107.256 184.054  1.00  0.00     0.045 C 
BRANCH  15  18
ATOM     18  C   UNL     1       8.356 106.026 181.695  1.00  0.00     0.042 C 
BRANCH  18  19
ATOM     19  C   UNL     1       7.408 105.310 180.676  1.00  0.00     0.030 CG0
ATOM     20  G   UNL     1       6.771 106.249 179.650  1.00  0.00     0.000 G0
ENDBRANCH  18  19
ENDBRANCH  15  18
ENDBRANCH   1  14
TORSDOF 0
ENDMDL
MODEL 9
REMARK VINA RESULT:    -3.013      1.926      3.614
REMARK INTER + INTRA:          -2.870
REMARK INTER:                  -4.600
REMARK INTRA:                   1.730
REMARK UNBOUND:                 1.199
REMARK SMILES C=C1C(=O)O[C@H]2[C@@H]1CCC(C)=CCC[C@]1(C)O[C@@H]21
REMARK SMILES IDX 6 1 7 2 2 3 1 4 3 5 4 6 5 7 8 8 9 9 10 10 11 11 12 12 18 14
REMARK SMILES IDX 15 15 17 16 16 17 14 18 13 19
REMARK H PARENT
REMARK Flexibility Score: 70.00
ROOT
ATOM      1  C   UNL     1       3.310 108.235 179.740  1.00  0.00     0.216 C 
ATOM      2  C   UNL     1       4.044 106.969 180.320  1.00  0.00     0.070 C 
ATOM      3  C   UNL     1       4.243 107.431 181.738  1.00  0.00     0.037 C 
ATOM      4  C   UNL     1       5.128 106.948 182.609  1.00  0.00     0.021 C 
ATOM      5  C   UNL     1       3.246 108.451 182.003  1.00  0.00     0.334 C 
ATOM      6  O   UNL     1       2.974 108.940 183.131  1.00  0.00    -0.247 OA
ATOM      7  O   UNL     1       2.605 108.809 180.834  1.00  0.00    -0.455 OA
ENDROOT
BRANCH   2   8
ATOM      8  C   UNL     1       3.250 105.609 180.406  1.00  0.00     0.017 C 
BRANCH   8   9
ATOM      9  C   UNL     1       2.274 105.086 179.299  1.00  0.00     0.031 C 
BRANCH   9  10
ATOM     10  C   UNL     1       2.836 104.767 177.919  1.00  0.00    -0.077 C 
ATOM     11  C   UNL     1       4.062 103.894 177.850  1.00  0.00     0.039 C 
ATOM     12  C   UNL     1       2.236 105.120 176.739  1.00  0.00    -0.028 CG0
ATOM     13  G   UNL     1       1.101 106.126 176.540  1.00  0.00     0.000 G0
ENDBRANCH   9  10
ENDBRANCH   8   9
ENDBRANCH   2   8
BRANCH   1  14
ATOM     14  C   UNL     1       2.435 107.904 178.555  1.00  0.00     0.192 C 
ATOM     15  C   UNL     1       2.252 108.444 177.165  1.00  0.00     0.096 C 
ATOM     16  O   UNL     1       3.430 107.848 177.538  1.00  0.00    -0.362 OA
ATOM     17  C   UNL     1       2.423 109.940 176.920  1.00  0.00     0.045 C 
BRANCH  15  18
ATOM     18  C   UNL     1       1.606 107.555 176.071  1.00  0.00     0.042 C 
BRANCH  18  19
ATOM     19  C   UNL     1       1.105 106.141 176.520  1.00  0.00     0.030 CG0
ATOM     20  G   UNL     1       2.226 105.122 176.737  1.00  0.00     0.000 G0
ENDBRANCH  18  19
ENDBRANCH  15  18
ENDBRANCH   1  14
TORSDOF 0
ENDMDL
