MODEL 1
REMARK VINA RESULT:    -4.997      0.000      0.000
REMARK INTER + INTRA:          -5.742
REMARK INTER:                  -5.582
REMARK INTRA:                  -0.160
REMARK UNBOUND:                -0.160
REMARK SMILES C=CCc1ccc2c(c1)OCO2
REMARK SMILES IDX 3 1 2 2 1 3 4 4 9 5 5 6 8 7 6 8 7 9 10 10 12 11 11 12
REMARK H PARENT
REMARK Flexibility Score: inf
ROOT
ATOM      1  C   UNL     1       8.614   0.774  -4.041  1.00  0.00     0.062 C 
ENDROOT
BRANCH   1   2
ATOM      2  C   UNL     1       8.765  -0.441  -4.913  1.00  0.00    -0.030 C 
ATOM      3  C   UNL     1       8.656  -0.370  -6.243  1.00  0.00     0.004 C 
ENDBRANCH   1   2
BRANCH   1   4
ATOM      4  C   UNL     1       8.182   0.382  -2.653  1.00  0.00    -0.040 A 
ATOM      5  C   UNL     1       7.811  -0.954  -2.373  1.00  0.00     0.054 A 
ATOM      6  C   UNL     1       8.187   1.343  -1.609  1.00  0.00     0.008 A 
ATOM      7  C   UNL     1       7.447  -1.270  -1.067  1.00  0.00     0.166 A 
ATOM      8  C   UNL     1       7.812   0.981  -0.303  1.00  0.00     0.051 A 
ATOM      9  C   UNL     1       7.447  -0.343  -0.076  1.00  0.00     0.165 A 
ATOM     10  O   UNL     1       7.049  -2.490  -0.557  1.00  0.00    -0.454 OA
ATOM     11  O   UNL     1       7.047  -0.934   1.107  1.00  0.00    -0.454 OA
ATOM     12  C   UNL     1       6.781  -2.319   0.843  1.00  0.00     0.468 C 
ENDBRANCH   1   4
TORSDOF 2
ENDMDL
MODEL 2
REMARK VINA RESULT:    -4.949      2.120      3.355
REMARK INTER + INTRA:          -5.688
REMARK INTER:                  -5.541
REMARK INTRA:                  -0.147
REMARK UNBOUND:                -0.160
REMARK SMILES C=CCc1ccc2c(c1)OCO2
REMARK SMILES IDX 3 1 2 2 1 3 4 4 9 5 5 6 8 7 6 8 7 9 10 10 12 11 11 12
REMARK H PARENT
REMARK Flexibility Score: inf
ROOT
ATOM      1  C   UNL     1       7.912   1.128  -0.714  1.00  0.00     0.062 C 
ENDROOT
BRANCH   1   2
ATOM      2  C   UNL     1       8.303   0.900  -2.147  1.00  0.00    -0.030 C 
ATOM      3  C   UNL     1       8.767   1.890  -2.915  1.00  0.00     0.004 C 
ENDBRANCH   1   2
BRANCH   1   4
ATOM      4  C   UNL     1       7.854  -0.175   0.036  1.00  0.00    -0.040 A 
ATOM      5  C   UNL     1       8.787  -0.449   1.063  1.00  0.00     0.054 A 
ATOM      6  C   UNL     1       6.836  -1.120  -0.256  1.00  0.00     0.008 A 
ATOM      7  C   UNL     1       8.672  -1.657   1.745  1.00  0.00     0.166 A 
ATOM      8  C   UNL     1       6.757  -2.329   0.456  1.00  0.00     0.051 A 
ATOM      9  C   UNL     1       7.700  -2.558   1.454  1.00  0.00     0.165 A 
ATOM     10  O   UNL     1       9.457  -2.142   2.773  1.00  0.00    -0.454 OA
ATOM     11  O   UNL     1       7.826  -3.656   2.283  1.00  0.00    -0.454 OA
ATOM     12  C   UNL     1       8.947  -3.430   3.150  1.00  0.00     0.468 C 
ENDBRANCH   1   4
TORSDOF 2
ENDMDL
MODEL 3
REMARK VINA RESULT:    -4.932      2.358      5.058
REMARK INTER + INTRA:          -5.669
REMARK INTER:                  -5.507
REMARK INTRA:                  -0.161
REMARK UNBOUND:                -0.160
REMARK SMILES C=CCc1ccc2c(c1)OCO2
REMARK SMILES IDX 3 1 2 2 1 3 4 4 9 5 5 6 8 7 6 8 7 9 10 10 12 11 11 12
REMARK H PARENT
REMARK Flexibility Score: inf
ROOT
ATOM      1  C   UNL     1       6.912  -2.013   0.969  1.00  0.00     0.062 C 
ENDROOT
BRANCH   1   2
ATOM      2  C   UNL     1       7.954  -3.006   1.400  1.00  0.00    -0.030 C 
ATOM      3  C   UNL     1       7.659  -4.031   2.206  1.00  0.00     0.004 C 
ENDBRANCH   1   2
BRANCH   1   4
ATOM      4  C   UNL     1       7.354  -1.282  -0.269  1.00  0.00    -0.040 A 
ATOM      5  C   UNL     1       7.540   0.120  -0.241  1.00  0.00     0.054 A 
ATOM      6  C   UNL     1       7.627  -2.002  -1.461  1.00  0.00     0.008 A 
ATOM      7  C   UNL     1       7.977   0.744  -1.406  1.00  0.00     0.166 A 
ATOM      8  C   UNL     1       8.067  -1.332  -2.616  1.00  0.00     0.051 A 
ATOM      9  C   UNL     1       8.228   0.049  -2.544  1.00  0.00     0.165 A 
ATOM     10  O   UNL     1       8.226   2.085  -1.621  1.00  0.00    -0.454 OA
ATOM     11  O   UNL     1       8.647   0.919  -3.532  1.00  0.00    -0.454 OA
ATOM     12  C   UNL     1       8.659   2.243  -2.980  1.00  0.00     0.468 C 
ENDBRANCH   1   4
TORSDOF 2
ENDMDL
MODEL 4
REMARK VINA RESULT:    -4.753      2.755      5.684
REMARK INTER + INTRA:          -5.469
REMARK INTER:                  -5.264
REMARK INTRA:                  -0.205
REMARK UNBOUND:                -0.160
REMARK SMILES C=CCc1ccc2c(c1)OCO2
REMARK SMILES IDX 3 1 2 2 1 3 4 4 9 5 5 6 8 7 6 8 7 9 10 10 12 11 11 12
REMARK H PARENT
REMARK Flexibility Score: inf
ROOT
ATOM      1  C   UNL     1       7.516  -4.161   2.180  1.00  0.00     0.062 C 
ENDROOT
BRANCH   1   2
ATOM      2  C   UNL     1       8.692  -4.914   2.736  1.00  0.00    -0.030 C 
ATOM      3  C   UNL     1       8.928  -4.978   4.050  1.00  0.00     0.004 C 
ENDBRANCH   1   2
BRANCH   1   4
ATOM      4  C   UNL     1       7.977  -3.004   1.335  1.00  0.00    -0.040 A 
ATOM      5  C   UNL     1       7.141  -1.879   1.151  1.00  0.00     0.054 A 
ATOM      6  C   UNL     1       9.271  -3.019   0.754  1.00  0.00     0.008 A 
ATOM      7  C   UNL     1       7.626  -0.823   0.384  1.00  0.00     0.166 A 
ATOM      8  C   UNL     1       9.722  -1.931  -0.015  1.00  0.00     0.051 A 
ATOM      9  C   UNL     1       8.862  -0.849  -0.175  1.00  0.00     0.165 A 
ATOM     10  O   UNL     1       7.000   0.366   0.066  1.00  0.00    -0.454 OA
ATOM     11  O   UNL     1       9.075   0.324  -0.874  1.00  0.00    -0.454 OA
ATOM     12  C   UNL     1       7.899   1.137  -0.745  1.00  0.00     0.468 C 
ENDBRANCH   1   4
TORSDOF 2
ENDMDL
MODEL 5
REMARK VINA RESULT:    -4.748      2.110      4.764
REMARK INTER + INTRA:          -5.463
REMARK INTER:                  -5.318
REMARK INTRA:                  -0.145
REMARK UNBOUND:                -0.160
REMARK SMILES C=CCc1ccc2c(c1)OCO2
REMARK SMILES IDX 3 1 2 2 1 3 4 4 9 5 5 6 8 7 6 8 7 9 10 10 12 11 11 12
REMARK H PARENT
REMARK Flexibility Score: inf
ROOT
ATOM      1  C   UNL     1       6.718  -2.560   0.496  1.00  0.00     0.062 C 
ENDROOT
BRANCH   1   2
ATOM      2  C   UNL     1       7.795  -3.136   1.371  1.00  0.00    -0.030 C 
ATOM      3  C   UNL     1       7.549  -4.136   2.223  1.00  0.00     0.004 C 
ENDBRANCH   1   2
BRANCH   1   4
ATOM      4  C   UNL     1       7.237  -1.380  -0.280  1.00  0.00    -0.040 A 
ATOM      5  C   UNL     1       7.446  -1.481  -1.675  1.00  0.00     0.054 A 
ATOM      6  C   UNL     1       7.479  -0.146   0.378  1.00  0.00     0.008 A 
ATOM      7  C   UNL     1       7.901  -0.352  -2.351  1.00  0.00     0.166 A 
ATOM      8  C   UNL     1       7.939   0.970  -0.343  1.00  0.00     0.051 A 
ATOM      9  C   UNL     1       8.138   0.821  -1.713  1.00  0.00     0.165 A 
ATOM     10  O   UNL     1       8.177  -0.209  -3.696  1.00  0.00    -0.454 OA
ATOM     11  O   UNL     1       8.577   1.761  -2.625  1.00  0.00    -0.454 OA
ATOM     12  C   UNL     1       8.617   1.139  -3.918  1.00  0.00     0.468 C 
ENDBRANCH   1   4
TORSDOF 2
ENDMDL
MODEL 6
REMARK VINA RESULT:    -4.722      2.246      3.296
REMARK INTER + INTRA:          -5.434
REMARK INTER:                  -5.255
REMARK INTRA:                  -0.179
REMARK UNBOUND:                -0.160
REMARK SMILES C=CCc1ccc2c(c1)OCO2
REMARK SMILES IDX 3 1 2 2 1 3 4 4 9 5 5 6 8 7 6 8 7 9 10 10 12 11 11 12
REMARK H PARENT
REMARK Flexibility Score: inf
ROOT
ATOM      1  C   UNL     1       7.620  -0.396  -1.405  1.00  0.00     0.062 C 
ENDROOT
BRANCH   1   2
ATOM      2  C   UNL     1       8.739   0.527  -1.797  1.00  0.00    -0.030 C 
ATOM      3  C   UNL     1       8.517   1.647  -2.491  1.00  0.00     0.004 C 
ENDBRANCH   1   2
BRANCH   1   4
ATOM      4  C   UNL     1       7.946  -1.113  -0.123  1.00  0.00    -0.040 A 
ATOM      5  C   UNL     1       7.324  -2.345   0.183  1.00  0.00     0.054 A 
ATOM      6  C   UNL     1       8.912  -0.575   0.767  1.00  0.00     0.008 A 
ATOM      7  C   UNL     1       7.681  -2.981   1.368  1.00  0.00     0.166 A 
ATOM      8  C   UNL     1       9.244  -1.250   1.955  1.00  0.00     0.051 A 
ATOM      9  C   UNL     1       8.600  -2.456   2.217  1.00  0.00     0.165 A 
ATOM     10  O   UNL     1       7.215  -4.178   1.876  1.00  0.00    -0.454 OA
ATOM     11  O   UNL     1       8.756  -3.296   3.303  1.00  0.00    -0.454 OA
ATOM     12  C   UNL     1       7.881  -4.419   3.125  1.00  0.00     0.468 C 
ENDBRANCH   1   4
TORSDOF 2
ENDMDL
MODEL 7
REMARK VINA RESULT:    -4.708      2.092      4.630
REMARK INTER + INTRA:          -5.419
REMARK INTER:                  -5.216
REMARK INTRA:                  -0.203
REMARK UNBOUND:                -0.160
REMARK SMILES C=CCc1ccc2c(c1)OCO2
REMARK SMILES IDX 3 1 2 2 1 3 4 4 9 5 5 6 8 7 6 8 7 9 10 10 12 11 11 12
REMARK H PARENT
REMARK Flexibility Score: inf
ROOT
ATOM      1  C   UNL     1       6.801  -1.466   0.747  1.00  0.00     0.062 C 
ENDROOT
BRANCH   1   2
ATOM      2  C   UNL     1       7.861  -2.368   1.312  1.00  0.00    -0.030 C 
ATOM      3  C   UNL     1       8.905  -1.886   1.995  1.00  0.00     0.004 C 
ENDBRANCH   1   2
BRANCH   1   4
ATOM      4  C   UNL     1       7.320  -0.720  -0.452  1.00  0.00    -0.040 A 
ATOM      5  C   UNL     1       7.396  -1.359  -1.711  1.00  0.00     0.054 A 
ATOM      6  C   UNL     1       7.697   0.643  -0.334  1.00  0.00     0.008 A 
ATOM      7  C   UNL     1       7.857  -0.616  -2.794  1.00  0.00     0.166 A 
ATOM      8  C   UNL     1       8.158   1.357  -1.454  1.00  0.00     0.051 A 
ATOM      9  C   UNL     1       8.223   0.685  -2.671  1.00  0.00     0.165 A 
ATOM     10  O   UNL     1       8.019  -1.018  -4.106  1.00  0.00    -0.454 OA
ATOM     11  O   UNL     1       8.635   1.166  -3.899  1.00  0.00    -0.454 OA
ATOM     12  C   UNL     1       8.520   0.100  -4.853  1.00  0.00     0.468 C 
ENDBRANCH   1   4
TORSDOF 2
ENDMDL
MODEL 8
REMARK VINA RESULT:    -4.690      8.580      9.683
REMARK INTER + INTRA:          -5.399
REMARK INTER:                  -5.158
REMARK INTRA:                  -0.241
REMARK UNBOUND:                -0.160
REMARK SMILES C=CCc1ccc2c(c1)OCO2
REMARK SMILES IDX 3 1 2 2 1 3 4 4 9 5 5 6 8 7 6 8 7 9 10 10 12 11 11 12
REMARK H PARENT
REMARK Flexibility Score: inf
ROOT
ATOM      1  C   UNL     1       4.322   9.453  -3.314  1.00  0.00     0.062 C 
ENDROOT
BRANCH   1   2
ATOM      2  C   UNL     1       3.362   8.305  -3.450  1.00  0.00    -0.030 C 
ATOM      3  C   UNL     1       2.923   7.625  -2.387  1.00  0.00     0.004 C 
ENDBRANCH   1   2
BRANCH   1   4
ATOM      4  C   UNL     1       5.673   8.967  -2.863  1.00  0.00    -0.040 A 
ATOM      5  C   UNL     1       6.170   9.324  -1.588  1.00  0.00     0.054 A 
ATOM      6  C   UNL     1       6.437   8.112  -3.700  1.00  0.00     0.008 A 
ATOM      7  C   UNL     1       7.413   8.824  -1.209  1.00  0.00     0.166 A 
ATOM      8  C   UNL     1       7.688   7.630  -3.277  1.00  0.00     0.051 A 
ATOM      9  C   UNL     1       8.140   8.014  -2.018  1.00  0.00     0.165 A 
ATOM     10  O   UNL     1       8.098   9.032  -0.028  1.00  0.00    -0.454 OA
ATOM     11  O   UNL     1       9.321   7.673  -1.387  1.00  0.00    -0.454 OA
ATOM     12  C   UNL     1       9.336   8.308  -0.100  1.00  0.00     0.468 C 
ENDBRANCH   1   4
TORSDOF 2
ENDMDL
MODEL 9
REMARK VINA RESULT:    -4.583      3.126      6.457
REMARK INTER + INTRA:          -5.279
REMARK INTER:                  -5.130
REMARK INTRA:                  -0.150
REMARK UNBOUND:                -0.160
REMARK SMILES C=CCc1ccc2c(c1)OCO2
REMARK SMILES IDX 3 1 2 2 1 3 4 4 9 5 5 6 8 7 6 8 7 9 10 10 12 11 11 12
REMARK H PARENT
REMARK Flexibility Score: inf
ROOT
ATOM      1  C   UNL     1       9.705  -3.713   3.605  1.00  0.00     0.062 C 
ENDROOT
BRANCH   1   2
ATOM      2  C   UNL     1       9.693  -3.038   4.948  1.00  0.00    -0.030 C 
ATOM      3  C   UNL     1       9.753  -3.735   6.086  1.00  0.00     0.004 C 
ENDBRANCH   1   2
BRANCH   1   4
ATOM      4  C   UNL     1       8.881  -2.939   2.613  1.00  0.00    -0.040 A 
ATOM      5  C   UNL     1       9.148  -1.571   2.377  1.00  0.00     0.054 A 
ATOM      6  C   UNL     1       7.858  -3.591   1.876  1.00  0.00     0.008 A 
ATOM      7  C   UNL     1       8.375  -0.908   1.428  1.00  0.00     0.166 A 
ATOM      8  C   UNL     1       7.099  -2.884   0.926  1.00  0.00     0.051 A 
ATOM      9  C   UNL     1       7.393  -1.537   0.734  1.00  0.00     0.165 A 
ATOM     10  O   UNL     1       8.446   0.413   1.031  1.00  0.00    -0.454 OA
ATOM     11  O   UNL     1       6.797  -0.642  -0.133  1.00  0.00    -0.454 OA
ATOM     12  C   UNL     1       7.445   0.628   0.025  1.00  0.00     0.468 C 
ENDBRANCH   1   4
TORSDOF 2
ENDMDL
