MODEL 1
REMARK VINA RESULT:    23.872      0.000      0.000
REMARK INTER + INTRA:          25.912
REMARK INTER:                  25.965
REMARK INTRA:                  -0.053
REMARK UNBOUND:                -0.053
REMARK SMILES C=C(C)[C@@H]1CC[C@@]2(C)CC[C@]3(C)[C@@H](CC[C@@H]4[C@@]5(C)CC[C@@H](O)C(C)(C)[C@H]5CC[C@@]43C)[C@@H]12
REMARK SMILES IDX 4 1 5 2 6 3 7 4 31 5 13 6 14 7 15 8 16 9 17 10 19 11 20 12
REMARK SMILES IDX 21 13 23 14 26 15 27 16 28 17 29 18 11 19 10 20 9 21 12 22
REMARK SMILES IDX 30 23 24 24 25 25 18 26 8 27 2 28 3 29 1 30 22 31
REMARK H PARENT 22 32
REMARK Flexibility Score: inf
ROOT
ATOM      1  C   UNL     1     131.861 129.047 137.324  1.00  0.00     0.018 C 
ATOM      2  C   UNL     1     131.380 128.398 136.001  1.00  0.00     0.009 C 
ATOM      3  C   UNL     1     130.573 127.142 136.367  1.00  0.00     0.008 C 
ATOM      4  C   UNL     1     130.365 127.183 137.890  1.00  0.00    -0.029 C 
ATOM      5  C   UNL     1     131.612 127.953 138.401  1.00  0.00     0.006 C 
ATOM      6  C   UNL     1     132.891 127.055 138.717  1.00  0.00    -0.000 C 
ATOM      7  C   UNL     1     133.829 126.747 137.543  1.00  0.00     0.005 C 
ATOM      8  C   UNL     1     135.201 126.322 138.072  1.00  0.00     0.005 C 
ATOM      9  C   UNL     1     135.234 125.542 139.446  1.00  0.00     0.002 C 
ATOM     10  C   UNL     1     136.629 124.749 139.570  1.00  0.00    -0.026 C 
ATOM     11  C   UNL     1     136.984 124.411 141.059  1.00  0.00     0.010 C 
ATOM     12  C   UNL     1     138.199 123.484 141.232  1.00  0.00     0.033 C 
ATOM     13  C   UNL     1     138.064 122.186 140.426  1.00  0.00     0.120 C 
ATOM     14  C   UNL     1     137.833 122.438 138.900  1.00  0.00    -0.006 C 
ATOM     15  C   UNL     1     136.620 123.449 138.649  1.00  0.00     0.003 C 
ATOM     16  C   UNL     1     135.246 122.706 138.629  1.00  0.00     0.005 C 
ATOM     17  C   UNL     1     133.983 123.584 138.535  1.00  0.00     0.008 C 
ATOM     18  C   UNL     1     133.896 124.712 139.617  1.00  0.00    -0.024 C 
ATOM     19  C   UNL     1     132.582 125.709 139.479  1.00  0.00    -0.024 C 
ATOM     20  C   UNL     1     131.439 124.970 138.718  1.00  0.00     0.008 C 
ATOM     21  C   UNL     1     130.167 125.785 138.532  1.00  0.00     0.007 C 
ATOM     22  C   UNL     1     132.044 126.148 140.890  1.00  0.00     0.012 C 
ATOM     23  C   UNL     1     133.781 123.964 140.988  1.00  0.00     0.012 C 
ATOM     24  C   UNL     1     139.147 122.966 138.249  1.00  0.00     0.014 C 
ATOM     25  C   UNL     1     137.591 121.064 138.203  1.00  0.00     0.014 C 
ATOM     26  C   UNL     1     137.760 125.741 139.113  1.00  0.00     0.012 C 
ATOM     27  C   UNL     1     129.060 127.973 138.194  1.00  0.00     0.011 C 
ENDROOT
BRANCH   1  28
ATOM     28  C   UNL     1     131.267 130.409 137.726  1.00  0.00    -0.077 C 
ATOM     29  C   UNL     1     131.380 131.543 136.735  1.00  0.00     0.039 C 
ATOM     30  C   UNL     1     130.602 130.662 138.871  1.00  0.00     0.008 C 
ENDBRANCH   1  28
BRANCH  13  31
ATOM     31  O   UNL     1     137.017 121.428 140.981  1.00  0.00    -0.393 OA
ATOM     32  H   UNL     1     136.550 122.001 141.644  1.00  0.00     0.210 HD
ENDBRANCH  13  31
TORSDOF 2
ENDMDL
