MODEL 1
REMARK VINA RESULT:    -4.625      0.000      0.000
REMARK INTER + INTRA:          -8.055
REMARK INTER:                  -7.058
REMARK INTRA:                  -0.998
REMARK UNBOUND:                -0.998
REMARK SMILES CCCCCCCCCCC(=O)[O-]
REMARK SMILES IDX 7 1 8 2 9 3 10 4 11 5 12 6 13 7 6 8 5 9 4 10 3 11 2 12 1 13
REMARK H PARENT
REMARK Flexibility Score: inf
ROOT
ATOM      1  C   UNL     1     -14.572   1.255 -20.598  1.00  0.00     0.000 C 
ENDROOT
BRANCH   1   2
ATOM      2  C   UNL     1     -15.335   2.375 -19.872  1.00  0.00     0.000 C 
BRANCH   2   3
ATOM      3  C   UNL     1     -15.957   3.393 -20.839  1.00  0.00     0.006 C 
BRANCH   3   4
ATOM      4  C   UNL     1     -17.096   4.164 -20.165  1.00  0.00     0.053 C 
BRANCH   4   5
ATOM      5  C   UNL     1     -16.949   5.634 -20.404  1.00  0.00     0.041 C 
ATOM      6  O   UNL     1     -17.805   6.253 -21.088  1.00  0.00    -0.550 OA
ATOM      7  O   UNL     1     -15.892   6.328 -19.830  1.00  0.00    -0.550 OA
ENDBRANCH   4   5
ENDBRANCH   3   4
ENDBRANCH   2   3
ENDBRANCH   1   2
BRANCH   1   8
ATOM      8  C   UNL     1     -14.861  -0.135 -20.007  1.00  0.00     0.000 C 
BRANCH   8   9
ATOM      9  C   UNL     1     -15.202  -1.185 -21.081  1.00  0.00    -0.000 C 
BRANCH   9  10
ATOM     10  C   UNL     1     -15.692  -0.608 -22.422  1.00  0.00    -0.000 C 
BRANCH  10  11
ATOM     11  C   UNL     1     -17.223  -0.478 -22.493  1.00  0.00    -0.000 C 
BRANCH  11  12
ATOM     12  C   UNL     1     -17.675   0.926 -22.923  1.00  0.00    -0.003 C 
ATOM     13  C   UNL     1     -16.741   1.556 -23.955  1.00  0.00     0.004 C 
ENDBRANCH  11  12
ENDBRANCH  10  11
ENDBRANCH   9  10
ENDBRANCH   8   9
ENDBRANCH   1   8
TORSDOF 9
ENDMDL
MODEL 2
REMARK VINA RESULT:    -4.624      3.149      5.600
REMARK INTER + INTRA:          -8.054
REMARK INTER:                  -6.898
REMARK INTRA:                  -1.156
REMARK UNBOUND:                -0.998
REMARK SMILES CCCCCCCCCCC(=O)[O-]
REMARK SMILES IDX 7 1 8 2 9 3 10 4 11 5 12 6 13 7 6 8 5 9 4 10 3 11 2 12 1 13
REMARK H PARENT
REMARK Flexibility Score: inf
ROOT
ATOM      1  C   UNL     1     -17.437   3.489 -21.454  1.00  0.00     0.000 C 
ENDROOT
BRANCH   1   2
ATOM      2  C   UNL     1     -16.384   2.372 -21.363  1.00  0.00     0.000 C 
BRANCH   2   3
ATOM      3  C   UNL     1     -15.416   2.564 -20.187  1.00  0.00     0.006 C 
BRANCH   3   4
ATOM      4  C   UNL     1     -15.198   1.246 -19.437  1.00  0.00     0.053 C 
BRANCH   4   5
ATOM      5  C   UNL     1     -14.624   0.210 -20.350  1.00  0.00     0.041 C 
ATOM      6  O   UNL     1     -15.152  -0.930 -20.428  1.00  0.00    -0.550 OA
ATOM      7  O   UNL     1     -13.533   0.520 -21.152  1.00  0.00    -0.550 OA
ENDBRANCH   4   5
ENDBRANCH   3   4
ENDBRANCH   2   3
ENDBRANCH   1   2
BRANCH   1   8
ATOM      8  C   UNL     1     -17.376   4.455 -20.259  1.00  0.00     0.000 C 
BRANCH   8   9
ATOM      9  C   UNL     1     -16.912   5.870 -20.654  1.00  0.00    -0.000 C 
BRANCH   9  10
ATOM     10  C   UNL     1     -15.623   6.349 -19.961  1.00  0.00    -0.000 C 
BRANCH  10  11
ATOM     11  C   UNL     1     -14.356   6.037 -20.774  1.00  0.00    -0.000 C 
BRANCH  11  12
ATOM     12  C   UNL     1     -14.639   5.899 -22.278  1.00  0.00    -0.003 C 
ATOM     13  C   UNL     1     -13.953   4.685 -22.899  1.00  0.00     0.004 C 
ENDBRANCH  11  12
ENDBRANCH  10  11
ENDBRANCH   9  10
ENDBRANCH   8   9
ENDBRANCH   1   8
TORSDOF 9
ENDMDL
MODEL 3
REMARK VINA RESULT:    -4.610      3.197      5.060
REMARK INTER + INTRA:          -8.034
REMARK INTER:                  -6.767
REMARK INTRA:                  -1.266
REMARK UNBOUND:                -0.998
REMARK SMILES CCCCCCCCCCC(=O)[O-]
REMARK SMILES IDX 7 1 8 2 9 3 10 4 11 5 12 6 13 7 6 8 5 9 4 10 3 11 2 12 1 13
REMARK H PARENT
REMARK Flexibility Score: inf
ROOT
ATOM      1  C   UNL     1     -15.586   6.305 -19.980  1.00  0.00     0.000 C 
ENDROOT
BRANCH   1   2
ATOM      2  C   UNL     1     -16.974   5.742 -20.329  1.00  0.00     0.000 C 
BRANCH   2   3
ATOM      3  C   UNL     1     -17.014   4.207 -20.303  1.00  0.00     0.006 C 
BRANCH   3   4
ATOM      4  C   UNL     1     -17.603   3.653 -21.605  1.00  0.00     0.053 C 
BRANCH   4   5
ATOM      5  C   UNL     1     -17.058   2.289 -21.889  1.00  0.00     0.041 C 
ATOM      6  O   UNL     1     -15.952   1.935 -21.402  1.00  0.00    -0.550 OA
ATOM      7  O   UNL     1     -17.794   1.392 -22.652  1.00  0.00    -0.550 OA
ENDBRANCH   4   5
ENDBRANCH   3   4
ENDBRANCH   2   3
ENDBRANCH   1   2
BRANCH   1   8
ATOM      8  C   UNL     1     -14.445   5.363 -20.399  1.00  0.00     0.000 C 
BRANCH   8   9
ATOM      9  C   UNL     1     -13.886   5.682 -21.798  1.00  0.00    -0.000 C 
BRANCH   9  10
ATOM     10  C   UNL     1     -14.138   4.598 -22.862  1.00  0.00    -0.000 C 
BRANCH  10  11
ATOM     11  C   UNL     1     -15.083   5.067 -23.981  1.00  0.00    -0.000 C 
BRANCH  11  12
ATOM     12  C   UNL     1     -15.656   6.468 -23.719  1.00  0.00    -0.003 C 
ATOM     13  C   UNL     1     -16.123   7.164 -24.996  1.00  0.00     0.004 C 
ENDBRANCH  11  12
ENDBRANCH  10  11
ENDBRANCH   9  10
ENDBRANCH   8   9
ENDBRANCH   1   8
TORSDOF 9
ENDMDL
MODEL 4
REMARK VINA RESULT:    -4.604      3.795      5.687
REMARK INTER + INTRA:          -8.024
REMARK INTER:                  -7.073
REMARK INTRA:                  -0.951
REMARK UNBOUND:                -0.998
REMARK SMILES CCCCCCCCCCC(=O)[O-]
REMARK SMILES IDX 7 1 8 2 9 3 10 4 11 5 12 6 13 7 6 8 5 9 4 10 3 11 2 12 1 13
REMARK H PARENT
REMARK Flexibility Score: inf
ROOT
ATOM      1  C   UNL     1     -16.341   3.241 -20.287  1.00  0.00     0.000 C 
ENDROOT
BRANCH   1   2
ATOM      2  C   UNL     1     -15.262   2.462 -19.515  1.00  0.00     0.000 C 
BRANCH   2   3
ATOM      3  C   UNL     1     -14.873   1.147 -20.205  1.00  0.00     0.006 C 
BRANCH   3   4
ATOM      4  C   UNL     1     -14.877  -0.017 -19.208  1.00  0.00     0.053 C 
BRANCH   4   5
ATOM      5  C   UNL     1     -14.268  -1.237 -19.823  1.00  0.00     0.041 C 
ATOM      6  O   UNL     1     -14.324  -1.415 -21.068  1.00  0.00    -0.550 OA
ATOM      7  O   UNL     1     -13.597  -2.155 -19.025  1.00  0.00    -0.550 OA
ENDBRANCH   4   5
ENDBRANCH   3   4
ENDBRANCH   2   3
ENDBRANCH   1   2
BRANCH   1   8
ATOM      8  C   UNL     1     -16.065   4.753 -20.322  1.00  0.00     0.000 C 
BRANCH   8   9
ATOM      9  C   UNL     1     -14.566   5.092 -20.224  1.00  0.00    -0.000 C 
BRANCH   9  10
ATOM     10  C   UNL     1     -13.963   5.748 -21.480  1.00  0.00    -0.000 C 
BRANCH  10  11
ATOM     11  C   UNL     1     -14.523   5.163 -22.787  1.00  0.00    -0.000 C 
BRANCH  11  12
ATOM     12  C   UNL     1     -13.758   3.913 -23.248  1.00  0.00    -0.003 C 
ATOM     13  C   UNL     1     -14.685   2.759 -23.628  1.00  0.00     0.004 C 
ENDBRANCH  11  12
ENDBRANCH  10  11
ENDBRANCH   9  10
ENDBRANCH   8   9
ENDBRANCH   1   8
TORSDOF 9
ENDMDL
MODEL 5
REMARK VINA RESULT:    -4.585      3.051      5.593
REMARK INTER + INTRA:          -7.995
REMARK INTER:                  -6.628
REMARK INTRA:                  -1.367
REMARK UNBOUND:                -0.998
REMARK SMILES CCCCCCCCCCC(=O)[O-]
REMARK SMILES IDX 7 1 8 2 9 3 10 4 11 5 12 6 13 7 6 8 5 9 4 10 3 11 2 12 1 13
REMARK H PARENT
REMARK Flexibility Score: inf
ROOT
ATOM      1  C   UNL     1     -17.600   3.638 -21.612  1.00  0.00     0.000 C 
ENDROOT
BRANCH   1   2
ATOM      2  C   UNL     1     -16.959   3.674 -20.215  1.00  0.00     0.000 C 
BRANCH   2   3
ATOM      3  C   UNL     1     -15.684   2.822 -20.126  1.00  0.00     0.006 C 
BRANCH   3   4
ATOM      4  C   UNL     1     -15.659   1.757 -21.226  1.00  0.00     0.053 C 
BRANCH   4   5
ATOM      5  C   UNL     1     -14.263   1.545 -21.721  1.00  0.00     0.041 C 
ATOM      6  O   UNL     1     -13.536   0.655 -21.206  1.00  0.00    -0.550 OA
ATOM      7  O   UNL     1     -13.781   2.299 -22.783  1.00  0.00    -0.550 OA
ENDBRANCH   4   5
ENDBRANCH   3   4
ENDBRANCH   2   3
ENDBRANCH   1   2
BRANCH   1   8
ATOM      8  C   UNL     1     -17.451   4.971 -22.364  1.00  0.00     0.000 C 
BRANCH   8   9
ATOM      9  C   UNL     1     -16.127   5.075 -23.144  1.00  0.00    -0.000 C 
BRANCH   9  10
ATOM     10  C   UNL     1     -15.188   6.205 -22.685  1.00  0.00    -0.000 C 
BRANCH  10  11
ATOM     11  C   UNL     1     -13.977   5.691 -21.889  1.00  0.00    -0.000 C 
BRANCH  11  12
ATOM     12  C   UNL     1     -14.032   6.097 -20.408  1.00  0.00    -0.003 C 
ATOM     13  C   UNL     1     -15.205   7.023 -20.092  1.00  0.00     0.004 C 
ENDBRANCH  11  12
ENDBRANCH  10  11
ENDBRANCH   9  10
ENDBRANCH   8   9
ENDBRANCH   1   8
TORSDOF 9
ENDMDL
MODEL 6
REMARK VINA RESULT:    -4.571      2.822      4.263
REMARK INTER + INTRA:          -7.974
REMARK INTER:                  -6.741
REMARK INTRA:                  -1.233
REMARK UNBOUND:                -0.998
REMARK SMILES CCCCCCCCCCC(=O)[O-]
REMARK SMILES IDX 7 1 8 2 9 3 10 4 11 5 12 6 13 7 6 8 5 9 4 10 3 11 2 12 1 13
REMARK H PARENT
REMARK Flexibility Score: inf
ROOT
ATOM      1  C   UNL     1     -14.968   4.949 -23.581  1.00  0.00     0.000 C 
ENDROOT
BRANCH   1   2
ATOM      2  C   UNL     1     -15.136   6.091 -22.565  1.00  0.00     0.000 C 
BRANCH   2   3
ATOM      3  C   UNL     1     -14.089   6.043 -21.442  1.00  0.00     0.006 C 
BRANCH   3   4
ATOM      4  C   UNL     1     -14.491   6.957 -20.280  1.00  0.00     0.053 C 
BRANCH   4   5
ATOM      5  C   UNL     1     -13.807   8.283 -20.394  1.00  0.00     0.041 C 
ATOM      6  O   UNL     1     -12.555   8.361 -20.289  1.00  0.00    -0.550 OA
ATOM      7  O   UNL     1     -14.549   9.425 -20.665  1.00  0.00    -0.550 OA
ENDBRANCH   4   5
ENDBRANCH   3   4
ENDBRANCH   2   3
ENDBRANCH   1   2
BRANCH   1   8
ATOM      8  C   UNL     1     -13.773   4.038 -23.253  1.00  0.00     0.000 C 
BRANCH   8   9
ATOM      9  C   UNL     1     -14.185   2.575 -23.004  1.00  0.00    -0.000 C 
BRANCH   9  10
ATOM     10  C   UNL     1     -14.491   2.226 -21.536  1.00  0.00    -0.000 C 
BRANCH  10  11
ATOM     11  C   UNL     1     -15.990   2.309 -21.201  1.00  0.00    -0.000 C 
BRANCH  11  12
ATOM     12  C   UNL     1     -16.284   3.303 -20.067  1.00  0.00    -0.003 C 
ATOM     13  C   UNL     1     -17.490   4.194 -20.360  1.00  0.00     0.004 C 
ENDBRANCH  11  12
ENDBRANCH  10  11
ENDBRANCH   9  10
ENDBRANCH   8   9
ENDBRANCH   1   8
TORSDOF 9
ENDMDL
MODEL 7
REMARK VINA RESULT:    -4.553      3.184      5.134
REMARK INTER + INTRA:          -7.947
REMARK INTER:                  -6.994
REMARK INTRA:                  -0.952
REMARK UNBOUND:                -0.998
REMARK SMILES CCCCCCCCCCC(=O)[O-]
REMARK SMILES IDX 7 1 8 2 9 3 10 4 11 5 12 6 13 7 6 8 5 9 4 10 3 11 2 12 1 13
REMARK H PARENT
REMARK Flexibility Score: inf
ROOT
ATOM      1  C   UNL     1     -14.101   5.426 -22.167  1.00  0.00     0.000 C 
ENDROOT
BRANCH   1   2
ATOM      2  C   UNL     1     -13.931   5.890 -20.710  1.00  0.00     0.000 C 
BRANCH   2   3
ATOM      3  C   UNL     1     -13.440   7.341 -20.605  1.00  0.00     0.006 C 
BRANCH   3   4
ATOM      4  C   UNL     1     -14.581   8.277 -20.193  1.00  0.00     0.053 C 
BRANCH   4   5
ATOM      5  C   UNL     1     -14.037   9.563 -19.657  1.00  0.00     0.041 C 
ATOM      6  O   UNL     1     -12.797   9.706 -19.487  1.00  0.00    -0.550 OA
ATOM      7  O   UNL     1     -14.895  10.622 -19.390  1.00  0.00    -0.550 OA
ENDBRANCH   4   5
ENDBRANCH   3   4
ENDBRANCH   2   3
ENDBRANCH   1   2
BRANCH   1   8
ATOM      8  C   UNL     1     -15.435   5.884 -22.780  1.00  0.00     0.000 C 
BRANCH   8   9
ATOM      9  C   UNL     1     -16.558   4.843 -22.621  1.00  0.00    -0.000 C 
BRANCH   9  10
ATOM     10  C   UNL     1     -17.488   5.068 -21.415  1.00  0.00    -0.000 C 
BRANCH  10  11
ATOM     11  C   UNL     1     -17.218   4.088 -20.260  1.00  0.00    -0.000 C 
BRANCH  11  12
ATOM     12  C   UNL     1     -16.382   2.876 -20.700  1.00  0.00    -0.003 C 
ATOM     13  C   UNL     1     -15.289   2.517 -19.696  1.00  0.00     0.004 C 
ENDBRANCH  11  12
ENDBRANCH  10  11
ENDBRANCH   9  10
ENDBRANCH   8   9
ENDBRANCH   1   8
TORSDOF 9
ENDMDL
MODEL 8
REMARK VINA RESULT:    -4.544      4.054      5.651
REMARK INTER + INTRA:          -7.932
REMARK INTER:                  -6.851
REMARK INTRA:                  -1.081
REMARK UNBOUND:                -0.998
REMARK SMILES CCCCCCCCCCC(=O)[O-]
REMARK SMILES IDX 7 1 8 2 9 3 10 4 11 5 12 6 13 7 6 8 5 9 4 10 3 11 2 12 1 13
REMARK H PARENT
REMARK Flexibility Score: inf
ROOT
ATOM      1  C   UNL     1     -14.222   1.860 -20.850  1.00  0.00     0.000 C 
ENDROOT
BRANCH   1   2
ATOM      2  C   UNL     1     -13.878   0.373 -21.042  1.00  0.00     0.000 C 
BRANCH   2   3
ATOM      3  C   UNL     1     -14.828  -0.558 -20.276  1.00  0.00     0.006 C 
BRANCH   3   4
ATOM      4  C   UNL     1     -14.044  -1.594 -19.465  1.00  0.00     0.053 C 
BRANCH   4   5
ATOM      5  C   UNL     1     -13.478  -2.647 -20.365  1.00  0.00     0.041 C 
ATOM      6  O   UNL     1     -12.378  -3.194 -20.088  1.00  0.00    -0.550 OA
ATOM      7  O   UNL     1     -14.190  -3.059 -21.484  1.00  0.00    -0.550 OA
ENDBRANCH   4   5
ENDBRANCH   3   4
ENDBRANCH   2   3
ENDBRANCH   1   2
BRANCH   1   8
ATOM      8  C   UNL     1     -15.608   2.068 -20.217  1.00  0.00     0.000 C 
BRANCH   8   9
ATOM      9  C   UNL     1     -16.470   3.089 -20.982  1.00  0.00    -0.000 C 
BRANCH   9  10
ATOM     10  C   UNL     1     -17.434   2.481 -22.017  1.00  0.00    -0.000 C 
BRANCH  10  11
ATOM     11  C   UNL     1     -16.752   2.170 -23.359  1.00  0.00    -0.000 C 
BRANCH  11  12
ATOM     12  C   UNL     1     -16.645   0.661 -23.629  1.00  0.00    -0.003 C 
ATOM     13  C   UNL     1     -17.570  -0.165 -22.737  1.00  0.00     0.004 C 
ENDBRANCH  11  12
ENDBRANCH  10  11
ENDBRANCH   9  10
ENDBRANCH   8   9
ENDBRANCH   1   8
TORSDOF 9
ENDMDL
MODEL 9
REMARK VINA RESULT:    -4.477      3.884      5.688
REMARK INTER + INTRA:          -7.831
REMARK INTER:                  -6.872
REMARK INTRA:                  -0.958
REMARK UNBOUND:                -0.998
REMARK SMILES CCCCCCCCCCC(=O)[O-]
REMARK SMILES IDX 7 1 8 2 9 3 10 4 11 5 12 6 13 7 6 8 5 9 4 10 3 11 2 12 1 13
REMARK H PARENT
REMARK Flexibility Score: inf
ROOT
ATOM      1  C   UNL     1     -16.209   2.990 -20.320  1.00  0.00     0.000 C 
ENDROOT
BRANCH   1   2
ATOM      2  C   UNL     1     -14.825   2.383 -20.035  1.00  0.00     0.000 C 
BRANCH   2   3
ATOM      3  C   UNL     1     -14.904   0.921 -19.571  1.00  0.00     0.006 C 
BRANCH   3   4
ATOM      4  C   UNL     1     -14.239  -0.012 -20.588  1.00  0.00     0.053 C 
BRANCH   4   5
ATOM      5  C   UNL     1     -14.193  -1.413 -20.064  1.00  0.00     0.041 C 
ATOM      6  O   UNL     1     -14.156  -2.387 -20.861  1.00  0.00    -0.550 OA
ATOM      7  O   UNL     1     -14.142  -1.640 -18.695  1.00  0.00    -0.550 OA
ENDBRANCH   4   5
ENDBRANCH   3   4
ENDBRANCH   2   3
ENDBRANCH   1   2
BRANCH   1   8
ATOM      8  C   UNL     1     -16.701   2.690 -21.746  1.00  0.00     0.000 C 
BRANCH   8   9
ATOM      9  C   UNL     1     -15.558   2.636 -22.777  1.00  0.00    -0.000 C 
BRANCH   9  10
ATOM     10  C   UNL     1     -15.256   3.969 -23.485  1.00  0.00    -0.000 C 
BRANCH  10  11
ATOM     11  C   UNL     1     -14.033   4.694 -22.899  1.00  0.00    -0.000 C 
BRANCH  11  12
ATOM     12  C   UNL     1     -14.425   5.899 -22.030  1.00  0.00    -0.003 C 
ATOM     13  C   UNL     1     -13.670   5.939 -20.702  1.00  0.00     0.004 C 
ENDBRANCH  11  12
ENDBRANCH  10  11
ENDBRANCH   9  10
ENDBRANCH   8   9
ENDBRANCH   1   8
TORSDOF 9
ENDMDL
