MODEL 1
REMARK VINA RESULT:    -5.641      0.000      0.000
REMARK INTER + INTRA:          -7.029
REMARK INTER:                  -6.796
REMARK INTRA:                  -0.233
REMARK UNBOUND:                -0.233
REMARK SMILES O=c1c(O)c(-c2ccc(O)c(O)c2)oc2cc(O)cc(O)c12
REMARK SMILES IDX 5 1 3 2 2 3 1 4 22 5 20 6 19 7 17 8 16 9 15 10 14 11 6 12
REMARK SMILES IDX 7 13 8 14 9 15 13 16 11 17 10 18 12 20 4 22 21 24 18 26
REMARK H PARENT 10 19 12 21 4 23 21 25 18 27
REMARK Flexibility Score: inf
ROOT
ATOM      1  C   UNL     1     146.319 150.432 157.019  1.00  0.00     0.180 A 
ATOM      2  C   UNL     1     146.882 149.156 156.845  1.00  0.00     0.208 A 
ATOM      3  C   UNL     1     146.030 148.048 156.708  1.00  0.00     0.238 A 
ATOM      4  O   UNL     1     146.540 146.902 156.608  1.00  0.00    -0.285 OA
ATOM      5  C   UNL     1     144.627 148.232 156.729  1.00  0.00     0.111 A 
ATOM      6  C   UNL     1     143.669 147.187 156.559  1.00  0.00     0.134 A 
ATOM      7  C   UNL     1     142.307 147.465 156.728  1.00  0.00     0.093 A 
ATOM      8  C   UNL     1     141.864 148.762 156.998  1.00  0.00     0.123 A 
ATOM      9  C   UNL     1     142.786 149.799 157.107  1.00  0.00     0.094 A 
ATOM     10  C   UNL     1     144.155 149.548 156.979  1.00  0.00     0.146 A 
ATOM     11  O   UNL     1     145.001 150.563 157.100  1.00  0.00    -0.452 OA
ENDROOT
BRANCH   1  12
ATOM     12  C   UNL     1     147.152 151.649 157.145  1.00  0.00     0.025 A 
ATOM     13  C   UNL     1     147.907 151.904 158.304  1.00  0.00     0.016 A 
ATOM     14  C   UNL     1     148.705 153.048 158.390  1.00  0.00     0.051 A 
ATOM     15  C   UNL     1     148.770 153.947 157.319  1.00  0.00     0.157 A 
ATOM     16  C   UNL     1     147.238 152.544 156.065  1.00  0.00     0.062 A 
ATOM     17  C   UNL     1     148.035 153.691 156.149  1.00  0.00     0.158 A 
BRANCH  15  18
ATOM     18  O   UNL     1     149.565 155.089 157.409  1.00  0.00    -0.504 OA
ATOM     19  H   UNL     1     149.761 155.664 156.598  1.00  0.00     0.293 HD
ENDBRANCH  15  18
BRANCH  17  20
ATOM     20  O   UNL     1     148.084 154.563 155.061  1.00  0.00    -0.504 OA
ATOM     21  H   UNL     1     148.669 155.390 155.061  1.00  0.00     0.293 HD
ENDBRANCH  17  20
ENDBRANCH   1  12
BRANCH   2  22
ATOM     22  O   UNL     1     148.270 148.993 156.849  1.00  0.00    -0.502 OA
ATOM     23  H   UNL     1     148.720 148.157 157.203  1.00  0.00     0.293 HD
ENDBRANCH   2  22
BRANCH   6  24
ATOM     24  O   UNL     1     143.999 145.878 156.199  1.00  0.00    -0.507 OA
ATOM     25  H   UNL     1     144.598 145.627 155.426  1.00  0.00     0.293 HD
ENDBRANCH   6  24
BRANCH   8  26
ATOM     26  O   UNL     1     140.506 149.032 157.149  1.00  0.00    -0.508 OA
ATOM     27  H   UNL     1     140.098 149.900 156.821  1.00  0.00     0.293 HD
ENDBRANCH   8  26
TORSDOF 6
ENDMDL
MODEL 2
REMARK VINA RESULT:    -5.633      4.196      6.785
REMARK INTER + INTRA:          -7.019
REMARK INTER:                  -6.794
REMARK INTRA:                  -0.225
REMARK UNBOUND:                -0.233
REMARK SMILES O=c1c(O)c(-c2ccc(O)c(O)c2)oc2cc(O)cc(O)c12
REMARK SMILES IDX 5 1 3 2 2 3 1 4 22 5 20 6 19 7 17 8 16 9 15 10 14 11 6 12
REMARK SMILES IDX 7 13 8 14 9 15 13 16 11 17 10 18 12 20 4 22 21 24 18 26
REMARK H PARENT 10 19 12 21 4 23 21 25 18 27
REMARK Flexibility Score: inf
ROOT
ATOM      1  C   UNL     1     145.189 146.287 157.032  1.00  0.00     0.180 A 
ATOM      2  C   UNL     1     146.471 146.838 156.865  1.00  0.00     0.208 A 
ATOM      3  C   UNL     1     147.570 145.976 156.718  1.00  0.00     0.238 A 
ATOM      4  O   UNL     1     148.721 146.476 156.622  1.00  0.00    -0.285 OA
ATOM      5  C   UNL     1     147.371 144.575 156.723  1.00  0.00     0.111 A 
ATOM      6  C   UNL     1     148.406 143.609 156.542  1.00  0.00     0.134 A 
ATOM      7  C   UNL     1     148.115 142.248 156.697  1.00  0.00     0.093 A 
ATOM      8  C   UNL     1     146.814 141.815 156.962  1.00  0.00     0.123 A 
ATOM      9  C   UNL     1     145.786 142.746 157.081  1.00  0.00     0.094 A 
ATOM     10  C   UNL     1     146.051 144.114 156.969  1.00  0.00     0.146 A 
ATOM     11  O   UNL     1     145.044 144.969 157.099  1.00  0.00    -0.452 OA
ENDROOT
BRANCH   1  12
ATOM     12  C   UNL     1     143.980 147.130 157.168  1.00  0.00     0.025 A 
ATOM     13  C   UNL     1     143.742 147.888 158.328  1.00  0.00     0.016 A 
ATOM     14  C   UNL     1     142.606 148.697 158.424  1.00  0.00     0.051 A 
ATOM     15  C   UNL     1     141.698 148.768 157.360  1.00  0.00     0.157 A 
ATOM     16  C   UNL     1     143.077 147.223 156.096  1.00  0.00     0.062 A 
ATOM     17  C   UNL     1     141.937 148.030 156.189  1.00  0.00     0.158 A 
BRANCH  15  18
ATOM     18  O   UNL     1     140.564 149.574 157.460  1.00  0.00    -0.504 OA
ATOM     19  H   UNL     1     140.399 150.158 158.270  1.00  0.00     0.293 HD
ENDBRANCH  15  18
BRANCH  17  20
ATOM     20  O   UNL     1     141.056 148.086 155.109  1.00  0.00    -0.504 OA
ATOM     21  H   UNL     1     140.142 148.515 155.182  1.00  0.00     0.293 HD
ENDBRANCH  17  20
ENDBRANCH   1  12
BRANCH   2  22
ATOM     22  O   UNL     1     146.648 148.225 156.883  1.00  0.00    -0.502 OA
ATOM     23  H   UNL     1     146.786 148.767 156.040  1.00  0.00     0.293 HD
ENDBRANCH   2  22
BRANCH   6  24
ATOM     24  O   UNL     1     149.718 143.930 156.185  1.00  0.00    -0.507 OA
ATOM     25  H   UNL     1     150.302 143.375 155.577  1.00  0.00     0.293 HD
ENDBRANCH   6  24
BRANCH   8  26
ATOM     26  O   UNL     1     146.530 140.458 157.099  1.00  0.00    -0.508 OA
ATOM     27  H   UNL     1     146.070 140.093 157.925  1.00  0.00     0.293 HD
ENDBRANCH   8  26
TORSDOF 6
ENDMDL
MODEL 3
REMARK VINA RESULT:    -5.623      5.228      9.555
REMARK INTER + INTRA:          -7.007
REMARK INTER:                  -6.774
REMARK INTRA:                  -0.234
REMARK UNBOUND:                -0.233
REMARK SMILES O=c1c(O)c(-c2ccc(O)c(O)c2)oc2cc(O)cc(O)c12
REMARK SMILES IDX 5 1 3 2 2 3 1 4 22 5 20 6 19 7 17 8 16 9 15 10 14 11 6 12
REMARK SMILES IDX 7 13 8 14 9 15 13 16 11 17 10 18 12 20 4 22 21 24 18 26
REMARK H PARENT 10 19 12 21 4 23 21 25 18 27
REMARK Flexibility Score: inf
ROOT
ATOM      1  C   UNL     1     149.296 145.247 157.044  1.00  0.00     0.180 A 
ATOM      2  C   UNL     1     148.737 146.526 156.874  1.00  0.00     0.208 A 
ATOM      3  C   UNL     1     149.593 147.628 156.714  1.00  0.00     0.238 A 
ATOM      4  O   UNL     1     149.088 148.776 156.615  1.00  0.00    -0.285 OA
ATOM      5  C   UNL     1     150.995 147.435 156.709  1.00  0.00     0.111 A 
ATOM      6  C   UNL     1     151.956 148.473 156.514  1.00  0.00     0.134 A 
ATOM      7  C   UNL     1     153.319 148.189 156.659  1.00  0.00     0.093 A 
ATOM      8  C   UNL     1     153.760 146.891 156.928  1.00  0.00     0.123 A 
ATOM      9  C   UNL     1     152.834 145.860 157.061  1.00  0.00     0.094 A 
ATOM     10  C   UNL     1     151.465 146.118 156.958  1.00  0.00     0.146 A 
ATOM     11  O   UNL     1     150.615 145.109 157.101  1.00  0.00    -0.452 OA
ENDROOT
BRANCH   1  12
ATOM     12  C   UNL     1     148.459 144.036 157.194  1.00  0.00     0.025 A 
ATOM     13  C   UNL     1     147.728 143.791 158.370  1.00  0.00     0.016 A 
ATOM     14  C   UNL     1     146.925 142.652 158.479  1.00  0.00     0.051 A 
ATOM     15  C   UNL     1     146.831 141.749 157.413  1.00  0.00     0.157 A 
ATOM     16  C   UNL     1     148.344 143.137 156.120  1.00  0.00     0.062 A 
ATOM     17  C   UNL     1     147.542 141.995 156.227  1.00  0.00     0.158 A 
BRANCH  15  18
ATOM     18  O   UNL     1     146.031 140.612 157.525  1.00  0.00    -0.504 OA
ATOM     19  H   UNL     1     146.226 139.773 156.992  1.00  0.00     0.293 HD
ENDBRANCH  15  18
BRANCH  17  20
ATOM     20  O   UNL     1     147.464 141.119 155.144  1.00  0.00    -0.504 OA
ATOM     21  H   UNL     1     146.900 140.278 155.172  1.00  0.00     0.293 HD
ENDBRANCH  17  20
ENDBRANCH   1  12
BRANCH   2  22
ATOM     22  O   UNL     1     147.351 146.697 156.903  1.00  0.00    -0.502 OA
ATOM     23  H   UNL     1     146.795 146.783 156.061  1.00  0.00     0.293 HD
ENDBRANCH   2  22
BRANCH   6  24
ATOM     24  O   UNL     1     151.626 149.782 156.152  1.00  0.00    -0.507 OA
ATOM     25  H   UNL     1     150.686 150.138 156.070  1.00  0.00     0.293 HD
ENDBRANCH   6  24
BRANCH   8  26
ATOM     26  O   UNL     1     155.119 146.614 157.055  1.00  0.00    -0.508 OA
ATOM     27  H   UNL     1     155.551 145.840 156.562  1.00  0.00     0.293 HD
ENDBRANCH   8  26
TORSDOF 6
ENDMDL
MODEL 4
REMARK VINA RESULT:    -5.586      5.065      7.229
REMARK INTER + INTRA:          -6.963
REMARK INTER:                  -6.677
REMARK INTRA:                  -0.285
REMARK UNBOUND:                -0.233
REMARK SMILES O=c1c(O)c(-c2ccc(O)c(O)c2)oc2cc(O)cc(O)c12
REMARK SMILES IDX 5 1 3 2 2 3 1 4 22 5 20 6 19 7 17 8 16 9 15 10 14 11 6 12
REMARK SMILES IDX 7 13 8 14 9 15 13 16 11 17 10 18 12 20 4 22 21 24 18 26
REMARK H PARENT 10 19 12 21 4 23 21 25 18 27
REMARK Flexibility Score: inf
ROOT
ATOM      1  C   UNL     1     143.912 145.428 157.578  1.00  0.00     0.180 A 
ATOM      2  C   UNL     1     143.337 144.200 157.948  1.00  0.00     0.208 A 
ATOM      3  C   UNL     1     144.105 143.029 157.842  1.00  0.00     0.238 A 
ATOM      4  O   UNL     1     143.567 141.926 158.124  1.00  0.00    -0.285 OA
ATOM      5  C   UNL     1     145.442 143.103 157.385  1.00  0.00     0.111 A 
ATOM      6  C   UNL     1     146.326 141.986 157.277  1.00  0.00     0.134 A 
ATOM      7  C   UNL     1     147.585 142.156 156.689  1.00  0.00     0.093 A 
ATOM      8  C   UNL     1     148.018 143.414 156.264  1.00  0.00     0.123 A 
ATOM      9  C   UNL     1     147.187 144.521 156.419  1.00  0.00     0.094 A 
ATOM     10  C   UNL     1     145.910 144.377 156.969  1.00  0.00     0.146 A 
ATOM     11  O   UNL     1     145.147 145.456 157.090  1.00  0.00    -0.452 OA
ENDROOT
BRANCH   1  12
ATOM     12  C   UNL     1     143.174 146.707 157.685  1.00  0.00     0.025 A 
ATOM     13  C   UNL     1     143.422 147.610 158.734  1.00  0.00     0.016 A 
ATOM     14  C   UNL     1     142.731 148.823 158.801  1.00  0.00     0.051 A 
ATOM     15  C   UNL     1     141.792 149.156 157.816  1.00  0.00     0.157 A 
ATOM     16  C   UNL     1     142.247 147.056 156.688  1.00  0.00     0.062 A 
ATOM     17  C   UNL     1     141.552 148.269 156.753  1.00  0.00     0.158 A 
BRANCH  15  18
ATOM     18  O   UNL     1     141.101 150.366 157.887  1.00  0.00    -0.504 OA
ATOM     19  H   UNL     1     141.510 151.184 158.323  1.00  0.00     0.293 HD
ENDBRANCH  15  18
BRANCH  17  20
ATOM     20  O   UNL     1     140.629 148.575 155.753  1.00  0.00    -0.504 OA
ATOM     21  H   UNL     1     140.800 149.301 155.067  1.00  0.00     0.293 HD
ENDBRANCH  17  20
ENDBRANCH   1  12
BRANCH   2  22
ATOM     22  O   UNL     1     142.008 144.146 158.377  1.00  0.00    -0.502 OA
ATOM     23  H   UNL     1     141.243 144.512 157.825  1.00  0.00     0.293 HD
ENDBRANCH   2  22
BRANCH   6  24
ATOM     24  O   UNL     1     146.027 140.707 157.754  1.00  0.00    -0.507 OA
ATOM     25  H   UNL     1     146.429 140.292 158.581  1.00  0.00     0.293 HD
ENDBRANCH   6  24
BRANCH   8  26
ATOM     26  O   UNL     1     149.278 143.577 155.694  1.00  0.00    -0.508 OA
ATOM     27  H   UNL     1     149.609 142.966 154.955  1.00  0.00     0.293 HD
ENDBRANCH   8  26
TORSDOF 6
ENDMDL
MODEL 5
REMARK VINA RESULT:    -5.577      3.981      6.610
REMARK INTER + INTRA:          -6.951
REMARK INTER:                  -6.723
REMARK INTRA:                  -0.228
REMARK UNBOUND:                -0.233
REMARK SMILES O=c1c(O)c(-c2ccc(O)c(O)c2)oc2cc(O)cc(O)c12
REMARK SMILES IDX 5 1 3 2 2 3 1 4 22 5 20 6 19 7 17 8 16 9 15 10 14 11 6 12
REMARK SMILES IDX 7 13 8 14 9 15 13 16 11 17 10 18 12 20 4 22 21 24 18 26
REMARK H PARENT 10 19 12 21 4 23 21 25 18 27
REMARK Flexibility Score: inf
ROOT
ATOM      1  C   UNL     1     150.158 149.375 157.035  1.00  0.00     0.180 A 
ATOM      2  C   UNL     1     148.876 148.816 156.889  1.00  0.00     0.208 A 
ATOM      3  C   UNL     1     147.774 149.671 156.729  1.00  0.00     0.238 A 
ATOM      4  O   UNL     1     146.623 149.165 156.653  1.00  0.00    -0.285 OA
ATOM      5  C   UNL     1     147.968 151.072 156.700  1.00  0.00     0.111 A 
ATOM      6  C   UNL     1     146.928 152.031 156.503  1.00  0.00     0.134 A 
ATOM      7  C   UNL     1     147.216 153.396 156.622  1.00  0.00     0.093 A 
ATOM      8  C   UNL     1     148.518 153.839 156.869  1.00  0.00     0.123 A 
ATOM      9  C   UNL     1     149.550 152.914 157.004  1.00  0.00     0.094 A 
ATOM     10  C   UNL     1     149.288 151.543 156.926  1.00  0.00     0.146 A 
ATOM     11  O   UNL     1     150.298 150.695 157.070  1.00  0.00    -0.452 OA
ENDROOT
BRANCH   1  12
ATOM     12  C   UNL     1     151.370 148.539 157.184  1.00  0.00     0.025 A 
ATOM     13  C   UNL     1     151.621 147.815 158.362  1.00  0.00     0.016 A 
ATOM     14  C   UNL     1     152.760 147.012 158.470  1.00  0.00     0.051 A 
ATOM     15  C   UNL     1     153.658 146.912 157.400  1.00  0.00     0.157 A 
ATOM     16  C   UNL     1     152.263 148.418 156.106  1.00  0.00     0.062 A 
ATOM     17  C   UNL     1     153.406 147.617 156.211  1.00  0.00     0.158 A 
BRANCH  15  18
ATOM     18  O   UNL     1     154.795 146.113 157.511  1.00  0.00    -0.504 OA
ATOM     19  H   UNL     1     155.694 146.504 157.766  1.00  0.00     0.293 HD
ENDBRANCH  15  18
BRANCH  17  20
ATOM     20  O   UNL     1     154.276 147.533 155.124  1.00  0.00    -0.504 OA
ATOM     21  H   UNL     1     154.063 146.974 154.307  1.00  0.00     0.293 HD
ENDBRANCH  17  20
ENDBRANCH   1  12
BRANCH   2  22
ATOM     22  O   UNL     1     148.704 147.430 156.942  1.00  0.00    -0.502 OA
ATOM     23  H   UNL     1     148.731 146.846 156.115  1.00  0.00     0.293 HD
ENDBRANCH   2  22
BRANCH   6  24
ATOM     24  O   UNL     1     145.615 151.698 156.161  1.00  0.00    -0.507 OA
ATOM     25  H   UNL     1     144.848 151.637 156.814  1.00  0.00     0.293 HD
ENDBRANCH   6  24
BRANCH   8  26
ATOM     26  O   UNL     1     148.798 155.200 156.972  1.00  0.00    -0.508 OA
ATOM     27  H   UNL     1     149.680 155.533 157.345  1.00  0.00     0.293 HD
ENDBRANCH   8  26
TORSDOF 6
ENDMDL
MODEL 6
REMARK VINA RESULT:    -5.575      6.464     10.049
REMARK INTER + INTRA:          -6.950
REMARK INTER:                  -6.667
REMARK INTRA:                  -0.283
REMARK UNBOUND:                -0.233
REMARK SMILES O=c1c(O)c(-c2ccc(O)c(O)c2)oc2cc(O)cc(O)c12
REMARK SMILES IDX 5 1 3 2 2 3 1 4 22 5 20 6 19 7 17 8 16 9 15 10 14 11 6 12
REMARK SMILES IDX 7 13 8 14 9 15 13 16 11 17 10 18 12 20 4 22 21 24 18 26
REMARK H PARENT 10 19 12 21 4 23 21 25 18 27
REMARK Flexibility Score: inf
ROOT
ATOM      1  C   UNL     1     150.137 143.908 157.601  1.00  0.00     0.180 A 
ATOM      2  C   UNL     1     151.369 143.327 157.948  1.00  0.00     0.208 A 
ATOM      3  C   UNL     1     152.540 144.094 157.837  1.00  0.00     0.238 A 
ATOM      4  O   UNL     1     153.645 143.551 158.098  1.00  0.00    -0.285 OA
ATOM      5  C   UNL     1     152.462 145.437 157.397  1.00  0.00     0.111 A 
ATOM      6  C   UNL     1     153.579 146.319 157.285  1.00  0.00     0.134 A 
ATOM      7  C   UNL     1     153.404 147.586 156.715  1.00  0.00     0.093 A 
ATOM      8  C   UNL     1     152.141 148.027 156.312  1.00  0.00     0.123 A 
ATOM      9  C   UNL     1     151.035 147.196 156.471  1.00  0.00     0.094 A 
ATOM     10  C   UNL     1     151.183 145.912 157.004  1.00  0.00     0.146 A 
ATOM     11  O   UNL     1     150.105 145.149 157.129  1.00  0.00    -0.452 OA
ENDROOT
BRANCH   1  12
ATOM     12  C   UNL     1     148.858 143.171 157.715  1.00  0.00     0.025 A 
ATOM     13  C   UNL     1     147.967 143.409 158.777  1.00  0.00     0.016 A 
ATOM     14  C   UNL     1     146.755 142.719 158.851  1.00  0.00     0.051 A 
ATOM     15  C   UNL     1     146.408 141.791 157.861  1.00  0.00     0.157 A 
ATOM     16  C   UNL     1     148.495 142.255 156.713  1.00  0.00     0.062 A 
ATOM     17  C   UNL     1     147.282 141.561 156.785  1.00  0.00     0.158 A 
BRANCH  15  18
ATOM     18  O   UNL     1     145.198 141.102 157.938  1.00  0.00    -0.504 OA
ATOM     19  H   UNL     1     144.539 141.101 157.169  1.00  0.00     0.293 HD
ENDBRANCH  15  18
BRANCH  17  20
ATOM     20  O   UNL     1     146.963 140.649 155.779  1.00  0.00    -0.504 OA
ATOM     21  H   UNL     1     147.305 140.753 154.831  1.00  0.00     0.293 HD
ENDBRANCH  17  20
ENDBRANCH   1  12
BRANCH   2  22
ATOM     22  O   UNL     1     151.425 141.993 158.360  1.00  0.00    -0.502 OA
ATOM     23  H   UNL     1     150.596 141.454 158.576  1.00  0.00     0.293 HD
ENDBRANCH   2  22
BRANCH   6  24
ATOM     24  O   UNL     1     154.864 146.012 157.743  1.00  0.00    -0.507 OA
ATOM     25  H   UNL     1     155.202 146.195 158.675  1.00  0.00     0.293 HD
ENDBRANCH   6  24
BRANCH   8  26
ATOM     26  O   UNL     1     151.974 149.294 155.760  1.00  0.00    -0.508 OA
ATOM     27  H   UNL     1     151.853 150.115 156.343  1.00  0.00     0.293 HD
ENDBRANCH   8  26
TORSDOF 6
ENDMDL
MODEL 7
REMARK VINA RESULT:    -5.555      4.607      7.625
REMARK INTER + INTRA:          -6.925
REMARK INTER:                  -6.646
REMARK INTRA:                  -0.279
REMARK UNBOUND:                -0.233
REMARK SMILES O=c1c(O)c(-c2ccc(O)c(O)c2)oc2cc(O)cc(O)c12
REMARK SMILES IDX 5 1 3 2 2 3 1 4 22 5 20 6 19 7 17 8 16 9 15 10 14 11 6 12
REMARK SMILES IDX 7 13 8 14 9 15 13 16 11 17 10 18 12 20 4 22 21 24 18 26
REMARK H PARENT 10 19 12 21 4 23 21 25 18 27
REMARK Flexibility Score: inf
ROOT
ATOM      1  C   UNL     1     151.646 150.117 157.629  1.00  0.00     0.180 A 
ATOM      2  C   UNL     1     152.229 151.350 157.971  1.00  0.00     0.208 A 
ATOM      3  C   UNL     1     151.462 152.521 157.857  1.00  0.00     0.238 A 
ATOM      4  O   UNL     1     152.006 153.626 158.113  1.00  0.00    -0.285 OA
ATOM      5  C   UNL     1     150.118 152.442 157.421  1.00  0.00     0.111 A 
ATOM      6  C   UNL     1     149.236 153.560 157.307  1.00  0.00     0.134 A 
ATOM      7  C   UNL     1     147.968 153.383 156.740  1.00  0.00     0.093 A 
ATOM      8  C   UNL     1     147.526 152.119 156.341  1.00  0.00     0.123 A 
ATOM      9  C   UNL     1     148.357 151.014 156.503  1.00  0.00     0.094 A 
ATOM     10  C   UNL     1     149.641 151.163 157.032  1.00  0.00     0.146 A 
ATOM     11  O   UNL     1     150.405 150.084 157.160  1.00  0.00    -0.452 OA
ENDROOT
BRANCH   1  12
ATOM     12  C   UNL     1     152.382 148.838 157.747  1.00  0.00     0.025 A 
ATOM     13  C   UNL     1     152.138 147.946 158.806  1.00  0.00     0.016 A 
ATOM     14  C   UNL     1     152.828 146.733 158.883  1.00  0.00     0.051 A 
ATOM     15  C   UNL     1     153.762 146.388 157.898  1.00  0.00     0.157 A 
ATOM     16  C   UNL     1     153.304 148.477 156.750  1.00  0.00     0.062 A 
ATOM     17  C   UNL     1     153.998 147.263 156.825  1.00  0.00     0.158 A 
BRANCH  15  18
ATOM     18  O   UNL     1     154.451 145.178 157.978  1.00  0.00    -0.504 OA
ATOM     19  H   UNL     1     154.610 144.605 157.159  1.00  0.00     0.293 HD
ENDBRANCH  15  18
BRANCH  17  20
ATOM     20  O   UNL     1     154.917 146.946 155.824  1.00  0.00    -0.504 OA
ATOM     21  H   UNL     1     154.645 146.863 154.852  1.00  0.00     0.293 HD
ENDBRANCH  17  20
ENDBRANCH   1  12
BRANCH   2  22
ATOM     22  O   UNL     1     153.564 151.407 158.380  1.00  0.00    -0.502 OA
ATOM     23  H   UNL     1     154.298 150.884 157.918  1.00  0.00     0.293 HD
ENDBRANCH   2  22
BRANCH   6  24
ATOM     24  O   UNL     1     149.545 154.845 157.759  1.00  0.00    -0.507 OA
ATOM     25  H   UNL     1     150.476 155.230 157.810  1.00  0.00     0.293 HD
ENDBRANCH   6  24
BRANCH   8  26
ATOM     26  O   UNL     1     146.257 151.951 155.792  1.00  0.00    -0.508 OA
ATOM     27  H   UNL     1     145.650 151.192 156.083  1.00  0.00     0.293 HD
ENDBRANCH   8  26
TORSDOF 6
ENDMDL
MODEL 8
REMARK VINA RESULT:    -5.510      1.461      3.074
REMARK INTER + INTRA:          -6.871
REMARK INTER:                  -6.588
REMARK INTRA:                  -0.283
REMARK UNBOUND:                -0.233
REMARK SMILES O=c1c(O)c(-c2ccc(O)c(O)c2)oc2cc(O)cc(O)c12
REMARK SMILES IDX 5 1 3 2 2 3 1 4 22 5 20 6 19 7 17 8 16 9 15 10 14 11 6 12
REMARK SMILES IDX 7 13 8 14 9 15 13 16 11 17 10 18 12 20 4 22 21 24 18 26
REMARK H PARENT 10 19 12 21 4 23 21 25 18 27
REMARK Flexibility Score: inf
ROOT
ATOM      1  C   UNL     1     145.504 151.635 157.681  1.00  0.00     0.180 A 
ATOM      2  C   UNL     1     144.270 152.217 158.020  1.00  0.00     0.208 A 
ATOM      3  C   UNL     1     143.100 151.447 157.906  1.00  0.00     0.238 A 
ATOM      4  O   UNL     1     141.993 151.990 158.159  1.00  0.00    -0.285 OA
ATOM      5  C   UNL     1     143.182 150.103 157.473  1.00  0.00     0.111 A 
ATOM      6  C   UNL     1     142.067 149.218 157.359  1.00  0.00     0.134 A 
ATOM      7  C   UNL     1     142.246 147.949 156.795  1.00  0.00     0.093 A 
ATOM      8  C   UNL     1     143.512 147.509 156.400  1.00  0.00     0.123 A 
ATOM      9  C   UNL     1     144.616 148.342 156.561  1.00  0.00     0.094 A 
ATOM     10  C   UNL     1     144.463 149.628 157.087  1.00  0.00     0.146 A 
ATOM     11  O   UNL     1     145.540 150.393 157.214  1.00  0.00    -0.452 OA
ENDROOT
BRANCH   1  12
ATOM     12  C   UNL     1     146.781 152.375 157.798  1.00  0.00     0.025 A 
ATOM     13  C   UNL     1     147.667 152.143 158.865  1.00  0.00     0.016 A 
ATOM     14  C   UNL     1     148.879 152.834 158.942  1.00  0.00     0.051 A 
ATOM     15  C   UNL     1     149.228 153.759 157.950  1.00  0.00     0.157 A 
ATOM     16  C   UNL     1     147.147 153.287 156.794  1.00  0.00     0.062 A 
ATOM     17  C   UNL     1     148.359 153.983 156.869  1.00  0.00     0.158 A 
BRANCH  15  18
ATOM     18  O   UNL     1     150.437 154.450 158.030  1.00  0.00    -0.504 OA
ATOM     19  H   UNL     1     151.231 154.198 157.453  1.00  0.00     0.293 HD
ENDBRANCH  15  18
BRANCH  17  20
ATOM     20  O   UNL     1     148.682 154.892 155.861  1.00  0.00    -0.504 OA
ATOM     21  H   UNL     1     149.551 155.412 155.863  1.00  0.00     0.293 HD
ENDBRANCH  17  20
ENDBRANCH   1  12
BRANCH   2  22
ATOM     22  O   UNL     1     144.209 153.552 158.426  1.00  0.00    -0.502 OA
ATOM     23  H   UNL     1     143.704 153.848 159.252  1.00  0.00     0.293 HD
ENDBRANCH   2  22
BRANCH   6  24
ATOM     24  O   UNL     1     140.780 149.525 157.809  1.00  0.00    -0.507 OA
ATOM     25  H   UNL     1     140.213 148.924 158.388  1.00  0.00     0.293 HD
ENDBRANCH   6  24
BRANCH   8  26
ATOM     26  O   UNL     1     143.684 146.239 155.854  1.00  0.00    -0.508 OA
ATOM     27  H   UNL     1     144.472 145.654 156.109  1.00  0.00     0.293 HD
ENDBRANCH   8  26
TORSDOF 6
ENDMDL
MODEL 9
REMARK VINA RESULT:    -5.342      5.625      7.308
REMARK INTER + INTRA:          -6.669
REMARK INTER:                  -6.334
REMARK INTRA:                  -0.335
REMARK UNBOUND:                -0.233
REMARK SMILES O=c1c(O)c(-c2ccc(O)c(O)c2)oc2cc(O)cc(O)c12
REMARK SMILES IDX 5 1 3 2 2 3 1 4 22 5 20 6 19 7 17 8 16 9 15 10 14 11 6 12
REMARK SMILES IDX 7 13 8 14 9 15 13 16 11 17 10 18 12 20 4 22 21 24 18 26
REMARK H PARENT 10 19 12 21 4 23 21 25 18 27
REMARK Flexibility Score: inf
ROOT
ATOM      1  C   UNL     1     150.538 145.767 157.118  1.00  0.00     0.180 A 
ATOM      2  C   UNL     1     149.354 146.522 157.047  1.00  0.00     0.208 A 
ATOM      3  C   UNL     1     148.135 145.859 156.829  1.00  0.00     0.238 A 
ATOM      4  O   UNL     1     147.087 146.546 156.713  1.00  0.00    -0.285 OA
ATOM      5  C   UNL     1     148.113 144.450 156.702  1.00  0.00     0.111 A 
ATOM      6  C   UNL     1     146.931 143.671 156.519  1.00  0.00     0.134 A 
ATOM      7  C   UNL     1     147.041 142.296 156.274  1.00  0.00     0.093 A 
ATOM      8  C   UNL     1     148.286 141.662 156.270  1.00  0.00     0.123 A 
ATOM      9  C   UNL     1     149.441 142.404 156.506  1.00  0.00     0.094 A 
ATOM     10  C   UNL     1     149.367 143.783 156.717  1.00  0.00     0.146 A 
ATOM     11  O   UNL     1     150.492 144.454 156.928  1.00  0.00    -0.452 OA
ENDROOT
BRANCH   1  12
ATOM     12  C   UNL     1     151.856 146.392 157.370  1.00  0.00     0.025 A 
ATOM     13  C   UNL     1     152.338 146.584 158.677  1.00  0.00     0.016 A 
ATOM     14  C   UNL     1     153.596 147.153 158.890  1.00  0.00     0.051 A 
ATOM     15  C   UNL     1     154.396 147.527 157.803  1.00  0.00     0.157 A 
ATOM     16  C   UNL     1     152.672 146.749 156.283  1.00  0.00     0.062 A 
ATOM     17  C   UNL     1     153.932 147.321 156.493  1.00  0.00     0.158 A 
BRANCH  15  18
ATOM     18  O   UNL     1     155.650 148.097 158.018  1.00  0.00    -0.504 OA
ATOM     19  H   UNL     1     156.228 148.414 157.248  1.00  0.00     0.293 HD
ENDBRANCH  15  18
BRANCH  17  20
ATOM     20  O   UNL     1     154.707 147.675 155.389  1.00  0.00    -0.504 OA
ATOM     21  H   UNL     1     154.451 148.438 154.774  1.00  0.00     0.293 HD
ENDBRANCH  17  20
ENDBRANCH   1  12
BRANCH   2  22
ATOM     22  O   UNL     1     149.401 147.915 157.155  1.00  0.00    -0.502 OA
ATOM     23  H   UNL     1     150.216 148.454 156.891  1.00  0.00     0.293 HD
ENDBRANCH   2  22
BRANCH   6  24
ATOM     24  O   UNL     1     145.636 144.189 156.597  1.00  0.00    -0.507 OA
ATOM     25  H   UNL     1     144.792 143.659 156.439  1.00  0.00     0.293 HD
ENDBRANCH   6  24
BRANCH   8  26
ATOM     26  O   UNL     1     148.385 140.292 156.041  1.00  0.00    -0.508 OA
ATOM     27  H   UNL     1     148.388 139.625 156.805  1.00  0.00     0.293 HD
ENDBRANCH   8  26
TORSDOF 6
ENDMDL
