MODEL 1
REMARK VINA RESULT:    -4.000      0.000      0.000
REMARK INTER + INTRA:          -6.400
REMARK INTER:                  -5.871
REMARK INTRA:                  -0.529
REMARK UNBOUND:                -0.529
REMARK SMILES C=C1C=C[C@H](C(C)C)CCC(C)=CCC1
REMARK SMILES IDX 3 1 4 2 5 3 9 4 10 5 11 6 12 7 13 8 6 10 7 11 8 12 2 13 1 14
REMARK SMILES IDX 15 15 14 16
REMARK H PARENT
REMARK Flexibility Score: 70.00
ROOT
ATOM      1  C   UNL     1       1.069  -1.514  15.970  1.00  0.00    -0.001 C 
ATOM      2  C   UNL     1       1.082  -1.925  17.250  1.00  0.00    -0.023 C 
ENDROOT
BRANCH   2   3
ATOM      3  C   UNL     1       1.422  -3.317  17.775  1.00  0.00     0.014 C 
BRANCH   3   4
ATOM      4  C   UNL     1       2.930  -3.524  18.084  1.00  0.00     0.012 C 
BRANCH   4   5
ATOM      5  C   UNL     1       3.757  -2.225  18.063  1.00  0.00     0.031 C 
BRANCH   5   6
ATOM      6  C   UNL     1       4.992  -2.313  17.186  1.00  0.00    -0.077 C 
ATOM      7  C   UNL     1       6.310  -2.651  17.841  1.00  0.00     0.039 C 
ATOM      8  C   UNL     1       4.974  -2.221  15.831  1.00  0.00    -0.028 CG0
ATOM      9  G   UNL     1       3.839  -1.746  14.940  1.00  0.00     0.000 G0
ENDBRANCH   5   6
ENDBRANCH   4   5
ENDBRANCH   3   4
BRANCH   3  10
ATOM     10  C   UNL     1       0.514  -3.712  18.983  1.00  0.00    -0.010 C 
ATOM     11  C   UNL     1       1.209  -4.723  19.914  1.00  0.00     0.008 C 
ATOM     12  C   UNL     1       0.091  -2.483  19.808  1.00  0.00     0.008 C 
ENDBRANCH   3  10
ENDBRANCH   2   3
BRANCH   1  13
ATOM     13  C   UNL     1       1.357  -2.364  14.801  1.00  0.00    -0.055 C 
ATOM     14  C   UNL     1       0.343  -2.923  14.135  1.00  0.00     0.012 C 
BRANCH  13  15
ATOM     15  C   UNL     1       2.783  -2.808  14.537  1.00  0.00     0.039 C 
BRANCH  15  16
ATOM     16  C   UNL     1       3.827  -1.737  14.927  1.00  0.00     0.032 CG0
ATOM     17  G   UNL     1       4.970  -2.209  15.808  1.00  0.00     0.000 G0
ENDBRANCH  15  16
ENDBRANCH  13  15
ENDBRANCH   1  13
TORSDOF 1
ENDMDL
MODEL 2
REMARK VINA RESULT:    -3.866      1.532      3.705
REMARK INTER + INTRA:          -6.203
REMARK INTER:                  -5.596
REMARK INTRA:                  -0.607
REMARK UNBOUND:                -0.529
REMARK SMILES C=C1C=C[C@H](C(C)C)CCC(C)=CCC1
REMARK SMILES IDX 3 1 4 2 5 3 9 4 10 5 11 6 12 7 13 8 6 10 7 11 8 12 2 13 1 14
REMARK SMILES IDX 15 15 14 16
REMARK H PARENT
REMARK Flexibility Score: 70.00
ROOT
ATOM      1  C   UNL     1       1.830  -4.278  19.057  1.00  0.00    -0.001 C 
ATOM      2  C   UNL     1       0.746  -3.656  18.560  1.00  0.00    -0.023 C 
ENDROOT
BRANCH   2   3
ATOM      3  C   UNL     1       0.434  -2.163  18.596  1.00  0.00     0.014 C 
BRANCH   3   4
ATOM      4  C   UNL     1       0.432  -1.485  17.199  1.00  0.00     0.012 C 
BRANCH   4   5
ATOM      5  C   UNL     1       1.237  -2.249  16.131  1.00  0.00     0.031 C 
BRANCH   5   6
ATOM      6  C   UNL     1       2.597  -1.636  15.853  1.00  0.00    -0.077 C 
ATOM      7  C   UNL     1       2.686  -0.528  14.830  1.00  0.00     0.039 C 
ATOM      8  C   UNL     1       3.726  -1.938  16.546  1.00  0.00    -0.028 CG0
ATOM      9  G   UNL     1       3.957  -3.093  17.504  1.00  0.00     0.000 G0
ENDBRANCH   5   6
ENDBRANCH   4   5
ENDBRANCH   3   4
BRANCH   3  10
ATOM     10  C   UNL     1      -0.874  -1.869  19.396  1.00  0.00    -0.010 C 
ATOM     11  C   UNL     1      -0.642  -1.941  20.917  1.00  0.00     0.008 C 
ATOM     12  C   UNL     1      -1.463  -0.491  19.046  1.00  0.00     0.008 C 
ENDBRANCH   3  10
ENDBRANCH   2   3
BRANCH   1  13
ATOM     13  C   UNL     1       2.932  -3.619  19.778  1.00  0.00    -0.055 C 
ATOM     14  C   UNL     1       2.924  -3.608  21.114  1.00  0.00     0.012 C 
BRANCH  13  15
ATOM     15  C   UNL     1       3.903  -2.741  19.012  1.00  0.00     0.039 C 
BRANCH  15  16
ATOM     16  C   UNL     1       3.967  -3.089  17.508  1.00  0.00     0.032 CG0
ATOM     17  G   UNL     1       3.721  -1.939  16.546  1.00  0.00     0.000 G0
ENDBRANCH  15  16
ENDBRANCH  13  15
ENDBRANCH   1  13
TORSDOF 1
ENDMDL
MODEL 3
REMARK VINA RESULT:    -3.855      2.668      4.743
REMARK INTER + INTRA:          -6.187
REMARK INTER:                  -5.561
REMARK INTRA:                  -0.626
REMARK UNBOUND:                -0.529
REMARK SMILES C=C1C=C[C@H](C(C)C)CCC(C)=CCC1
REMARK SMILES IDX 3 1 4 2 5 3 9 4 10 5 11 6 12 7 13 8 6 10 7 11 8 12 2 13 1 14
REMARK SMILES IDX 15 15 14 16
REMARK H PARENT
REMARK Flexibility Score: 70.00
ROOT
ATOM      1  C   UNL     1       1.097  -4.271  18.996  1.00  0.00    -0.001 C 
ATOM      2  C   UNL     1       1.901  -3.824  18.015  1.00  0.00    -0.023 C 
ENDROOT
BRANCH   2   3
ATOM      3  C   UNL     1       2.474  -2.419  17.852  1.00  0.00     0.014 C 
BRANCH   3   4
ATOM      4  C   UNL     1       3.982  -2.306  18.207  1.00  0.00     0.012 C 
BRANCH   4   5
ATOM      5  C   UNL     1       4.539  -3.528  18.962  1.00  0.00     0.031 C 
BRANCH   5   6
ATOM      6  C   UNL     1       4.823  -3.251  20.427  1.00  0.00    -0.077 C 
ATOM      7  C   UNL     1       6.124  -2.574  20.787  1.00  0.00     0.039 C 
ATOM      8  C   UNL     1       3.933  -3.467  21.430  1.00  0.00    -0.028 CG0
ATOM      9  G   UNL     1       2.637  -4.257  21.379  1.00  0.00     0.000 G0
ENDBRANCH   5   6
ENDBRANCH   4   5
ENDBRANCH   3   4
BRANCH   3  10
ATOM     10  C   UNL     1       2.156  -1.830  16.441  1.00  0.00    -0.010 C 
ATOM     11  C   UNL     1       2.453  -2.842  15.319  1.00  0.00     0.008 C 
ATOM     12  C   UNL     1       0.689  -1.375  16.327  1.00  0.00     0.008 C 
ENDBRANCH   3  10
ENDBRANCH   2   3
BRANCH   1  13
ATOM     13  C   UNL     1       0.578  -3.456  20.107  1.00  0.00    -0.055 C 
ATOM     14  C   UNL     1      -0.400  -2.576  19.871  1.00  0.00     0.012 C 
BRANCH  13  15
ATOM     15  C   UNL     1       1.329  -3.427  21.424  1.00  0.00     0.039 C 
BRANCH  15  16
ATOM     16  C   UNL     1       2.632  -4.258  21.388  1.00  0.00     0.032 CG0
ATOM     17  G   UNL     1       3.929  -3.468  21.430  1.00  0.00     0.000 G0
ENDBRANCH  15  16
ENDBRANCH  13  15
ENDBRANCH   1  13
TORSDOF 1
ENDMDL
MODEL 4
REMARK VINA RESULT:    -3.844      1.706      3.801
REMARK INTER + INTRA:          -6.171
REMARK INTER:                  -5.788
REMARK INTRA:                  -0.383
REMARK UNBOUND:                -0.529
REMARK SMILES C=C1C=C[C@H](C(C)C)CCC(C)=CCC1
REMARK SMILES IDX 3 1 4 2 5 3 9 4 10 5 11 6 12 7 13 8 6 10 7 11 8 12 2 13 1 14
REMARK SMILES IDX 15 15 14 16
REMARK H PARENT
REMARK Flexibility Score: 70.00
ROOT
ATOM      1  C   UNL     1       4.032  -2.152  15.270  1.00  0.00    -0.001 C 
ATOM      2  C   UNL     1       4.559  -2.384  16.485  1.00  0.00    -0.023 C 
ENDROOT
BRANCH   2   3
ATOM      3  C   UNL     1       3.810  -2.587  17.799  1.00  0.00     0.014 C 
BRANCH   3   4
ATOM      4  C   UNL     1       3.060  -3.944  17.894  1.00  0.00     0.012 C 
BRANCH   4   5
ATOM      5  C   UNL     1       1.556  -3.852  17.579  1.00  0.00     0.031 C 
BRANCH   5   6
ATOM      6  C   UNL     1       0.866  -2.692  18.274  1.00  0.00    -0.077 C 
ATOM      7  C   UNL     1       0.658  -2.777  19.768  1.00  0.00     0.039 C 
ATOM      8  C   UNL     1       0.526  -1.529  17.661  1.00  0.00    -0.028 CG0
ATOM      9  G   UNL     1       0.483  -1.232  16.173  1.00  0.00     0.000 G0
ENDBRANCH   5   6
ENDBRANCH   4   5
ENDBRANCH   3   4
BRANCH   3  10
ATOM     10  C   UNL     1       4.735  -2.337  19.032  1.00  0.00    -0.010 C 
ATOM     11  C   UNL     1       4.452  -3.334  20.170  1.00  0.00     0.008 C 
ATOM     12  C   UNL     1       6.226  -2.420  18.656  1.00  0.00     0.008 C 
ENDBRANCH   3  10
ENDBRANCH   2   3
BRANCH   1  13
ATOM     13  C   UNL     1       2.595  -2.014  14.978  1.00  0.00    -0.055 C 
ATOM     14  C   UNL     1       2.040  -2.795  14.046  1.00  0.00     0.012 C 
BRANCH  13  15
ATOM     15  C   UNL     1       1.834  -0.825  15.530  1.00  0.00     0.039 C 
BRANCH  15  16
ATOM     16  C   UNL     1       0.486  -1.222  16.175  1.00  0.00     0.032 CG0
ATOM     17  G   UNL     1       0.526  -1.548  17.657  1.00  0.00     0.000 G0
ENDBRANCH  15  16
ENDBRANCH  13  15
ENDBRANCH   1  13
TORSDOF 1
ENDMDL
MODEL 5
REMARK VINA RESULT:    -3.796      2.024      5.413
REMARK INTER + INTRA:          -6.101
REMARK INTER:                  -5.495
REMARK INTRA:                  -0.606
REMARK UNBOUND:                -0.529
REMARK SMILES C=C1C=C[C@H](C(C)C)CCC(C)=CCC1
REMARK SMILES IDX 3 1 4 2 5 3 9 4 10 5 11 6 12 7 13 8 6 10 7 11 8 12 2 13 1 14
REMARK SMILES IDX 15 15 14 16
REMARK H PARENT
REMARK Flexibility Score: 70.00
ROOT
ATOM      1  C   UNL     1       5.086  -2.612  19.469  1.00  0.00    -0.001 C 
ATOM      2  C   UNL     1       5.622  -2.141  18.329  1.00  0.00    -0.023 C 
ENDROOT
BRANCH   2   3
ATOM      3  C   UNL     1       5.352  -2.625  16.907  1.00  0.00     0.014 C 
BRANCH   3   4
ATOM      4  C   UNL     1       4.165  -1.906  16.210  1.00  0.00     0.012 C 
BRANCH   4   5
ATOM      5  C   UNL     1       3.015  -2.846  15.804  1.00  0.00     0.031 C 
BRANCH   5   6
ATOM      6  C   UNL     1       1.690  -2.488  16.451  1.00  0.00    -0.077 C 
ATOM      7  C   UNL     1       0.827  -1.444  15.783  1.00  0.00     0.039 C 
ATOM      8  C   UNL     1       1.171  -3.128  17.532  1.00  0.00    -0.028 CG0
ATOM      9  G   UNL     1       1.870  -4.092  18.474  1.00  0.00     0.000 G0
ENDBRANCH   5   6
ENDBRANCH   4   5
ENDBRANCH   3   4
BRANCH   3  10
ATOM     10  C   UNL     1       6.649  -2.601  16.037  1.00  0.00    -0.010 C 
ATOM     11  C   UNL     1       6.534  -1.606  14.867  1.00  0.00     0.008 C 
ATOM     12  C   UNL     1       7.893  -2.246  16.872  1.00  0.00     0.008 C 
ENDBRANCH   3  10
ENDBRANCH   2   3
BRANCH   1  13
ATOM     13  C   UNL     1       4.139  -3.736  19.563  1.00  0.00    -0.055 C 
ATOM     14  C   UNL     1       4.576  -4.978  19.333  1.00  0.00     0.012 C 
BRANCH  13  15
ATOM     15  C   UNL     1       2.652  -3.452  19.646  1.00  0.00     0.039 C 
BRANCH  15  16
ATOM     16  C   UNL     1       1.854  -4.092  18.487  1.00  0.00     0.032 CG0
ATOM     17  G   UNL     1       1.164  -3.127  17.539  1.00  0.00     0.000 G0
ENDBRANCH  15  16
ENDBRANCH  13  15
ENDBRANCH   1  13
TORSDOF 1
ENDMDL
MODEL 6
REMARK VINA RESULT:    -3.763      2.667      5.582
REMARK INTER + INTRA:          -6.053
REMARK INTER:                  -5.452
REMARK INTRA:                  -0.600
REMARK UNBOUND:                -0.529
REMARK SMILES C=C1C=C[C@H](C(C)C)CCC(C)=CCC1
REMARK SMILES IDX 3 1 4 2 5 3 9 4 10 5 11 6 12 7 13 8 6 10 7 11 8 12 2 13 1 14
REMARK SMILES IDX 15 15 14 16
REMARK H PARENT
REMARK Flexibility Score: 70.00
ROOT
ATOM      1  C   UNL     1       4.629  -2.283  18.964  1.00  0.00    -0.001 C 
ATOM      2  C   UNL     1       3.829  -1.948  17.938  1.00  0.00    -0.023 C 
ENDROOT
BRANCH   2   3
ATOM      3  C   UNL     1       2.602  -2.701  17.432  1.00  0.00     0.014 C 
BRANCH   3   4
ATOM      4  C   UNL     1       1.255  -2.151  17.976  1.00  0.00     0.012 C 
BRANCH   4   5
ATOM      5  C   UNL     1       0.472  -3.156  18.840  1.00  0.00     0.031 C 
BRANCH   5   6
ATOM      6  C   UNL     1       0.397  -2.760  20.303  1.00  0.00    -0.077 C 
ATOM      7  C   UNL     1      -0.688  -1.799  20.729  1.00  0.00     0.039 C 
ATOM      8  C   UNL     1       1.170  -3.302  21.281  1.00  0.00    -0.028 CG0
ATOM      9  G   UNL     1       2.413  -4.160  21.124  1.00  0.00     0.000 G0
ENDBRANCH   5   6
ENDBRANCH   4   5
ENDBRANCH   3   4
BRANCH   3  10
ATOM     10  C   UNL     1       2.604  -2.821  15.875  1.00  0.00    -0.010 C 
ATOM     11  C   UNL     1       1.367  -2.151  15.248  1.00  0.00     0.008 C 
ATOM     12  C   UNL     1       3.872  -2.207  15.254  1.00  0.00     0.008 C 
ENDBRANCH   3  10
ENDBRANCH   2   3
BRANCH   1  13
ATOM     13  C   UNL     1       4.487  -3.492  19.794  1.00  0.00    -0.055 C 
ATOM     14  C   UNL     1       4.774  -4.685  19.265  1.00  0.00     0.012 C 
BRANCH  13  15
ATOM     15  C   UNL     1       3.767  -3.400  21.126  1.00  0.00     0.039 C 
BRANCH  15  16
ATOM     16  C   UNL     1       2.421  -4.160  21.133  1.00  0.00     0.032 CG0
ATOM     17  G   UNL     1       1.173  -3.306  21.277  1.00  0.00     0.000 G0
ENDBRANCH  15  16
ENDBRANCH  13  15
ENDBRANCH   1  13
TORSDOF 1
ENDMDL
MODEL 7
REMARK VINA RESULT:    -3.734      2.387      5.145
REMARK INTER + INTRA:          -6.010
REMARK INTER:                  -5.394
REMARK INTRA:                  -0.616
REMARK UNBOUND:                -0.529
REMARK SMILES C=C1C=C[C@H](C(C)C)CCC(C)=CCC1
REMARK SMILES IDX 3 1 4 2 5 3 9 4 10 5 11 6 12 7 13 8 6 10 7 11 8 12 2 13 1 14
REMARK SMILES IDX 15 15 14 16
REMARK H PARENT
REMARK Flexibility Score: 70.00
ROOT
ATOM      1  C   UNL     1       4.819  -1.833  18.674  1.00  0.00    -0.001 C 
ATOM      2  C   UNL     1       3.718  -1.830  17.903  1.00  0.00    -0.023 C 
ENDROOT
BRANCH   2   3
ATOM      3  C   UNL     1       3.183  -2.972  17.044  1.00  0.00     0.014 C 
BRANCH   3   4
ATOM      4  C   UNL     1       2.140  -3.870  17.764  1.00  0.00     0.012 C 
BRANCH   4   5
ATOM      5  C   UNL     1       1.714  -3.346  19.149  1.00  0.00     0.031 C 
BRANCH   5   6
ATOM      6  C   UNL     1       1.932  -4.351  20.264  1.00  0.00    -0.077 C 
ATOM      7  C   UNL     1       0.791  -5.270  20.631  1.00  0.00     0.039 C 
ATOM      8  C   UNL     1       3.124  -4.560  20.880  1.00  0.00    -0.028 CG0
ATOM      9  G   UNL     1       4.374  -3.700  20.819  1.00  0.00     0.000 G0
ENDBRANCH   5   6
ENDBRANCH   4   5
ENDBRANCH   3   4
BRANCH   3  10
ATOM     10  C   UNL     1       2.664  -2.458  15.663  1.00  0.00    -0.010 C 
ATOM     11  C   UNL     1       1.244  -2.969  15.360  1.00  0.00     0.008 C 
ATOM     12  C   UNL     1       2.667  -0.920  15.587  1.00  0.00     0.008 C 
ENDBRANCH   3  10
ENDBRANCH   2   3
BRANCH   1  13
ATOM     13  C   UNL     1       5.760  -2.958  18.810  1.00  0.00    -0.055 C 
ATOM     14  C   UNL     1       6.766  -3.077  17.939  1.00  0.00     0.012 C 
BRANCH  13  15
ATOM     15  C   UNL     1       5.424  -4.100  19.750  1.00  0.00     0.039 C 
BRANCH  15  16
ATOM     16  C   UNL     1       4.384  -3.705  20.824  1.00  0.00     0.032 CG0
ATOM     17  G   UNL     1       3.126  -4.555  20.879  1.00  0.00     0.000 G0
ENDBRANCH  15  16
ENDBRANCH  13  15
ENDBRANCH   1  13
TORSDOF 1
ENDMDL
MODEL 8
REMARK VINA RESULT:    -3.627      1.427      3.744
REMARK INTER + INTRA:          -5.852
REMARK INTER:                  -5.242
REMARK INTRA:                  -0.611
REMARK UNBOUND:                -0.529
REMARK SMILES C=C1C=C[C@H](C(C)C)CCC(C)=CCC1
REMARK SMILES IDX 3 1 4 2 5 3 9 4 10 5 11 6 12 7 13 8 6 10 7 11 8 12 2 13 1 14
REMARK SMILES IDX 15 15 14 16
REMARK H PARENT
REMARK Flexibility Score: 70.00
ROOT
ATOM      1  C   UNL     1       4.028  -4.428  18.676  1.00  0.00    -0.001 C 
ATOM      2  C   UNL     1       2.709  -4.491  18.929  1.00  0.00    -0.023 C 
ENDROOT
BRANCH   2   3
ATOM      3  C   UNL     1       1.820  -3.391  19.500  1.00  0.00     0.014 C 
BRANCH   3   4
ATOM      4  C   UNL     1       0.876  -2.736  18.455  1.00  0.00     0.012 C 
BRANCH   4   5
ATOM      5  C   UNL     1       1.262  -3.028  16.993  1.00  0.00     0.031 C 
BRANCH   5   6
ATOM      6  C   UNL     1       1.890  -1.840  16.289  1.00  0.00    -0.077 C 
ATOM      7  C   UNL     1       0.976  -0.769  15.742  1.00  0.00     0.039 C 
ATOM      8  C   UNL     1       3.228  -1.614  16.218  1.00  0.00    -0.028 CG0
ATOM      9  G   UNL     1       4.358  -2.575  16.543  1.00  0.00     0.000 G0
ENDBRANCH   5   6
ENDBRANCH   4   5
ENDBRANCH   3   4
BRANCH   3  10
ATOM     10  C   UNL     1       1.048  -3.878  20.768  1.00  0.00    -0.010 C 
ATOM     11  C   UNL     1       0.125  -5.069  20.453  1.00  0.00     0.008 C 
ATOM     12  C   UNL     1       2.007  -4.277  21.905  1.00  0.00     0.008 C 
ENDBRANCH   3  10
ENDBRANCH   2   3
BRANCH   1  13
ATOM     13  C   UNL     1       4.891  -3.264  18.942  1.00  0.00    -0.055 C 
ATOM     14  C   UNL     1       5.216  -2.968  20.204  1.00  0.00     0.012 C 
BRANCH  13  15
ATOM     15  C   UNL     1       5.169  -2.274  17.829  1.00  0.00     0.039 C 
BRANCH  15  16
ATOM     16  C   UNL     1       4.364  -2.574  16.544  1.00  0.00     0.032 CG0
ATOM     17  G   UNL     1       3.235  -1.610  16.222  1.00  0.00     0.000 G0
ENDBRANCH  15  16
ENDBRANCH  13  15
ENDBRANCH   1  13
TORSDOF 1
ENDMDL
MODEL 9
REMARK VINA RESULT:    -3.607      2.802      5.105
REMARK INTER + INTRA:          -5.823
REMARK INTER:                  -5.518
REMARK INTRA:                  -0.305
REMARK UNBOUND:                -0.529
REMARK SMILES C=C1C=C[C@H](C(C)C)CCC(C)=CCC1
REMARK SMILES IDX 3 1 4 2 5 3 9 4 10 5 11 6 12 7 13 8 6 10 7 11 8 12 2 13 1 14
REMARK SMILES IDX 15 15 14 16
REMARK H PARENT
REMARK Flexibility Score: 70.00
ROOT
ATOM      1  C   UNL     1       2.705  -3.144  16.875  1.00  0.00    -0.001 C 
ATOM      2  C   UNL     1       3.915  -2.798  17.349  1.00  0.00    -0.023 C 
ENDROOT
BRANCH   2   3
ATOM      3  C   UNL     1       4.300  -2.528  18.801  1.00  0.00     0.014 C 
BRANCH   3   4
ATOM      4  C   UNL     1       4.234  -3.781  19.715  1.00  0.00     0.012 C 
BRANCH   4   5
ATOM      5  C   UNL     1       3.244  -3.650  20.887  1.00  0.00     0.031 C 
BRANCH   5   6
ATOM      6  C   UNL     1       2.524  -4.946  21.213  1.00  0.00    -0.077 C 
ATOM      7  C   UNL     1       3.155  -5.881  22.218  1.00  0.00     0.039 C 
ATOM      8  C   UNL     1       1.290  -5.271  20.748  1.00  0.00    -0.028 CG0
ATOM      9  G   UNL     1       0.504  -4.605  19.632  1.00  0.00     0.000 G0
ENDBRANCH   5   6
ENDBRANCH   4   5
ENDBRANCH   3   4
BRANCH   3  10
ATOM     10  C   UNL     1       5.675  -1.795  18.903  1.00  0.00    -0.010 C 
ATOM     11  C   UNL     1       6.216  -1.792  20.345  1.00  0.00     0.008 C 
ATOM     12  C   UNL     1       6.730  -2.425  17.976  1.00  0.00     0.008 C 
ENDBRANCH   3  10
ENDBRANCH   2   3
BRANCH   1  13
ATOM     13  C   UNL     1       1.485  -3.298  17.686  1.00  0.00    -0.055 C 
ATOM     14  C   UNL     1       0.854  -2.207  18.130  1.00  0.00     0.012 C 
BRANCH  13  15
ATOM     15  C   UNL     1       1.120  -4.666  18.228  1.00  0.00     0.039 C 
BRANCH  15  16
ATOM     16  C   UNL     1       0.493  -4.603  19.640  1.00  0.00     0.032 CG0
ATOM     17  G   UNL     1       1.285  -5.266  20.752  1.00  0.00     0.000 G0
ENDBRANCH  15  16
ENDBRANCH  13  15
ENDBRANCH   1  13
TORSDOF 1
ENDMDL
