MODEL 1
REMARK VINA RESULT:    -4.216      0.000      0.000
REMARK INTER + INTRA:          -6.074
REMARK INTER:                  -5.694
REMARK INTRA:                  -0.379
REMARK UNBOUND:                -0.379
REMARK SMILES CC(=O)CCC=C(C)CCC=C(C)C
REMARK SMILES IDX 7 1 6 2 8 3 9 4 10 5 11 6 13 7 12 8 14 9 5 10 4 11 2 12 3 13
REMARK SMILES IDX 1 14
REMARK H PARENT
REMARK Flexibility Score: inf
ROOT
ATOM      1  C   UNL     1       1.707  37.444  -6.735  1.00  0.00    -0.077 C 
ATOM      2  C   UNL     1       1.101  36.242  -6.618  1.00  0.00    -0.028 C 
ATOM      3  C   UNL     1       3.069  37.579  -7.372  1.00  0.00     0.039 C 
ENDROOT
BRANCH   1   4
ATOM      4  C   UNL     1       1.005  38.683  -6.217  1.00  0.00     0.034 C 
BRANCH   4   5
ATOM      5  C   UNL     1       1.176  39.877  -7.168  1.00  0.00     0.032 C 
BRANCH   5   6
ATOM      6  C   UNL     1       0.875  39.500  -8.600  1.00  0.00    -0.028 C 
ATOM      7  C   UNL     1       1.199  39.474 -11.053  1.00  0.00     0.039 C 
ATOM      8  C   UNL     1       1.615  39.885  -9.664  1.00  0.00    -0.080 C 
ATOM      9  C   UNL     1       2.893  40.671  -9.511  1.00  0.00     0.039 C 
ENDBRANCH   5   6
ENDBRANCH   4   5
ENDBRANCH   1   4
BRANCH   2  10
ATOM     10  C   UNL     1       1.726  34.954  -7.097  1.00  0.00     0.035 C 
BRANCH  10  11
ATOM     11  C   UNL     1       0.894  34.314  -8.213  1.00  0.00     0.079 C 
BRANCH  11  12
ATOM     12  C   UNL     1       1.459  32.972  -8.596  1.00  0.00     0.130 C 
ATOM     13  O   UNL     1       2.231  32.406  -7.836  1.00  0.00    -0.300 OA
ATOM     14  C   UNL     1       1.104  32.316  -9.898  1.00  0.00     0.087 C 
ENDBRANCH  11  12
ENDBRANCH  10  11
ENDBRANCH   2  10
TORSDOF 6
ENDMDL
MODEL 2
REMARK VINA RESULT:    -3.060     15.611     18.190
REMARK INTER + INTRA:          -4.512
REMARK INTER:                  -4.404
REMARK INTRA:                  -0.108
REMARK UNBOUND:                -0.379
REMARK SMILES CC(=O)CCC=C(C)CCC=C(C)C
REMARK SMILES IDX 7 1 6 2 8 3 9 4 10 5 11 6 13 7 12 8 14 9 5 10 4 11 2 12 3 13
REMARK SMILES IDX 1 14
REMARK H PARENT
REMARK Flexibility Score: inf
ROOT
ATOM      1  C   UNL     1       3.869  33.676 -25.536  1.00  0.00    -0.077 C 
ATOM      2  C   UNL     1       2.752  34.198 -26.090  1.00  0.00    -0.028 C 
ATOM      3  C   UNL     1       4.763  34.502 -24.643  1.00  0.00     0.039 C 
ENDROOT
BRANCH   1   4
ATOM      4  C   UNL     1       4.231  32.232 -25.815  1.00  0.00     0.034 C 
BRANCH   4   5
ATOM      5  C   UNL     1       5.726  32.066 -26.124  1.00  0.00     0.032 C 
BRANCH   5   6
ATOM      6  C   UNL     1       6.560  32.044 -24.864  1.00  0.00    -0.028 C 
ATOM      7  C   UNL     1       8.415  31.341 -23.385  1.00  0.00     0.039 C 
ATOM      8  C   UNL     1       7.682  31.308 -24.701  1.00  0.00    -0.080 C 
ATOM      9  C   UNL     1       8.272  30.486 -25.820  1.00  0.00     0.039 C 
ENDBRANCH   5   6
ENDBRANCH   4   5
ENDBRANCH   1   4
BRANCH   2  10
ATOM     10  C   UNL     1       2.316  35.627 -25.876  1.00  0.00     0.035 C 
BRANCH  10  11
ATOM     11  C   UNL     1       1.217  35.719 -24.812  1.00  0.00     0.079 C 
BRANCH  11  12
ATOM     12  C   UNL     1       1.655  36.592 -23.667  1.00  0.00     0.130 C 
ATOM     13  O   UNL     1       2.365  36.122 -22.790  1.00  0.00    -0.300 OA
ATOM     14  C   UNL     1       1.230  38.028 -23.570  1.00  0.00     0.087 C 
ENDBRANCH  11  12
ENDBRANCH  10  11
ENDBRANCH   2  10
TORSDOF 6
ENDMDL
MODEL 3
REMARK VINA RESULT:    -3.009     16.076     18.852
REMARK INTER + INTRA:          -4.444
REMARK INTER:                  -4.358
REMARK INTRA:                  -0.086
REMARK UNBOUND:                -0.379
REMARK SMILES CC(=O)CCC=C(C)CCC=C(C)C
REMARK SMILES IDX 7 1 6 2 8 3 9 4 10 5 11 6 13 7 12 8 14 9 5 10 4 11 2 12 3 13
REMARK SMILES IDX 1 14
REMARK H PARENT
REMARK Flexibility Score: inf
ROOT
ATOM      1  C   UNL     1       4.792  32.465 -25.855  1.00  0.00    -0.077 C 
ATOM      2  C   UNL     1       4.549  33.784 -25.687  1.00  0.00    -0.028 C 
ATOM      3  C   UNL     1       3.676  31.449 -25.825  1.00  0.00     0.039 C 
ENDROOT
BRANCH   1   4
ATOM      4  C   UNL     1       6.216  31.995 -26.080  1.00  0.00     0.034 C 
BRANCH   4   5
ATOM      5  C   UNL     1       6.312  30.464 -26.125  1.00  0.00     0.032 C 
BRANCH   5   6
ATOM      6  C   UNL     1       7.748  29.992 -26.125  1.00  0.00    -0.028 C 
ATOM      7  C   UNL     1      10.070  29.797 -25.292  1.00  0.00     0.039 C 
ATOM      8  C   UNL     1       8.654  30.299 -25.170  1.00  0.00    -0.080 C 
ATOM      9  C   UNL     1       8.286  31.086 -23.937  1.00  0.00     0.039 C 
ENDBRANCH   5   6
ENDBRANCH   4   5
ENDBRANCH   1   4
BRANCH   2  10
ATOM     10  C   UNL     1       3.167  34.342 -25.449  1.00  0.00     0.035 C 
BRANCH  10  11
ATOM     11  C   UNL     1       3.053  34.966 -24.054  1.00  0.00     0.079 C 
BRANCH  11  12
ATOM     12  C   UNL     1       2.012  36.054 -24.041  1.00  0.00     0.130 C 
ATOM     13  O   UNL     1       1.300  36.218 -25.021  1.00  0.00    -0.300 OA
ATOM     14  C   UNL     1       1.836  36.954 -22.853  1.00  0.00     0.087 C 
ENDBRANCH  11  12
ENDBRANCH  10  11
ENDBRANCH   2  10
TORSDOF 6
ENDMDL
MODEL 4
REMARK VINA RESULT:    -2.985     15.411     17.573
REMARK INTER + INTRA:          -4.412
REMARK INTER:                  -3.768
REMARK INTRA:                  -0.644
REMARK UNBOUND:                -0.379
REMARK SMILES CC(=O)CCC=C(C)CCC=C(C)C
REMARK SMILES IDX 7 1 6 2 8 3 9 4 10 5 11 6 13 7 12 8 14 9 5 10 4 11 2 12 3 13
REMARK SMILES IDX 1 14
REMARK H PARENT
REMARK Flexibility Score: inf
ROOT
ATOM      1  C   UNL     1       4.344  34.002 -25.572  1.00  0.00    -0.077 C 
ATOM      2  C   UNL     1       4.291  32.739 -26.048  1.00  0.00    -0.028 C 
ATOM      3  C   UNL     1       5.330  34.398 -24.499  1.00  0.00     0.039 C 
ENDROOT
BRANCH   1   4
ATOM      4  C   UNL     1       3.394  35.045 -26.125  1.00  0.00     0.034 C 
BRANCH   4   5
ATOM      5  C   UNL     1       2.006  34.958 -25.473  1.00  0.00     0.032 C 
BRANCH   5   6
ATOM      6  C   UNL     1       1.554  36.296 -24.937  1.00  0.00    -0.028 C 
ATOM      7  C   UNL     1       1.163  38.035 -23.221  1.00  0.00     0.039 C 
ATOM      8  C   UNL     1       1.681  36.686 -23.649  1.00  0.00    -0.080 C 
ATOM      9  C   UNL     1       2.383  35.838 -22.618  1.00  0.00     0.039 C 
ENDBRANCH   5   6
ENDBRANCH   4   5
ENDBRANCH   1   4
BRANCH   2  10
ATOM     10  C   UNL     1       5.191  31.633 -25.552  1.00  0.00     0.035 C 
BRANCH  10  11
ATOM     11  C   UNL     1       6.606  31.770 -26.124  1.00  0.00     0.079 C 
BRANCH  11  12
ATOM     12  C   UNL     1       7.615  31.130 -25.207  1.00  0.00     0.130 C 
ATOM     13  O   UNL     1       8.266  30.174 -25.603  1.00  0.00    -0.300 OA
ATOM     14  C   UNL     1       7.834  31.633 -23.810  1.00  0.00     0.087 C 
ENDBRANCH  11  12
ENDBRANCH  10  11
ENDBRANCH   2  10
TORSDOF 6
ENDMDL
MODEL 5
REMARK VINA RESULT:    -2.473      2.320      5.943
REMARK INTER + INTRA:          -3.720
REMARK INTER:                  -3.192
REMARK INTRA:                  -0.527
REMARK UNBOUND:                -0.379
REMARK SMILES CC(=O)CCC=C(C)CCC=C(C)C
REMARK SMILES IDX 7 1 6 2 8 3 9 4 10 5 11 6 13 7 12 8 14 9 5 10 4 11 2 12 3 13
REMARK SMILES IDX 1 14
REMARK H PARENT
REMARK Flexibility Score: inf
ROOT
ATOM      1  C   UNL     1       1.532  37.304  -6.951  1.00  0.00    -0.077 C 
ATOM      2  C   UNL     1       0.913  38.436  -6.549  1.00  0.00    -0.028 C 
ATOM      3  C   UNL     1       2.857  37.346  -7.675  1.00  0.00     0.039 C 
ENDROOT
BRANCH   1   4
ATOM      4  C   UNL     1       0.885  35.963  -6.667  1.00  0.00     0.034 C 
BRANCH   4   5
ATOM      5  C   UNL     1       1.822  34.793  -7.003  1.00  0.00     0.032 C 
BRANCH   5   6
ATOM      6  C   UNL     1       1.517  34.202  -8.360  1.00  0.00    -0.028 C 
ATOM      7  C   UNL     1       1.234  32.406 -10.038  1.00  0.00     0.039 C 
ATOM      8  C   UNL     1       1.523  32.879  -8.636  1.00  0.00    -0.080 C 
ATOM      9  C   UNL     1       1.754  31.836  -7.571  1.00  0.00     0.039 C 
ENDBRANCH   5   6
ENDBRANCH   4   5
ENDBRANCH   1   4
BRANCH   2  10
ATOM     10  C   UNL     1       1.477  39.814  -6.795  1.00  0.00     0.035 C 
BRANCH  10  11
ATOM     11  C   UNL     1       0.875  40.444  -8.056  1.00  0.00     0.079 C 
BRANCH  11  12
ATOM     12  C   UNL     1       1.823  40.317  -9.218  1.00  0.00     0.130 C 
ATOM     13  O   UNL     1       2.999  40.617  -9.071  1.00  0.00    -0.300 OA
ATOM     14  C   UNL     1       1.355  39.842 -10.562  1.00  0.00     0.087 C 
ENDBRANCH  11  12
ENDBRANCH  10  11
ENDBRANCH   2  10
TORSDOF 6
ENDMDL
MODEL 6
REMARK VINA RESULT:    -1.792     13.485     15.620
REMARK INTER + INTRA:          -2.800
REMARK INTER:                  -2.389
REMARK INTRA:                  -0.412
REMARK UNBOUND:                -0.379
REMARK SMILES CC(=O)CCC=C(C)CCC=C(C)C
REMARK SMILES IDX 7 1 6 2 8 3 9 4 10 5 11 6 13 7 12 8 14 9 5 10 4 11 2 12 3 13
REMARK SMILES IDX 1 14
REMARK H PARENT
REMARK Flexibility Score: inf
ROOT
ATOM      1  C   UNL     1      12.331  36.916 -17.671  1.00  0.00    -0.077 C 
ATOM      2  C   UNL     1      11.792  38.154 -17.712  1.00  0.00    -0.028 C 
ATOM      3  C   UNL     1      13.620  36.644 -16.933  1.00  0.00     0.039 C 
ENDROOT
BRANCH   1   4
ATOM      4  C   UNL     1      11.629  35.776 -18.380  1.00  0.00     0.034 C 
BRANCH   4   5
ATOM      5  C   UNL     1      11.694  35.924 -19.907  1.00  0.00     0.032 C 
BRANCH   5   6
ATOM      6  C   UNL     1      12.697  34.975 -20.520  1.00  0.00    -0.028 C 
ATOM      7  C   UNL     1      13.515  32.836 -21.456  1.00  0.00     0.039 C 
ATOM      8  C   UNL     1      12.423  33.702 -20.882  1.00  0.00    -0.080 C 
ATOM      9  C   UNL     1      11.034  33.121 -20.787  1.00  0.00     0.039 C 
ENDBRANCH   5   6
ENDBRANCH   4   5
ENDBRANCH   1   4
BRANCH   2  10
ATOM     10  C   UNL     1      12.424  39.351 -17.044  1.00  0.00     0.035 C 
BRANCH  10  11
ATOM     11  C   UNL     1      12.078  39.401 -15.552  1.00  0.00     0.079 C 
BRANCH  11  12
ATOM     12  C   UNL     1      11.170  40.565 -15.254  1.00  0.00     0.130 C 
ATOM     13  O   UNL     1       9.960  40.392 -15.228  1.00  0.00    -0.300 OA
ATOM     14  C   UNL     1      11.717  41.939 -15.000  1.00  0.00     0.087 C 
ENDBRANCH  11  12
ENDBRANCH  10  11
ENDBRANCH   2  10
TORSDOF 6
ENDMDL
MODEL 7
REMARK VINA RESULT:    -1.303     14.275     16.146
REMARK INTER + INTRA:          -2.139
REMARK INTER:                  -2.225
REMARK INTRA:                   0.086
REMARK UNBOUND:                -0.379
REMARK SMILES CC(=O)CCC=C(C)CCC=C(C)C
REMARK SMILES IDX 7 1 6 2 8 3 9 4 10 5 11 6 13 7 12 8 14 9 5 10 4 11 2 12 3 13
REMARK SMILES IDX 1 14
REMARK H PARENT
REMARK Flexibility Score: inf
ROOT
ATOM      1  C   UNL     1      12.669  36.347 -18.134  1.00  0.00    -0.077 C 
ATOM      2  C   UNL     1      12.169  36.707 -16.932  1.00  0.00    -0.028 C 
ATOM      3  C   UNL     1      14.156  36.220 -18.362  1.00  0.00     0.039 C 
ENDROOT
BRANCH   1   4
ATOM      4  C   UNL     1      11.718  36.064 -19.280  1.00  0.00     0.034 C 
BRANCH   4   5
ATOM      5  C   UNL     1      12.451  35.505 -20.508  1.00  0.00     0.032 C 
BRANCH   5   6
ATOM      6  C   UNL     1      12.023  34.090 -20.819  1.00  0.00    -0.028 C 
ATOM      7  C   UNL     1      12.320  31.730 -21.502  1.00  0.00     0.039 C 
ATOM      8  C   UNL     1      12.867  33.098 -21.183  1.00  0.00    -0.080 C 
ATOM      9  C   UNL     1      14.362  33.291 -21.228  1.00  0.00     0.039 C 
ENDBRANCH   5   6
ENDBRANCH   4   5
ENDBRANCH   1   4
BRANCH   2  10
ATOM     10  C   UNL     1      13.039  37.016 -15.737  1.00  0.00     0.035 C 
BRANCH  10  11
ATOM     11  C   UNL     1      13.322  38.519 -15.631  1.00  0.00     0.079 C 
BRANCH  11  12
ATOM     12  C   UNL     1      12.225  39.315 -16.287  1.00  0.00     0.130 C 
ATOM     13  O   UNL     1      12.194  39.406 -17.505  1.00  0.00    -0.300 OA
ATOM     14  C   UNL     1      11.171  40.011 -15.476  1.00  0.00     0.087 C 
ENDBRANCH  11  12
ENDBRANCH  10  11
ENDBRANCH   2  10
TORSDOF 6
ENDMDL
