MODEL 1
REMARK VINA RESULT:    -5.191      0.000      0.000
REMARK INTER + INTRA:          -8.060
REMARK INTER:                  -7.922
REMARK INTRA:                  -0.137
REMARK UNBOUND:                -0.137
REMARK SMILES CC1=CCC[C@@H](C)C(=O)C[C@@H](C(C)C)C(=O)C1
REMARK SMILES IDX 8 1 9 2 6 3 7 4 5 5 4 6 3 7 2 8 1 9 10 11 11 12 15 13 16 14
REMARK SMILES IDX 17 15 12 17 13 18 14 19
REMARK H PARENT
REMARK Flexibility Score: 70.00
ROOT
ATOM      1  C   UNL     1      -1.883 -12.331  31.018  1.00  0.00     0.136 C 
ATOM      2  O   UNL     1      -1.801 -11.157  30.682  1.00  0.00    -0.299 OA
ENDROOT
BRANCH   1   3
ATOM      3  C   UNL     1      -0.612 -13.166  31.009  1.00  0.00     0.053 C 
ATOM      4  C   UNL     1       0.463 -12.451  31.837  1.00  0.00     0.016 C 
BRANCH   3   5
ATOM      5  C   UNL     1      -0.096 -13.409  29.567  1.00  0.00     0.015 C 
BRANCH   5   6
ATOM      6  C   UNL     1      -1.160 -13.930  28.583  1.00  0.00     0.028 C 
BRANCH   6   7
ATOM      7  C   UNL     1      -1.554 -12.883  27.569  1.00  0.00    -0.028 C 
ATOM      8  C   UNL     1      -2.822 -12.525  27.256  1.00  0.00    -0.070 CG0
ATOM      9  C   UNL     1      -3.009 -11.422  26.244  1.00  0.00     0.039 C 
ATOM     10  G   UNL     1      -4.052 -13.231  27.802  1.00  0.00     0.000 G0
ENDBRANCH   6   7
ENDBRANCH   5   6
ENDBRANCH   3   5
ENDBRANCH   1   3
BRANCH   1  11
ATOM     11  C   UNL     1      -3.249 -12.828  31.458  1.00  0.00     0.087 C 
BRANCH  11  12
ATOM     12  C   UNL     1      -4.103 -13.638  30.443  1.00  0.00     0.066 C 
BRANCH  12  13
ATOM     13  C   UNL     1      -4.471 -12.841  29.196  1.00  0.00     0.140 C 
ATOM     14  O   UNL     1      -5.013 -11.755  29.352  1.00  0.00    -0.299 OA
BRANCH  13  15
ATOM     15  C   UNL     1      -4.065 -13.234  27.791  1.00  0.00     0.106 CG0
ATOM     16  G   UNL     1      -2.818 -12.537  27.273  1.00  0.00     0.000 G0
ENDBRANCH  13  15
ENDBRANCH  12  13
BRANCH  12  17
ATOM     17  C   UNL     1      -5.390 -14.227  31.109  1.00  0.00    -0.006 C 
ATOM     18  C   UNL     1      -6.209 -15.071  30.111  1.00  0.00     0.008 C 
ATOM     19  C   UNL     1      -5.070 -15.095  32.341  1.00  0.00     0.008 C 
ENDBRANCH  12  17
ENDBRANCH  11  12
ENDBRANCH   1  11
TORSDOF 1
ENDMDL
MODEL 2
REMARK VINA RESULT:    -4.830      1.868      4.577
REMARK INTER + INTRA:          -7.509
REMARK INTER:                  -7.758
REMARK INTRA:                   0.249
REMARK UNBOUND:                -0.137
REMARK SMILES CC1=CCC[C@@H](C)C(=O)C[C@@H](C(C)C)C(=O)C1
REMARK SMILES IDX 8 1 9 2 6 3 7 4 5 5 4 6 3 7 2 8 1 9 10 11 11 12 15 13 16 14
REMARK SMILES IDX 17 15 12 17 13 18 14 19
REMARK H PARENT
REMARK Flexibility Score: 70.00
ROOT
ATOM      1  C   UNL     1      -4.931 -14.007  30.245  1.00  0.00     0.136 C 
ATOM      2  O   UNL     1      -5.913 -14.628  29.861  1.00  0.00    -0.299 OA
ENDROOT
BRANCH   1   3
ATOM      3  C   UNL     1      -4.505 -14.170  31.696  1.00  0.00     0.053 C 
ATOM      4  C   UNL     1      -5.468 -15.139  32.394  1.00  0.00     0.016 C 
BRANCH   3   5
ATOM      5  C   UNL     1      -4.486 -12.811  32.443  1.00  0.00     0.015 C 
BRANCH   5   6
ATOM      6  C   UNL     1      -3.571 -11.744  31.814  1.00  0.00     0.028 C 
BRANCH   6   7
ATOM      7  C   UNL     1      -2.109 -12.062  32.018  1.00  0.00    -0.028 C 
ATOM      8  C   UNL     1      -1.164 -12.088  31.048  1.00  0.00    -0.070 CG0
ATOM      9  C   UNL     1       0.256 -12.386  31.463  1.00  0.00     0.039 C 
ATOM     10  G   UNL     1      -1.473 -11.921  29.570  1.00  0.00     0.000 G0
ENDBRANCH   6   7
ENDBRANCH   5   6
ENDBRANCH   3   5
ENDBRANCH   1   3
BRANCH   1  11
ATOM     11  C   UNL     1      -4.203 -13.163  29.213  1.00  0.00     0.087 C 
BRANCH  11  12
ATOM     12  C   UNL     1      -3.023 -13.806  28.432  1.00  0.00     0.066 C 
BRANCH  12  13
ATOM     13  C   UNL     1      -1.664 -13.232  28.817  1.00  0.00     0.140 C 
ATOM     14  O   UNL     1      -0.665 -13.793  28.387  1.00  0.00    -0.299 OA
BRANCH  13  15
ATOM     15  C   UNL     1      -1.477 -11.926  29.560  1.00  0.00     0.106 CG0
ATOM     16  G   UNL     1      -1.162 -12.076  31.039  1.00  0.00     0.000 G0
ENDBRANCH  13  15
ENDBRANCH  12  13
BRANCH  12  17
ATOM     17  C   UNL     1      -3.232 -13.712  26.884  1.00  0.00    -0.006 C 
ATOM     18  C   UNL     1      -4.594 -14.298  26.460  1.00  0.00     0.008 C 
ATOM     19  C   UNL     1      -3.135 -12.265  26.365  1.00  0.00     0.008 C 
ENDBRANCH  12  17
ENDBRANCH  11  12
ENDBRANCH   1  11
TORSDOF 1
ENDMDL
MODEL 3
REMARK VINA RESULT:    -4.813      1.759      4.614
REMARK INTER + INTRA:          -7.483
REMARK INTER:                  -7.489
REMARK INTRA:                   0.006
REMARK UNBOUND:                -0.137
REMARK SMILES CC1=CCC[C@@H](C)C(=O)C[C@@H](C(C)C)C(=O)C1
REMARK SMILES IDX 8 1 9 2 6 3 7 4 5 5 4 6 3 7 2 8 1 9 10 11 11 12 15 13 16 14
REMARK SMILES IDX 17 15 12 17 13 18 14 19
REMARK H PARENT
REMARK Flexibility Score: 70.00
ROOT
ATOM      1  C   UNL     1      -2.684 -11.287  28.322  1.00  0.00     0.136 C 
ATOM      2  O   UNL     1      -3.170 -10.173  28.183  1.00  0.00    -0.299 OA
ENDROOT
BRANCH   1   3
ATOM      3  C   UNL     1      -2.782 -12.259  27.156  1.00  0.00     0.053 C 
ATOM      4  C   UNL     1      -3.119 -11.478  25.880  1.00  0.00     0.016 C 
BRANCH   3   5
ATOM      5  C   UNL     1      -3.855 -13.350  27.409  1.00  0.00     0.015 C 
BRANCH   5   6
ATOM      6  C   UNL     1      -5.041 -12.895  28.281  1.00  0.00     0.028 C 
BRANCH   6   7
ATOM      7  C   UNL     1      -5.477 -13.971  29.247  1.00  0.00    -0.028 C 
ATOM      8  C   UNL     1      -5.162 -14.025  30.563  1.00  0.00    -0.070 CG0
ATOM      9  C   UNL     1      -5.734 -15.161  31.374  1.00  0.00     0.039 C 
ATOM     10  G   UNL     1      -4.202 -13.058  31.236  1.00  0.00     0.000 G0
ENDBRANCH   6   7
ENDBRANCH   5   6
ENDBRANCH   3   5
ENDBRANCH   1   3
BRANCH   1  11
ATOM     11  C   UNL     1      -1.984 -11.575  29.639  1.00  0.00     0.087 C 
BRANCH  11  12
ATOM     12  C   UNL     1      -1.806 -13.056  30.075  1.00  0.00     0.066 C 
BRANCH  12  13
ATOM     13  C   UNL     1      -2.746 -13.467  31.203  1.00  0.00     0.140 C 
ATOM     14  O   UNL     1      -2.260 -14.033  32.173  1.00  0.00    -0.299 OA
BRANCH  13  15
ATOM     15  C   UNL     1      -4.208 -13.077  31.271  1.00  0.00     0.106 CG0
ATOM     16  G   UNL     1      -5.154 -14.035  30.567  1.00  0.00     0.000 G0
ENDBRANCH  13  15
ENDBRANCH  12  13
BRANCH  12  17
ATOM     17  C   UNL     1      -0.324 -13.373  30.461  1.00  0.00    -0.006 C 
ATOM     18  C   UNL     1       0.594 -13.388  29.222  1.00  0.00     0.008 C 
ATOM     19  C   UNL     1       0.245 -12.371  31.483  1.00  0.00     0.008 C 
ENDBRANCH  12  17
ENDBRANCH  11  12
ENDBRANCH   1  11
TORSDOF 1
ENDMDL
MODEL 4
REMARK VINA RESULT:    -4.587      1.652      3.861
REMARK INTER + INTRA:          -7.138
REMARK INTER:                  -7.083
REMARK INTRA:                  -0.055
REMARK UNBOUND:                -0.137
REMARK SMILES CC1=CCC[C@@H](C)C(=O)C[C@@H](C(C)C)C(=O)C1
REMARK SMILES IDX 8 1 9 2 6 3 7 4 5 5 4 6 3 7 2 8 1 9 10 11 11 12 15 13 16 14
REMARK SMILES IDX 17 15 12 17 13 18 14 19
REMARK H PARENT
REMARK Flexibility Score: 70.00
ROOT
ATOM      1  C   UNL     1      -3.437 -10.686  30.163  1.00  0.00     0.136 C 
ATOM      2  O   UNL     1      -4.033  -9.919  29.418  1.00  0.00    -0.299 OA
ENDROOT
BRANCH   1   3
ATOM      3  C   UNL     1      -4.212 -11.311  31.313  1.00  0.00     0.053 C 
ATOM      4  C   UNL     1      -4.547 -10.223  32.340  1.00  0.00     0.016 C 
BRANCH   3   5
ATOM      5  C   UNL     1      -3.410 -12.452  31.990  1.00  0.00     0.015 C 
BRANCH   5   6
ATOM      6  C   UNL     1      -3.679 -13.856  31.416  1.00  0.00     0.028 C 
BRANCH   6   7
ATOM      7  C   UNL     1      -4.871 -13.869  30.490  1.00  0.00    -0.028 C 
ATOM      8  C   UNL     1      -4.822 -13.977  29.141  1.00  0.00    -0.070 CG0
ATOM      9  C   UNL     1      -6.132 -14.015  28.393  1.00  0.00     0.039 C 
ATOM     10  G   UNL     1      -3.527 -13.972  28.346  1.00  0.00     0.000 G0
ENDBRANCH   6   7
ENDBRANCH   5   6
ENDBRANCH   3   5
ENDBRANCH   1   3
BRANCH   1  11
ATOM     11  C   UNL     1      -1.983 -10.975  29.833  1.00  0.00     0.087 C 
BRANCH  11  12
ATOM     12  C   UNL     1      -1.664 -12.125  28.838  1.00  0.00     0.066 C 
BRANCH  12  13
ATOM     13  C   UNL     1      -2.894 -12.632  28.092  1.00  0.00     0.140 C 
ATOM     14  O   UNL     1      -3.316 -11.958  27.162  1.00  0.00    -0.299 OA
BRANCH  13  15
ATOM     15  C   UNL     1      -3.524 -13.989  28.325  1.00  0.00     0.106 CG0
ATOM     16  G   UNL     1      -4.815 -13.961  29.127  1.00  0.00     0.000 G0
ENDBRANCH  13  15
ENDBRANCH  12  13
BRANCH  12  17
ATOM     17  C   UNL     1      -0.928 -13.313  29.540  1.00  0.00    -0.006 C 
ATOM     18  C   UNL     1       0.067 -14.006  28.587  1.00  0.00     0.008 C 
ATOM     19  C   UNL     1      -0.170 -12.869  30.805  1.00  0.00     0.008 C 
ENDBRANCH  12  17
ENDBRANCH  11  12
ENDBRANCH   1  11
TORSDOF 1
ENDMDL
MODEL 5
REMARK VINA RESULT:    -4.587      1.731      4.101
REMARK INTER + INTRA:          -7.137
REMARK INTER:                  -7.727
REMARK INTRA:                   0.590
REMARK UNBOUND:                -0.137
REMARK SMILES CC1=CCC[C@@H](C)C(=O)C[C@@H](C(C)C)C(=O)C1
REMARK SMILES IDX 8 1 9 2 6 3 7 4 5 5 4 6 3 7 2 8 1 9 10 11 11 12 15 13 16 14
REMARK SMILES IDX 17 15 12 17 13 18 14 19
REMARK H PARENT
REMARK Flexibility Score: 70.00
ROOT
ATOM      1  C   UNL     1      -1.192 -13.347  29.521  1.00  0.00     0.136 C 
ATOM      2  O   UNL     1      -0.087 -13.867  29.452  1.00  0.00    -0.299 OA
ENDROOT
BRANCH   1   3
ATOM      3  C   UNL     1      -1.644 -12.808  30.870  1.00  0.00     0.053 C 
ATOM      4  C   UNL     1      -0.442 -12.767  31.821  1.00  0.00     0.016 C 
BRANCH   3   5
ATOM      5  C   UNL     1      -2.776 -13.673  31.483  1.00  0.00     0.015 C 
BRANCH   5   6
ATOM      6  C   UNL     1      -4.202 -13.222  31.114  1.00  0.00     0.028 C 
BRANCH   6   7
ATOM      7  C   UNL     1      -5.131 -14.395  30.911  1.00  0.00    -0.028 C 
ATOM      8  C   UNL     1      -5.806 -14.680  29.773  1.00  0.00    -0.070 CG0
ATOM      9  C   UNL     1      -6.655 -15.928  29.756  1.00  0.00     0.039 C 
ATOM     10  G   UNL     1      -5.821 -13.770  28.556  1.00  0.00     0.000 G0
ENDBRANCH   6   7
ENDBRANCH   5   6
ENDBRANCH   3   5
ENDBRANCH   1   3
BRANCH   1  11
ATOM     11  C   UNL     1      -1.990 -13.249  28.233  1.00  0.00     0.087 C 
BRANCH  11  12
ATOM     12  C   UNL     1      -3.422 -12.648  28.292  1.00  0.00     0.066 C 
BRANCH  12  13
ATOM     13  C   UNL     1      -4.502 -13.622  27.835  1.00  0.00     0.140 C 
ATOM     14  O   UNL     1      -4.226 -14.396  26.929  1.00  0.00    -0.299 OA
BRANCH  13  15
ATOM     15  C   UNL     1      -5.832 -13.800  28.536  1.00  0.00     0.106 CG0
ATOM     16  G   UNL     1      -5.785 -14.681  29.774  1.00  0.00     0.000 G0
ENDBRANCH  13  15
ENDBRANCH  12  13
BRANCH  12  17
ATOM     17  C   UNL     1      -3.523 -11.310  27.488  1.00  0.00    -0.006 C 
ATOM     18  C   UNL     1      -2.970 -10.119  28.297  1.00  0.00     0.008 C 
ATOM     19  C   UNL     1      -2.781 -11.376  26.140  1.00  0.00     0.008 C 
ENDBRANCH  12  17
ENDBRANCH  11  12
ENDBRANCH   1  11
TORSDOF 1
ENDMDL
MODEL 6
REMARK VINA RESULT:    -4.475      1.902      4.173
REMARK INTER + INTRA:          -6.967
REMARK INTER:                  -7.315
REMARK INTRA:                   0.349
REMARK UNBOUND:                -0.137
REMARK SMILES CC1=CCC[C@@H](C)C(=O)C[C@@H](C(C)C)C(=O)C1
REMARK SMILES IDX 8 1 9 2 6 3 7 4 5 5 4 6 3 7 2 8 1 9 10 11 11 12 15 13 16 14
REMARK SMILES IDX 17 15 12 17 13 18 14 19
REMARK H PARENT
REMARK Flexibility Score: 70.00
ROOT
ATOM      1  C   UNL     1      -4.998 -14.001  30.260  1.00  0.00     0.136 C 
ATOM      2  O   UNL     1      -5.352 -15.069  30.740  1.00  0.00    -0.299 OA
ENDROOT
BRANCH   1   3
ATOM      3  C   UNL     1      -5.479 -13.653  28.859  1.00  0.00     0.053 C 
ATOM      4  C   UNL     1      -6.810 -14.367  28.596  1.00  0.00     0.016 C 
BRANCH   3   5
ATOM      5  C   UNL     1      -4.439 -14.055  27.781  1.00  0.00     0.015 C 
BRANCH   5   6
ATOM      6  C   UNL     1      -3.224 -13.115  27.678  1.00  0.00     0.028 C 
BRANCH   6   7
ATOM      7  C   UNL     1      -1.920 -13.850  27.883  1.00  0.00    -0.028 C 
ATOM      8  C   UNL     1      -0.913 -13.459  28.699  1.00  0.00    -0.070 CG0
ATOM      9  C   UNL     1       0.295 -14.358  28.800  1.00  0.00     0.039 C 
ATOM     10  G   UNL     1      -0.901 -12.133  29.441  1.00  0.00     0.000 G0
ENDBRANCH   6   7
ENDBRANCH   5   6
ENDBRANCH   3   5
ENDBRANCH   1   3
BRANCH   1  11
ATOM     11  C   UNL     1      -4.144 -13.100  31.137  1.00  0.00     0.087 C 
BRANCH  11  12
ATOM     12  C   UNL     1      -3.374 -11.930  30.466  1.00  0.00     0.066 C 
BRANCH  12  13
ATOM     13  C   UNL     1      -1.861 -12.039  30.621  1.00  0.00     0.140 C 
ATOM     14  O   UNL     1      -1.413 -12.195  31.749  1.00  0.00    -0.299 OA
BRANCH  13  15
ATOM     15  C   UNL     1      -0.895 -12.129  29.459  1.00  0.00     0.106 CG0
ATOM     16  G   UNL     1      -0.909 -13.458  28.722  1.00  0.00     0.000 G0
ENDBRANCH  13  15
ENDBRANCH  12  13
BRANCH  12  17
ATOM     17  C   UNL     1      -3.872 -10.538  30.978  1.00  0.00    -0.006 C 
ATOM     18  C   UNL     1      -4.859  -9.889  29.987  1.00  0.00     0.008 C 
ATOM     19  C   UNL     1      -4.548 -10.627  32.359  1.00  0.00     0.008 C 
ENDBRANCH  12  17
ENDBRANCH  11  12
ENDBRANCH   1  11
TORSDOF 1
ENDMDL
MODEL 7
REMARK VINA RESULT:    -4.464      1.639      2.101
REMARK INTER + INTRA:          -6.950
REMARK INTER:                  -7.658
REMARK INTRA:                   0.707
REMARK UNBOUND:                -0.137
REMARK SMILES CC1=CCC[C@@H](C)C(=O)C[C@@H](C(C)C)C(=O)C1
REMARK SMILES IDX 8 1 9 2 6 3 7 4 5 5 4 6 3 7 2 8 1 9 10 11 11 12 15 13 16 14
REMARK SMILES IDX 17 15 12 17 13 18 14 19
REMARK H PARENT
REMARK Flexibility Score: 70.00
ROOT
ATOM      1  C   UNL     1      -1.894 -13.026  30.338  1.00  0.00     0.136 C 
ATOM      2  O   UNL     1      -1.418 -13.741  29.467  1.00  0.00    -0.299 OA
ENDROOT
BRANCH   1   3
ATOM      3  C   UNL     1      -1.130 -11.769  30.726  1.00  0.00     0.053 C 
ATOM      4  C   UNL     1       0.042 -12.156  31.636  1.00  0.00     0.016 C 
BRANCH   3   5
ATOM      5  C   UNL     1      -2.044 -10.743  31.445  1.00  0.00     0.015 C 
BRANCH   5   6
ATOM      6  C   UNL     1      -3.008  -9.980  30.518  1.00  0.00     0.028 C 
BRANCH   6   7
ATOM      7  C   UNL     1      -2.726 -10.255  29.060  1.00  0.00    -0.028 C 
ATOM      8  C   UNL     1      -3.501 -10.995  28.231  1.00  0.00    -0.070 CG0
ATOM      9  C   UNL     1      -3.069 -11.116  26.791  1.00  0.00     0.039 C 
ATOM     10  G   UNL     1      -4.721 -11.774  28.696  1.00  0.00     0.000 G0
ENDBRANCH   6   7
ENDBRANCH   5   6
ENDBRANCH   3   5
ENDBRANCH   1   3
BRANCH   1  11
ATOM     11  C   UNL     1      -3.234 -13.444  30.918  1.00  0.00     0.087 C 
BRANCH  11  12
ATOM     12  C   UNL     1      -4.276 -14.103  29.971  1.00  0.00     0.066 C 
BRANCH  12  13
ATOM     13  C   UNL     1      -4.544 -13.287  28.711  1.00  0.00     0.140 C 
ATOM     14  O   UNL     1      -4.759 -13.896  27.672  1.00  0.00    -0.299 OA
BRANCH  13  15
ATOM     15  C   UNL     1      -4.719 -11.783  28.699  1.00  0.00     0.106 CG0
ATOM     16  G   UNL     1      -3.501 -11.006  28.227  1.00  0.00     0.000 G0
ENDBRANCH  13  15
ENDBRANCH  12  13
BRANCH  12  17
ATOM     17  C   UNL     1      -5.618 -14.413  30.712  1.00  0.00    -0.006 C 
ATOM     18  C   UNL     1      -6.544 -15.302  29.858  1.00  0.00     0.008 C 
ATOM     19  C   UNL     1      -5.394 -15.099  32.073  1.00  0.00     0.008 C 
ENDBRANCH  12  17
ENDBRANCH  11  12
ENDBRANCH   1  11
TORSDOF 1
ENDMDL
MODEL 8
REMARK VINA RESULT:    -4.427      1.918      4.020
REMARK INTER + INTRA:          -6.894
REMARK INTER:                  -7.675
REMARK INTRA:                   0.781
REMARK UNBOUND:                -0.137
REMARK SMILES CC1=CCC[C@@H](C)C(=O)C[C@@H](C(C)C)C(=O)C1
REMARK SMILES IDX 8 1 9 2 6 3 7 4 5 5 4 6 3 7 2 8 1 9 10 11 11 12 15 13 16 14
REMARK SMILES IDX 17 15 12 17 13 18 14 19
REMARK H PARENT
REMARK Flexibility Score: 70.00
ROOT
ATOM      1  C   UNL     1      -5.369 -14.370  29.918  1.00  0.00     0.136 C 
ATOM      2  O   UNL     1      -5.743 -15.150  30.783  1.00  0.00    -0.299 OA
ENDROOT
BRANCH   1   3
ATOM      3  C   UNL     1      -6.194 -14.269  28.643  1.00  0.00     0.053 C 
ATOM      4  C   UNL     1      -7.460 -15.121  28.798  1.00  0.00     0.016 C 
BRANCH   3   5
ATOM      5  C   UNL     1      -5.389 -14.734  27.402  1.00  0.00     0.015 C 
BRANCH   5   6
ATOM      6  C   UNL     1      -3.898 -14.350  27.422  1.00  0.00     0.028 C 
BRANCH   6   7
ATOM      7  C   UNL     1      -3.600 -13.189  26.503  1.00  0.00    -0.028 C 
ATOM      8  C   UNL     1      -2.999 -12.030  26.864  1.00  0.00    -0.070 CG0
ATOM      9  C   UNL     1      -2.750 -11.006  25.784  1.00  0.00     0.039 C 
ATOM     10  G   UNL     1      -2.648 -11.679  28.300  1.00  0.00     0.000 G0
ENDBRANCH   6   7
ENDBRANCH   5   6
ENDBRANCH   3   5
ENDBRANCH   1   3
BRANCH   1  11
ATOM     11  C   UNL     1      -4.134 -13.541  30.225  1.00  0.00     0.087 C 
BRANCH  11  12
ATOM     12  C   UNL     1      -4.296 -12.004  30.386  1.00  0.00     0.066 C 
BRANCH  12  13
ATOM     13  C   UNL     1      -3.788 -11.217  29.183  1.00  0.00     0.140 C 
ATOM     14  O   UNL     1      -4.255 -10.102  28.991  1.00  0.00    -0.299 OA
BRANCH  13  15
ATOM     15  C   UNL     1      -2.632 -11.658  28.310  1.00  0.00     0.106 CG0
ATOM     16  G   UNL     1      -3.014 -12.010  26.882  1.00  0.00     0.000 G0
ENDBRANCH  13  15
ENDBRANCH  12  13
BRANCH  12  17
ATOM     17  C   UNL     1      -3.622 -11.484  31.698  1.00  0.00    -0.006 C 
ATOM     18  C   UNL     1      -2.108 -11.260  31.507  1.00  0.00     0.008 C 
ATOM     19  C   UNL     1      -4.253 -10.173  32.204  1.00  0.00     0.008 C 
ENDBRANCH  12  17
ENDBRANCH  11  12
ENDBRANCH   1  11
TORSDOF 1
ENDMDL
MODEL 9
REMARK VINA RESULT:    -4.404      2.279      4.085
REMARK INTER + INTRA:          -6.858
REMARK INTER:                  -7.494
REMARK INTRA:                   0.636
REMARK UNBOUND:                -0.137
REMARK SMILES CC1=CCC[C@@H](C)C(=O)C[C@@H](C(C)C)C(=O)C1
REMARK SMILES IDX 8 1 9 2 6 3 7 4 5 5 4 6 3 7 2 8 1 9 10 11 11 12 15 13 16 14
REMARK SMILES IDX 17 15 12 17 13 18 14 19
REMARK H PARENT
REMARK Flexibility Score: 70.00
ROOT
ATOM      1  C   UNL     1      -1.066 -13.198  29.545  1.00  0.00     0.136 C 
ATOM      2  O   UNL     1      -0.096 -13.187  28.798  1.00  0.00    -0.299 OA
ENDROOT
BRANCH   1   3
ATOM      3  C   UNL     1      -0.812 -13.170  31.045  1.00  0.00     0.053 C 
ATOM      4  C   UNL     1      -2.061 -13.682  31.773  1.00  0.00     0.016 C 
BRANCH   3   5
ATOM      5  C   UNL     1      -0.458 -11.743  31.538  1.00  0.00     0.015 C 
BRANCH   5   6
ATOM      6  C   UNL     1      -1.248 -10.611  30.854  1.00  0.00     0.028 C 
BRANCH   6   7
ATOM      7  C   UNL     1      -2.372 -10.101  31.724  1.00  0.00    -0.028 C 
ATOM      8  C   UNL     1      -3.656 -10.531  31.688  1.00  0.00    -0.070 CG0
ATOM      9  C   UNL     1      -4.625  -9.925  32.672  1.00  0.00     0.039 C 
ATOM     10  G   UNL     1      -4.182 -11.518  30.658  1.00  0.00     0.000 G0
ENDBRANCH   6   7
ENDBRANCH   5   6
ENDBRANCH   3   5
ENDBRANCH   1   3
BRANCH   1  11
ATOM     11  C   UNL     1      -2.437 -13.192  28.893  1.00  0.00     0.087 C 
BRANCH  11  12
ATOM     12  C   UNL     1      -2.958 -11.863  28.278  1.00  0.00     0.066 C 
BRANCH  12  13
ATOM     13  C   UNL     1      -3.875 -11.086  29.217  1.00  0.00     0.140 C 
ATOM     14  O   UNL     1      -4.506 -10.147  28.750  1.00  0.00    -0.299 OA
BRANCH  13  15
ATOM     15  C   UNL     1      -4.175 -11.500  30.642  1.00  0.00     0.106 CG0
ATOM     16  G   UNL     1      -3.677 -10.532  31.703  1.00  0.00     0.000 G0
ENDBRANCH  13  15
ENDBRANCH  12  13
BRANCH  12  17
ATOM     17  C   UNL     1      -3.665 -12.098  26.903  1.00  0.00    -0.006 C 
ATOM     18  C   UNL     1      -2.928 -11.376  25.757  1.00  0.00     0.008 C 
ATOM     19  C   UNL     1      -3.780 -13.592  26.549  1.00  0.00     0.008 C 
ENDBRANCH  12  17
ENDBRANCH  11  12
ENDBRANCH   1  11
TORSDOF 1
ENDMDL
