MODEL 1
REMARK VINA RESULT:    -2.628      0.000      0.000
REMARK INTER + INTRA:          -4.671
REMARK INTER:                  -4.164
REMARK INTRA:                  -0.507
REMARK UNBOUND:                -0.507
REMARK SMILES CCCCCCCCCCCC(=O)[O-]
REMARK SMILES IDX 7 1 8 2 9 3 10 4 11 5 12 6 13 7 14 8 6 9 5 10 4 11 3 12 2 13
REMARK SMILES IDX 1 14
REMARK H PARENT
REMARK Flexibility Score: inf
ROOT
ATOM      1  C   UNL     1      -4.961  39.743  22.777  1.00  0.00     0.000 C 
ENDROOT
BRANCH   1   2
ATOM      2  C   UNL     1      -4.398  38.762  23.825  1.00  0.00     0.000 C 
BRANCH   2   3
ATOM      3  C   UNL     1      -5.446  38.146  24.773  1.00  0.00     0.000 C 
BRANCH   3   4
ATOM      4  C   UNL     1      -5.065  36.772  25.359  1.00  0.00     0.006 C 
BRANCH   4   5
ATOM      5  C   UNL     1      -6.125  35.678  25.154  1.00  0.00     0.053 C 
BRANCH   5   6
ATOM      6  C   UNL     1      -5.829  34.826  23.959  1.00  0.00     0.041 C 
ATOM      7  O   UNL     1      -6.110  33.597  23.972  1.00  0.00    -0.550 OA
ATOM      8  O   UNL     1      -5.210  35.378  22.845  1.00  0.00    -0.550 OA
ENDBRANCH   5   6
ENDBRANCH   4   5
ENDBRANCH   3   4
ENDBRANCH   2   3
ENDBRANCH   1   2
BRANCH   1   9
ATOM      9  C   UNL     1      -5.603  39.079  21.546  1.00  0.00     0.000 C 
BRANCH   9  10
ATOM     10  C   UNL     1      -4.684  38.047  20.876  1.00  0.00    -0.000 C 
BRANCH  10  11
ATOM     11  C   UNL     1      -5.458  37.213  19.844  1.00  0.00    -0.000 C 
BRANCH  11  12
ATOM     12  C   UNL     1      -4.765  35.879  19.511  1.00  0.00    -0.000 C 
BRANCH  12  13
ATOM     13  C   UNL     1      -5.721  34.706  19.232  1.00  0.00    -0.003 C 
ATOM     14  C   UNL     1      -5.245  33.805  18.092  1.00  0.00     0.004 C 
ENDBRANCH  12  13
ENDBRANCH  11  12
ENDBRANCH  10  11
ENDBRANCH   9  10
ENDBRANCH   1   9
TORSDOF 10
ENDMDL
MODEL 2
REMARK VINA RESULT:    -2.519      2.284      5.667
REMARK INTER + INTRA:          -4.498
REMARK INTER:                  -3.718
REMARK INTRA:                  -0.779
REMARK UNBOUND:                -0.507
REMARK SMILES CCCCCCCCCCCC(=O)[O-]
REMARK SMILES IDX 7 1 8 2 9 3 10 4 11 5 12 6 13 7 14 8 6 9 5 10 4 11 3 12 2 13
REMARK SMILES IDX 1 14
REMARK H PARENT
REMARK Flexibility Score: inf
ROOT
ATOM      1  C   UNL     1      -4.244  34.830  21.047  1.00  0.00     0.000 C 
ENDROOT
BRANCH   1   2
ATOM      2  C   UNL     1      -5.379  35.383  20.162  1.00  0.00     0.000 C 
BRANCH   2   3
ATOM      3  C   UNL     1      -5.131  36.789  19.583  1.00  0.00     0.000 C 
BRANCH   3   4
ATOM      4  C   UNL     1      -5.671  37.952  20.440  1.00  0.00     0.006 C 
BRANCH   4   5
ATOM      5  C   UNL     1      -4.668  38.500  21.468  1.00  0.00     0.053 C 
BRANCH   5   6
ATOM      6  C   UNL     1      -5.263  39.589  22.306  1.00  0.00     0.041 C 
ATOM      7  O   UNL     1      -5.247  39.499  23.563  1.00  0.00    -0.550 OA
ATOM      8  O   UNL     1      -5.866  40.684  21.702  1.00  0.00    -0.550 OA
ENDBRANCH   5   6
ENDBRANCH   4   5
ENDBRANCH   3   4
ENDBRANCH   2   3
ENDBRANCH   1   2
BRANCH   1   9
ATOM      9  C   UNL     1      -4.710  34.054  22.291  1.00  0.00     0.000 C 
BRANCH   9  10
ATOM     10  C   UNL     1      -6.122  34.449  22.747  1.00  0.00    -0.000 C 
BRANCH  10  11
ATOM     11  C   UNL     1      -6.125  34.864  24.227  1.00  0.00    -0.000 C 
BRANCH  11  12
ATOM     12  C   UNL     1      -5.296  36.133  24.494  1.00  0.00    -0.000 C 
BRANCH  12  13
ATOM     13  C   UNL     1      -5.696  36.912  25.760  1.00  0.00    -0.003 C 
ATOM     14  C   UNL     1      -4.606  37.869  26.242  1.00  0.00     0.004 C 
ENDBRANCH  12  13
ENDBRANCH  11  12
ENDBRANCH  10  11
ENDBRANCH   9  10
ENDBRANCH   1   9
TORSDOF 10
ENDMDL
MODEL 3
REMARK VINA RESULT:    -2.378      2.052      4.772
REMARK INTER + INTRA:          -4.275
REMARK INTER:                  -4.122
REMARK INTRA:                  -0.154
REMARK UNBOUND:                -0.507
REMARK SMILES CCCCCCCCCCCC(=O)[O-]
REMARK SMILES IDX 7 1 8 2 9 3 10 4 11 5 12 6 13 7 14 8 6 9 5 10 4 11 3 12 2 13
REMARK SMILES IDX 1 14
REMARK H PARENT
REMARK Flexibility Score: inf
ROOT
ATOM      1  C   UNL     1      -5.951  36.114  24.145  1.00  0.00     0.000 C 
ENDROOT
BRANCH   1   2
ATOM      2  C   UNL     1      -6.125  34.589  24.293  1.00  0.00     0.000 C 
BRANCH   2   3
ATOM      3  C   UNL     1      -5.713  33.761  23.060  1.00  0.00     0.000 C 
BRANCH   3   4
ATOM      4  C   UNL     1      -4.985  34.554  21.956  1.00  0.00     0.006 C 
BRANCH   4   5
ATOM      5  C   UNL     1      -5.914  35.377  21.049  1.00  0.00     0.053 C 
BRANCH   5   6
ATOM      6  C   UNL     1      -5.455  35.372  19.624  1.00  0.00     0.041 C 
ATOM      7  O   UNL     1      -4.878  36.382  19.141  1.00  0.00    -0.550 OA
ATOM      8  O   UNL     1      -5.696  34.267  18.818  1.00  0.00    -0.550 OA
ENDBRANCH   5   6
ENDBRANCH   4   5
ENDBRANCH   3   4
ENDBRANCH   2   3
ENDBRANCH   1   2
BRANCH   1   9
ATOM      9  C   UNL     1      -5.790  36.881  25.469  1.00  0.00     0.000 C 
BRANCH   9  10
ATOM     10  C   UNL     1      -4.781  38.034  25.372  1.00  0.00    -0.000 C 
BRANCH  10  11
ATOM     11  C   UNL     1      -5.077  38.920  24.152  1.00  0.00    -0.000 C 
BRANCH  11  12
ATOM     12  C   UNL     1      -4.437  38.391  22.857  1.00  0.00    -0.000 C 
BRANCH  12  13
ATOM     13  C   UNL     1      -5.066  38.926  21.558  1.00  0.00    -0.003 C 
ATOM     14  C   UNL     1      -6.066  40.058  21.801  1.00  0.00     0.004 C 
ENDBRANCH  12  13
ENDBRANCH  11  12
ENDBRANCH  10  11
ENDBRANCH   9  10
ENDBRANCH   1   9
TORSDOF 10
ENDMDL
MODEL 4
REMARK VINA RESULT:    -2.203      1.659      4.436
REMARK INTER + INTRA:          -3.998
REMARK INTER:                  -3.254
REMARK INTRA:                  -0.745
REMARK UNBOUND:                -0.507
REMARK SMILES CCCCCCCCCCCC(=O)[O-]
REMARK SMILES IDX 7 1 8 2 9 3 10 4 11 5 12 6 13 7 14 8 6 9 5 10 4 11 3 12 2 13
REMARK SMILES IDX 1 14
REMARK H PARENT
REMARK Flexibility Score: inf
ROOT
ATOM      1  C   UNL     1      -4.310  38.635  23.376  1.00  0.00     0.000 C 
ENDROOT
BRANCH   1   2
ATOM      2  C   UNL     1      -5.011  39.549  22.351  1.00  0.00     0.000 C 
BRANCH   2   3
ATOM      3  C   UNL     1      -5.818  38.813  21.263  1.00  0.00     0.000 C 
BRANCH   3   4
ATOM      4  C   UNL     1      -5.385  37.357  21.003  1.00  0.00     0.006 C 
BRANCH   4   5
ATOM      5  C   UNL     1      -5.133  37.024  19.524  1.00  0.00     0.053 C 
BRANCH   5   6
ATOM      6  C   UNL     1      -5.319  35.566  19.237  1.00  0.00     0.041 C 
ATOM      7  O   UNL     1      -4.799  35.052  18.211  1.00  0.00    -0.550 OA
ATOM      8  O   UNL     1      -6.093  34.782  20.083  1.00  0.00    -0.550 OA
ENDBRANCH   5   6
ENDBRANCH   4   5
ENDBRANCH   3   4
ENDBRANCH   2   3
ENDBRANCH   1   2
BRANCH   1   9
ATOM      9  C   UNL     1      -4.882  38.701  24.803  1.00  0.00     0.000 C 
BRANCH   9  10
ATOM     10  C   UNL     1      -4.843  37.346  25.524  1.00  0.00    -0.000 C 
BRANCH  10  11
ATOM     11  C   UNL     1      -6.120  36.539  25.245  1.00  0.00    -0.000 C 
BRANCH  11  12
ATOM     12  C   UNL     1      -5.836  35.063  24.913  1.00  0.00    -0.000 C 
BRANCH  12  13
ATOM     13  C   UNL     1      -5.989  34.693  23.427  1.00  0.00    -0.003 C 
ATOM     14  C   UNL     1      -4.668  34.288  22.773  1.00  0.00     0.004 C 
ENDBRANCH  12  13
ENDBRANCH  11  12
ENDBRANCH  10  11
ENDBRANCH   9  10
ENDBRANCH   1   9
TORSDOF 10
ENDMDL
MODEL 5
REMARK VINA RESULT:    -2.048      2.197      4.903
REMARK INTER + INTRA:          -3.752
REMARK INTER:                  -3.510
REMARK INTRA:                  -0.242
REMARK UNBOUND:                -0.507
REMARK SMILES CCCCCCCCCCCC(=O)[O-]
REMARK SMILES IDX 7 1 8 2 9 3 10 4 11 5 12 6 13 7 14 8 6 9 5 10 4 11 3 12 2 13
REMARK SMILES IDX 1 14
REMARK H PARENT
REMARK Flexibility Score: inf
ROOT
ATOM      1  C   UNL     1      -4.621  39.030  22.136  1.00  0.00     0.000 C 
ENDROOT
BRANCH   1   2
ATOM      2  C   UNL     1      -5.476  38.087  21.267  1.00  0.00     0.000 C 
BRANCH   2   3
ATOM      3  C   UNL     1      -5.129  36.590  21.390  1.00  0.00     0.000 C 
BRANCH   3   4
ATOM      4  C   UNL     1      -5.752  35.686  20.307  1.00  0.00     0.006 C 
BRANCH   4   5
ATOM      5  C   UNL     1      -5.126  35.843  18.912  1.00  0.00     0.053 C 
BRANCH   5   6
ATOM      6  C   UNL     1      -5.107  34.551  18.156  1.00  0.00     0.041 C 
ATOM      7  O   UNL     1      -4.271  34.372  17.230  1.00  0.00    -0.550 OA
ATOM      8  O   UNL     1      -6.033  33.558  18.450  1.00  0.00    -0.550 OA
ENDBRANCH   5   6
ENDBRANCH   4   5
ENDBRANCH   3   4
ENDBRANCH   2   3
ENDBRANCH   1   2
BRANCH   1   9
ATOM      9  C   UNL     1      -5.056  39.130  23.608  1.00  0.00     0.000 C 
BRANCH   9  10
ATOM     10  C   UNL     1      -4.623  37.916  24.442  1.00  0.00    -0.000 C 
BRANCH  10  11
ATOM     11  C   UNL     1      -5.745  37.477  25.396  1.00  0.00    -0.000 C 
BRANCH  11  12
ATOM     12  C   UNL     1      -6.097  35.985  25.261  1.00  0.00    -0.000 C 
BRANCH  12  13
ATOM     13  C   UNL     1      -5.515  35.293  24.016  1.00  0.00    -0.003 C 
ATOM     14  C   UNL     1      -6.124  33.915  23.758  1.00  0.00     0.004 C 
ENDBRANCH  12  13
ENDBRANCH  11  12
ENDBRANCH  10  11
ENDBRANCH   9  10
ENDBRANCH   1   9
TORSDOF 10
ENDMDL
MODEL 6
REMARK VINA RESULT:    -1.762      1.299      4.821
REMARK INTER + INTRA:          -3.299
REMARK INTER:                  -2.866
REMARK INTRA:                  -0.433
REMARK UNBOUND:                -0.507
REMARK SMILES CCCCCCCCCCCC(=O)[O-]
REMARK SMILES IDX 7 1 8 2 9 3 10 4 11 5 12 6 13 7 14 8 6 9 5 10 4 11 3 12 2 13
REMARK SMILES IDX 1 14
REMARK H PARENT
REMARK Flexibility Score: inf
ROOT
ATOM      1  C   UNL     1      -4.441  38.328  21.395  1.00  0.00     0.000 C 
ENDROOT
BRANCH   1   2
ATOM      2  C   UNL     1      -5.416  37.872  20.291  1.00  0.00     0.000 C 
BRANCH   2   3
ATOM      3  C   UNL     1      -4.915  36.707  19.416  1.00  0.00     0.000 C 
BRANCH   3   4
ATOM      4  C   UNL     1      -5.537  35.334  19.741  1.00  0.00     0.006 C 
BRANCH   4   5
ATOM      5  C   UNL     1      -6.124  35.222  21.156  1.00  0.00     0.053 C 
BRANCH   5   6
ATOM      6  C   UNL     1      -5.129  34.684  22.137  1.00  0.00     0.041 C 
ATOM      7  O   UNL     1      -3.894  34.829  21.929  1.00  0.00    -0.550 OA
ATOM      8  O   UNL     1      -5.561  33.994  23.262  1.00  0.00    -0.550 OA
ENDBRANCH   5   6
ENDBRANCH   4   5
ENDBRANCH   3   4
ENDBRANCH   2   3
ENDBRANCH   1   2
BRANCH   1   9
ATOM      9  C   UNL     1      -4.968  39.454  22.302  1.00  0.00     0.000 C 
BRANCH   9  10
ATOM     10  C   UNL     1      -5.262  38.980  23.732  1.00  0.00    -0.000 C 
BRANCH  10  11
ATOM     11  C   UNL     1      -5.387  37.450  23.788  1.00  0.00    -0.000 C 
BRANCH  11  12
ATOM     12  C   UNL     1      -5.568  36.915  25.220  1.00  0.00    -0.000 C 
BRANCH  12  13
ATOM     13  C   UNL     1      -4.951  37.795  26.322  1.00  0.00    -0.003 C 
ATOM     14  C   UNL     1      -3.458  37.537  26.527  1.00  0.00     0.004 C 
ENDBRANCH  12  13
ENDBRANCH  11  12
ENDBRANCH  10  11
ENDBRANCH   9  10
ENDBRANCH   1   9
TORSDOF 10
ENDMDL
MODEL 7
REMARK VINA RESULT:    -1.750      2.317      3.775
REMARK INTER + INTRA:          -3.279
REMARK INTER:                  -2.724
REMARK INTRA:                  -0.556
REMARK UNBOUND:                -0.507
REMARK SMILES CCCCCCCCCCCC(=O)[O-]
REMARK SMILES IDX 7 1 8 2 9 3 10 4 11 5 12 6 13 7 14 8 6 9 5 10 4 11 3 12 2 13
REMARK SMILES IDX 1 14
REMARK H PARENT
REMARK Flexibility Score: inf
ROOT
ATOM      1  C   UNL     1      -5.347  35.315  24.722  1.00  0.00     0.000 C 
ENDROOT
BRANCH   1   2
ATOM      2  C   UNL     1      -5.977  36.696  24.992  1.00  0.00     0.000 C 
BRANCH   2   3
ATOM      3  C   UNL     1      -4.977  37.866  25.074  1.00  0.00     0.000 C 
BRANCH   3   4
ATOM      4  C   UNL     1      -5.034  38.856  23.894  1.00  0.00     0.006 C 
BRANCH   4   5
ATOM      5  C   UNL     1      -5.690  38.292  22.624  1.00  0.00     0.053 C 
BRANCH   5   6
ATOM      6  C   UNL     1      -5.729  39.300  21.517  1.00  0.00     0.041 C 
ATOM      7  O   UNL     1      -5.806  40.530  21.783  1.00  0.00    -0.550 OA
ATOM      8  O   UNL     1      -5.716  38.882  20.193  1.00  0.00    -0.550 OA
ENDBRANCH   5   6
ENDBRANCH   4   5
ENDBRANCH   3   4
ENDBRANCH   2   3
ENDBRANCH   1   2
BRANCH   1   9
ATOM      9  C   UNL     1      -6.119  34.433  23.725  1.00  0.00     0.000 C 
BRANCH   9  10
ATOM     10  C   UNL     1      -6.125  35.008  22.301  1.00  0.00    -0.000 C 
BRANCH  10  11
ATOM     11  C   UNL     1      -4.701  35.366  21.848  1.00  0.00    -0.000 C 
BRANCH  11  12
ATOM     12  C   UNL     1      -4.573  35.497  20.320  1.00  0.00    -0.000 C 
BRANCH  12  13
ATOM     13  C   UNL     1      -5.760  34.930  19.521  1.00  0.00    -0.003 C 
ATOM     14  C   UNL     1      -5.326  34.031  18.363  1.00  0.00     0.004 C 
ENDBRANCH  12  13
ENDBRANCH  11  12
ENDBRANCH  10  11
ENDBRANCH   9  10
ENDBRANCH   1   9
TORSDOF 10
ENDMDL
