MODEL 1
REMARK VINA RESULT:    -4.066      0.000      0.000
REMARK INTER + INTRA:          -4.598
REMARK INTER:                  -4.542
REMARK INTRA:                  -0.057
REMARK UNBOUND:                -0.057
REMARK SMILES COc1ccc(C(=O)[O-])cc1
REMARK SMILES IDX 6 1 5 2 10 3 4 4 11 5 3 6 7 7 8 8 9 9 2 10 1 11
REMARK H PARENT
REMARK Flexibility Score: inf
ROOT
ATOM      1  C   UNL     1      30.579  10.026  63.421  1.00  0.00    -0.003 A 
ATOM      2  C   UNL     1      31.599  10.241  64.362  1.00  0.00     0.014 A 
ATOM      3  C   UNL     1      29.240  10.052  63.849  1.00  0.00     0.014 A 
ATOM      4  C   UNL     1      31.286  10.478  65.704  1.00  0.00     0.047 A 
ATOM      5  C   UNL     1      28.928  10.289  65.191  1.00  0.00     0.047 A 
ATOM      6  C   UNL     1      29.954  10.504  66.130  1.00  0.00     0.118 A 
ENDROOT
BRANCH   1   7
ATOM      7  C   UNL     1      30.913   9.776  62.001  1.00  0.00     0.071 C 
ATOM      8  O   UNL     1      31.071  10.737  61.201  1.00  0.00    -0.545 OA
ATOM      9  O   UNL     1      31.057   8.476  61.529  1.00  0.00    -0.545 OA
ENDBRANCH   1   7
BRANCH   6  10
ATOM     10  O   UNL     1      29.693  10.746  67.488  1.00  0.00    -0.497 OA
ATOM     11  C   UNL     1      28.405  11.041  68.019  1.00  0.00     0.278 C 
ENDBRANCH   6  10
TORSDOF 2
ENDMDL
MODEL 2
REMARK VINA RESULT:    -4.060      1.096      1.895
REMARK INTER + INTRA:          -4.592
REMARK INTER:                  -4.536
REMARK INTRA:                  -0.055
REMARK UNBOUND:                -0.057
REMARK SMILES COc1ccc(C(=O)[O-])cc1
REMARK SMILES IDX 6 1 5 2 10 3 4 4 11 5 3 6 7 7 8 8 9 9 2 10 1 11
REMARK H PARENT
REMARK Flexibility Score: inf
ROOT
ATOM      1  C   UNL     1      31.196  10.416  62.438  1.00  0.00    -0.003 A 
ATOM      2  C   UNL     1      29.934   9.969  62.861  1.00  0.00     0.014 A 
ATOM      3  C   UNL     1      32.121  10.856  63.401  1.00  0.00     0.014 A 
ATOM      4  C   UNL     1      29.604   9.960  64.220  1.00  0.00     0.047 A 
ATOM      5  C   UNL     1      31.790  10.846  64.759  1.00  0.00     0.047 A 
ATOM      6  C   UNL     1      30.525  10.397  65.178  1.00  0.00     0.118 A 
ENDROOT
BRANCH   1   7
ATOM      7  C   UNL     1      31.543  10.424  60.999  1.00  0.00     0.071 C 
ATOM      8  O   UNL     1      31.668  11.512  60.376  1.00  0.00    -0.545 OA
ATOM      9  O   UNL     1      31.735   9.230  60.314  1.00  0.00    -0.545 OA
ENDBRANCH   1   7
BRANCH   6  10
ATOM     10  O   UNL     1      30.145  10.368  66.529  1.00  0.00    -0.497 OA
ATOM     11  C   UNL     1      29.012  11.048  67.060  1.00  0.00     0.278 C 
ENDBRANCH   6  10
TORSDOF 2
ENDMDL
MODEL 3
REMARK VINA RESULT:    -4.043      1.044      1.158
REMARK INTER + INTRA:          -4.573
REMARK INTER:                  -4.519
REMARK INTRA:                  -0.054
REMARK UNBOUND:                -0.057
REMARK SMILES COc1ccc(C(=O)[O-])cc1
REMARK SMILES IDX 6 1 5 2 10 3 4 4 11 5 3 6 7 7 8 8 9 9 2 10 1 11
REMARK H PARENT
REMARK Flexibility Score: inf
ROOT
ATOM      1  C   UNL     1      31.132  10.369  62.492  1.00  0.00    -0.003 A 
ATOM      2  C   UNL     1      32.043  10.775  63.480  1.00  0.00     0.014 A 
ATOM      3  C   UNL     1      29.846   9.955  62.879  1.00  0.00     0.014 A 
ATOM      4  C   UNL     1      31.675  10.769  64.829  1.00  0.00     0.047 A 
ATOM      5  C   UNL     1      29.478   9.949  64.229  1.00  0.00     0.047 A 
ATOM      6  C   UNL     1      30.395  10.358  65.215  1.00  0.00     0.118 A 
ENDROOT
BRANCH   1   7
ATOM      7  C   UNL     1      31.525  10.377  61.065  1.00  0.00     0.071 C 
ATOM      8  O   UNL     1      31.676  11.465  60.448  1.00  0.00    -0.545 OA
ATOM      9  O   UNL     1      31.733   9.182  60.384  1.00  0.00    -0.545 OA
ENDBRANCH   1   7
BRANCH   6  10
ATOM     10  O   UNL     1      30.075  10.370  66.581  1.00  0.00    -0.497 OA
ATOM     11  C   UNL     1      28.903  10.967  67.127  1.00  0.00     0.278 C 
ENDBRANCH   6  10
TORSDOF 2
ENDMDL
MODEL 4
REMARK VINA RESULT:    -4.038     13.597     15.067
REMARK INTER + INTRA:          -4.568
REMARK INTER:                  -4.510
REMARK INTRA:                  -0.058
REMARK UNBOUND:                -0.057
REMARK SMILES COc1ccc(C(=O)[O-])cc1
REMARK SMILES IDX 6 1 5 2 10 3 4 4 11 5 3 6 7 7 8 8 9 9 2 10 1 11
REMARK H PARENT
REMARK Flexibility Score: inf
ROOT
ATOM      1  C   UNL     1      26.162  21.299  57.282  1.00  0.00    -0.003 A 
ATOM      2  C   UNL     1      25.611  22.217  56.373  1.00  0.00     0.014 A 
ATOM      3  C   UNL     1      26.534  20.024  56.821  1.00  0.00     0.014 A 
ATOM      4  C   UNL     1      25.436  21.867  55.031  1.00  0.00     0.047 A 
ATOM      5  C   UNL     1      26.358  19.674  55.479  1.00  0.00     0.047 A 
ATOM      6  C   UNL     1      25.805  20.598  54.572  1.00  0.00     0.118 A 
ENDROOT
BRANCH   1   7
ATOM      7  C   UNL     1      26.347  21.672  58.701  1.00  0.00     0.071 C 
ATOM      8  O   UNL     1      25.483  21.360  59.564  1.00  0.00    -0.545 OA
ATOM      9  O   UNL     1      27.478  22.374  59.104  1.00  0.00    -0.545 OA
ENDBRANCH   1   7
BRANCH   6  10
ATOM     10  O   UNL     1      25.609  20.296  53.216  1.00  0.00    -0.497 OA
ATOM     11  C   UNL     1      24.470  20.697  52.460  1.00  0.00     0.278 C 
ENDBRANCH   6  10
TORSDOF 2
ENDMDL
MODEL 5
REMARK VINA RESULT:    -4.009      2.504      5.189
REMARK INTER + INTRA:          -4.534
REMARK INTER:                  -4.470
REMARK INTRA:                  -0.064
REMARK UNBOUND:                -0.057
REMARK SMILES COc1ccc(C(=O)[O-])cc1
REMARK SMILES IDX 6 1 5 2 10 3 4 4 11 5 3 6 7 7 8 8 9 9 2 10 1 11
REMARK H PARENT
REMARK Flexibility Score: inf
ROOT
ATOM      1  C   UNL     1      30.907   9.996  63.082  1.00  0.00    -0.003 A 
ATOM      2  C   UNL     1      32.234  10.375  63.341  1.00  0.00     0.014 A 
ATOM      3  C   UNL     1      30.626   9.238  61.932  1.00  0.00     0.014 A 
ATOM      4  C   UNL     1      33.260  10.003  62.467  1.00  0.00     0.047 A 
ATOM      5  C   UNL     1      31.654   8.867  61.059  1.00  0.00     0.047 A 
ATOM      6  C   UNL     1      32.982   9.249  61.322  1.00  0.00     0.118 A 
ENDROOT
BRANCH   1   7
ATOM      7  C   UNL     1      29.823  10.391  64.009  1.00  0.00     0.071 C 
ATOM      8  O   UNL     1      29.891  11.474  64.650  1.00  0.00    -0.545 OA
ATOM      9  O   UNL     1      28.714   9.572  64.186  1.00  0.00    -0.545 OA
ENDBRANCH   1   7
BRANCH   6  10
ATOM     10  O   UNL     1      34.047   8.902  60.478  1.00  0.00    -0.497 OA
ATOM     11  C   UNL     1      35.148   9.755  60.179  1.00  0.00     0.278 C 
ENDBRANCH   6  10
TORSDOF 2
ENDMDL
MODEL 6
REMARK VINA RESULT:    -3.952      1.234      4.905
REMARK INTER + INTRA:          -4.471
REMARK INTER:                  -4.404
REMARK INTRA:                  -0.067
REMARK UNBOUND:                -0.057
REMARK SMILES COc1ccc(C(=O)[O-])cc1
REMARK SMILES IDX 6 1 5 2 10 3 4 4 11 5 3 6 7 7 8 8 9 9 2 10 1 11
REMARK H PARENT
REMARK Flexibility Score: inf
ROOT
ATOM      1  C   UNL     1      30.074  10.379  65.058  1.00  0.00    -0.003 A 
ATOM      2  C   UNL     1      29.493   9.958  63.851  1.00  0.00     0.014 A 
ATOM      3  C   UNL     1      31.468  10.546  65.121  1.00  0.00     0.014 A 
ATOM      4  C   UNL     1      30.290   9.710  62.729  1.00  0.00     0.047 A 
ATOM      5  C   UNL     1      32.265  10.297  63.999  1.00  0.00     0.047 A 
ATOM      6  C   UNL     1      31.678   9.876  62.791  1.00  0.00     0.118 A 
ENDROOT
BRANCH   1   7
ATOM      7  C   UNL     1      29.227  10.641  66.243  1.00  0.00     0.071 C 
ATOM      8  O   UNL     1      28.090  11.169  66.114  1.00  0.00    -0.545 OA
ATOM      9  O   UNL     1      29.675  10.308  67.516  1.00  0.00    -0.545 OA
ENDBRANCH   1   7
BRANCH   6  10
ATOM     10  O   UNL     1      32.433   9.614  61.638  1.00  0.00    -0.497 OA
ATOM     11  C   UNL     1      31.944   8.914  60.499  1.00  0.00     0.278 C 
ENDBRANCH   6  10
TORSDOF 2
ENDMDL
MODEL 7
REMARK VINA RESULT:    -3.913      1.025      4.742
REMARK INTER + INTRA:          -4.427
REMARK INTER:                  -4.364
REMARK INTRA:                  -0.063
REMARK UNBOUND:                -0.057
REMARK SMILES COc1ccc(C(=O)[O-])cc1
REMARK SMILES IDX 6 1 5 2 10 3 4 4 11 5 3 6 7 7 8 8 9 9 2 10 1 11
REMARK H PARENT
REMARK Flexibility Score: inf
ROOT
ATOM      1  C   UNL     1      30.138  10.572  66.119  1.00  0.00    -0.003 A 
ATOM      2  C   UNL     1      31.374  10.474  65.460  1.00  0.00     0.014 A 
ATOM      3  C   UNL     1      28.962  10.276  65.409  1.00  0.00     0.014 A 
ATOM      4  C   UNL     1      31.433  10.085  64.118  1.00  0.00     0.047 A 
ATOM      5  C   UNL     1      29.022   9.888  64.066  1.00  0.00     0.047 A 
ATOM      6  C   UNL     1      30.263   9.790  63.410  1.00  0.00     0.118 A 
ENDROOT
BRANCH   1   7
ATOM      7  C   UNL     1      30.080  10.983  67.539  1.00  0.00     0.071 C 
ATOM      8  O   UNL     1      29.197  11.789  67.937  1.00  0.00    -0.545 OA
ATOM      9  O   UNL     1      30.999  10.485  68.455  1.00  0.00    -0.545 OA
ENDBRANCH   1   7
BRANCH   6  10
ATOM     10  O   UNL     1      30.375   9.405  62.066  1.00  0.00    -0.497 OA
ATOM     11  C   UNL     1      31.448   8.631  61.538  1.00  0.00     0.278 C 
ENDBRANCH   6  10
TORSDOF 2
ENDMDL
MODEL 8
REMARK VINA RESULT:    -3.824      2.598      3.830
REMARK INTER + INTRA:          -4.327
REMARK INTER:                  -4.259
REMARK INTRA:                  -0.068
REMARK UNBOUND:                -0.057
REMARK SMILES COc1ccc(C(=O)[O-])cc1
REMARK SMILES IDX 6 1 5 2 10 3 4 4 11 5 3 6 7 7 8 8 9 9 2 10 1 11
REMARK H PARENT
REMARK Flexibility Score: inf
ROOT
ATOM      1  C   UNL     1      33.105  10.015  61.184  1.00  0.00    -0.003 A 
ATOM      2  C   UNL     1      32.692  10.987  62.110  1.00  0.00     0.014 A 
ATOM      3  C   UNL     1      32.279   8.903  60.949  1.00  0.00     0.014 A 
ATOM      4  C   UNL     1      31.475  10.850  62.786  1.00  0.00     0.047 A 
ATOM      5  C   UNL     1      31.063   8.766  61.626  1.00  0.00     0.047 A 
ATOM      6  C   UNL     1      30.653   9.743  62.553  1.00  0.00     0.118 A 
ENDROOT
BRANCH   1   7
ATOM      7  C   UNL     1      34.393  10.164  60.470  1.00  0.00     0.071 C 
ATOM      8  O   UNL     1      35.001  11.268  60.468  1.00  0.00    -0.545 OA
ATOM      9  O   UNL     1      34.950   9.086  59.790  1.00  0.00    -0.545 OA
ENDBRANCH   1   7
BRANCH   6  10
ATOM     10  O   UNL     1      29.442   9.651  63.257  1.00  0.00    -0.497 OA
ATOM     11  C   UNL     1      29.203  10.253  64.525  1.00  0.00     0.278 C 
ENDBRANCH   6  10
TORSDOF 2
ENDMDL
MODEL 9
REMARK VINA RESULT:    -2.894      7.656      8.386
REMARK INTER + INTRA:          -3.289
REMARK INTER:                  -3.228
REMARK INTRA:                  -0.062
REMARK UNBOUND:                -0.057
REMARK SMILES COc1ccc(C(=O)[O-])cc1
REMARK SMILES IDX 6 1 5 2 10 3 4 4 11 5 3 6 7 7 8 8 9 9 2 10 1 11
REMARK H PARENT
REMARK Flexibility Score: inf
ROOT
ATOM      1  C   UNL     1      37.153  14.867  64.184  1.00  0.00    -0.003 A 
ATOM      2  C   UNL     1      38.289  14.428  64.883  1.00  0.00     0.014 A 
ATOM      3  C   UNL     1      35.957  15.078  64.892  1.00  0.00     0.014 A 
ATOM      4  C   UNL     1      38.231  14.207  66.262  1.00  0.00     0.047 A 
ATOM      5  C   UNL     1      35.900  14.856  66.271  1.00  0.00     0.047 A 
ATOM      6  C   UNL     1      37.042  14.417  66.967  1.00  0.00     0.118 A 
ENDROOT
BRANCH   1   7
ATOM      7  C   UNL     1      37.218  15.101  62.724  1.00  0.00     0.071 C 
ATOM      8  O   UNL     1      37.925  16.033  62.256  1.00  0.00    -0.545 OA
ATOM      9  O   UNL     1      36.498  14.296  61.848  1.00  0.00    -0.545 OA
ENDBRANCH   1   7
BRANCH   6  10
ATOM     10  O   UNL     1      37.036  14.179  68.350  1.00  0.00    -0.497 OA
ATOM     11  C   UNL     1      37.984  13.363  69.030  1.00  0.00     0.278 C 
ENDBRANCH   6  10
TORSDOF 2
ENDMDL
