MODEL 1
REMARK VINA RESULT:    15.296      0.000      0.000
REMARK INTER + INTRA:          18.067
REMARK INTER:                  18.426
REMARK INTRA:                  -0.359
REMARK UNBOUND:                -0.359
REMARK SMILES Oc1cc(O)c2c(c1)O[C@H](c1ccc(O)c(O)c1)[C@@H](O)C2
REMARK SMILES IDX 21 1 19 2 10 3 9 4 7 5 8 6 2 7 3 8 4 9 6 10 20 11 11 13
REMARK SMILES IDX 18 14 12 15 16 16 13 17 14 18 17 19 15 21 5 23 1 25
REMARK H PARENT 20 12 17 20 15 22 5 24 1 26
REMARK Flexibility Score: inf
ROOT
ATOM      1  C   UNL     1       7.155   9.229  11.910  1.00  0.00     0.079 C 
ATOM      2  C   UNL     1       8.344   9.420  12.870  1.00  0.00     0.164 C 
ATOM      3  C   UNL     1       9.016   8.060  13.151  1.00  0.00     0.232 C 
ATOM      4  O   UNL     1       8.050   7.149  13.678  1.00  0.00    -0.482 OA
ATOM      5  C   UNL     1       6.734   7.100  13.206  1.00  0.00     0.131 A 
ATOM      6  C   UNL     1       5.903   6.044  13.592  1.00  0.00     0.093 A 
ATOM      7  C   UNL     1       4.602   5.950  13.095  1.00  0.00     0.122 A 
ATOM      8  C   UNL     1       4.121   6.929  12.216  1.00  0.00     0.092 A 
ATOM      9  C   UNL     1       4.935   8.007  11.842  1.00  0.00     0.126 A 
ATOM     10  C   UNL     1       6.242   8.110  12.354  1.00  0.00     0.039 A 
ENDROOT
BRANCH   2  11
ATOM     11  O   UNL     1       9.259  10.347  12.337  1.00  0.00    -0.389 OA
ATOM     12  H   UNL     1      10.168  10.075  12.631  1.00  0.00     0.211 HD
ENDBRANCH   2  11
BRANCH   3  13
ATOM     13  C   UNL     1      10.174   8.201  14.111  1.00  0.00    -0.001 A 
ATOM     14  C   UNL     1      11.466   7.829  13.708  1.00  0.00     0.057 A 
ATOM     15  C   UNL     1       9.982   8.740  15.395  1.00  0.00     0.012 A 
ATOM     16  C   UNL     1      12.550   7.957  14.590  1.00  0.00     0.157 A 
ATOM     17  C   UNL     1      11.064   8.870  16.275  1.00  0.00     0.050 A 
ATOM     18  C   UNL     1      12.346   8.479  15.879  1.00  0.00     0.157 A 
BRANCH  16  19
ATOM     19  O   UNL     1      13.827   7.574  14.189  1.00  0.00    -0.504 OA
ATOM     20  H   UNL     1      14.079   6.597  14.073  1.00  0.00     0.293 HD
ENDBRANCH  16  19
BRANCH  18  21
ATOM     21  O   UNL     1      13.404   8.620  16.776  1.00  0.00    -0.504 OA
ATOM     22  H   UNL     1      14.362   8.438  16.507  1.00  0.00     0.293 HD
ENDBRANCH  18  21
ENDBRANCH   3  13
BRANCH   9  23
ATOM     23  O   UNL     1       4.458   8.968  10.952  1.00  0.00    -0.507 OA
ATOM     24  H   UNL     1       4.646   9.955  11.080  1.00  0.00     0.293 HD
ENDBRANCH   9  23
BRANCH   7  25
ATOM     25  O   UNL     1       3.801   4.877  13.473  1.00  0.00    -0.508 OA
ATOM     26  H   UNL     1       3.936   4.402  14.357  1.00  0.00     0.293 HD
ENDBRANCH   7  25
TORSDOF 6
ENDMDL
