MODEL 1
REMARK VINA RESULT:    -5.778      0.000      0.000
REMARK INTER + INTRA:          -6.420
REMARK INTER:                  -6.284
REMARK INTRA:                  -0.136
REMARK UNBOUND:                -0.136
REMARK SMILES CC(=O)[C@H]1CC[C@@H]2[C@H]3CC=C4C[C@@H](O)CC[C@]4(C)[C@H]3CC[C@]12C
REMARK SMILES IDX 4 1 5 2 6 3 7 4 22 5 21 6 20 7 19 8 8 9 9 10 10 11 11 12
REMARK SMILES IDX 17 13 16 14 15 15 13 16 12 17 18 18 23 19 2 20 1 21 3 22
REMARK SMILES IDX 14 23
REMARK H PARENT 14 24
REMARK Flexibility Score: inf
ROOT
ATOM      1  C   UNL     1     126.383 130.094 111.600  1.00  0.00     0.062 C 
ATOM      2  C   UNL     1     126.541 130.514 113.053  1.00  0.00     0.012 C 
ATOM      3  C   UNL     1     125.343 131.413 113.338  1.00  0.00     0.005 C 
ATOM      4  C   UNL     1     124.783 131.898 111.976  1.00  0.00    -0.001 C 
ATOM      5  C   UNL     1     125.744 131.314 110.892  1.00  0.00    -0.020 C 
ATOM      6  C   UNL     1     125.001 130.871 109.601  1.00  0.00     0.008 C 
ATOM      7  C   UNL     1     123.873 131.841 109.258  1.00  0.00     0.005 C 
ATOM      8  C   UNL     1     122.747 131.770 110.319  1.00  0.00     0.003 C 
ATOM      9  C   UNL     1     123.285 131.493 111.779  1.00  0.00     0.000 C 
ATOM     10  C   UNL     1     122.389 132.114 112.890  1.00  0.00     0.031 C 
ATOM     11  C   UNL     1     120.953 132.248 112.480  1.00  0.00    -0.027 C 
ATOM     12  C   UNL     1     120.617 132.695 111.257  1.00  0.00    -0.065 C 
ATOM     13  C   UNL     1     121.704 132.944 110.211  1.00  0.00    -0.008 C 
ATOM     14  C   UNL     1     121.044 132.936 108.799  1.00  0.00     0.014 C 
ATOM     15  C   UNL     1     119.849 133.903 108.674  1.00  0.00     0.033 C 
ATOM     16  C   UNL     1     118.878 133.883 109.885  1.00  0.00     0.118 C 
ATOM     17  C   UNL     1     119.158 132.731 110.858  1.00  0.00     0.063 C 
ATOM     18  C   UNL     1     122.357 134.331 110.454  1.00  0.00     0.016 C 
ATOM     19  C   UNL     1     126.807 132.390 110.525  1.00  0.00     0.012 C 
ENDROOT
BRANCH   1  20
ATOM     20  C   UNL     1     127.669 129.574 110.984  1.00  0.00     0.133 C 
ATOM     21  C   UNL     1     128.981 129.839 111.658  1.00  0.00     0.088 C 
ATOM     22  O   UNL     1     127.651 128.965 109.925  1.00  0.00    -0.300 OA
ENDBRANCH   1  20
BRANCH  16  23
ATOM     23  O   UNL     1     118.949 135.098 110.586  1.00  0.00    -0.393 OA
ATOM     24  H   UNL     1     118.061 135.242 111.004  1.00  0.00     0.210 HD
ENDBRANCH  16  23
TORSDOF 2
ENDMDL
MODEL 2
REMARK VINA RESULT:    -5.498      2.563      6.501
REMARK INTER + INTRA:          -6.116
REMARK INTER:                  -5.980
REMARK INTRA:                  -0.136
REMARK UNBOUND:                -0.136
REMARK SMILES CC(=O)[C@H]1CC[C@@H]2[C@H]3CC=C4C[C@@H](O)CC[C@]4(C)[C@H]3CC[C@]12C
REMARK SMILES IDX 4 1 5 2 6 3 7 4 22 5 21 6 20 7 19 8 8 9 9 10 10 11 11 12
REMARK SMILES IDX 17 13 16 14 15 15 13 16 12 17 18 18 23 19 2 20 1 21 3 22
REMARK SMILES IDX 14 23
REMARK H PARENT 14 24
REMARK Flexibility Score: inf
ROOT
ATOM      1  C   UNL     1     121.404 132.729 111.676  1.00  0.00     0.062 C 
ATOM      2  C   UNL     1     121.907 131.707 112.684  1.00  0.00     0.012 C 
ATOM      3  C   UNL     1     123.425 131.728 112.544  1.00  0.00     0.005 C 
ATOM      4  C   UNL     1     123.764 132.363 111.172  1.00  0.00    -0.001 C 
ATOM      5  C   UNL     1     122.389 132.641 110.484  1.00  0.00    -0.020 C 
ATOM      6  C   UNL     1     122.378 133.962 109.666  1.00  0.00     0.008 C 
ATOM      7  C   UNL     1     123.709 134.174 108.949  1.00  0.00     0.005 C 
ATOM      8  C   UNL     1     124.845 134.435 109.969  1.00  0.00     0.003 C 
ATOM      9  C   UNL     1     124.667 133.633 111.319  1.00  0.00     0.000 C 
ATOM     10  C   UNL     1     126.017 133.280 112.006  1.00  0.00     0.031 C 
ATOM     11  C   UNL     1     127.111 134.255 111.687  1.00  0.00    -0.027 C 
ATOM     12  C   UNL     1     127.290 134.716 110.437  1.00  0.00    -0.065 C 
ATOM     13  C   UNL     1     126.287 134.356 109.340  1.00  0.00    -0.008 C 
ATOM     14  C   UNL     1     126.418 135.398 108.188  1.00  0.00     0.014 C 
ATOM     15  C   UNL     1     127.860 135.554 107.664  1.00  0.00     0.033 C 
ATOM     16  C   UNL     1     128.943 135.620 108.773  1.00  0.00     0.118 C 
ATOM     17  C   UNL     1     128.350 135.764 110.181  1.00  0.00     0.063 C 
ATOM     18  C   UNL     1     126.606 132.944 108.782  1.00  0.00     0.016 C 
ATOM     19  C   UNL     1     122.047 131.453 109.539  1.00  0.00     0.012 C 
ENDROOT
BRANCH   1  20
ATOM     20  C   UNL     1     119.936 132.555 111.331  1.00  0.00     0.133 C 
ATOM     21  C   UNL     1     119.232 131.278 111.676  1.00  0.00     0.088 C 
ATOM     22  O   UNL     1     119.325 133.438 110.746  1.00  0.00    -0.300 OA
ENDBRANCH   1  20
BRANCH  16  23
ATOM     23  O   UNL     1     129.749 134.471 108.735  1.00  0.00    -0.393 OA
ATOM     24  H   UNL     1     130.497 134.664 108.111  1.00  0.00     0.210 HD
ENDBRANCH  16  23
TORSDOF 2
ENDMDL
MODEL 3
REMARK VINA RESULT:    -5.468      1.572      1.851
REMARK INTER + INTRA:          -6.084
REMARK INTER:                  -5.945
REMARK INTRA:                  -0.139
REMARK UNBOUND:                -0.136
REMARK SMILES CC(=O)[C@H]1CC[C@@H]2[C@H]3CC=C4C[C@@H](O)CC[C@]4(C)[C@H]3CC[C@]12C
REMARK SMILES IDX 4 1 5 2 6 3 7 4 22 5 21 6 20 7 19 8 8 9 9 10 10 11 11 12
REMARK SMILES IDX 17 13 16 14 15 15 13 16 12 17 18 18 23 19 2 20 1 21 3 22
REMARK SMILES IDX 14 23
REMARK H PARENT 14 24
REMARK Flexibility Score: inf
ROOT
ATOM      1  C   UNL     1     127.521 131.462 110.318  1.00  0.00     0.062 C 
ATOM      2  C   UNL     1     127.994 132.560 111.259  1.00  0.00     0.012 C 
ATOM      3  C   UNL     1     126.719 133.236 111.750  1.00  0.00     0.005 C 
ATOM      4  C   UNL     1     125.582 132.878 110.759  1.00  0.00    -0.001 C 
ATOM      5  C   UNL     1     126.256 132.034 109.631  1.00  0.00    -0.020 C 
ATOM      6  C   UNL     1     125.348 130.885 109.111  1.00  0.00     0.008 C 
ATOM      7  C   UNL     1     123.889 131.329 109.041  1.00  0.00     0.005 C 
ATOM      8  C   UNL     1     123.321 131.572 110.460  1.00  0.00     0.003 C 
ATOM      9  C   UNL     1     124.392 132.152 111.468  1.00  0.00     0.000 C 
ATOM     10  C   UNL     1     123.769 133.053 112.574  1.00  0.00     0.031 C 
ATOM     11  C   UNL     1     122.348 132.693 112.892  1.00  0.00    -0.027 C 
ATOM     12  C   UNL     1     121.466 132.413 111.918  1.00  0.00    -0.065 C 
ATOM     13  C   UNL     1     121.936 132.322 110.466  1.00  0.00    -0.008 C 
ATOM     14  C   UNL     1     120.888 131.499 109.656  1.00  0.00     0.014 C 
ATOM     15  C   UNL     1     119.448 132.035 109.794  1.00  0.00     0.033 C 
ATOM     16  C   UNL     1     119.045 132.425 111.241  1.00  0.00     0.118 C 
ATOM     17  C   UNL     1     120.068 131.971 112.291  1.00  0.00     0.063 C 
ATOM     18  C   UNL     1     122.039 133.745 109.857  1.00  0.00     0.016 C 
ATOM     19  C   UNL     1     126.620 132.973 108.444  1.00  0.00     0.012 C 
ENDROOT
BRANCH   1  20
ATOM     20  C   UNL     1     128.609 130.963 109.385  1.00  0.00     0.133 C 
ATOM     21  C   UNL     1     129.893 131.725 109.259  1.00  0.00     0.088 C 
ATOM     22  O   UNL     1     128.438 129.959 108.709  1.00  0.00    -0.300 OA
ENDBRANCH   1  20
BRANCH  16  23
ATOM     23  O   UNL     1     118.875 133.815 111.341  1.00  0.00    -0.393 OA
ATOM     24  H   UNL     1     118.944 134.046 112.305  1.00  0.00     0.210 HD
ENDBRANCH  16  23
TORSDOF 2
ENDMDL
MODEL 4
REMARK VINA RESULT:    -5.454      2.618      3.735
REMARK INTER + INTRA:          -6.068
REMARK INTER:                  -5.929
REMARK INTRA:                  -0.139
REMARK UNBOUND:                -0.136
REMARK SMILES CC(=O)[C@H]1CC[C@@H]2[C@H]3CC=C4C[C@@H](O)CC[C@]4(C)[C@H]3CC[C@]12C
REMARK SMILES IDX 4 1 5 2 6 3 7 4 22 5 21 6 20 7 19 8 8 9 9 10 10 11 11 12
REMARK SMILES IDX 17 13 16 14 15 15 13 16 12 17 18 18 23 19 2 20 1 21 3 22
REMARK SMILES IDX 14 23
REMARK H PARENT 14 24
REMARK Flexibility Score: inf
ROOT
ATOM      1  C   UNL     1     127.345 133.967 109.158  1.00  0.00     0.062 C 
ATOM      2  C   UNL     1     127.970 132.580 109.120  1.00  0.00     0.012 C 
ATOM      3  C   UNL     1     126.811 131.618 109.352  1.00  0.00     0.005 C 
ATOM      4  C   UNL     1     125.651 132.421 109.995  1.00  0.00    -0.001 C 
ATOM      5  C   UNL     1     126.203 133.868 110.199  1.00  0.00    -0.020 C 
ATOM      6  C   UNL     1     125.133 134.965 109.944  1.00  0.00     0.008 C 
ATOM      7  C   UNL     1     123.766 134.529 110.466  1.00  0.00     0.005 C 
ATOM      8  C   UNL     1     123.216 133.342 109.637  1.00  0.00     0.003 C 
ATOM      9  C   UNL     1     124.345 132.357 109.136  1.00  0.00     0.000 C 
ATOM     10  C   UNL     1     123.853 130.889 108.978  1.00  0.00     0.031 C 
ATOM     11  C   UNL     1     122.387 130.790 108.679  1.00  0.00    -0.027 C 
ATOM     12  C   UNL     1     121.491 131.552 109.329  1.00  0.00    -0.065 C 
ATOM     13  C   UNL     1     121.969 132.638 110.293  1.00  0.00    -0.008 C 
ATOM     14  C   UNL     1     120.819 133.672 110.485  1.00  0.00     0.014 C 
ATOM     15  C   UNL     1     119.482 133.031 110.909  1.00  0.00     0.033 C 
ATOM     16  C   UNL     1     119.118 131.736 110.136  1.00  0.00     0.118 C 
ATOM     17  C   UNL     1     120.033 131.480 108.932  1.00  0.00     0.063 C 
ATOM     18  C   UNL     1     122.312 132.004 111.668  1.00  0.00     0.016 C 
ATOM     19  C   UNL     1     126.737 134.005 111.655  1.00  0.00     0.012 C 
ENDROOT
BRANCH   1  20
ATOM     20  C   UNL     1     128.357 135.072 109.394  1.00  0.00     0.133 C 
ATOM     21  C   UNL     1     129.745 134.733 109.847  1.00  0.00     0.088 C 
ATOM     22  O   UNL     1     128.045 136.245 109.246  1.00  0.00    -0.300 OA
ENDBRANCH   1  20
BRANCH  16  23
ATOM     23  O   UNL     1     119.172 130.625 110.994  1.00  0.00    -0.393 OA
ATOM     24  H   UNL     1     118.244 130.452 111.301  1.00  0.00     0.210 HD
ENDBRANCH  16  23
TORSDOF 2
ENDMDL
MODEL 5
REMARK VINA RESULT:    -5.223      2.551      4.070
REMARK INTER + INTRA:          -5.817
REMARK INTER:                  -5.681
REMARK INTRA:                  -0.136
REMARK UNBOUND:                -0.136
REMARK SMILES CC(=O)[C@H]1CC[C@@H]2[C@H]3CC=C4C[C@@H](O)CC[C@]4(C)[C@H]3CC[C@]12C
REMARK SMILES IDX 4 1 5 2 6 3 7 4 22 5 21 6 20 7 19 8 8 9 9 10 10 11 11 12
REMARK SMILES IDX 17 13 16 14 15 15 13 16 12 17 18 18 23 19 2 20 1 21 3 22
REMARK SMILES IDX 14 23
REMARK H PARENT 14 24
REMARK Flexibility Score: inf
ROOT
ATOM      1  C   UNL     1     127.015 135.092 109.906  1.00  0.00     0.062 C 
ATOM      2  C   UNL     1     127.108 135.092 108.388  1.00  0.00     0.012 C 
ATOM      3  C   UNL     1     125.783 134.510 107.910  1.00  0.00     0.005 C 
ATOM      4  C   UNL     1     125.149 133.742 109.098  1.00  0.00    -0.001 C 
ATOM      5  C   UNL     1     126.188 133.833 110.262  1.00  0.00    -0.020 C 
ATOM      6  C   UNL     1     125.521 133.990 111.657  1.00  0.00     0.008 C 
ATOM      7  C   UNL     1     124.252 133.148 111.756  1.00  0.00     0.005 C 
ATOM      8  C   UNL     1     123.155 133.695 110.810  1.00  0.00     0.003 C 
ATOM      9  C   UNL     1     123.734 134.298 109.469  1.00  0.00     0.000 C 
ATOM     10  C   UNL     1     122.754 134.171 108.266  1.00  0.00     0.031 C 
ATOM     11  C   UNL     1     121.314 134.146 108.683  1.00  0.00    -0.027 C 
ATOM     12  C   UNL     1     120.907 133.421 109.740  1.00  0.00    -0.065 C 
ATOM     13  C   UNL     1     121.937 132.715 110.622  1.00  0.00    -0.008 C 
ATOM     14  C   UNL     1     121.283 132.414 112.005  1.00  0.00     0.014 C 
ATOM     15  C   UNL     1     119.949 131.648 111.898  1.00  0.00     0.033 C 
ATOM     16  C   UNL     1     118.997 132.167 110.788  1.00  0.00     0.118 C 
ATOM     17  C   UNL     1     119.460 133.495 110.175  1.00  0.00     0.063 C 
ATOM     18  C   UNL     1     122.361 131.375 109.964  1.00  0.00     0.016 C 
ATOM     19  C   UNL     1     127.065 132.547 110.258  1.00  0.00     0.012 C 
ENDROOT
BRANCH   1  20
ATOM     20  C   UNL     1     128.366 135.207 110.588  1.00  0.00     0.133 C 
ATOM     21  C   UNL     1     129.621 134.953 109.810  1.00  0.00     0.088 C 
ATOM     22  O   UNL     1     128.442 135.477 111.778  1.00  0.00    -0.300 OA
ENDBRANCH   1  20
BRANCH  16  23
ATOM     23  O   UNL     1     118.876 131.211 109.766  1.00  0.00    -0.393 OA
ATOM     24  H   UNL     1     119.688 131.290 109.200  1.00  0.00     0.210 HD
ENDBRANCH  16  23
TORSDOF 2
ENDMDL
MODEL 6
REMARK VINA RESULT:    -5.206      2.103      6.849
REMARK INTER + INTRA:          -5.799
REMARK INTER:                  -5.710
REMARK INTRA:                  -0.088
REMARK UNBOUND:                -0.136
REMARK SMILES CC(=O)[C@H]1CC[C@@H]2[C@H]3CC=C4C[C@@H](O)CC[C@]4(C)[C@H]3CC[C@]12C
REMARK SMILES IDX 4 1 5 2 6 3 7 4 22 5 21 6 20 7 19 8 8 9 9 10 10 11 11 12
REMARK SMILES IDX 17 13 16 14 15 15 13 16 12 17 18 18 23 19 2 20 1 21 3 22
REMARK SMILES IDX 14 23
REMARK H PARENT 14 24
REMARK Flexibility Score: inf
ROOT
ATOM      1  C   UNL     1     121.165 131.652 110.308  1.00  0.00     0.062 C 
ATOM      2  C   UNL     1     121.162 130.875 109.001  1.00  0.00     0.012 C 
ATOM      3  C   UNL     1     122.601 130.934 108.501  1.00  0.00     0.005 C 
ATOM      4  C   UNL     1     123.303 132.113 109.223  1.00  0.00    -0.001 C 
ATOM      5  C   UNL     1     122.201 132.785 110.103  1.00  0.00    -0.020 C 
ATOM      6  C   UNL     1     122.742 133.287 111.471  1.00  0.00     0.008 C 
ATOM      7  C   UNL     1     124.143 133.874 111.324  1.00  0.00     0.005 C 
ATOM      8  C   UNL     1     125.165 132.770 110.958  1.00  0.00     0.003 C 
ATOM      9  C   UNL     1     124.558 131.643 110.030  1.00  0.00     0.000 C 
ATOM     10  C   UNL     1     125.612 130.989 109.090  1.00  0.00     0.031 C 
ATOM     11  C   UNL     1     127.003 131.030 109.650  1.00  0.00    -0.027 C 
ATOM     12  C   UNL     1     127.481 132.135 110.247  1.00  0.00    -0.065 C 
ATOM     13  C   UNL     1     126.560 133.331 110.489  1.00  0.00    -0.008 C 
ATOM     14  C   UNL     1     127.179 134.214 111.614  1.00  0.00     0.014 C 
ATOM     15  C   UNL     1     128.641 134.621 111.340  1.00  0.00     0.033 C 
ATOM     16  C   UNL     1     129.535 133.475 110.798  1.00  0.00     0.118 C 
ATOM     17  C   UNL     1     128.858 132.100 110.872  1.00  0.00     0.063 C 
ATOM     18  C   UNL     1     126.444 134.175 109.192  1.00  0.00     0.016 C 
ATOM     19  C   UNL     1     121.594 133.987 109.323  1.00  0.00     0.012 C 
ENDROOT
BRANCH   1  20
ATOM     20  C   UNL     1     119.781 132.096 110.743  1.00  0.00     0.133 C 
ATOM     21  C   UNL     1     119.505 132.376 112.189  1.00  0.00     0.088 C 
ATOM     22  O   UNL     1     118.875 132.201 109.928  1.00  0.00    -0.300 OA
ENDBRANCH   1  20
BRANCH  16  23
ATOM     23  O   UNL     1     129.900 133.731 109.466  1.00  0.00    -0.393 OA
ATOM     24  H   UNL     1     129.255 134.399 109.114  1.00  0.00     0.210 HD
ENDBRANCH  16  23
TORSDOF 2
ENDMDL
MODEL 7
REMARK VINA RESULT:    -5.123      9.154     13.717
REMARK INTER + INTRA:          -5.709
REMARK INTER:                  -5.624
REMARK INTRA:                  -0.085
REMARK UNBOUND:                -0.136
REMARK SMILES CC(=O)[C@H]1CC[C@@H]2[C@H]3CC=C4C[C@@H](O)CC[C@]4(C)[C@H]3CC[C@]12C
REMARK SMILES IDX 4 1 5 2 6 3 7 4 22 5 21 6 20 7 19 8 8 9 9 10 10 11 11 12
REMARK SMILES IDX 17 13 16 14 15 15 13 16 12 17 18 18 23 19 2 20 1 21 3 22
REMARK SMILES IDX 14 23
REMARK H PARENT 14 24
REMARK Flexibility Score: inf
ROOT
ATOM      1  C   UNL     1     130.700 125.645 109.304  1.00  0.00     0.062 C 
ATOM      2  C   UNL     1     130.168 127.010 109.713  1.00  0.00     0.012 C 
ATOM      3  C   UNL     1     131.394 127.792 110.170  1.00  0.00     0.005 C 
ATOM      4  C   UNL     1     132.515 126.770 110.486  1.00  0.00    -0.001 C 
ATOM      5  C   UNL     1     131.875 125.361 110.272  1.00  0.00    -0.020 C 
ATOM      6  C   UNL     1     132.863 124.336 109.649  1.00  0.00     0.008 C 
ATOM      7  C   UNL     1     134.270 124.518 110.213  1.00  0.00     0.005 C 
ATOM      8  C   UNL     1     134.873 125.869 109.754  1.00  0.00     0.003 C 
ATOM      9  C   UNL     1     133.798 127.019 109.625  1.00  0.00     0.000 C 
ATOM     10  C   UNL     1     134.381 128.437 109.894  1.00  0.00     0.031 C 
ATOM     11  C   UNL     1     135.841 128.542 109.569  1.00  0.00    -0.027 C 
ATOM     12  C   UNL     1     136.703 127.570 109.917  1.00  0.00    -0.065 C 
ATOM     13  C   UNL     1     136.182 126.272 110.532  1.00  0.00    -0.008 C 
ATOM     14  C   UNL     1     137.266 125.167 110.350  1.00  0.00     0.014 C 
ATOM     15  C   UNL     1     138.654 125.575 110.884  1.00  0.00     0.033 C 
ATOM     16  C   UNL     1     139.081 127.022 110.519  1.00  0.00     0.118 C 
ATOM     17  C   UNL     1     138.151 127.680 109.492  1.00  0.00     0.063 C 
ATOM     18  C   UNL     1     135.921 126.477 112.048  1.00  0.00     0.016 C 
ATOM     19  C   UNL     1     131.375 124.819 111.643  1.00  0.00     0.012 C 
ENDROOT
BRANCH   1  20
ATOM     20  C   UNL     1     129.623 124.576 109.244  1.00  0.00     0.133 C 
ATOM     21  C   UNL     1     129.861 123.318 108.467  1.00  0.00     0.088 C 
ATOM     22  O   UNL     1     128.547 124.744 109.800  1.00  0.00    -0.300 OA
ENDBRANCH   1  20
BRANCH  16  23
ATOM     23  O   UNL     1     139.125 127.822 111.673  1.00  0.00    -0.393 OA
ATOM     24  H   UNL     1     139.372 128.737 111.379  1.00  0.00     0.210 HD
ENDBRANCH  16  23
TORSDOF 2
ENDMDL
MODEL 8
REMARK VINA RESULT:    -5.112      3.315      6.442
REMARK INTER + INTRA:          -5.697
REMARK INTER:                  -5.561
REMARK INTRA:                  -0.136
REMARK UNBOUND:                -0.136
REMARK SMILES CC(=O)[C@H]1CC[C@@H]2[C@H]3CC=C4C[C@@H](O)CC[C@]4(C)[C@H]3CC[C@]12C
REMARK SMILES IDX 4 1 5 2 6 3 7 4 22 5 21 6 20 7 19 8 8 9 9 10 10 11 11 12
REMARK SMILES IDX 17 13 16 14 15 15 13 16 12 17 18 18 23 19 2 20 1 21 3 22
REMARK SMILES IDX 14 23
REMARK H PARENT 14 24
REMARK Flexibility Score: inf
ROOT
ATOM      1  C   UNL     1     121.535 134.130 105.287  1.00  0.00     0.062 C 
ATOM      2  C   UNL     1     120.812 132.861 104.860  1.00  0.00     0.012 C 
ATOM      3  C   UNL     1     120.826 131.965 106.093  1.00  0.00     0.005 C 
ATOM      4  C   UNL     1     121.940 132.480 107.040  1.00  0.00    -0.001 C 
ATOM      5  C   UNL     1     122.626 133.661 106.281  1.00  0.00    -0.020 C 
ATOM      6  C   UNL     1     123.046 134.823 107.223  1.00  0.00     0.008 C 
ATOM      7  C   UNL     1     123.573 134.288 108.552  1.00  0.00     0.005 C 
ATOM      8  C   UNL     1     122.439 133.611 109.359  1.00  0.00     0.003 C 
ATOM      9  C   UNL     1     121.380 132.873 108.447  1.00  0.00     0.000 C 
ATOM     10  C   UNL     1     120.717 131.649 109.144  1.00  0.00     0.031 C 
ATOM     11  C   UNL     1     120.670 131.779 110.637  1.00  0.00    -0.027 C 
ATOM     12  C   UNL     1     121.727 132.238 111.329  1.00  0.00    -0.065 C 
ATOM     13  C   UNL     1     122.953 132.770 110.587  1.00  0.00    -0.008 C 
ATOM     14  C   UNL     1     123.760 133.687 111.555  1.00  0.00     0.014 C 
ATOM     15  C   UNL     1     124.110 133.008 112.895  1.00  0.00     0.033 C 
ATOM     16  C   UNL     1     122.947 132.199 113.527  1.00  0.00     0.118 C 
ATOM     17  C   UNL     1     121.603 132.433 112.824  1.00  0.00     0.063 C 
ATOM     18  C   UNL     1     123.854 131.585 110.147  1.00  0.00     0.016 C 
ATOM     19  C   UNL     1     123.886 133.123 105.542  1.00  0.00     0.012 C 
ENDROOT
BRANCH   1  20
ATOM     20  C   UNL     1     122.024 134.962 104.116  1.00  0.00     0.133 C 
ATOM     21  C   UNL     1     122.047 134.375 102.738  1.00  0.00     0.088 C 
ATOM     22  O   UNL     1     122.430 136.103 104.289  1.00  0.00    -0.300 OA
ENDBRANCH   1  20
BRANCH  16  23
ATOM     23  O   UNL     1     123.240 130.825 113.503  1.00  0.00    -0.393 OA
ATOM     24  H   UNL     1     124.010 130.706 112.887  1.00  0.00     0.210 HD
ENDBRANCH  16  23
TORSDOF 2
ENDMDL
MODEL 9
REMARK VINA RESULT:    -5.105      9.864     13.019
REMARK INTER + INTRA:          -5.689
REMARK INTER:                  -5.559
REMARK INTRA:                  -0.130
REMARK UNBOUND:                -0.136
REMARK SMILES CC(=O)[C@H]1CC[C@@H]2[C@H]3CC=C4C[C@@H](O)CC[C@]4(C)[C@H]3CC[C@]12C
REMARK SMILES IDX 4 1 5 2 6 3 7 4 22 5 21 6 20 7 19 8 8 9 9 10 10 11 11 12
REMARK SMILES IDX 17 13 16 14 15 15 13 16 12 17 18 18 23 19 2 20 1 21 3 22
REMARK SMILES IDX 14 23
REMARK H PARENT 14 24
REMARK Flexibility Score: inf
ROOT
ATOM      1  C   UNL     1     124.082 122.643 105.601  1.00  0.00     0.062 C 
ATOM      2  C   UNL     1     123.976 121.368 104.779  1.00  0.00     0.012 C 
ATOM      3  C   UNL     1     124.855 120.355 105.504  1.00  0.00     0.005 C 
ATOM      4  C   UNL     1     125.824 121.143 106.423  1.00  0.00    -0.001 C 
ATOM      5  C   UNL     1     125.530 122.653 106.149  1.00  0.00    -0.020 C 
ATOM      6  C   UNL     1     125.626 123.530 107.428  1.00  0.00     0.008 C 
ATOM      7  C   UNL     1     126.773 123.068 108.324  1.00  0.00     0.005 C 
ATOM      8  C   UNL     1     126.478 121.667 108.914  1.00  0.00     0.003 C 
ATOM      9  C   UNL     1     125.675 120.732 107.925  1.00  0.00     0.000 C 
ATOM     10  C   UNL     1     125.985 119.220 108.122  1.00  0.00     0.031 C 
ATOM     11  C   UNL     1     126.405 118.885 109.522  1.00  0.00    -0.027 C 
ATOM     12  C   UNL     1     127.267 119.666 110.196  1.00  0.00    -0.065 C 
ATOM     13  C   UNL     1     127.729 120.992 109.591  1.00  0.00    -0.008 C 
ATOM     14  C   UNL     1     128.263 121.901 110.739  1.00  0.00     0.014 C 
ATOM     15  C   UNL     1     129.342 121.223 111.608  1.00  0.00     0.033 C 
ATOM     16  C   UNL     1     129.027 119.751 111.988  1.00  0.00     0.118 C 
ATOM     17  C   UNL     1     127.594 119.335 111.636  1.00  0.00     0.063 C 
ATOM     18  C   UNL     1     128.875 120.735 108.578  1.00  0.00     0.016 C 
ATOM     19  C   UNL     1     126.543 123.182 105.091  1.00  0.00     0.012 C 
ENDROOT
BRANCH   1  20
ATOM     20  C   UNL     1     123.658 123.884 104.836  1.00  0.00     0.133 C 
ATOM     21  C   UNL     1     123.394 123.802 103.364  1.00  0.00     0.088 C 
ATOM     22  O   UNL     1     123.558 124.962 105.405  1.00  0.00    -0.300 OA
ENDBRANCH   1  20
BRANCH  16  23
ATOM     23  O   UNL     1     129.925 118.881 111.348  1.00  0.00    -0.393 OA
ATOM     24  H   UNL     1     130.706 119.427 111.069  1.00  0.00     0.210 HD
ENDBRANCH  16  23
TORSDOF 2
ENDMDL
