MODEL 1
REMARK VINA RESULT:    -3.832      0.000      0.000
REMARK INTER + INTRA:          -4.182
REMARK INTER:                  -4.169
REMARK INTRA:                  -0.013
REMARK UNBOUND:                -0.013
REMARK SMILES OCc1ccco1
REMARK SMILES IDX 2 1 3 2 5 3 6 4 4 5 7 6 1 7
REMARK H PARENT 1 8
REMARK Flexibility Score: inf
ROOT
ATOM      1  C   UNL     1      26.931  -3.816  47.697  1.00  0.00     0.231 C 
ENDROOT
BRANCH   1   2
ATOM      2  C   UNL     1      27.664  -3.121  46.595  1.00  0.00     0.129 A 
ATOM      3  C   UNL     1      28.377  -1.598  45.182  1.00  0.00     0.042 A 
ATOM      4  C   UNL     1      29.067  -2.783  45.027  1.00  0.00     0.195 A 
ATOM      5  C   UNL     1      27.471  -1.813  46.198  1.00  0.00     0.048 A 
ATOM      6  O   UNL     1      28.622  -3.671  45.887  1.00  0.00    -0.467 OA
ENDBRANCH   1   2
BRANCH   1   7
ATOM      7  O   UNL     1      25.549  -3.723  47.489  1.00  0.00    -0.388 OA
ATOM      8  H   UNL     1      25.259  -2.864  47.894  1.00  0.00     0.211 HD
ENDBRANCH   1   7
TORSDOF 2
ENDMDL
MODEL 2
REMARK VINA RESULT:    -3.578      2.998      3.532
REMARK INTER + INTRA:          -3.905
REMARK INTER:                  -3.891
REMARK INTRA:                  -0.014
REMARK UNBOUND:                -0.013
REMARK SMILES OCc1ccco1
REMARK SMILES IDX 2 1 3 2 5 3 6 4 4 5 7 6 1 7
REMARK H PARENT 1 8
REMARK Flexibility Score: inf
ROOT
ATOM      1  C   UNL     1      28.344  -1.844  42.837  1.00  0.00     0.231 C 
ENDROOT
BRANCH   1   2
ATOM      2  C   UNL     1      29.144  -1.623  44.080  1.00  0.00     0.129 A 
ATOM      3  C   UNL     1      29.725  -1.208  46.158  1.00  0.00     0.042 A 
ATOM      4  C   UNL     1      30.824  -1.535  45.389  1.00  0.00     0.195 A 
ATOM      5  C   UNL     1      28.637  -1.268  45.314  1.00  0.00     0.048 A 
ATOM      6  O   UNL     1      30.445  -1.781  44.155  1.00  0.00    -0.467 OA
ENDBRANCH   1   2
BRANCH   1   7
ATOM      7  O   UNL     1      27.797  -3.133  42.840  1.00  0.00    -0.388 OA
ATOM      8  H   UNL     1      27.191  -3.183  43.625  1.00  0.00     0.211 HD
ENDBRANCH   1   7
TORSDOF 2
ENDMDL
MODEL 3
REMARK VINA RESULT:    -3.371      8.591      9.425
REMARK INTER + INTRA:          -3.680
REMARK INTER:                  -3.665
REMARK INTRA:                  -0.015
REMARK UNBOUND:                -0.013
REMARK SMILES OCc1ccco1
REMARK SMILES IDX 2 1 3 2 5 3 6 4 4 5 7 6 1 7
REMARK H PARENT 1 8
REMARK Flexibility Score: inf
ROOT
ATOM      1  C   UNL     1      36.058  -0.627  42.610  1.00  0.00     0.231 C 
ENDROOT
BRANCH   1   2
ATOM      2  C   UNL     1      36.173  -2.063  43.007  1.00  0.00     0.129 A 
ATOM      3  C   UNL     1      36.962  -3.996  43.693  1.00  0.00     0.042 A 
ATOM      4  C   UNL     1      35.599  -4.061  43.479  1.00  0.00     0.195 A 
ATOM      5  C   UNL     1      37.335  -2.704  43.391  1.00  0.00     0.048 A 
ATOM      6  O   UNL     1      35.157  -2.892  43.074  1.00  0.00    -0.467 OA
ENDBRANCH   1   2
BRANCH   1   7
ATOM      7  O   UNL     1      35.610   0.137  43.694  1.00  0.00    -0.388 OA
ATOM      8  H   UNL     1      36.305   0.826  43.863  1.00  0.00     0.211 HD
ENDBRANCH   1   7
TORSDOF 2
ENDMDL
MODEL 4
REMARK VINA RESULT:    -3.371      1.320      1.706
REMARK INTER + INTRA:          -3.679
REMARK INTER:                  -3.661
REMARK INTRA:                  -0.019
REMARK UNBOUND:                -0.013
REMARK SMILES OCc1ccco1
REMARK SMILES IDX 2 1 3 2 5 3 6 4 4 5 7 6 1 7
REMARK H PARENT 1 8
REMARK Flexibility Score: inf
ROOT
ATOM      1  C   UNL     1      27.129  -2.249  46.371  1.00  0.00     0.231 C 
ENDROOT
BRANCH   1   2
ATOM      2  C   UNL     1      28.564  -2.220  45.956  1.00  0.00     0.129 A 
ATOM      3  C   UNL     1      30.625  -1.565  45.570  1.00  0.00     0.042 A 
ATOM      4  C   UNL     1      30.460  -2.900  45.260  1.00  0.00     0.195 A 
ATOM      5  C   UNL     1      29.401  -1.124  46.023  1.00  0.00     0.048 A 
ATOM      6  O   UNL     1      29.221  -3.262  45.504  1.00  0.00    -0.467 OA
ENDBRANCH   1   2
BRANCH   1   7
ATOM      7  O   UNL     1      26.865  -3.411  47.108  1.00  0.00    -0.388 OA
ATOM      8  H   UNL     1      26.799  -4.154  46.452  1.00  0.00     0.211 HD
ENDBRANCH   1   7
TORSDOF 2
ENDMDL
MODEL 5
REMARK VINA RESULT:    -3.340      8.588     10.055
REMARK INTER + INTRA:          -3.646
REMARK INTER:                  -3.634
REMARK INTRA:                  -0.013
REMARK UNBOUND:                -0.013
REMARK SMILES OCc1ccco1
REMARK SMILES IDX 2 1 3 2 5 3 6 4 4 5 7 6 1 7
REMARK H PARENT 1 8
REMARK Flexibility Score: inf
ROOT
ATOM      1  C   UNL     1      35.409  -3.756  43.332  1.00  0.00     0.231 C 
ENDROOT
BRANCH   1   2
ATOM      2  C   UNL     1      36.863  -3.416  43.397  1.00  0.00     0.129 A 
ATOM      3  C   UNL     1      39.052  -3.566  43.498  1.00  0.00     0.042 A 
ATOM      4  C   UNL     1      38.648  -2.251  43.383  1.00  0.00     0.195 A 
ATOM      5  C   UNL     1      37.900  -4.321  43.504  1.00  0.00     0.048 A 
ATOM      6  O   UNL     1      37.337  -2.194  43.321  1.00  0.00    -0.467 OA
ENDBRANCH   1   2
BRANCH   1   7
ATOM      7  O   UNL     1      35.024  -4.441  44.491  1.00  0.00    -0.388 OA
ATOM      8  H   UNL     1      35.387  -5.363  44.410  1.00  0.00     0.211 HD
ENDBRANCH   1   7
TORSDOF 2
ENDMDL
MODEL 6
REMARK VINA RESULT:    -3.326      2.209      4.001
REMARK INTER + INTRA:          -3.631
REMARK INTER:                  -3.617
REMARK INTRA:                  -0.014
REMARK UNBOUND:                -0.013
REMARK SMILES OCc1ccco1
REMARK SMILES IDX 2 1 3 2 5 3 6 4 4 5 7 6 1 7
REMARK H PARENT 1 8
REMARK Flexibility Score: inf
ROOT
ATOM      1  C   UNL     1      30.672  -1.529  44.078  1.00  0.00     0.231 C 
ENDROOT
BRANCH   1   2
ATOM      2  C   UNL     1      29.507  -1.905  44.936  1.00  0.00     0.129 A 
ATOM      3  C   UNL     1      28.159  -2.991  46.288  1.00  0.00     0.042 A 
ATOM      4  C   UNL     1      27.661  -1.739  45.988  1.00  0.00     0.195 A 
ATOM      5  C   UNL     1      29.355  -3.099  45.611  1.00  0.00     0.048 A 
ATOM      6  O   UNL     1      28.489  -1.114  45.182  1.00  0.00    -0.467 OA
ENDBRANCH   1   2
BRANCH   1   7
ATOM      7  O   UNL     1      31.618  -0.825  44.834  1.00  0.00    -0.388 OA
ATOM      8  H   UNL     1      32.381  -0.633  44.227  1.00  0.00     0.211 HD
ENDBRANCH   1   7
TORSDOF 2
ENDMDL
MODEL 7
REMARK VINA RESULT:    -3.113      8.455      8.962
REMARK INTER + INTRA:          -3.399
REMARK INTER:                  -3.382
REMARK INTRA:                  -0.017
REMARK UNBOUND:                -0.013
REMARK SMILES OCc1ccco1
REMARK SMILES IDX 2 1 3 2 5 3 6 4 4 5 7 6 1 7
REMARK H PARENT 1 8
REMARK Flexibility Score: inf
ROOT
ATOM      1  C   UNL     1      36.659  -3.875  43.692  1.00  0.00     0.231 C 
ENDROOT
BRANCH   1   2
ATOM      2  C   UNL     1      36.139  -2.541  43.262  1.00  0.00     0.129 A 
ATOM      3  C   UNL     1      35.962  -0.391  42.846  1.00  0.00     0.042 A 
ATOM      4  C   UNL     1      34.855  -1.079  42.392  1.00  0.00     0.195 A 
ATOM      5  C   UNL     1      36.796  -1.335  43.406  1.00  0.00     0.048 A 
ATOM      6  O   UNL     1      34.991  -2.360  42.652  1.00  0.00    -0.467 OA
ENDBRANCH   1   2
BRANCH   1   7
ATOM      7  O   UNL     1      35.698  -4.538  44.466  1.00  0.00    -0.388 OA
ATOM      8  H   UNL     1      35.094  -5.004  43.830  1.00  0.00     0.211 HD
ENDBRANCH   1   7
TORSDOF 2
ENDMDL
MODEL 8
REMARK VINA RESULT:    -3.022     10.929     11.643
REMARK INTER + INTRA:          -3.300
REMARK INTER:                  -3.285
REMARK INTRA:                  -0.016
REMARK UNBOUND:                -0.013
REMARK SMILES OCc1ccco1
REMARK SMILES IDX 2 1 3 2 5 3 6 4 4 5 7 6 1 7
REMARK H PARENT 1 8
REMARK Flexibility Score: inf
ROOT
ATOM      1  C   UNL     1      20.022 -13.119  46.710  1.00  0.00     0.231 C 
ENDROOT
BRANCH   1   2
ATOM      2  C   UNL     1      21.029 -12.800  45.653  1.00  0.00     0.129 A 
ATOM      3  C   UNL     1      22.634 -11.836  44.503  1.00  0.00     0.042 A 
ATOM      4  C   UNL     1      22.224 -13.009  43.900  1.00  0.00     0.195 A 
ATOM      5  C   UNL     1      21.865 -11.701  45.638  1.00  0.00     0.048 A 
ATOM      6  O   UNL     1      21.269 -13.563  44.611  1.00  0.00    -0.467 OA
ENDBRANCH   1   2
BRANCH   1   7
ATOM      7  O   UNL     1      19.980 -12.089  47.659  1.00  0.00    -0.388 OA
ATOM      8  H   UNL     1      19.074 -12.117  48.067  1.00  0.00     0.211 HD
ENDBRANCH   1   7
TORSDOF 2
ENDMDL
MODEL 9
REMARK VINA RESULT:    -2.004     11.964     13.024
REMARK INTER + INTRA:          -2.193
REMARK INTER:                  -2.176
REMARK INTRA:                  -0.017
REMARK UNBOUND:                -0.013
REMARK SMILES OCc1ccco1
REMARK SMILES IDX 2 1 3 2 5 3 6 4 4 5 7 6 1 7
REMARK H PARENT 1 8
REMARK Flexibility Score: inf
ROOT
ATOM      1  C   UNL     1      19.907 -15.375  45.283  1.00  0.00     0.231 C 
ENDROOT
BRANCH   1   2
ATOM      2  C   UNL     1      20.792 -14.191  45.063  1.00  0.00     0.129 A 
ATOM      3  C   UNL     1      22.061 -12.664  44.124  1.00  0.00     0.042 A 
ATOM      4  C   UNL     1      21.873 -12.399  45.466  1.00  0.00     0.195 A 
ATOM      5  C   UNL     1      21.360 -13.821  43.860  1.00  0.00     0.048 A 
ATOM      6  O   UNL     1      21.109 -13.326  45.998  1.00  0.00    -0.467 OA
ENDBRANCH   1   2
BRANCH   1   7
ATOM      7  O   UNL     1      20.369 -16.125  46.372  1.00  0.00    -0.388 OA
ATOM      8  H   UNL     1      20.334 -17.079  46.096  1.00  0.00     0.211 HD
ENDBRANCH   1   7
TORSDOF 2
ENDMDL
