MODEL 1
REMARK VINA RESULT:    -4.281      0.000      0.000
REMARK INTER + INTRA:          -8.356
REMARK INTER:                  -7.285
REMARK INTRA:                  -1.071
REMARK UNBOUND:                -1.071
REMARK SMILES CCCCCCCCCCCCCC(=O)[O-]
REMARK SMILES IDX 8 1 9 2 10 3 11 4 12 5 13 6 14 7 15 8 16 9 7 10 6 11 5 12
REMARK SMILES IDX 4 13 3 14 2 15 1 16
REMARK H PARENT
REMARK Flexibility Score: inf
ROOT
ATOM      1  C   UNL     1      18.474  -7.082  45.612  1.00  0.00     0.000 C 
ENDROOT
BRANCH   1   2
ATOM      2  C   UNL     1      19.871  -7.107  46.258  1.00  0.00     0.000 C 
BRANCH   2   3
ATOM      3  C   UNL     1      19.874  -6.496  47.670  1.00  0.00     0.000 C 
BRANCH   3   4
ATOM      4  C   UNL     1      20.736  -7.301  48.657  1.00  0.00     0.000 C 
BRANCH   4   5
ATOM      5  C   UNL     1      20.263  -7.168  50.117  1.00  0.00     0.006 C 
BRANCH   5   6
ATOM      6  C   UNL     1      21.109  -7.965  51.125  1.00  0.00     0.053 C 
BRANCH   6   7
ATOM      7  C   UNL     1      22.550  -7.550  51.130  1.00  0.00     0.041 C 
ATOM      8  O   UNL     1      23.459  -8.410  50.996  1.00  0.00    -0.550 OA
ATOM      9  O   UNL     1      22.888  -6.215  51.316  1.00  0.00    -0.550 OA
ENDBRANCH   6   7
ENDBRANCH   5   6
ENDBRANCH   4   5
ENDBRANCH   3   4
ENDBRANCH   2   3
ENDBRANCH   1   2
BRANCH   1  10
ATOM     10  C   UNL     1      18.520  -7.333  44.095  1.00  0.00     0.000 C 
BRANCH  10  11
ATOM     11  C   UNL     1      18.393  -6.037  43.277  1.00  0.00    -0.000 C 
BRANCH  11  12
ATOM     12  C   UNL     1      19.759  -5.450  42.883  1.00  0.00    -0.000 C 
BRANCH  12  13
ATOM     13  C   UNL     1      19.888  -3.959  43.232  1.00  0.00    -0.000 C 
BRANCH  13  14
ATOM     14  C   UNL     1      20.046  -3.764  44.747  1.00  0.00    -0.000 C 
BRANCH  14  15
ATOM     15  C   UNL     1      21.500  -3.488  45.161  1.00  0.00    -0.003 C 
ATOM     16  C   UNL     1      22.437  -4.652  44.840  1.00  0.00     0.004 C 
ENDBRANCH  14  15
ENDBRANCH  13  14
ENDBRANCH  12  13
ENDBRANCH  11  12
ENDBRANCH  10  11
ENDBRANCH   1  10
TORSDOF 12
ENDMDL
MODEL 2
REMARK VINA RESULT:    -4.266      3.448      6.325
REMARK INTER + INTRA:          -8.330
REMARK INTER:                  -7.234
REMARK INTRA:                  -1.096
REMARK UNBOUND:                -1.071
REMARK SMILES CCCCCCCCCCCCCC(=O)[O-]
REMARK SMILES IDX 8 1 9 2 10 3 11 4 12 5 13 6 14 7 15 8 16 9 7 10 6 11 5 12
REMARK SMILES IDX 4 13 3 14 2 15 1 16
REMARK H PARENT
REMARK Flexibility Score: inf
ROOT
ATOM      1  C   UNL     1      20.980  -6.056  43.245  1.00  0.00     0.000 C 
ENDROOT
BRANCH   1   2
ATOM      2  C   UNL     1      19.994  -5.064  42.602  1.00  0.00     0.000 C 
BRANCH   2   3
ATOM      3  C   UNL     1      19.805  -3.793  43.448  1.00  0.00     0.000 C 
BRANCH   3   4
ATOM      4  C   UNL     1      20.473  -3.902  44.829  1.00  0.00     0.000 C 
BRANCH   4   5
ATOM      5  C   UNL     1      21.322  -2.668  45.185  1.00  0.00     0.006 C 
BRANCH   5   6
ATOM      6  C   UNL     1      22.062  -2.049  43.986  1.00  0.00     0.053 C 
BRANCH   6   7
ATOM      7  C   UNL     1      22.820  -0.808  44.350  1.00  0.00     0.041 C 
ATOM      8  O   UNL     1      22.407   0.321  43.976  1.00  0.00    -0.550 OA
ATOM      9  O   UNL     1      24.002  -0.903  45.075  1.00  0.00    -0.550 OA
ENDBRANCH   6   7
ENDBRANCH   5   6
ENDBRANCH   4   5
ENDBRANCH   3   4
ENDBRANCH   2   3
ENDBRANCH   1   2
BRANCH   1  10
ATOM     10  C   UNL     1      20.429  -7.491  43.291  1.00  0.00     0.000 C 
BRANCH  10  11
ATOM     11  C   UNL     1      19.560  -7.752  44.534  1.00  0.00    -0.000 C 
BRANCH  11  12
ATOM     12  C   UNL     1      20.328  -7.532  45.848  1.00  0.00    -0.000 C 
BRANCH  12  13
ATOM     13  C   UNL     1      19.524  -6.724  46.878  1.00  0.00    -0.000 C 
BRANCH  13  14
ATOM     14  C   UNL     1      20.371  -6.427  48.123  1.00  0.00    -0.000 C 
BRANCH  14  15
ATOM     15  C   UNL     1      20.265  -7.528  49.190  1.00  0.00    -0.003 C 
ATOM     16  C   UNL     1      20.676  -7.046  50.581  1.00  0.00     0.004 C 
ENDBRANCH  14  15
ENDBRANCH  13  14
ENDBRANCH  12  13
ENDBRANCH  11  12
ENDBRANCH  10  11
ENDBRANCH   1  10
TORSDOF 12
ENDMDL
MODEL 3
REMARK VINA RESULT:    -4.237      3.197      6.549
REMARK INTER + INTRA:          -8.282
REMARK INTER:                  -6.804
REMARK INTRA:                  -1.478
REMARK UNBOUND:                -1.071
REMARK SMILES CCCCCCCCCCCCCC(=O)[O-]
REMARK SMILES IDX 8 1 9 2 10 3 11 4 12 5 13 6 14 7 15 8 16 9 7 10 6 11 5 12
REMARK SMILES IDX 4 13 3 14 2 15 1 16
REMARK H PARENT
REMARK Flexibility Score: inf
ROOT
ATOM      1  C   UNL     1      20.645  -5.202  46.864  1.00  0.00     0.000 C 
ENDROOT
BRANCH   1   2
ATOM      2  C   UNL     1      21.524  -3.961  46.624  1.00  0.00     0.000 C 
BRANCH   2   3
ATOM      3  C   UNL     1      21.286  -3.333  45.240  1.00  0.00     0.000 C 
BRANCH   3   4
ATOM      4  C   UNL     1      19.931  -3.736  44.636  1.00  0.00     0.000 C 
BRANCH   4   5
ATOM      5  C   UNL     1      19.940  -3.754  43.096  1.00  0.00     0.006 C 
BRANCH   5   6
ATOM      6  C   UNL     1      19.580  -5.119  42.483  1.00  0.00     0.053 C 
BRANCH   6   7
ATOM      7  C   UNL     1      20.207  -6.267  43.215  1.00  0.00     0.041 C 
ATOM      8  O   UNL     1      21.449  -6.465  43.142  1.00  0.00    -0.550 OA
ATOM      9  O   UNL     1      19.414  -7.139  43.951  1.00  0.00    -0.550 OA
ENDBRANCH   6   7
ENDBRANCH   5   6
ENDBRANCH   4   5
ENDBRANCH   3   4
ENDBRANCH   2   3
ENDBRANCH   1   2
BRANCH   1  10
ATOM     10  C   UNL     1      21.447  -6.513  46.804  1.00  0.00     0.000 C 
BRANCH  10  11
ATOM     11  C   UNL     1      20.973  -7.545  47.843  1.00  0.00    -0.000 C 
BRANCH  11  12
ATOM     12  C   UNL     1      19.983  -6.948  48.858  1.00  0.00    -0.000 C 
BRANCH  12  13
ATOM     13  C   UNL     1      20.388  -7.223  50.314  1.00  0.00    -0.000 C 
BRANCH  13  14
ATOM     14  C   UNL     1      21.916  -7.291  50.454  1.00  0.00    -0.000 C 
BRANCH  14  15
ATOM     15  C   UNL     1      22.512  -6.015  51.069  1.00  0.00    -0.003 C 
ATOM     16  C   UNL     1      23.093  -5.068  50.020  1.00  0.00     0.004 C 
ENDBRANCH  14  15
ENDBRANCH  13  14
ENDBRANCH  12  13
ENDBRANCH  11  12
ENDBRANCH  10  11
ENDBRANCH   1  10
TORSDOF 12
ENDMDL
MODEL 4
REMARK VINA RESULT:    -4.204      1.172      2.055
REMARK INTER + INTRA:          -8.225
REMARK INTER:                  -6.471
REMARK INTRA:                  -1.755
REMARK UNBOUND:                -1.071
REMARK SMILES CCCCCCCCCCCCCC(=O)[O-]
REMARK SMILES IDX 8 1 9 2 10 3 11 4 12 5 13 6 14 7 15 8 16 9 7 10 6 11 5 12
REMARK SMILES IDX 4 13 3 14 2 15 1 16
REMARK H PARENT
REMARK Flexibility Score: inf
ROOT
ATOM      1  C   UNL     1      21.201  -7.175  43.739  1.00  0.00     0.000 C 
ENDROOT
BRANCH   1   2
ATOM      2  C   UNL     1      21.203  -7.302  45.273  1.00  0.00     0.000 C 
BRANCH   2   3
ATOM      3  C   UNL     1      19.795  -7.157  45.876  1.00  0.00     0.000 C 
BRANCH   3   4
ATOM      4  C   UNL     1      19.821  -6.563  47.294  1.00  0.00     0.000 C 
BRANCH   4   5
ATOM      5  C   UNL     1      20.580  -7.447  48.302  1.00  0.00     0.006 C 
BRANCH   5   6
ATOM      6  C   UNL     1      20.261  -7.133  49.775  1.00  0.00     0.053 C 
BRANCH   6   7
ATOM      7  C   UNL     1      21.492  -7.023  50.623  1.00  0.00     0.041 C 
ATOM      8  O   UNL     1      22.010  -5.898  50.848  1.00  0.00    -0.550 OA
ATOM      9  O   UNL     1      22.086  -8.169  51.138  1.00  0.00    -0.550 OA
ENDBRANCH   6   7
ENDBRANCH   5   6
ENDBRANCH   4   5
ENDBRANCH   3   4
ENDBRANCH   2   3
ENDBRANCH   1   2
BRANCH   1  10
ATOM     10  C   UNL     1      19.940  -6.474  43.206  1.00  0.00     0.000 C 
BRANCH  10  11
ATOM     11  C   UNL     1      20.155  -4.969  42.968  1.00  0.00    -0.000 C 
BRANCH  11  12
ATOM     12  C   UNL     1      19.323  -4.096  43.921  1.00  0.00    -0.000 C 
BRANCH  12  13
ATOM     13  C   UNL     1      20.173  -3.440  45.020  1.00  0.00    -0.000 C 
BRANCH  13  14
ATOM     14  C   UNL     1      21.664  -3.474  44.652  1.00  0.00    -0.000 C 
BRANCH  14  15
ATOM     15  C   UNL     1      22.537  -4.061  45.772  1.00  0.00    -0.003 C 
ATOM     16  C   UNL     1      22.107  -3.595  47.163  1.00  0.00     0.004 C 
ENDBRANCH  14  15
ENDBRANCH  13  14
ENDBRANCH  12  13
ENDBRANCH  11  12
ENDBRANCH  10  11
ENDBRANCH   1  10
TORSDOF 12
ENDMDL
MODEL 5
REMARK VINA RESULT:    -4.200      1.536      2.438
REMARK INTER + INTRA:          -8.217
REMARK INTER:                  -6.284
REMARK INTRA:                  -1.933
REMARK UNBOUND:                -1.071
REMARK SMILES CCCCCCCCCCCCCC(=O)[O-]
REMARK SMILES IDX 8 1 9 2 10 3 11 4 12 5 13 6 14 7 15 8 16 9 7 10 6 11 5 12
REMARK SMILES IDX 4 13 3 14 2 15 1 16
REMARK H PARENT
REMARK Flexibility Score: inf
ROOT
ATOM      1  C   UNL     1      22.088  -8.563  45.302  1.00  0.00     0.000 C 
ENDROOT
BRANCH   1   2
ATOM      2  C   UNL     1      22.098  -8.228  46.804  1.00  0.00     0.000 C 
BRANCH   2   3
ATOM      3  C   UNL     1      21.890  -6.727  47.071  1.00  0.00     0.000 C 
BRANCH   3   4
ATOM      4  C   UNL     1      20.547  -6.433  47.762  1.00  0.00     0.000 C 
BRANCH   4   5
ATOM      5  C   UNL     1      20.180  -7.477  48.832  1.00  0.00     0.006 C 
BRANCH   5   6
ATOM      6  C   UNL     1      20.354  -6.981  50.278  1.00  0.00     0.053 C 
BRANCH   6   7
ATOM      7  C   UNL     1      21.789  -6.939  50.708  1.00  0.00     0.041 C 
ATOM      8  O   UNL     1      22.305  -5.857  51.096  1.00  0.00    -0.550 OA
ATOM      9  O   UNL     1      22.567  -8.088  50.648  1.00  0.00    -0.550 OA
ENDBRANCH   6   7
ENDBRANCH   5   6
ENDBRANCH   4   5
ENDBRANCH   3   4
ENDBRANCH   2   3
ENDBRANCH   1   2
BRANCH   1  10
ATOM     10  C   UNL     1      20.830  -9.340  44.878  1.00  0.00     0.000 C 
BRANCH  10  11
ATOM     11  C   UNL     1      19.932  -8.536  43.923  1.00  0.00    -0.000 C 
BRANCH  11  12
ATOM     12  C   UNL     1      18.911  -7.660  44.669  1.00  0.00    -0.000 C 
BRANCH  12  13
ATOM     13  C   UNL     1      18.889  -6.210  44.162  1.00  0.00    -0.000 C 
BRANCH  13  14
ATOM     14  C   UNL     1      20.189  -5.872  43.416  1.00  0.00    -0.000 C 
BRANCH  14  15
ATOM     15  C   UNL     1      20.974  -4.731  44.082  1.00  0.00    -0.003 C 
ATOM     16  C   UNL     1      20.096  -3.850  44.972  1.00  0.00     0.004 C 
ENDBRANCH  14  15
ENDBRANCH  13  14
ENDBRANCH  12  13
ENDBRANCH  11  12
ENDBRANCH  10  11
ENDBRANCH   1  10
TORSDOF 12
ENDMDL
MODEL 6
REMARK VINA RESULT:    -4.192      3.597      5.290
REMARK INTER + INTRA:          -8.205
REMARK INTER:                  -6.228
REMARK INTRA:                  -1.977
REMARK UNBOUND:                -1.071
REMARK SMILES CCCCCCCCCCCCCC(=O)[O-]
REMARK SMILES IDX 8 1 9 2 10 3 11 4 12 5 13 6 14 7 15 8 16 9 7 10 6 11 5 12
REMARK SMILES IDX 4 13 3 14 2 15 1 16
REMARK H PARENT
REMARK Flexibility Score: inf
ROOT
ATOM      1  C   UNL     1      21.502  -7.316  45.977  1.00  0.00     0.000 C 
ENDROOT
BRANCH   1   2
ATOM      2  C   UNL     1      20.602  -6.332  46.748  1.00  0.00     0.000 C 
BRANCH   2   3
ATOM      3  C   UNL     1      20.938  -4.863  46.436  1.00  0.00     0.000 C 
BRANCH   3   4
ATOM      4  C   UNL     1      22.416  -4.666  46.057  1.00  0.00     0.000 C 
BRANCH   4   5
ATOM      5  C   UNL     1      22.601  -3.842  44.769  1.00  0.00     0.006 C 
BRANCH   5   6
ATOM      6  C   UNL     1      21.642  -2.644  44.647  1.00  0.00     0.053 C 
BRANCH   6   7
ATOM      7  C   UNL     1      22.237  -1.370  45.167  1.00  0.00     0.041 C 
ATOM      8  O   UNL     1      22.494  -1.243  46.393  1.00  0.00    -0.550 OA
ATOM      9  O   UNL     1      22.476  -0.311  44.301  1.00  0.00    -0.550 OA
ENDBRANCH   6   7
ENDBRANCH   5   6
ENDBRANCH   4   5
ENDBRANCH   3   4
ENDBRANCH   2   3
ENDBRANCH   1   2
BRANCH   1  10
ATOM     10  C   UNL     1      20.700  -8.422  45.273  1.00  0.00     0.000 C 
BRANCH  10  11
ATOM     11  C   UNL     1      20.621  -8.219  43.750  1.00  0.00    -0.000 C 
BRANCH  11  12
ATOM     12  C   UNL     1      21.366  -6.957  43.284  1.00  0.00    -0.000 C 
BRANCH  12  13
ATOM     13  C   UNL     1      20.436  -5.930  42.620  1.00  0.00    -0.000 C 
BRANCH  13  14
ATOM     14  C   UNL     1      19.093  -5.849  43.360  1.00  0.00    -0.000 C 
BRANCH  14  15
ATOM     15  C   UNL     1      18.440  -4.462  43.252  1.00  0.00    -0.003 C 
ATOM     16  C   UNL     1      19.045  -3.608  42.138  1.00  0.00     0.004 C 
ENDBRANCH  14  15
ENDBRANCH  13  14
ENDBRANCH  12  13
ENDBRANCH  11  12
ENDBRANCH  10  11
ENDBRANCH   1  10
TORSDOF 12
ENDMDL
MODEL 7
REMARK VINA RESULT:    -4.181      3.488      6.412
REMARK INTER + INTRA:          -8.185
REMARK INTER:                  -6.663
REMARK INTRA:                  -1.522
REMARK UNBOUND:                -1.071
REMARK SMILES CCCCCCCCCCCCCC(=O)[O-]
REMARK SMILES IDX 8 1 9 2 10 3 11 4 12 5 13 6 14 7 15 8 16 9 7 10 6 11 5 12
REMARK SMILES IDX 4 13 3 14 2 15 1 16
REMARK H PARENT
REMARK Flexibility Score: inf
ROOT
ATOM      1  C   UNL     1      20.806  -7.009  50.332  1.00  0.00     0.000 C 
ENDROOT
BRANCH   1   2
ATOM      2  C   UNL     1      20.849  -7.445  48.856  1.00  0.00     0.000 C 
BRANCH   2   3
ATOM      3  C   UNL     1      19.872  -6.643  47.979  1.00  0.00     0.000 C 
BRANCH   3   4
ATOM      4  C   UNL     1      20.219  -6.727  46.483  1.00  0.00     0.000 C 
BRANCH   4   5
ATOM      5  C   UNL     1      18.975  -6.730  45.576  1.00  0.00     0.006 C 
BRANCH   5   6
ATOM      6  C   UNL     1      19.105  -7.634  44.337  1.00  0.00     0.053 C 
BRANCH   6   7
ATOM      7  C   UNL     1      20.265  -7.260  43.465  1.00  0.00     0.041 C 
ATOM      8  O   UNL     1      21.207  -8.074  43.277  1.00  0.00    -0.550 OA
ATOM      9  O   UNL     1      20.322  -5.998  42.887  1.00  0.00    -0.550 OA
ENDBRANCH   6   7
ENDBRANCH   5   6
ENDBRANCH   4   5
ENDBRANCH   3   4
ENDBRANCH   2   3
ENDBRANCH   1   2
BRANCH   1  10
ATOM     10  C   UNL     1      21.991  -7.557  51.145  1.00  0.00     0.000 C 
BRANCH  10  11
ATOM     11  C   UNL     1      23.217  -6.628  51.103  1.00  0.00    -0.000 C 
BRANCH  11  12
ATOM     12  C   UNL     1      22.835  -5.142  51.207  1.00  0.00    -0.000 C 
BRANCH  12  13
ATOM     13  C   UNL     1      23.407  -4.300  50.057  1.00  0.00    -0.000 C 
BRANCH  13  14
ATOM     14  C   UNL     1      23.845  -5.196  48.888  1.00  0.00    -0.000 C 
BRANCH  14  15
ATOM     15  C   UNL     1      23.303  -4.712  47.535  1.00  0.00    -0.003 C 
ATOM     16  C   UNL     1      22.194  -3.669  47.681  1.00  0.00     0.004 C 
ENDBRANCH  14  15
ENDBRANCH  13  14
ENDBRANCH  12  13
ENDBRANCH  11  12
ENDBRANCH  10  11
ENDBRANCH   1  10
TORSDOF 12
ENDMDL
MODEL 8
REMARK VINA RESULT:    -4.149      1.724      3.105
REMARK INTER + INTRA:          -8.131
REMARK INTER:                  -6.114
REMARK INTRA:                  -2.016
REMARK UNBOUND:                -1.071
REMARK SMILES CCCCCCCCCCCCCC(=O)[O-]
REMARK SMILES IDX 8 1 9 2 10 3 11 4 12 5 13 6 14 7 15 8 16 9 7 10 6 11 5 12
REMARK SMILES IDX 4 13 3 14 2 15 1 16
REMARK H PARENT
REMARK Flexibility Score: inf
ROOT
ATOM      1  C   UNL     1      22.374  -6.751  47.052  1.00  0.00     0.000 C 
ENDROOT
BRANCH   1   2
ATOM      2  C   UNL     1      21.345  -6.113  48.003  1.00  0.00     0.000 C 
BRANCH   2   3
ATOM      3  C   UNL     1      20.252  -7.106  48.435  1.00  0.00     0.000 C 
BRANCH   3   4
ATOM      4  C   UNL     1      20.244  -7.346  49.955  1.00  0.00     0.000 C 
BRANCH   4   5
ATOM      5  C   UNL     1      21.454  -6.716  50.669  1.00  0.00     0.006 C 
BRANCH   5   6
ATOM      6  C   UNL     1      22.463  -7.742  51.216  1.00  0.00     0.053 C 
BRANCH   6   7
ATOM      7  C   UNL     1      23.686  -7.866  50.359  1.00  0.00     0.041 C 
ATOM      8  O   UNL     1      24.435  -6.871  50.173  1.00  0.00    -0.550 OA
ATOM      9  O   UNL     1      23.980  -9.073  49.737  1.00  0.00    -0.550 OA
ENDBRANCH   6   7
ENDBRANCH   5   6
ENDBRANCH   4   5
ENDBRANCH   3   4
ENDBRANCH   2   3
ENDBRANCH   1   2
BRANCH   1  10
ATOM     10  C   UNL     1      22.106  -8.246  46.807  1.00  0.00     0.000 C 
BRANCH  10  11
ATOM     11  C   UNL     1      22.037  -8.598  45.311  1.00  0.00    -0.000 C 
BRANCH  11  12
ATOM     12  C   UNL     1      20.642  -9.084  44.883  1.00  0.00    -0.000 C 
BRANCH  12  13
ATOM     13  C   UNL     1      19.901  -8.065  44.005  1.00  0.00    -0.000 C 
BRANCH  13  14
ATOM     14  C   UNL     1      19.063  -7.108  44.866  1.00  0.00    -0.000 C 
BRANCH  14  15
ATOM     15  C   UNL     1      19.533  -5.649  44.759  1.00  0.00    -0.003 C 
ATOM     16  C   UNL     1      20.723  -5.479  43.816  1.00  0.00     0.004 C 
ENDBRANCH  14  15
ENDBRANCH  13  14
ENDBRANCH  12  13
ENDBRANCH  11  12
ENDBRANCH  10  11
ENDBRANCH   1  10
TORSDOF 12
ENDMDL
MODEL 9
REMARK VINA RESULT:    -4.137      3.464      6.148
REMARK INTER + INTRA:          -8.110
REMARK INTER:                  -6.499
REMARK INTRA:                  -1.611
REMARK UNBOUND:                -1.071
REMARK SMILES CCCCCCCCCCCCCC(=O)[O-]
REMARK SMILES IDX 8 1 9 2 10 3 11 4 12 5 13 6 14 7 15 8 16 9 7 10 6 11 5 12
REMARK SMILES IDX 4 13 3 14 2 15 1 16
REMARK H PARENT
REMARK Flexibility Score: inf
ROOT
ATOM      1  C   UNL     1      20.270  -7.141  49.861  1.00  0.00     0.000 C 
ENDROOT
BRANCH   1   2
ATOM      2  C   UNL     1      20.647  -7.353  48.383  1.00  0.00     0.000 C 
BRANCH   2   3
ATOM      3  C   UNL     1      19.858  -6.429  47.439  1.00  0.00     0.000 C 
BRANCH   3   4
ATOM      4  C   UNL     1      20.775  -5.499  46.625  1.00  0.00     0.000 C 
BRANCH   4   5
ATOM      5  C   UNL     1      21.807  -4.760  47.496  1.00  0.00     0.006 C 
BRANCH   5   6
ATOM      6  C   UNL     1      22.081  -3.312  47.051  1.00  0.00     0.053 C 
BRANCH   6   7
ATOM      7  C   UNL     1      23.529  -3.062  46.752  1.00  0.00     0.041 C 
ATOM      8  O   UNL     1      24.389  -3.949  46.991  1.00  0.00    -0.550 OA
ATOM      9  O   UNL     1      23.930  -1.834  46.240  1.00  0.00    -0.550 OA
ENDBRANCH   6   7
ENDBRANCH   5   6
ENDBRANCH   4   5
ENDBRANCH   3   4
ENDBRANCH   2   3
ENDBRANCH   1   2
BRANCH   1  10
ATOM     10  C   UNL     1      21.469  -7.317  50.808  1.00  0.00     0.000 C 
BRANCH  10  11
ATOM     11  C   UNL     1      22.160  -5.984  51.143  1.00  0.00    -0.000 C 
BRANCH  11  12
ATOM     12  C   UNL     1      23.578  -5.889  50.554  1.00  0.00    -0.000 C 
BRANCH  12  13
ATOM     13  C   UNL     1      24.105  -4.447  50.505  1.00  0.00    -0.000 C 
BRANCH  13  14
ATOM     14  C   UNL     1      22.986  -3.444  50.822  1.00  0.00    -0.000 C 
BRANCH  14  15
ATOM     15  C   UNL     1      23.350  -2.005  50.424  1.00  0.00    -0.003 C 
ATOM     16  C   UNL     1      22.122  -1.149  50.112  1.00  0.00     0.004 C 
ENDBRANCH  14  15
ENDBRANCH  13  14
ENDBRANCH  12  13
ENDBRANCH  11  12
ENDBRANCH  10  11
ENDBRANCH   1  10
TORSDOF 12
ENDMDL
