MODEL 1
REMARK VINA RESULT:    -4.369      0.000      0.000
REMARK INTER + INTRA:          -4.817
REMARK INTER:                  -4.752
REMARK INTRA:                  -0.065
REMARK UNBOUND:                -0.065
REMARK SMILES COc1cc2ccc(=O)oc2cc1O
REMARK SMILES IDX 3 1 13 2 12 3 11 4 5 5 4 6 6 7 7 8 8 9 9 10 10 11 2 12 1 13
REMARK SMILES IDX 14 14
REMARK H PARENT 14 15
REMARK Flexibility Score: inf
ROOT
ATOM      1  C   UNL     1      60.081  -3.788 -49.082  1.00  0.00     0.161 A 
ATOM      2  C   UNL     1      61.441  -4.097 -49.239  1.00  0.00     0.161 A 
ATOM      3  C   UNL     1      62.109  -4.865 -48.274  1.00  0.00     0.098 A 
ATOM      4  C   UNL     1      61.426  -5.329 -47.147  1.00  0.00     0.142 A 
ATOM      5  C   UNL     1      60.058  -5.023 -46.981  1.00  0.00     0.022 A 
ATOM      6  C   UNL     1      59.391  -4.256 -47.945  1.00  0.00     0.062 A 
ATOM      7  C   UNL     1      59.402  -5.503 -45.843  1.00  0.00     0.019 A 
ATOM      8  C   UNL     1      60.111  -6.262 -44.913  1.00  0.00     0.094 A 
ATOM      9  C   UNL     1      61.465  -6.526 -45.143  1.00  0.00     0.336 A 
ATOM     10  O   UNL     1      62.122  -7.209 -44.316  1.00  0.00    -0.246 OA
ATOM     11  O   UNL     1      62.066  -6.057 -46.235  1.00  0.00    -0.423 OA
ENDROOT
BRANCH   1  12
ATOM     12  O   UNL     1      59.453  -3.017 -50.073  1.00  0.00    -0.493 OA
ATOM     13  C   UNL     1      59.186  -1.623 -49.961  1.00  0.00     0.278 C 
ENDBRANCH   1  12
BRANCH   2  14
ATOM     14  O   UNL     1      62.125  -3.634 -50.362  1.00  0.00    -0.504 OA
ATOM     15  H   UNL     1      62.641  -2.762 -50.347  1.00  0.00     0.293 HD
ENDBRANCH   2  14
TORSDOF 2
ENDMDL
MODEL 2
REMARK VINA RESULT:    -4.288     16.801     18.737
REMARK INTER + INTRA:          -4.729
REMARK INTER:                  -4.682
REMARK INTRA:                  -0.046
REMARK UNBOUND:                -0.065
REMARK SMILES COc1cc2ccc(=O)oc2cc1O
REMARK SMILES IDX 3 1 13 2 12 3 11 4 5 5 4 6 6 7 7 8 8 9 9 10 10 11 2 12 1 13
REMARK SMILES IDX 14 14
REMARK H PARENT 14 15
REMARK Flexibility Score: inf
ROOT
ATOM      1  C   UNL     1      45.990   2.584 -42.869  1.00  0.00     0.161 A 
ATOM      2  C   UNL     1      46.535   3.435 -43.843  1.00  0.00     0.161 A 
ATOM      3  C   UNL     1      45.777   3.808 -44.963  1.00  0.00     0.098 A 
ATOM      4  C   UNL     1      44.472   3.336 -45.118  1.00  0.00     0.142 A 
ATOM      5  C   UNL     1      43.914   2.481 -44.143  1.00  0.00     0.022 A 
ATOM      6  C   UNL     1      44.672   2.107 -43.025  1.00  0.00     0.062 A 
ATOM      7  C   UNL     1      42.605   2.026 -44.327  1.00  0.00     0.019 A 
ATOM      8  C   UNL     1      41.893   2.426 -45.457  1.00  0.00     0.094 A 
ATOM      9  C   UNL     1      42.509   3.276 -46.381  1.00  0.00     0.336 A 
ATOM     10  O   UNL     1      41.884   3.649 -47.407  1.00  0.00    -0.246 OA
ATOM     11  O   UNL     1      43.757   3.695 -46.182  1.00  0.00    -0.423 OA
ENDROOT
BRANCH   1  12
ATOM     12  O   UNL     1      46.784   2.237 -41.766  1.00  0.00    -0.493 OA
ATOM     13  C   UNL     1      46.274   1.791 -40.513  1.00  0.00     0.278 C 
ENDBRANCH   1  12
BRANCH   2  14
ATOM     14  O   UNL     1      47.838   3.906 -43.690  1.00  0.00    -0.504 OA
ATOM     15  H   UNL     1      48.164   4.732 -44.180  1.00  0.00     0.293 HD
ENDBRANCH   2  14
TORSDOF 2
ENDMDL
MODEL 3
REMARK VINA RESULT:    -4.242     16.401     17.981
REMARK INTER + INTRA:          -4.679
REMARK INTER:                  -4.619
REMARK INTRA:                  -0.059
REMARK UNBOUND:                -0.065
REMARK SMILES COc1cc2ccc(=O)oc2cc1O
REMARK SMILES IDX 3 1 13 2 12 3 11 4 5 5 4 6 6 7 7 8 8 9 9 10 10 11 2 12 1 13
REMARK SMILES IDX 14 14
REMARK H PARENT 14 15
REMARK Flexibility Score: inf
ROOT
ATOM      1  C   UNL     1      43.849   3.269 -45.285  1.00  0.00     0.161 A 
ATOM      2  C   UNL     1      43.201   2.431 -44.365  1.00  0.00     0.161 A 
ATOM      3  C   UNL     1      43.879   1.967 -43.228  1.00  0.00     0.098 A 
ATOM      4  C   UNL     1      45.207   2.336 -43.002  1.00  0.00     0.142 A 
ATOM      5  C   UNL     1      45.867   3.179 -43.921  1.00  0.00     0.022 A 
ATOM      6  C   UNL     1      45.190   3.642 -45.057  1.00  0.00     0.062 A 
ATOM      7  C   UNL     1      47.197   3.531 -43.666  1.00  0.00     0.019 A 
ATOM      8  C   UNL     1      47.826   3.044 -42.522  1.00  0.00     0.094 A 
ATOM      9  C   UNL     1      47.109   2.213 -41.654  1.00  0.00     0.336 A 
ATOM     10  O   UNL     1      47.660   1.762 -40.616  1.00  0.00    -0.246 OA
ATOM     11  O   UNL     1      45.845   1.893 -41.921  1.00  0.00    -0.423 OA
ENDROOT
BRANCH   1  12
ATOM     12  O   UNL     1      43.132   3.710 -46.408  1.00  0.00    -0.493 OA
ATOM     13  C   UNL     1      43.188   3.096 -47.692  1.00  0.00     0.278 C 
ENDBRANCH   1  12
BRANCH   2  14
ATOM     14  O   UNL     1      41.875   2.061 -44.589  1.00  0.00    -0.504 OA
ATOM     15  H   UNL     1      41.103   2.639 -44.276  1.00  0.00     0.293 HD
ENDBRANCH   2  14
TORSDOF 2
ENDMDL
MODEL 4
REMARK VINA RESULT:    -4.190     14.264     14.737
REMARK INTER + INTRA:          -4.623
REMARK INTER:                  -4.558
REMARK INTRA:                  -0.065
REMARK UNBOUND:                -0.065
REMARK SMILES COc1cc2ccc(=O)oc2cc1O
REMARK SMILES IDX 3 1 13 2 12 3 11 4 5 5 4 6 6 7 7 8 8 9 9 10 10 11 2 12 1 13
REMARK SMILES IDX 14 14
REMARK H PARENT 14 15
REMARK Flexibility Score: inf
ROOT
ATOM      1  C   UNL     1      53.216   7.689 -48.521  1.00  0.00     0.161 A 
ATOM      2  C   UNL     1      52.021   7.433 -47.832  1.00  0.00     0.161 A 
ATOM      3  C   UNL     1      52.011   7.364 -46.431  1.00  0.00     0.098 A 
ATOM      4  C   UNL     1      53.193   7.549 -45.709  1.00  0.00     0.142 A 
ATOM      5  C   UNL     1      54.400   7.808 -46.394  1.00  0.00     0.022 A 
ATOM      6  C   UNL     1      54.410   7.876 -47.794  1.00  0.00     0.062 A 
ATOM      7  C   UNL     1      55.566   7.990 -45.643  1.00  0.00     0.019 A 
ATOM      8  C   UNL     1      55.504   7.911 -44.253  1.00  0.00     0.094 A 
ATOM      9  C   UNL     1      54.272   7.652 -43.642  1.00  0.00     0.336 A 
ATOM     10  O   UNL     1      54.195   7.576 -42.388  1.00  0.00    -0.246 OA
ATOM     11  O   UNL     1      53.178   7.482 -44.380  1.00  0.00    -0.423 OA
ENDROOT
BRANCH   1  12
ATOM     12  O   UNL     1      53.179   7.750 -49.923  1.00  0.00    -0.493 OA
ATOM     13  C   UNL     1      53.197   8.957 -50.679  1.00  0.00     0.278 C 
ENDBRANCH   1  12
BRANCH   2  14
ATOM     14  O   UNL     1      50.841   7.247 -48.550  1.00  0.00    -0.504 OA
ATOM     15  H   UNL     1      49.933   7.430 -48.136  1.00  0.00     0.293 HD
ENDBRANCH   2  14
TORSDOF 2
ENDMDL
MODEL 5
REMARK VINA RESULT:    -4.139     11.902     14.218
REMARK INTER + INTRA:          -4.567
REMARK INTER:                  -4.508
REMARK INTRA:                  -0.059
REMARK UNBOUND:                -0.065
REMARK SMILES COc1cc2ccc(=O)oc2cc1O
REMARK SMILES IDX 3 1 13 2 12 3 11 4 5 5 4 6 6 7 7 8 8 9 9 10 10 11 2 12 1 13
REMARK SMILES IDX 14 14
REMARK H PARENT 14 15
REMARK Flexibility Score: inf
ROOT
ATOM      1  C   UNL     1      55.101   7.057 -46.037  1.00  0.00     0.161 A 
ATOM      2  C   UNL     1      55.905   6.127 -46.714  1.00  0.00     0.161 A 
ATOM      3  C   UNL     1      55.831   6.008 -48.110  1.00  0.00     0.098 A 
ATOM      4  C   UNL     1      54.955   6.816 -48.839  1.00  0.00     0.142 A 
ATOM      5  C   UNL     1      54.142   7.755 -48.167  1.00  0.00     0.022 A 
ATOM      6  C   UNL     1      54.216   7.873 -46.773  1.00  0.00     0.062 A 
ATOM      7  C   UNL     1      53.276   8.549 -48.925  1.00  0.00     0.019 A 
ATOM      8  C   UNL     1      53.240   8.393 -50.310  1.00  0.00     0.094 A 
ATOM      9  C   UNL     1      54.074   7.443 -50.908  1.00  0.00     0.336 A 
ATOM     10  O   UNL     1      54.056   7.287 -52.156  1.00  0.00    -0.246 OA
ATOM     11  O   UNL     1      54.889   6.700 -50.163  1.00  0.00    -0.423 OA
ENDROOT
BRANCH   1  12
ATOM     12  O   UNL     1      55.208   7.141 -44.641  1.00  0.00    -0.493 OA
ATOM     13  C   UNL     1      55.544   8.327 -43.927  1.00  0.00     0.278 C 
ENDBRANCH   1  12
BRANCH   2  14
ATOM     14  O   UNL     1      56.779   5.319 -45.988  1.00  0.00    -0.504 OA
ATOM     15  H   UNL     1      57.509   5.716 -45.406  1.00  0.00     0.293 HD
ENDBRANCH   2  14
TORSDOF 2
ENDMDL
MODEL 6
REMARK VINA RESULT:    -4.136      7.834      9.484
REMARK INTER + INTRA:          -4.564
REMARK INTER:                  -4.526
REMARK INTRA:                  -0.037
REMARK UNBOUND:                -0.065
REMARK SMILES COc1cc2ccc(=O)oc2cc1O
REMARK SMILES IDX 3 1 13 2 12 3 11 4 5 5 4 6 6 7 7 8 8 9 9 10 10 11 2 12 1 13
REMARK SMILES IDX 14 14
REMARK H PARENT 14 15
REMARK Flexibility Score: inf
ROOT
ATOM      1  C   UNL     1      51.832  -7.642 -51.796  1.00  0.00     0.161 A 
ATOM      2  C   UNL     1      52.035  -8.039 -50.465  1.00  0.00     0.161 A 
ATOM      3  C   UNL     1      52.782  -7.235 -49.591  1.00  0.00     0.098 A 
ATOM      4  C   UNL     1      53.330  -6.031 -50.039  1.00  0.00     0.142 A 
ATOM      5  C   UNL     1      53.131  -5.623 -51.375  1.00  0.00     0.022 A 
ATOM      6  C   UNL     1      52.386  -6.426 -52.248  1.00  0.00     0.062 A 
ATOM      7  C   UNL     1      53.693  -4.412 -51.793  1.00  0.00     0.019 A 
ATOM      8  C   UNL     1      54.427  -3.649 -50.886  1.00  0.00     0.094 A 
ATOM      9  C   UNL     1      54.583  -4.116 -49.577  1.00  0.00     0.336 A 
ATOM     10  O   UNL     1      55.242  -3.442 -48.743  1.00  0.00    -0.246 OA
ATOM     11  O   UNL     1      54.038  -5.272 -49.205  1.00  0.00    -0.423 OA
ENDROOT
BRANCH   1  12
ATOM     12  O   UNL     1      51.078  -8.477 -52.634  1.00  0.00    -0.493 OA
ATOM     13  C   UNL     1      51.623  -9.522 -53.434  1.00  0.00     0.278 C 
ENDBRANCH   1  12
BRANCH   2  14
ATOM     14  O   UNL     1      51.488  -9.241 -50.016  1.00  0.00    -0.504 OA
ATOM     15  H   UNL     1      51.456  -9.473 -49.030  1.00  0.00     0.293 HD
ENDBRANCH   2  14
TORSDOF 2
ENDMDL
MODEL 7
REMARK VINA RESULT:    -4.011      2.481      5.552
REMARK INTER + INTRA:          -4.427
REMARK INTER:                  -4.372
REMARK INTRA:                  -0.056
REMARK UNBOUND:                -0.065
REMARK SMILES COc1cc2ccc(=O)oc2cc1O
REMARK SMILES IDX 3 1 13 2 12 3 11 4 5 5 4 6 6 7 7 8 8 9 9 10 10 11 2 12 1 13
REMARK SMILES IDX 14 14
REMARK H PARENT 14 15
REMARK Flexibility Score: inf
ROOT
ATOM      1  C   UNL     1      61.092  -3.322 -48.349  1.00  0.00     0.161 A 
ATOM      2  C   UNL     1      61.112  -4.145 -49.486  1.00  0.00     0.161 A 
ATOM      3  C   UNL     1      60.121  -4.018 -50.471  1.00  0.00     0.098 A 
ATOM      4  C   UNL     1      59.105  -3.070 -50.328  1.00  0.00     0.142 A 
ATOM      5  C   UNL     1      59.077  -2.238 -49.189  1.00  0.00     0.022 A 
ATOM      6  C   UNL     1      60.066  -2.365 -48.205  1.00  0.00     0.062 A 
ATOM      7  C   UNL     1      58.047  -1.298 -49.076  1.00  0.00     0.019 A 
ATOM      8  C   UNL     1      57.086  -1.211 -50.082  1.00  0.00     0.094 A 
ATOM      9  C   UNL     1      57.177  -2.068 -51.183  1.00  0.00     0.336 A 
ATOM     10  O   UNL     1      56.319  -2.006 -52.102  1.00  0.00    -0.246 OA
ATOM     11  O   UNL     1      58.167  -2.954 -51.266  1.00  0.00    -0.423 OA
ENDROOT
BRANCH   1  12
ATOM     12  O   UNL     1      62.103  -3.484 -47.390  1.00  0.00    -0.493 OA
ATOM     13  C   UNL     1      61.871  -3.666 -45.996  1.00  0.00     0.278 C 
ENDBRANCH   1  12
BRANCH   2  14
ATOM     14  O   UNL     1      62.125  -5.092 -49.630  1.00  0.00    -0.504 OA
ATOM     15  H   UNL     1      62.104  -5.972 -49.126  1.00  0.00     0.293 HD
ENDBRANCH   2  14
TORSDOF 2
ENDMDL
MODEL 8
REMARK VINA RESULT:    -3.994      2.037      5.435
REMARK INTER + INTRA:          -4.410
REMARK INTER:                  -4.345
REMARK INTRA:                  -0.065
REMARK UNBOUND:                -0.065
REMARK SMILES COc1cc2ccc(=O)oc2cc1O
REMARK SMILES IDX 3 1 13 2 12 3 11 4 5 5 4 6 6 7 7 8 8 9 9 10 10 11 2 12 1 13
REMARK SMILES IDX 14 14
REMARK H PARENT 14 15
REMARK Flexibility Score: inf
ROOT
ATOM      1  C   UNL     1      61.206  -3.903 -47.660  1.00  0.00     0.161 A 
ATOM      2  C   UNL     1      61.387  -3.929 -49.051  1.00  0.00     0.161 A 
ATOM      3  C   UNL     1      60.830  -2.925 -49.857  1.00  0.00     0.098 A 
ATOM      4  C   UNL     1      60.090  -1.890 -49.280  1.00  0.00     0.142 A 
ATOM      5  C   UNL     1      59.903  -1.855 -47.882  1.00  0.00     0.022 A 
ATOM      6  C   UNL     1      60.459  -2.859 -47.077  1.00  0.00     0.062 A 
ATOM      7  C   UNL     1      59.158  -0.806 -47.335  1.00  0.00     0.019 A 
ATOM      8  C   UNL     1      58.625   0.167 -48.178  1.00  0.00     0.094 A 
ATOM      9  C   UNL     1      58.851   0.070 -49.555  1.00  0.00     0.336 A 
ATOM     10  O   UNL     1      58.378   0.938 -50.333  1.00  0.00    -0.246 OA
ATOM     11  O   UNL     1      59.563  -0.939 -50.050  1.00  0.00    -0.423 OA
ENDROOT
BRANCH   1  12
ATOM     12  O   UNL     1      61.782  -4.928 -46.893  1.00  0.00    -0.493 OA
ATOM     13  C   UNL     1      61.066  -6.042 -46.368  1.00  0.00     0.278 C 
ENDBRANCH   1  12
BRANCH   2  14
ATOM     14  O   UNL     1      62.125  -4.961 -49.629  1.00  0.00    -0.504 OA
ATOM     15  H   UNL     1      61.842  -5.930 -49.538  1.00  0.00     0.293 HD
ENDBRANCH   2  14
TORSDOF 2
ENDMDL
MODEL 9
REMARK VINA RESULT:    -3.758     13.686     14.875
REMARK INTER + INTRA:          -4.152
REMARK INTER:                  -4.087
REMARK INTRA:                  -0.065
REMARK UNBOUND:                -0.065
REMARK SMILES COc1cc2ccc(=O)oc2cc1O
REMARK SMILES IDX 3 1 13 2 12 3 11 4 5 5 4 6 6 7 7 8 8 9 9 10 10 11 2 12 1 13
REMARK SMILES IDX 14 14
REMARK H PARENT 14 15
REMARK Flexibility Score: inf
ROOT
ATOM      1  C   UNL     1      53.728   7.459 -44.353  1.00  0.00     0.161 A 
ATOM      2  C   UNL     1      55.054   7.461 -44.811  1.00  0.00     0.161 A 
ATOM      3  C   UNL     1      55.329   7.477 -46.187  1.00  0.00     0.098 A 
ATOM      4  C   UNL     1      54.283   7.493 -47.113  1.00  0.00     0.142 A 
ATOM      5  C   UNL     1      52.946   7.492 -46.662  1.00  0.00     0.022 A 
ATOM      6  C   UNL     1      52.671   7.475 -45.287  1.00  0.00     0.062 A 
ATOM      7  C   UNL     1      51.922   7.508 -47.614  1.00  0.00     0.019 A 
ATOM      8  C   UNL     1      52.247   7.524 -48.969  1.00  0.00     0.094 A 
ATOM      9  C   UNL     1      53.595   7.524 -49.343  1.00  0.00     0.336 A 
ATOM     10  O   UNL     1      53.909   7.538 -50.562  1.00  0.00    -0.246 OA
ATOM     11  O   UNL     1      54.550   7.508 -48.417  1.00  0.00    -0.423 OA
ENDROOT
BRANCH   1  12
ATOM     12  O   UNL     1      53.500   7.443 -42.968  1.00  0.00    -0.493 OA
ATOM     13  C   UNL     1      53.039   6.309 -42.240  1.00  0.00     0.278 C 
ENDBRANCH   1  12
BRANCH   2  14
ATOM     14  O   UNL     1      56.099   7.445 -43.888  1.00  0.00    -0.504 OA
ATOM     15  H   UNL     1      57.067   7.381 -44.184  1.00  0.00     0.293 HD
ENDBRANCH   2  14
TORSDOF 2
ENDMDL
