MODEL 1
REMARK VINA RESULT:    -5.862      0.000      0.000
REMARK INTER + INTRA:          -9.473
REMARK INTER:                  -8.261
REMARK INTRA:                  -1.212
REMARK UNBOUND:                -1.212
REMARK SMILES OC[C@H]1O[C@@H](O[C@@H]2OC=C[C@H]3[C@@H](O)[C@H]4O[C@@]4(CO)[C@H]23)[C@@H](O)[C@H](O)[C@H]1O
REMARK SMILES IDX 6 1 7 2 10 3 9 4 11 5 8 6 19 7 12 8 16 9 14 10 15 11 13 12
REMARK SMILES IDX 17 14 18 15 5 17 20 18 4 19 22 20 3 21 24 22 21 23 23 25
REMARK SMILES IDX 2 27 1 28 25 30
REMARK H PARENT 13 13 18 16 21 24 23 26 1 29 25 31
REMARK Flexibility Score: inf
ROOT
ATOM      1  O   UNL     1     108.377  43.228 137.453  1.00  0.00    -0.310 OA
ENDROOT
BRANCH   1   2
ATOM      2  C   UNL     1     109.084  42.145 136.855  1.00  0.00     0.315 C 
ATOM      3  C   UNL     1     107.141  40.720 135.216  1.00  0.00     0.018 C 
ATOM      4  C   UNL     1     108.068  41.496 134.634  1.00  0.00     0.186 C 
ATOM      5  C   UNL     1     107.068  40.714 136.714  1.00  0.00     0.059 C 
ATOM      6  O   UNL     1     109.036  42.178 135.407  1.00  0.00    -0.472 OA
ATOM      7  C   UNL     1     108.471  40.800 137.292  1.00  0.00     0.105 C 
ATOM      8  C   UNL     1     106.433  39.521 137.426  1.00  0.00     0.154 C 
ATOM      9  C   UNL     1     108.261  40.428 138.757  1.00  0.00     0.130 C 
ATOM     10  C   UNL     1     107.018  39.616 138.845  1.00  0.00     0.183 C 
ATOM     11  O   UNL     1     108.298  39.037 138.996  1.00  0.00    -0.360 OA
BRANCH   8  12
ATOM     12  O   UNL     1     106.804  38.304 136.831  1.00  0.00    -0.390 OA
ATOM     13  H   UNL     1     106.637  37.596 137.506  1.00  0.00     0.211 HD
ENDBRANCH   8  12
BRANCH   9  14
ATOM     14  C   UNL     1     108.652  41.280 139.964  1.00  0.00     0.195 C 
BRANCH  14  15
ATOM     15  O   UNL     1     109.990  41.680 139.856  1.00  0.00    -0.393 OA
ATOM     16  H   UNL     1     110.238  42.085 140.728  1.00  0.00     0.210 HD
ENDBRANCH  14  15
ENDBRANCH   9  14
ENDBRANCH   1   2
BRANCH   1  17
ATOM     17  C   UNL     1     108.757  44.497 136.938  1.00  0.00     0.286 C 
ATOM     18  C   UNL     1     107.538  45.228 136.345  1.00  0.00     0.202 C 
ATOM     19  O   UNL     1     109.481  45.275 137.890  1.00  0.00    -0.341 OA
ATOM     20  C   UNL     1     106.627  45.768 137.447  1.00  0.00     0.179 C 
ATOM     21  C   UNL     1     108.690  45.862 138.921  1.00  0.00     0.178 C 
ATOM     22  C   UNL     1     107.465  46.644 138.380  1.00  0.00     0.177 C 
BRANCH  18  23
ATOM     23  O   UNL     1     106.824  44.345 135.518  1.00  0.00    -0.385 OA
ATOM     24  H   UNL     1     107.244  43.451 135.614  1.00  0.00     0.211 HD
ENDBRANCH  18  23
BRANCH  20  25
ATOM     25  O   UNL     1     105.604  46.536 136.866  1.00  0.00    -0.387 OA
ATOM     26  H   UNL     1     105.486  47.339 137.438  1.00  0.00     0.211 HD
ENDBRANCH  20  25
BRANCH  21  27
ATOM     27  C   UNL     1     108.356  44.850 140.031  1.00  0.00     0.191 C 
BRANCH  27  28
ATOM     28  O   UNL     1     109.503  44.545 140.777  1.00  0.00    -0.394 OA
ATOM     29  H   UNL     1     109.880  43.718 140.377  1.00  0.00     0.210 HD
ENDBRANCH  27  28
ENDBRANCH  21  27
BRANCH  22  30
ATOM     30  O   UNL     1     106.663  47.122 139.428  1.00  0.00    -0.387 OA
ATOM     31  H   UNL     1     105.733  47.156 139.084  1.00  0.00     0.211 HD
ENDBRANCH  22  30
ENDBRANCH   1  17
TORSDOF 10
ENDMDL
MODEL 2
REMARK VINA RESULT:    -5.741      1.379      6.045
REMARK INTER + INTRA:          -9.302
REMARK INTER:                  -7.898
REMARK INTRA:                  -1.404
REMARK UNBOUND:                -1.212
REMARK SMILES OC[C@H]1O[C@@H](O[C@@H]2OC=C[C@H]3[C@@H](O)[C@H]4O[C@@]4(CO)[C@H]23)[C@@H](O)[C@H](O)[C@H]1O
REMARK SMILES IDX 6 1 7 2 10 3 9 4 11 5 8 6 19 7 12 8 16 9 14 10 15 11 13 12
REMARK SMILES IDX 17 14 18 15 5 17 20 18 4 19 22 20 3 21 24 22 21 23 23 25
REMARK SMILES IDX 2 27 1 28 25 30
REMARK H PARENT 13 13 18 16 21 24 23 26 1 29 25 31
REMARK Flexibility Score: inf
ROOT
ATOM      1  O   UNL     1     108.373  42.884 137.687  1.00  0.00    -0.310 OA
ENDROOT
BRANCH   1   2
ATOM      2  C   UNL     1     108.747  44.169 137.197  1.00  0.00     0.315 C 
ATOM      3  C   UNL     1     107.990  46.073 139.268  1.00  0.00     0.018 C 
ATOM      4  C   UNL     1     109.281  45.756 139.089  1.00  0.00     0.186 C 
ATOM      5  C   UNL     1     106.965  45.332 138.463  1.00  0.00     0.059 C 
ATOM      6  O   UNL     1     109.675  44.853 138.075  1.00  0.00    -0.472 OA
ATOM      7  C   UNL     1     107.505  45.073 137.067  1.00  0.00     0.105 C 
ATOM      8  C   UNL     1     105.595  45.966 138.232  1.00  0.00     0.154 C 
ATOM      9  C   UNL     1     106.260  44.655 136.289  1.00  0.00     0.130 C 
ATOM     10  C   UNL     1     105.077  45.224 136.988  1.00  0.00     0.183 C 
ATOM     11  O   UNL     1     105.537  45.743 135.757  1.00  0.00    -0.360 OA
BRANCH   8  12
ATOM     12  O   UNL     1     105.698  47.341 137.965  1.00  0.00    -0.390 OA
ATOM     13  H   UNL     1     104.930  47.777 138.418  1.00  0.00     0.211 HD
ENDBRANCH   8  12
BRANCH   9  14
ATOM     14  C   UNL     1     106.081  43.347 135.518  1.00  0.00     0.195 C 
BRANCH  14  15
ATOM     15  O   UNL     1     106.827  43.384 134.333  1.00  0.00    -0.393 OA
ATOM     16  H   UNL     1     107.582  42.750 134.451  1.00  0.00     0.210 HD
ENDBRANCH  14  15
ENDBRANCH   9  14
ENDBRANCH   1   2
BRANCH   1  17
ATOM     17  C   UNL     1     109.471  42.140 138.200  1.00  0.00     0.286 C 
ATOM     18  C   UNL     1     109.177  41.662 139.635  1.00  0.00     0.202 C 
ATOM     19  O   UNL     1     109.875  41.091 137.321  1.00  0.00    -0.341 OA
ATOM     20  C   UNL     1     108.181  40.503 139.639  1.00  0.00     0.179 C 
ATOM     21  C   UNL     1     109.025  39.947 137.311  1.00  0.00     0.178 C 
ATOM     22  C   UNL     1     108.723  39.398 138.730  1.00  0.00     0.177 C 
BRANCH  18  23
ATOM     23  O   UNL     1     108.671  42.736 140.388  1.00  0.00    -0.385 OA
ATOM     24  H   UNL     1     108.876  42.546 141.340  1.00  0.00     0.211 HD
ENDBRANCH  18  23
BRANCH  20  25
ATOM     25  O   UNL     1     108.043  40.016 140.949  1.00  0.00    -0.387 OA
ATOM     26  H   UNL     1     108.276  40.763 141.560  1.00  0.00     0.211 HD
ENDBRANCH  20  25
BRANCH  21  27
ATOM     27  C   UNL     1     107.776  40.170 136.439  1.00  0.00     0.191 C 
BRANCH  27  28
ATOM     28  O   UNL     1     108.128  40.784 135.229  1.00  0.00    -0.394 OA
ATOM     29  H   UNL     1     108.981  41.263 135.400  1.00  0.00     0.210 HD
ENDBRANCH  27  28
ENDBRANCH  21  27
BRANCH  22  30
ATOM     30  O   UNL     1     107.808  38.335 138.680  1.00  0.00    -0.387 OA
ATOM     31  H   UNL     1     108.024  37.735 139.440  1.00  0.00     0.211 HD
ENDBRANCH  22  30
ENDBRANCH   1  17
TORSDOF 10
ENDMDL
MODEL 3
REMARK VINA RESULT:    -5.702      1.865      4.065
REMARK INTER + INTRA:          -9.247
REMARK INTER:                  -8.032
REMARK INTRA:                  -1.215
REMARK UNBOUND:                -1.212
REMARK SMILES OC[C@H]1O[C@@H](O[C@@H]2OC=C[C@H]3[C@@H](O)[C@H]4O[C@@]4(CO)[C@H]23)[C@@H](O)[C@H](O)[C@H]1O
REMARK SMILES IDX 6 1 7 2 10 3 9 4 11 5 8 6 19 7 12 8 16 9 14 10 15 11 13 12
REMARK SMILES IDX 17 14 18 15 5 17 20 18 4 19 22 20 3 21 24 22 21 23 23 25
REMARK SMILES IDX 2 27 1 28 25 30
REMARK H PARENT 13 13 18 16 21 24 23 26 1 29 25 31
REMARK Flexibility Score: inf
ROOT
ATOM      1  O   UNL     1     107.182  43.811 138.101  1.00  0.00    -0.310 OA
ENDROOT
BRANCH   1   2
ATOM      2  C   UNL     1     106.992  42.399 138.134  1.00  0.00     0.315 C 
ATOM      3  C   UNL     1     109.631  41.221 137.764  1.00  0.00     0.018 C 
ATOM      4  C   UNL     1     109.057  41.211 138.976  1.00  0.00     0.186 C 
ATOM      5  C   UNL     1     108.932  41.956 136.660  1.00  0.00     0.059 C 
ATOM      6  O   UNL     1     107.766  41.755 139.175  1.00  0.00    -0.472 OA
ATOM      7  C   UNL     1     107.431  41.770 136.797  1.00  0.00     0.105 C 
ATOM      8  C   UNL     1     109.234  41.587 135.209  1.00  0.00     0.154 C 
ATOM      9  C   UNL     1     106.901  42.250 135.447  1.00  0.00     0.130 C 
ATOM     10  C   UNL     1     108.002  42.116 134.456  1.00  0.00     0.183 C 
ATOM     11  O   UNL     1     106.889  41.245 134.457  1.00  0.00    -0.360 OA
BRANCH   8  12
ATOM     12  O   UNL     1     109.343  40.197 135.039  1.00  0.00    -0.390 OA
ATOM     13  H   UNL     1     109.454  40.038 134.066  1.00  0.00     0.211 HD
ENDBRANCH   8  12
BRANCH   9  14
ATOM     14  C   UNL     1     105.866  43.354 135.231  1.00  0.00     0.195 C 
BRANCH  14  15
ATOM     15  O   UNL     1     104.631  42.793 134.883  1.00  0.00    -0.393 OA
ATOM     16  H   UNL     1     104.708  42.496 133.939  1.00  0.00     0.210 HD
ENDBRANCH  14  15
ENDBRANCH   9  14
ENDBRANCH   1   2
BRANCH   1  17
ATOM     17  C   UNL     1     107.116  44.415 139.386  1.00  0.00     0.286 C 
ATOM     18  C   UNL     1     108.389  45.237 139.663  1.00  0.00     0.202 C 
ATOM     19  O   UNL     1     105.909  45.149 139.581  1.00  0.00    -0.341 OA
ATOM     20  C   UNL     1     108.385  46.545 138.872  1.00  0.00     0.179 C 
ATOM     21  C   UNL     1     105.852  46.410 138.918  1.00  0.00     0.178 C 
ATOM     22  C   UNL     1     107.093  47.299 139.191  1.00  0.00     0.177 C 
BRANCH  18  23
ATOM     23  O   UNL     1     109.519  44.473 139.328  1.00  0.00    -0.385 OA
ATOM     24  H   UNL     1     109.545  44.410 138.338  1.00  0.00     0.211 HD
ENDBRANCH  18  23
BRANCH  20  25
ATOM     25  O   UNL     1     109.494  47.319 139.252  1.00  0.00    -0.387 OA
ATOM     26  H   UNL     1     109.533  47.298 140.244  1.00  0.00     0.211 HD
ENDBRANCH  20  25
BRANCH  21  27
ATOM     27  C   UNL     1     105.496  46.258 137.429  1.00  0.00     0.191 C 
BRANCH  27  28
ATOM     28  O   UNL     1     104.785  47.378 136.978  1.00  0.00    -0.394 OA
ATOM     29  H   UNL     1     104.968  48.102 137.633  1.00  0.00     0.210 HD
ENDBRANCH  27  28
ENDBRANCH  21  27
BRANCH  22  30
ATOM     30  O   UNL     1     107.042  48.487 138.445  1.00  0.00    -0.387 OA
ATOM     31  H   UNL     1     106.874  48.226 137.502  1.00  0.00     0.211 HD
ENDBRANCH  22  30
ENDBRANCH   1  17
TORSDOF 10
ENDMDL
MODEL 4
REMARK VINA RESULT:    -5.547      2.108      4.394
REMARK INTER + INTRA:          -9.028
REMARK INTER:                  -7.522
REMARK INTRA:                  -1.506
REMARK UNBOUND:                -1.212
REMARK SMILES OC[C@H]1O[C@@H](O[C@@H]2OC=C[C@H]3[C@@H](O)[C@H]4O[C@@]4(CO)[C@H]23)[C@@H](O)[C@H](O)[C@H]1O
REMARK SMILES IDX 6 1 7 2 10 3 9 4 11 5 8 6 19 7 12 8 16 9 14 10 15 11 13 12
REMARK SMILES IDX 17 14 18 15 5 17 20 18 4 19 22 20 3 21 24 22 21 23 23 25
REMARK SMILES IDX 2 27 1 28 25 30
REMARK H PARENT 13 13 18 16 21 24 23 26 1 29 25 31
REMARK Flexibility Score: inf
ROOT
ATOM      1  O   UNL     1     106.129  43.260 137.275  1.00  0.00    -0.310 OA
ENDROOT
BRANCH   1   2
ATOM      2  C   UNL     1     106.148  41.842 137.415  1.00  0.00     0.315 C 
ATOM      3  C   UNL     1     108.556  41.212 138.928  1.00  0.00     0.018 C 
ATOM      4  C   UNL     1     107.355  41.139 139.520  1.00  0.00     0.186 C 
ATOM      5  C   UNL     1     108.619  41.739 137.525  1.00  0.00     0.059 C 
ATOM      6  O   UNL     1     106.170  41.417 138.799  1.00  0.00    -0.472 OA
ATOM      7  C   UNL     1     107.407  41.256 136.747  1.00  0.00     0.105 C 
ATOM      8  C   UNL     1     109.811  41.374 136.643  1.00  0.00     0.154 C 
ATOM      9  C   UNL     1     107.787  41.558 135.299  1.00  0.00     0.130 C 
ATOM     10  C   UNL     1     109.272  41.607 135.222  1.00  0.00     0.183 C 
ATOM     11  O   UNL     1     108.533  40.528 134.687  1.00  0.00    -0.360 OA
BRANCH   8  12
ATOM     12  O   UNL     1     110.184  40.029 136.803  1.00  0.00    -0.390 OA
ATOM     13  H   UNL     1     109.877  39.756 137.706  1.00  0.00     0.211 HD
ENDBRANCH   8  12
BRANCH   9  14
ATOM     14  C   UNL     1     106.985  42.417 134.321  1.00  0.00     0.195 C 
BRANCH  14  15
ATOM     15  O   UNL     1     105.845  41.723 133.896  1.00  0.00    -0.393 OA
ATOM     16  H   UNL     1     105.233  41.675 134.676  1.00  0.00     0.210 HD
ENDBRANCH  14  15
ENDBRANCH   9  14
ENDBRANCH   1   2
BRANCH   1  17
ATOM     17  C   UNL     1     105.331  43.909 138.257  1.00  0.00     0.286 C 
ATOM     18  C   UNL     1     106.031  45.182 138.769  1.00  0.00     0.202 C 
ATOM     19  O   UNL     1     103.994  44.133 137.810  1.00  0.00    -0.341 OA
ATOM     20  C   UNL     1     105.959  46.306 137.736  1.00  0.00     0.179 C 
ATOM     21  C   UNL     1     103.836  45.206 136.885  1.00  0.00     0.178 C 
ATOM     22  C   UNL     1     104.491  46.527 137.366  1.00  0.00     0.177 C 
BRANCH  18  23
ATOM     23  O   UNL     1     107.372  44.886 139.069  1.00  0.00    -0.385 OA
ATOM     24  H   UNL     1     107.721  45.637 139.616  1.00  0.00     0.211 HD
ENDBRANCH  18  23
BRANCH  20  25
ATOM     25  O   UNL     1     106.491  47.480 138.293  1.00  0.00    -0.387 OA
ATOM     26  H   UNL     1     106.824  47.245 139.199  1.00  0.00     0.211 HD
ENDBRANCH  20  25
BRANCH  21  27
ATOM     27  C   UNL     1     104.225  44.789 135.455  1.00  0.00     0.191 C 
BRANCH  27  28
ATOM     28  O   UNL     1     103.773  43.490 135.185  1.00  0.00    -0.394 OA
ATOM     29  H   UNL     1     104.551  43.001 134.809  1.00  0.00     0.210 HD
ENDBRANCH  27  28
ENDBRANCH  21  27
BRANCH  22  30
ATOM     30  O   UNL     1     104.397  47.527 136.385  1.00  0.00    -0.387 OA
ATOM     31  H   UNL     1     103.443  47.798 136.342  1.00  0.00     0.211 HD
ENDBRANCH  22  30
ENDBRANCH   1  17
TORSDOF 10
ENDMDL
MODEL 5
REMARK VINA RESULT:    -5.532      8.363     10.832
REMARK INTER + INTRA:          -9.008
REMARK INTER:                  -8.271
REMARK INTRA:                  -0.737
REMARK UNBOUND:                -1.212
REMARK SMILES OC[C@H]1O[C@@H](O[C@@H]2OC=C[C@H]3[C@@H](O)[C@H]4O[C@@]4(CO)[C@H]23)[C@@H](O)[C@H](O)[C@H]1O
REMARK SMILES IDX 6 1 7 2 10 3 9 4 11 5 8 6 19 7 12 8 16 9 14 10 15 11 13 12
REMARK SMILES IDX 17 14 18 15 5 17 20 18 4 19 22 20 3 21 24 22 21 23 23 25
REMARK SMILES IDX 2 27 1 28 25 30
REMARK H PARENT 13 13 18 16 21 24 23 26 1 29 25 31
REMARK Flexibility Score: inf
ROOT
ATOM      1  O   UNL     1     100.931  49.005 132.212  1.00  0.00    -0.310 OA
ENDROOT
BRANCH   1   2
ATOM      2  C   UNL     1     101.565  47.830 131.713  1.00  0.00     0.315 C 
ATOM      3  C   UNL     1      99.553  45.725 131.812  1.00  0.00     0.018 C 
ATOM      4  C   UNL     1      99.895  46.270 130.635  1.00  0.00     0.186 C 
ATOM      5  C   UNL     1     100.142  46.315 133.058  1.00  0.00     0.059 C 
ATOM      6  O   UNL     1     100.886  47.276 130.559  1.00  0.00    -0.472 OA
ATOM      7  C   UNL     1     101.578  46.731 132.794  1.00  0.00     0.105 C 
ATOM      8  C   UNL     1     100.215  45.464 134.325  1.00  0.00     0.154 C 
ATOM      9  C   UNL     1     102.132  46.964 134.198  1.00  0.00     0.130 C 
ATOM     10  C   UNL     1     101.311  46.164 135.146  1.00  0.00     0.183 C 
ATOM     11  O   UNL     1     102.632  45.793 134.807  1.00  0.00    -0.360 OA
BRANCH   8  12
ATOM     12  O   UNL     1     100.596  44.142 134.040  1.00  0.00    -0.390 OA
ATOM     13  H   UNL     1     100.575  43.649 134.901  1.00  0.00     0.211 HD
ENDBRANCH   8  12
BRANCH   9  14
ATOM     14  C   UNL     1     102.769  48.256 134.709  1.00  0.00     0.195 C 
BRANCH  14  15
ATOM     15  O   UNL     1     104.081  48.009 135.132  1.00  0.00    -0.393 OA
ATOM     16  H   UNL     1     104.065  47.148 135.626  1.00  0.00     0.210 HD
ENDBRANCH  14  15
ENDBRANCH   9  14
ENDBRANCH   1   2
BRANCH   1  17
ATOM     17  C   UNL     1      99.927  49.512 131.342  1.00  0.00     0.286 C 
ATOM     18  C   UNL     1      98.791  50.167 132.150  1.00  0.00     0.202 C 
ATOM     19  O   UNL     1     100.465  50.355 130.324  1.00  0.00    -0.341 OA
ATOM     20  C   UNL     1      99.221  51.524 132.706  1.00  0.00     0.179 C 
ATOM     21  C   UNL     1     100.838  51.662 130.754  1.00  0.00     0.178 C 
ATOM     22  C   UNL     1      99.716  52.387 131.544  1.00  0.00     0.177 C 
BRANCH  18  23
ATOM     23  O   UNL     1      98.414  49.313 133.199  1.00  0.00    -0.385 OA
ATOM     24  H   UNL     1      99.242  48.883 133.537  1.00  0.00     0.211 HD
ENDBRANCH  18  23
BRANCH  20  25
ATOM     25  O   UNL     1      98.119  52.142 133.321  1.00  0.00    -0.387 OA
ATOM     26  H   UNL     1      98.443  53.004 133.692  1.00  0.00     0.211 HD
ENDBRANCH  20  25
BRANCH  21  27
ATOM     27  C   UNL     1     102.208  51.664 131.454  1.00  0.00     0.191 C 
BRANCH  27  28
ATOM     28  O   UNL     1     102.998  52.721 130.979  1.00  0.00    -0.394 OA
ATOM     29  H   UNL     1     103.893  52.604 131.393  1.00  0.00     0.210 HD
ENDBRANCH  27  28
ENDBRANCH  21  27
BRANCH  22  30
ATOM     30  O   UNL     1     100.158  53.628 132.031  1.00  0.00    -0.387 OA
ATOM     31  H   UNL     1      99.350  54.187 132.166  1.00  0.00     0.211 HD
ENDBRANCH  22  30
ENDBRANCH   1  17
TORSDOF 10
ENDMDL
MODEL 6
REMARK VINA RESULT:    -5.498      2.362      5.320
REMARK INTER + INTRA:          -8.960
REMARK INTER:                  -7.786
REMARK INTRA:                  -1.174
REMARK UNBOUND:                -1.212
REMARK SMILES OC[C@H]1O[C@@H](O[C@@H]2OC=C[C@H]3[C@@H](O)[C@H]4O[C@@]4(CO)[C@H]23)[C@@H](O)[C@H](O)[C@H]1O
REMARK SMILES IDX 6 1 7 2 10 3 9 4 11 5 8 6 19 7 12 8 16 9 14 10 15 11 13 12
REMARK SMILES IDX 17 14 18 15 5 17 20 18 4 19 22 20 3 21 24 22 21 23 23 25
REMARK SMILES IDX 2 27 1 28 25 30
REMARK H PARENT 13 13 18 16 21 24 23 26 1 29 25 31
REMARK Flexibility Score: inf
ROOT
ATOM      1  O   UNL     1     106.808  42.512 136.351  1.00  0.00    -0.310 OA
ENDROOT
BRANCH   1   2
ATOM      2  C   UNL     1     108.213  42.552 136.116  1.00  0.00     0.315 C 
ATOM      3  C   UNL     1     109.464  41.464 138.511  1.00  0.00     0.018 C 
ATOM      4  C   UNL     1     109.413  40.730 137.389  1.00  0.00     0.186 C 
ATOM      5  C   UNL     1     108.758  42.786 138.519  1.00  0.00     0.059 C 
ATOM      6  O   UNL     1     108.832  41.246 136.207  1.00  0.00    -0.472 OA
ATOM      7  C   UNL     1     108.904  43.450 137.161  1.00  0.00     0.105 C 
ATOM      8  C   UNL     1     109.191  43.858 139.518  1.00  0.00     0.154 C 
ATOM      9  C   UNL     1     108.466  44.887 137.431  1.00  0.00     0.130 C 
ATOM     10  C   UNL     1     108.664  45.155 138.881  1.00  0.00     0.183 C 
ATOM     11  O   UNL     1     109.509  45.715 137.897  1.00  0.00    -0.360 OA
BRANCH   8  12
ATOM     12  O   UNL     1     110.589  43.916 139.643  1.00  0.00    -0.390 OA
ATOM     13  H   UNL     1     110.933  44.313 138.802  1.00  0.00     0.211 HD
ENDBRANCH   8  12
BRANCH   9  14
ATOM     14  C   UNL     1     107.347  45.635 136.706  1.00  0.00     0.195 C 
BRANCH  14  15
ATOM     15  O   UNL     1     107.763  45.985 135.415  1.00  0.00    -0.393 OA
ATOM     16  H   UNL     1     107.807  45.142 134.891  1.00  0.00     0.210 HD
ENDBRANCH  14  15
ENDBRANCH   9  14
ENDBRANCH   1   2
BRANCH   1  17
ATOM     17  C   UNL     1     106.061  42.102 135.213  1.00  0.00     0.286 C 
ATOM     18  C   UNL     1     105.332  40.774 135.494  1.00  0.00     0.202 C 
ATOM     19  O   UNL     1     105.202  43.132 134.726  1.00  0.00    -0.341 OA
ATOM     20  C   UNL     1     104.126  40.988 136.408  1.00  0.00     0.179 C 
ATOM     21  C   UNL     1     104.023  43.354 135.497  1.00  0.00     0.178 C 
ATOM     22  C   UNL     1     103.227  42.053 135.780  1.00  0.00     0.177 C 
BRANCH  18  23
ATOM     23  O   UNL     1     106.229  39.866 136.082  1.00  0.00    -0.385 OA
ATOM     24  H   UNL     1     106.627  39.332 135.346  1.00  0.00     0.211 HD
ENDBRANCH  18  23
BRANCH  20  25
ATOM     25  O   UNL     1     103.419  39.780 136.531  1.00  0.00    -0.387 OA
ATOM     26  H   UNL     1     103.066  39.560 135.629  1.00  0.00     0.211 HD
ENDBRANCH  20  25
BRANCH  21  27
ATOM     27  C   UNL     1     104.308  44.207 136.745  1.00  0.00     0.191 C 
BRANCH  27  28
ATOM     28  O   UNL     1     103.191  44.991 137.067  1.00  0.00    -0.394 OA
ATOM     29  H   UNL     1     102.901  45.419 136.220  1.00  0.00     0.210 HD
ENDBRANCH  27  28
ENDBRANCH  21  27
BRANCH  22  30
ATOM     30  O   UNL     1     102.130  42.302 136.620  1.00  0.00    -0.387 OA
ATOM     31  H   UNL     1     102.038  41.511 137.213  1.00  0.00     0.211 HD
ENDBRANCH  22  30
ENDBRANCH   1  17
TORSDOF 10
ENDMDL
MODEL 7
REMARK VINA RESULT:    -5.422      1.734      3.767
REMARK INTER + INTRA:          -8.853
REMARK INTER:                  -7.376
REMARK INTRA:                  -1.476
REMARK UNBOUND:                -1.212
REMARK SMILES OC[C@H]1O[C@@H](O[C@@H]2OC=C[C@H]3[C@@H](O)[C@H]4O[C@@]4(CO)[C@H]23)[C@@H](O)[C@H](O)[C@H]1O
REMARK SMILES IDX 6 1 7 2 10 3 9 4 11 5 8 6 19 7 12 8 16 9 14 10 15 11 13 12
REMARK SMILES IDX 17 14 18 15 5 17 20 18 4 19 22 20 3 21 24 22 21 23 23 25
REMARK SMILES IDX 2 27 1 28 25 30
REMARK H PARENT 13 13 18 16 21 24 23 26 1 29 25 31
REMARK Flexibility Score: inf
ROOT
ATOM      1  O   UNL     1     106.845  43.554 137.588  1.00  0.00    -0.310 OA
ENDROOT
BRANCH   1   2
ATOM      2  C   UNL     1     105.817  42.784 136.971  1.00  0.00     0.315 C 
ATOM      3  C   UNL     1     105.627  40.314 138.504  1.00  0.00     0.018 C 
ATOM      4  C   UNL     1     104.683  41.258 138.635  1.00  0.00     0.186 C 
ATOM      5  C   UNL     1     106.821  40.626 137.653  1.00  0.00     0.059 C 
ATOM      6  O   UNL     1     104.741  42.455 137.883  1.00  0.00    -0.472 OA
ATOM      7  C   UNL     1     106.387  41.450 136.452  1.00  0.00     0.105 C 
ATOM      8  C   UNL     1     107.634  39.478 137.057  1.00  0.00     0.154 C 
ATOM      9  C   UNL     1     107.602  41.376 135.529  1.00  0.00     0.130 C 
ATOM     10  C   UNL     1     108.363  40.148 135.880  1.00  0.00     0.183 C 
ATOM     11  O   UNL     1     107.604  40.241 134.691  1.00  0.00    -0.360 OA
BRANCH   8  12
ATOM     12  O   UNL     1     106.806  38.446 136.587  1.00  0.00    -0.390 OA
ATOM     13  H   UNL     1     107.404  37.698 136.327  1.00  0.00     0.211 HD
ENDBRANCH   8  12
BRANCH   9  14
ATOM     14  C   UNL     1     108.377  42.569 134.970  1.00  0.00     0.195 C 
BRANCH  14  15
ATOM     15  O   UNL     1     107.581  43.272 134.056  1.00  0.00    -0.393 OA
ATOM     16  H   UNL     1     107.613  42.766 133.202  1.00  0.00     0.210 HD
ENDBRANCH  14  15
ENDBRANCH   9  14
ENDBRANCH   1   2
BRANCH   1  17
ATOM     17  C   UNL     1     106.348  44.503 138.524  1.00  0.00     0.286 C 
ATOM     18  C   UNL     1     107.097  44.385 139.864  1.00  0.00     0.202 C 
ATOM     19  O   UNL     1     106.329  45.828 137.995  1.00  0.00    -0.341 OA
ATOM     20  C   UNL     1     108.503  44.977 139.766  1.00  0.00     0.179 C 
ATOM     21  C   UNL     1     107.600  46.472 137.925  1.00  0.00     0.178 C 
ATOM     22  C   UNL     1     108.386  46.416 139.260  1.00  0.00     0.177 C 
BRANCH  18  23
ATOM     23  O   UNL     1     107.168  43.033 140.240  1.00  0.00    -0.385 OA
ATOM     24  H   UNL     1     107.983  42.927 140.796  1.00  0.00     0.211 HD
ENDBRANCH  18  23
BRANCH  20  25
ATOM     25  O   UNL     1     109.099  44.967 141.038  1.00  0.00    -0.387 OA
ATOM     26  H   UNL     1     109.922  44.417 140.966  1.00  0.00     0.211 HD
ENDBRANCH  20  25
BRANCH  21  27
ATOM     27  C   UNL     1     108.405  46.013 136.695  1.00  0.00     0.191 C 
BRANCH  27  28
ATOM     28  O   UNL     1     107.561  45.865 135.586  1.00  0.00    -0.394 OA
ATOM     29  H   UNL     1     106.905  46.609 135.637  1.00  0.00     0.210 HD
ENDBRANCH  27  28
ENDBRANCH  21  27
BRANCH  22  30
ATOM     30  O   UNL     1     109.667  46.973 139.120  1.00  0.00    -0.387 OA
ATOM     31  H   UNL     1     109.560  47.809 138.595  1.00  0.00     0.211 HD
ENDBRANCH  22  30
ENDBRANCH   1  17
TORSDOF 10
ENDMDL
MODEL 8
REMARK VINA RESULT:    -5.316      1.421      2.102
REMARK INTER + INTRA:          -8.703
REMARK INTER:                  -7.220
REMARK INTRA:                  -1.482
REMARK UNBOUND:                -1.212
REMARK SMILES OC[C@H]1O[C@@H](O[C@@H]2OC=C[C@H]3[C@@H](O)[C@H]4O[C@@]4(CO)[C@H]23)[C@@H](O)[C@H](O)[C@H]1O
REMARK SMILES IDX 6 1 7 2 10 3 9 4 11 5 8 6 19 7 12 8 16 9 14 10 15 11 13 12
REMARK SMILES IDX 17 14 18 15 5 17 20 18 4 19 22 20 3 21 24 22 21 23 23 25
REMARK SMILES IDX 2 27 1 28 25 30
REMARK H PARENT 13 13 18 16 21 24 23 26 1 29 25 31
REMARK Flexibility Score: inf
ROOT
ATOM      1  O   UNL     1     107.826  42.988 136.832  1.00  0.00    -0.310 OA
ENDROOT
BRANCH   1   2
ATOM      2  C   UNL     1     108.875  42.047 136.621  1.00  0.00     0.315 C 
ATOM      3  C   UNL     1     107.583  39.457 136.293  1.00  0.00     0.018 C 
ATOM      4  C   UNL     1     108.092  40.091 135.227  1.00  0.00     0.186 C 
ATOM      5  C   UNL     1     107.594  40.174 137.610  1.00  0.00     0.059 C 
ATOM      6  O   UNL     1     108.745  41.338 135.364  1.00  0.00    -0.472 OA
ATOM      7  C   UNL     1     108.872  40.984 137.737  1.00  0.00     0.105 C 
ATOM      8  C   UNL     1     107.523  39.363 138.902  1.00  0.00     0.154 C 
ATOM      9  C   UNL     1     108.903  41.346 139.220  1.00  0.00     0.130 C 
ATOM     10  C   UNL     1     108.093  40.335 139.949  1.00  0.00     0.183 C 
ATOM     11  O   UNL     1     109.503  40.358 140.028  1.00  0.00    -0.360 OA
BRANCH   8  12
ATOM     12  O   UNL     1     108.319  38.208 138.834  1.00  0.00    -0.390 OA
ATOM     13  H   UNL     1     108.011  37.697 138.041  1.00  0.00     0.211 HD
ENDBRANCH   8  12
BRANCH   9  14
ATOM     14  C   UNL     1     108.981  42.760 139.797  1.00  0.00     0.195 C 
BRANCH  14  15
ATOM     15  O   UNL     1     110.252  43.301 139.568  1.00  0.00    -0.393 OA
ATOM     16  H   UNL     1     110.160  43.939 138.812  1.00  0.00     0.210 HD
ENDBRANCH  14  15
ENDBRANCH   9  14
ENDBRANCH   1   2
BRANCH   1  17
ATOM     17  C   UNL     1     107.396  43.626 135.636  1.00  0.00     0.286 C 
ATOM     18  C   UNL     1     105.862  43.564 135.511  1.00  0.00     0.202 C 
ATOM     19  O   UNL     1     107.927  44.943 135.501  1.00  0.00    -0.341 OA
ATOM     20  C   UNL     1     105.190  44.548 136.468  1.00  0.00     0.179 C 
ATOM     21  C   UNL     1     107.311  45.933 136.322  1.00  0.00     0.178 C 
ATOM     22  C   UNL     1     105.765  45.942 136.209  1.00  0.00     0.177 C 
BRANCH  18  23
ATOM     23  O   UNL     1     105.426  42.255 135.779  1.00  0.00    -0.385 OA
ATOM     24  H   UNL     1     106.084  41.639 135.365  1.00  0.00     0.211 HD
ENDBRANCH  18  23
BRANCH  20  25
ATOM     25  O   UNL     1     103.805  44.553 136.228  1.00  0.00    -0.387 OA
ATOM     26  H   UNL     1     103.368  44.227 137.059  1.00  0.00     0.211 HD
ENDBRANCH  20  25
BRANCH  21  27
ATOM     27  C   UNL     1     107.841  45.887 137.766  1.00  0.00     0.191 C 
BRANCH  27  28
ATOM     28  O   UNL     1     109.208  45.576 137.776  1.00  0.00    -0.394 OA
ATOM     29  H   UNL     1     109.369  45.070 138.616  1.00  0.00     0.210 HD
ENDBRANCH  27  28
ENDBRANCH  21  27
BRANCH  22  30
ATOM     30  O   UNL     1     105.195  46.862 137.104  1.00  0.00    -0.387 OA
ATOM     31  H   UNL     1     104.817  46.335 137.855  1.00  0.00     0.211 HD
ENDBRANCH  22  30
ENDBRANCH   1  17
TORSDOF 10
ENDMDL
MODEL 9
REMARK VINA RESULT:    -5.304      1.722      2.508
REMARK INTER + INTRA:          -8.686
REMARK INTER:                  -7.755
REMARK INTRA:                  -0.931
REMARK UNBOUND:                -1.212
REMARK SMILES OC[C@H]1O[C@@H](O[C@@H]2OC=C[C@H]3[C@@H](O)[C@H]4O[C@@]4(CO)[C@H]23)[C@@H](O)[C@H](O)[C@H]1O
REMARK SMILES IDX 6 1 7 2 10 3 9 4 11 5 8 6 19 7 12 8 16 9 14 10 15 11 13 12
REMARK SMILES IDX 17 14 18 15 5 17 20 18 4 19 22 20 3 21 24 22 21 23 23 25
REMARK SMILES IDX 2 27 1 28 25 30
REMARK H PARENT 13 13 18 16 21 24 23 26 1 29 25 31
REMARK Flexibility Score: inf
ROOT
ATOM      1  O   UNL     1     107.130  43.313 136.771  1.00  0.00    -0.310 OA
ENDROOT
BRANCH   1   2
ATOM      2  C   UNL     1     106.674  42.731 135.552  1.00  0.00     0.315 C 
ATOM      3  C   UNL     1     103.913  41.931 136.023  1.00  0.00     0.018 C 
ATOM      4  C   UNL     1     104.179  43.011 135.275  1.00  0.00     0.186 C 
ATOM      5  C   UNL     1     105.062  41.241 136.696  1.00  0.00     0.059 C 
ATOM      6  O   UNL     1     105.511  43.405 135.012  1.00  0.00    -0.472 OA
ATOM      7  C   UNL     1     106.274  41.261 135.780  1.00  0.00     0.105 C 
ATOM      8  C   UNL     1     104.917  39.777 137.107  1.00  0.00     0.154 C 
ATOM      9  C   UNL     1     107.210  40.242 136.426  1.00  0.00     0.130 C 
ATOM     10  C   UNL     1     106.376  39.307 137.228  1.00  0.00     0.183 C 
ATOM     11  O   UNL     1     106.973  38.916 136.008  1.00  0.00    -0.360 OA
BRANCH   8  12
ATOM     12  O   UNL     1     104.248  39.026 136.127  1.00  0.00    -0.390 OA
ATOM     13  H   UNL     1     103.716  38.341 136.608  1.00  0.00     0.211 HD
ENDBRANCH   8  12
BRANCH   9  14
ATOM     14  C   UNL     1     108.643  40.507 136.888  1.00  0.00     0.195 C 
BRANCH  14  15
ATOM     15  O   UNL     1     109.507  40.521 135.786  1.00  0.00    -0.393 OA
ATOM     16  H   UNL     1     110.428  40.430 136.144  1.00  0.00     0.210 HD
ENDBRANCH  14  15
ENDBRANCH   9  14
ENDBRANCH   1   2
BRANCH   1  17
ATOM     17  C   UNL     1     108.309  44.092 136.612  1.00  0.00     0.286 C 
ATOM     18  C   UNL     1     107.973  45.595 136.646  1.00  0.00     0.202 C 
ATOM     19  O   UNL     1     109.336  43.716 137.529  1.00  0.00    -0.341 OA
ATOM     20  C   UNL     1     107.663  46.061 138.068  1.00  0.00     0.179 C 
ATOM     21  C   UNL     1     109.146  44.164 138.869  1.00  0.00     0.178 C 
ATOM     22  C   UNL     1     108.841  45.681 138.968  1.00  0.00     0.177 C 
BRANCH  18  23
ATOM     23  O   UNL     1     106.876  45.845 135.805  1.00  0.00    -0.385 OA
ATOM     24  H   UNL     1     106.965  45.242 135.022  1.00  0.00     0.211 HD
ENDBRANCH  18  23
BRANCH  20  25
ATOM     25  O   UNL     1     107.493  47.455 138.071  1.00  0.00    -0.387 OA
ATOM     26  H   UNL     1     108.381  47.854 138.263  1.00  0.00     0.211 HD
ENDBRANCH  20  25
BRANCH  21  27
ATOM     27  C   UNL     1     108.159  43.267 139.637  1.00  0.00     0.191 C 
BRANCH  27  28
ATOM     28  O   UNL     1     108.849  42.416 140.511  1.00  0.00    -0.394 OA
ATOM     29  H   UNL     1     108.383  42.482 141.385  1.00  0.00     0.210 HD
ENDBRANCH  27  28
ENDBRANCH  21  27
BRANCH  22  30
ATOM     30  O   UNL     1     108.566  46.060 140.291  1.00  0.00    -0.387 OA
ATOM     31  H   UNL     1     108.196  45.260 140.747  1.00  0.00     0.211 HD
ENDBRANCH  22  30
ENDBRANCH   1  17
TORSDOF 10
ENDMDL
