MODEL 1
REMARK VINA RESULT:    -4.169      0.000      0.000
REMARK INTER + INTRA:          -4.422
REMARK INTER:                  -4.412
REMARK INTRA:                  -0.010
REMARK UNBOUND:                -0.010
REMARK SMILES O=Cc1ccccc1
REMARK SMILES IDX 6 1 5 2 4 3 3 4 8 5 7 6 2 7 1 8
REMARK H PARENT
REMARK Flexibility Score: inf
ROOT
ATOM      1  C   UNL     1      -3.747  11.215  -8.439  1.00  0.00     0.000 A 
ATOM      2  C   UNL     1      -4.653  10.402  -9.125  1.00  0.00     0.001 A 
ATOM      3  C   UNL     1      -5.833   9.986  -8.501  1.00  0.00     0.011 A 
ATOM      4  C   UNL     1      -6.114  10.382  -7.181  1.00  0.00     0.014 A 
ATOM      5  C   UNL     1      -5.197  11.198  -6.500  1.00  0.00     0.011 A 
ATOM      6  C   UNL     1      -4.018  11.613  -7.128  1.00  0.00     0.001 A 
ENDROOT
BRANCH   4   7
ATOM      7  C   UNL     1      -7.352   9.954  -6.504  1.00  0.00     0.260 C 
ATOM      8  O   UNL     1      -8.211  10.795  -6.126  1.00  0.00    -0.298 OA
ENDBRANCH   4   7
TORSDOF 1
ENDMDL
MODEL 2
REMARK VINA RESULT:    -4.152      0.032      1.713
REMARK INTER + INTRA:          -4.404
REMARK INTER:                  -4.395
REMARK INTRA:                  -0.009
REMARK UNBOUND:                -0.010
REMARK SMILES O=Cc1ccccc1
REMARK SMILES IDX 6 1 5 2 4 3 3 4 8 5 7 6 2 7 1 8
REMARK H PARENT
REMARK Flexibility Score: inf
ROOT
ATOM      1  C   UNL     1      -3.749  11.249  -8.448  1.00  0.00     0.000 A 
ATOM      2  C   UNL     1      -4.002  11.640  -7.130  1.00  0.00     0.001 A 
ATOM      3  C   UNL     1      -5.171  11.221  -6.486  1.00  0.00     0.011 A 
ATOM      4  C   UNL     1      -6.098  10.406  -7.161  1.00  0.00     0.014 A 
ATOM      5  C   UNL     1      -5.835  10.019  -8.485  1.00  0.00     0.011 A 
ATOM      6  C   UNL     1      -4.664  10.440  -9.125  1.00  0.00     0.001 A 
ENDROOT
BRANCH   4   7
ATOM      7  C   UNL     1      -7.337   9.953  -6.501  1.00  0.00     0.260 C 
ATOM      8  O   UNL     1      -8.217  10.777  -6.134  1.00  0.00    -0.298 OA
ENDBRANCH   4   7
TORSDOF 1
ENDMDL
MODEL 3
REMARK VINA RESULT:    -4.045     16.966     18.001
REMARK INTER + INTRA:          -4.291
REMARK INTER:                  -4.279
REMARK INTRA:                  -0.012
REMARK UNBOUND:                -0.010
REMARK SMILES O=Cc1ccccc1
REMARK SMILES IDX 6 1 5 2 4 3 3 4 8 5 7 6 2 7 1 8
REMARK H PARENT
REMARK Flexibility Score: inf
ROOT
ATOM      1  C   UNL     1       7.365  11.882   4.411  1.00  0.00     0.000 A 
ATOM      2  C   UNL     1       8.072  11.445   5.534  1.00  0.00     0.001 A 
ATOM      3  C   UNL     1       7.395  10.846   6.600  1.00  0.00     0.011 A 
ATOM      4  C   UNL     1       5.999  10.680   6.548  1.00  0.00     0.014 A 
ATOM      5  C   UNL     1       5.297  11.123   5.416  1.00  0.00     0.011 A 
ATOM      6  C   UNL     1       5.979  11.721   4.351  1.00  0.00     0.001 A 
ENDROOT
BRANCH   4   7
ATOM      7  C   UNL     1       5.264  10.051   7.662  1.00  0.00     0.260 C 
ATOM      8  O   UNL     1       4.283   9.291   7.446  1.00  0.00    -0.298 OA
ENDBRANCH   4   7
TORSDOF 1
ENDMDL
MODEL 4
REMARK VINA RESULT:    -4.020     16.993     17.979
REMARK INTER + INTRA:          -4.265
REMARK INTER:                  -4.254
REMARK INTRA:                  -0.011
REMARK UNBOUND:                -0.010
REMARK SMILES O=Cc1ccccc1
REMARK SMILES IDX 6 1 5 2 4 3 3 4 8 5 7 6 2 7 1 8
REMARK H PARENT
REMARK Flexibility Score: inf
ROOT
ATOM      1  C   UNL     1       7.354  11.772   4.406  1.00  0.00     0.000 A 
ATOM      2  C   UNL     1       5.962  11.658   4.368  1.00  0.00     0.001 A 
ATOM      3  C   UNL     1       5.273  11.114   5.457  1.00  0.00     0.011 A 
ATOM      4  C   UNL     1       5.977  10.678   6.594  1.00  0.00     0.014 A 
ATOM      5  C   UNL     1       7.376  10.796   6.622  1.00  0.00     0.011 A 
ATOM      6  C   UNL     1       8.061  11.342   5.531  1.00  0.00     0.001 A 
ENDROOT
BRANCH   4   7
ATOM      7  C   UNL     1       5.271  10.101   7.753  1.00  0.00     0.260 C 
ATOM      8  O   UNL     1       4.271   9.350   7.598  1.00  0.00    -0.298 OA
ENDBRANCH   4   7
TORSDOF 1
ENDMDL
MODEL 5
REMARK VINA RESULT:    -4.018     16.994     17.859
REMARK INTER + INTRA:          -4.262
REMARK INTER:                  -4.250
REMARK INTRA:                  -0.012
REMARK UNBOUND:                -0.010
REMARK SMILES O=Cc1ccccc1
REMARK SMILES IDX 6 1 5 2 4 3 3 4 8 5 7 6 2 7 1 8
REMARK H PARENT
REMARK Flexibility Score: inf
ROOT
ATOM      1  C   UNL     1       6.517  13.067   5.300  1.00  0.00     0.000 A 
ATOM      2  C   UNL     1       5.891  12.081   4.534  1.00  0.00     0.001 A 
ATOM      3  C   UNL     1       5.216  11.028   5.162  1.00  0.00     0.011 A 
ATOM      4  C   UNL     1       5.165  10.957   6.566  1.00  0.00     0.014 A 
ATOM      5  C   UNL     1       5.798  11.953   7.327  1.00  0.00     0.011 A 
ATOM      6  C   UNL     1       6.471  13.005   6.695  1.00  0.00     0.001 A 
ENDROOT
BRANCH   4   7
ATOM      7  C   UNL     1       4.460   9.856   7.248  1.00  0.00     0.260 C 
ATOM      8  O   UNL     1       4.899   9.371   8.325  1.00  0.00    -0.298 OA
ENDBRANCH   4   7
TORSDOF 1
ENDMDL
MODEL 6
REMARK VINA RESULT:    -3.894      2.239      3.551
REMARK INTER + INTRA:          -4.131
REMARK INTER:                  -4.122
REMARK INTRA:                  -0.009
REMARK UNBOUND:                -0.010
REMARK SMILES O=Cc1ccccc1
REMARK SMILES IDX 6 1 5 2 4 3 3 4 8 5 7 6 2 7 1 8
REMARK H PARENT
REMARK Flexibility Score: inf
ROOT
ATOM      1  C   UNL     1      -6.513   9.398  -8.036  1.00  0.00     0.000 A 
ATOM      2  C   UNL     1      -6.453   9.934  -6.747  1.00  0.00     0.001 A 
ATOM      3  C   UNL     1      -5.423  10.814  -6.400  1.00  0.00     0.011 A 
ATOM      4  C   UNL     1      -4.442  11.163  -7.345  1.00  0.00     0.014 A 
ATOM      5  C   UNL     1      -4.510  10.618  -8.638  1.00  0.00     0.011 A 
ATOM      6  C   UNL     1      -5.543   9.739  -8.981  1.00  0.00     0.001 A 
ENDROOT
BRANCH   4   7
ATOM      7  C   UNL     1      -3.346  12.088  -7.001  1.00  0.00     0.260 C 
ATOM      8  O   UNL     1      -2.252  11.660  -6.545  1.00  0.00    -0.298 OA
ENDBRANCH   4   7
TORSDOF 1
ENDMDL
MODEL 7
REMARK VINA RESULT:    -3.799     17.754     18.491
REMARK INTER + INTRA:          -4.031
REMARK INTER:                  -4.020
REMARK INTRA:                  -0.011
REMARK UNBOUND:                -0.010
REMARK SMILES O=Cc1ccccc1
REMARK SMILES IDX 6 1 5 2 4 3 3 4 8 5 7 6 2 7 1 8
REMARK H PARENT
REMARK Flexibility Score: inf
ROOT
ATOM      1  C   UNL     1       5.450  11.098   7.398  1.00  0.00     0.000 A 
ATOM      2  C   UNL     1       4.363  10.291   7.052  1.00  0.00     0.001 A 
ATOM      3  C   UNL     1       3.176  10.361   7.787  1.00  0.00     0.011 A 
ATOM      4  C   UNL     1       3.070  11.243   8.878  1.00  0.00     0.014 A 
ATOM      5  C   UNL     1       4.168  12.049   9.219  1.00  0.00     0.011 A 
ATOM      6  C   UNL     1       5.354  11.976   8.480  1.00  0.00     0.001 A 
ENDROOT
BRANCH   4   7
ATOM      7  C   UNL     1       1.827  11.332   9.668  1.00  0.00     0.260 C 
ATOM      8  O   UNL     1       1.324  12.449   9.965  1.00  0.00    -0.298 OA
ENDBRANCH   4   7
TORSDOF 1
ENDMDL
MODEL 8
REMARK VINA RESULT:    -3.793     17.744     18.827
REMARK INTER + INTRA:          -4.024
REMARK INTER:                  -4.015
REMARK INTRA:                  -0.009
REMARK UNBOUND:                -0.010
REMARK SMILES O=Cc1ccccc1
REMARK SMILES IDX 6 1 5 2 4 3 3 4 8 5 7 6 2 7 1 8
REMARK H PARENT
REMARK Flexibility Score: inf
ROOT
ATOM      1  C   UNL     1       3.958  10.443   9.658  1.00  0.00     0.000 A 
ATOM      2  C   UNL     1       4.700  11.596   9.394  1.00  0.00     0.001 A 
ATOM      3  C   UNL     1       5.278  11.786   8.135  1.00  0.00     0.011 A 
ATOM      4  C   UNL     1       5.116  10.817   7.128  1.00  0.00     0.014 A 
ATOM      5  C   UNL     1       4.369   9.660   7.403  1.00  0.00     0.011 A 
ATOM      6  C   UNL     1       3.792   9.475   8.664  1.00  0.00     0.001 A 
ENDROOT
BRANCH   4   7
ATOM      7  C   UNL     1       5.718  10.996   5.793  1.00  0.00     0.260 C 
ATOM      8  O   UNL     1       6.713  10.314   5.431  1.00  0.00    -0.298 OA
ENDBRANCH   4   7
TORSDOF 1
ENDMDL
MODEL 9
REMARK VINA RESULT:    -3.724     16.924     18.084
REMARK INTER + INTRA:          -3.952
REMARK INTER:                  -3.939
REMARK INTRA:                  -0.012
REMARK UNBOUND:                -0.010
REMARK SMILES O=Cc1ccccc1
REMARK SMILES IDX 6 1 5 2 4 3 3 4 8 5 7 6 2 7 1 8
REMARK H PARENT
REMARK Flexibility Score: inf
ROOT
ATOM      1  C   UNL     1       5.007  10.628   6.289  1.00  0.00     0.000 A 
ATOM      2  C   UNL     1       4.944  11.185   5.009  1.00  0.00     0.001 A 
ATOM      3  C   UNL     1       6.091  11.730   4.424  1.00  0.00     0.011 A 
ATOM      4  C   UNL     1       7.313  11.722   5.120  1.00  0.00     0.014 A 
ATOM      5  C   UNL     1       7.366  11.162   6.407  1.00  0.00     0.011 A 
ATOM      6  C   UNL     1       6.216  10.616   6.988  1.00  0.00     0.001 A 
ENDROOT
BRANCH   4   7
ATOM      7  C   UNL     1       8.535  12.293   4.523  1.00  0.00     0.260 C 
ATOM      8  O   UNL     1       8.652  12.417   3.275  1.00  0.00    -0.298 OA
ENDBRANCH   4   7
TORSDOF 1
ENDMDL
