MODEL 1
REMARK VINA RESULT:    -5.404      0.000      0.000
REMARK INTER + INTRA:         -12.137
REMARK INTER:                 -10.143
REMARK INTRA:                  -1.994
REMARK UNBOUND:                -1.994
REMARK SMILES O=C([O-])CCCCCCCCCCCCCCC(=O)[O-]
REMARK SMILES IDX 10 1 9 2 8 3 7 4 6 5 5 6 4 7 2 8 1 9 3 10 11 11 12 12 13 13
REMARK SMILES IDX 14 14 15 15 16 16 17 17 18 18 19 19 20 20
REMARK H PARENT
REMARK Flexibility Score: inf
ROOT
ATOM      1  C   UNL     1      35.119  44.472  47.524  1.00  0.00     0.000 C 
ENDROOT
BRANCH   1   2
ATOM      2  C   UNL     1      34.236  45.069  48.627  1.00  0.00     0.000 C 
BRANCH   2   3
ATOM      3  C   UNL     1      35.079  45.520  49.825  1.00  0.00     0.000 C 
BRANCH   3   4
ATOM      4  C   UNL     1      34.972  44.521  50.982  1.00  0.00     0.000 C 
BRANCH   4   5
ATOM      5  C   UNL     1      36.354  43.996  51.388  1.00  0.00     0.000 C 
BRANCH   5   6
ATOM      6  C   UNL     1      36.606  42.599  50.802  1.00  0.00     0.006 C 
BRANCH   6   7
ATOM      7  C   UNL     1      37.710  42.607  49.736  1.00  0.00     0.053 C 
BRANCH   7   8
ATOM      8  C   UNL     1      38.771  41.590  50.027  1.00  0.00     0.041 C 
ATOM      9  O   UNL     1      39.063  40.718  49.166  1.00  0.00    -0.550 OA
ATOM     10  O   UNL     1      39.414  41.586  51.257  1.00  0.00    -0.550 OA
ENDBRANCH   7   8
ENDBRANCH   6   7
ENDBRANCH   5   6
ENDBRANCH   4   5
ENDBRANCH   3   4
ENDBRANCH   2   3
ENDBRANCH   1   2
BRANCH   1  11
ATOM     11  C   UNL     1      34.948  42.950  47.445  1.00  0.00     0.000 C 
BRANCH  11  12
ATOM     12  C   UNL     1      33.616  42.514  48.073  1.00  0.00     0.000 C 
BRANCH  12  13
ATOM     13  C   UNL     1      32.892  41.435  47.248  1.00  0.00     0.000 C 
BRANCH  13  14
ATOM     14  C   UNL     1      31.667  41.935  46.455  1.00  0.00     0.000 C 
BRANCH  14  15
ATOM     15  C   UNL     1      31.209  43.368  46.791  1.00  0.00     0.000 C 
BRANCH  15  16
ATOM     16  C   UNL     1      31.765  44.462  45.861  1.00  0.00     0.006 C 
BRANCH  16  17
ATOM     17  C   UNL     1      31.914  43.990  44.409  1.00  0.00     0.053 C 
BRANCH  17  18
ATOM     18  C   UNL     1      32.928  44.824  43.693  1.00  0.00     0.041 C 
ATOM     19  O   UNL     1      34.110  44.893  44.122  1.00  0.00    -0.550 OA
ATOM     20  O   UNL     1      32.556  45.568  42.581  1.00  0.00    -0.550 OA
ENDBRANCH  17  18
ENDBRANCH  16  17
ENDBRANCH  15  16
ENDBRANCH  14  15
ENDBRANCH  13  14
ENDBRANCH  12  13
ENDBRANCH  11  12
ENDBRANCH   1  11
TORSDOF 15
ENDMDL
MODEL 2
REMARK VINA RESULT:    -5.354      2.369      4.041
REMARK INTER + INTRA:         -12.043
REMARK INTER:                 -10.049
REMARK INTRA:                  -1.994
REMARK UNBOUND:                -1.994
REMARK SMILES O=C([O-])CCCCCCCCCCCCCCC(=O)[O-]
REMARK SMILES IDX 10 1 9 2 8 3 7 4 6 5 5 6 4 7 2 8 1 9 3 10 11 11 12 12 13 13
REMARK SMILES IDX 14 14 15 15 16 16 17 17 18 18 19 19 20 20
REMARK H PARENT
REMARK Flexibility Score: inf
ROOT
ATOM      1  C   UNL     1      34.042  44.722  44.170  1.00  0.00     0.000 C 
ENDROOT
BRANCH   1   2
ATOM      2  C   UNL     1      34.463  44.608  45.640  1.00  0.00     0.000 C 
BRANCH   2   3
ATOM      3  C   UNL     1      35.930  44.179  45.761  1.00  0.00     0.000 C 
BRANCH   3   4
ATOM      4  C   UNL     1      36.046  42.780  46.379  1.00  0.00     0.000 C 
BRANCH   4   5
ATOM      5  C   UNL     1      37.298  42.666  47.256  1.00  0.00     0.000 C 
BRANCH   5   6
ATOM      6  C   UNL     1      36.927  42.298  48.699  1.00  0.00     0.006 C 
BRANCH   6   7
ATOM      7  C   UNL     1      38.160  41.969  49.551  1.00  0.00     0.053 C 
BRANCH   7   8
ATOM      8  C   UNL     1      38.275  42.875  50.738  1.00  0.00     0.041 C 
ATOM      9  O   UNL     1      39.336  42.898  51.416  1.00  0.00    -0.550 OA
ATOM     10  O   UNL     1      37.202  43.671  51.113  1.00  0.00    -0.550 OA
ENDBRANCH   7   8
ENDBRANCH   6   7
ENDBRANCH   5   6
ENDBRANCH   4   5
ENDBRANCH   3   4
ENDBRANCH   2   3
ENDBRANCH   1   2
BRANCH   1  11
ATOM     11  C   UNL     1      32.551  44.407  43.998  1.00  0.00     0.000 C 
BRANCH  11  12
ATOM     12  C   UNL     1      31.868  44.226  45.361  1.00  0.00     0.000 C 
BRANCH  12  13
ATOM     13  C   UNL     1      31.106  42.894  45.475  1.00  0.00     0.000 C 
BRANCH  13  14
ATOM     14  C   UNL     1      31.325  42.129  46.796  1.00  0.00     0.000 C 
BRANCH  14  15
ATOM     15  C   UNL     1      32.796  41.823  47.140  1.00  0.00     0.000 C 
BRANCH  15  16
ATOM     16  C   UNL     1      33.243  42.278  48.542  1.00  0.00     0.006 C 
BRANCH  16  17
ATOM     17  C   UNL     1      32.867  43.734  48.843  1.00  0.00     0.053 C 
BRANCH  17  18
ATOM     18  C   UNL     1      33.920  44.379  49.687  1.00  0.00     0.041 C 
ATOM     19  O   UNL     1      33.857  44.310  50.942  1.00  0.00    -0.550 OA
ATOM     20  O   UNL     1      34.943  45.103  49.088  1.00  0.00    -0.550 OA
ENDBRANCH  17  18
ENDBRANCH  16  17
ENDBRANCH  15  16
ENDBRANCH  14  15
ENDBRANCH  13  14
ENDBRANCH  12  13
ENDBRANCH  11  12
ENDBRANCH   1  11
TORSDOF 15
ENDMDL
MODEL 3
REMARK VINA RESULT:    -5.169      2.055      6.886
REMARK INTER + INTRA:         -11.695
REMARK INTER:                  -9.594
REMARK INTRA:                  -2.101
REMARK UNBOUND:                -1.994
REMARK SMILES O=C([O-])CCCCCCCCCCCCCCC(=O)[O-]
REMARK SMILES IDX 10 1 9 2 8 3 7 4 6 5 5 6 4 7 2 8 1 9 3 10 11 11 12 12 13 13
REMARK SMILES IDX 14 14 15 15 16 16 17 17 18 18 19 19 20 20
REMARK H PARENT
REMARK Flexibility Score: inf
ROOT
ATOM      1  C   UNL     1      35.039  44.357  47.524  1.00  0.00     0.000 C 
ENDROOT
BRANCH   1   2
ATOM      2  C   UNL     1      33.965  44.867  48.492  1.00  0.00     0.000 C 
BRANCH   2   3
ATOM      3  C   UNL     1      32.890  43.801  48.734  1.00  0.00     0.000 C 
BRANCH   3   4
ATOM      4  C   UNL     1      31.632  44.091  47.907  1.00  0.00     0.000 C 
BRANCH   4   5
ATOM      5  C   UNL     1      31.166  42.839  47.154  1.00  0.00     0.000 C 
BRANCH   5   6
ATOM      6  C   UNL     1      31.479  42.950  45.655  1.00  0.00     0.006 C 
BRANCH   6   7
ATOM      7  C   UNL     1      31.815  44.387  45.236  1.00  0.00     0.053 C 
BRANCH   7   8
ATOM      8  C   UNL     1      32.694  44.423  44.024  1.00  0.00     0.041 C 
ATOM      9  O   UNL     1      32.219  44.151  42.890  1.00  0.00    -0.550 OA
ATOM     10  O   UNL     1      34.043  44.728  44.150  1.00  0.00    -0.550 OA
ENDBRANCH   7   8
ENDBRANCH   6   7
ENDBRANCH   5   6
ENDBRANCH   4   5
ENDBRANCH   3   4
ENDBRANCH   2   3
ENDBRANCH   1   2
BRANCH   1  11
ATOM     11  C   UNL     1      34.899  42.847  47.292  1.00  0.00     0.000 C 
BRANCH  11  12
ATOM     12  C   UNL     1      36.205  42.253  46.743  1.00  0.00     0.000 C 
BRANCH  12  13
ATOM     13  C   UNL     1      37.443  42.688  47.546  1.00  0.00     0.000 C 
BRANCH  13  14
ATOM     14  C   UNL     1      37.808  41.769  48.729  1.00  0.00     0.000 C 
BRANCH  14  15
ATOM     15  C   UNL     1      38.376  42.489  49.969  1.00  0.00     0.000 C 
BRANCH  15  16
ATOM     16  C   UNL     1      37.347  43.297  50.778  1.00  0.00     0.006 C 
BRANCH  16  17
ATOM     17  C   UNL     1      36.012  42.560  50.949  1.00  0.00     0.053 C 
BRANCH  17  18
ATOM     18  C   UNL     1      35.068  43.377  51.773  1.00  0.00     0.041 C 
ATOM     19  O   UNL     1      35.437  44.482  52.251  1.00  0.00    -0.550 OA
ATOM     20  O   UNL     1      33.798  42.893  52.059  1.00  0.00    -0.550 OA
ENDBRANCH  17  18
ENDBRANCH  16  17
ENDBRANCH  15  16
ENDBRANCH  14  15
ENDBRANCH  13  14
ENDBRANCH  12  13
ENDBRANCH  11  12
ENDBRANCH   1  11
TORSDOF 15
ENDMDL
MODEL 4
REMARK VINA RESULT:    -5.077      2.908      6.232
REMARK INTER + INTRA:         -11.523
REMARK INTER:                  -9.830
REMARK INTRA:                  -1.694
REMARK UNBOUND:                -1.994
REMARK SMILES O=C([O-])CCCCCCCCCCCCCCC(=O)[O-]
REMARK SMILES IDX 10 1 9 2 8 3 7 4 6 5 5 6 4 7 2 8 1 9 3 10 11 11 12 12 13 13
REMARK SMILES IDX 14 14 15 15 16 16 17 17 18 18 19 19 20 20
REMARK H PARENT
REMARK Flexibility Score: inf
ROOT
ATOM      1  C   UNL     1      38.407  42.249  48.811  1.00  0.00     0.000 C 
ENDROOT
BRANCH   1   2
ATOM      2  C   UNL     1      37.035  41.968  48.187  1.00  0.00     0.000 C 
BRANCH   2   3
ATOM      3  C   UNL     1      36.883  42.687  46.842  1.00  0.00     0.000 C 
BRANCH   3   4
ATOM      4  C   UNL     1      35.896  43.856  46.951  1.00  0.00     0.000 C 
BRANCH   4   5
ATOM      5  C   UNL     1      35.664  44.511  45.584  1.00  0.00     0.000 C 
BRANCH   5   6
ATOM      6  C   UNL     1      34.172  44.515  45.222  1.00  0.00     0.006 C 
BRANCH   6   7
ATOM      7  C   UNL     1      33.926  44.969  43.777  1.00  0.00     0.053 C 
BRANCH   7   8
ATOM      8  C   UNL     1      32.513  44.718  43.348  1.00  0.00     0.041 C 
ATOM      9  O   UNL     1      31.810  43.867  43.953  1.00  0.00    -0.550 OA
ATOM     10  O   UNL     1      31.984  45.401  42.261  1.00  0.00    -0.550 OA
ENDBRANCH   7   8
ENDBRANCH   6   7
ENDBRANCH   5   6
ENDBRANCH   4   5
ENDBRANCH   3   4
ENDBRANCH   2   3
ENDBRANCH   1   2
BRANCH   1  11
ATOM     11  C   UNL     1      38.298  42.408  50.333  1.00  0.00     0.000 C 
BRANCH  11  12
ATOM     12  C   UNL     1      36.831  42.537  50.768  1.00  0.00     0.000 C 
BRANCH  12  13
ATOM     13  C   UNL     1      36.381  44.001  50.922  1.00  0.00     0.000 C 
BRANCH  13  14
ATOM     14  C   UNL     1      34.901  44.266  50.579  1.00  0.00     0.000 C 
BRANCH  14  15
ATOM     15  C   UNL     1      33.987  43.025  50.613  1.00  0.00     0.000 C 
BRANCH  15  16
ATOM     16  C   UNL     1      32.848  43.029  49.577  1.00  0.00     0.006 C 
BRANCH  16  17
ATOM     17  C   UNL     1      33.187  42.222  48.317  1.00  0.00     0.053 C 
BRANCH  17  18
ATOM     18  C   UNL     1      32.013  42.187  47.391  1.00  0.00     0.041 C 
ATOM     19  O   UNL     1      32.048  41.481  46.349  1.00  0.00    -0.550 OA
ATOM     20  O   UNL     1      30.900  42.976  47.650  1.00  0.00    -0.550 OA
ENDBRANCH  17  18
ENDBRANCH  16  17
ENDBRANCH  15  16
ENDBRANCH  14  15
ENDBRANCH  13  14
ENDBRANCH  12  13
ENDBRANCH  11  12
ENDBRANCH   1  11
TORSDOF 15
ENDMDL
MODEL 5
REMARK VINA RESULT:    -5.021      2.149      3.130
REMARK INTER + INTRA:         -11.417
REMARK INTER:                  -9.450
REMARK INTRA:                  -1.967
REMARK UNBOUND:                -1.994
REMARK SMILES O=C([O-])CCCCCCCCCCCCCCC(=O)[O-]
REMARK SMILES IDX 10 1 9 2 8 3 7 4 6 5 5 6 4 7 2 8 1 9 3 10 11 11 12 12 13 13
REMARK SMILES IDX 14 14 15 15 16 16 17 17 18 18 19 19 20 20
REMARK H PARENT
REMARK Flexibility Score: inf
ROOT
ATOM      1  C   UNL     1      35.902  43.955  46.325  1.00  0.00     0.000 C 
ENDROOT
BRANCH   1   2
ATOM      2  C   UNL     1      36.297  42.579  46.875  1.00  0.00     0.000 C 
BRANCH   2   3
ATOM      3  C   UNL     1      37.715  42.605  47.459  1.00  0.00     0.000 C 
BRANCH   3   4
ATOM      4  C   UNL     1      37.806  41.742  48.722  1.00  0.00     0.000 C 
BRANCH   4   5
ATOM      5  C   UNL     1      38.036  42.608  49.966  1.00  0.00     0.000 C 
BRANCH   5   6
ATOM      6  C   UNL     1      36.786  42.637  50.856  1.00  0.00     0.006 C 
BRANCH   6   7
ATOM      7  C   UNL     1      36.259  44.062  51.073  1.00  0.00     0.053 C 
BRANCH   7   8
ATOM      8  C   UNL     1      34.976  44.070  51.845  1.00  0.00     0.041 C 
ATOM      9  O   UNL     1      34.341  42.999  52.029  1.00  0.00    -0.550 OA
ATOM     10  O   UNL     1      34.466  45.265  52.335  1.00  0.00    -0.550 OA
ENDBRANCH   7   8
ENDBRANCH   6   7
ENDBRANCH   5   6
ENDBRANCH   4   5
ENDBRANCH   3   4
ENDBRANCH   2   3
ENDBRANCH   1   2
BRANCH   1  11
ATOM     11  C   UNL     1      34.843  44.620  47.213  1.00  0.00     0.000 C 
BRANCH  11  12
ATOM     12  C   UNL     1      34.200  43.597  48.160  1.00  0.00     0.000 C 
BRANCH  12  13
ATOM     13  C   UNL     1      32.891  44.106  48.789  1.00  0.00     0.000 C 
BRANCH  13  14
ATOM     14  C   UNL     1      31.666  44.082  47.853  1.00  0.00     0.000 C 
BRANCH  14  15
ATOM     15  C   UNL     1      31.518  42.807  46.998  1.00  0.00     0.000 C 
BRANCH  15  16
ATOM     16  C   UNL     1      31.532  43.040  45.477  1.00  0.00     0.006 C 
BRANCH  16  17
ATOM     17  C   UNL     1      31.868  44.488  45.100  1.00  0.00     0.053 C 
BRANCH  17  18
ATOM     18  C   UNL     1      32.637  44.526  43.817  1.00  0.00     0.041 C 
ATOM     19  O   UNL     1      33.812  44.979  43.794  1.00  0.00    -0.550 OA
ATOM     20  O   UNL     1      32.037  44.111  42.635  1.00  0.00    -0.550 OA
ENDBRANCH  17  18
ENDBRANCH  16  17
ENDBRANCH  15  16
ENDBRANCH  14  15
ENDBRANCH  13  14
ENDBRANCH  12  13
ENDBRANCH  11  12
ENDBRANCH   1  11
TORSDOF 15
ENDMDL
MODEL 6
REMARK VINA RESULT:    -4.949      0.970      6.917
REMARK INTER + INTRA:         -11.282
REMARK INTER:                  -9.671
REMARK INTRA:                  -1.612
REMARK UNBOUND:                -1.994
REMARK SMILES O=C([O-])CCCCCCCCCCCCCCC(=O)[O-]
REMARK SMILES IDX 10 1 9 2 8 3 7 4 6 5 5 6 4 7 2 8 1 9 3 10 11 11 12 12 13 13
REMARK SMILES IDX 14 14 15 15 16 16 17 17 18 18 19 19 20 20
REMARK H PARENT
REMARK Flexibility Score: inf
ROOT
ATOM      1  C   UNL     1      33.476  43.552  48.324  1.00  0.00     0.000 C 
ENDROOT
BRANCH   1   2
ATOM      2  C   UNL     1      33.732  42.215  47.618  1.00  0.00     0.000 C 
BRANCH   2   3
ATOM      3  C   UNL     1      32.464  41.706  46.923  1.00  0.00     0.000 C 
BRANCH   3   4
ATOM      4  C   UNL     1      31.305  42.694  47.102  1.00  0.00     0.000 C 
BRANCH   4   5
ATOM      5  C   UNL     1      30.830  43.238  45.749  1.00  0.00     0.000 C 
BRANCH   5   6
ATOM      6  C   UNL     1      31.712  44.406  45.286  1.00  0.00     0.006 C 
BRANCH   6   7
ATOM      7  C   UNL     1      32.493  44.073  44.007  1.00  0.00     0.053 C 
BRANCH   7   8
ATOM      8  C   UNL     1      33.739  44.895  43.885  1.00  0.00     0.041 C 
ATOM      9  O   UNL     1      34.750  44.618  44.582  1.00  0.00    -0.550 OA
ATOM     10  O   UNL     1      33.773  45.984  43.024  1.00  0.00    -0.550 OA
ENDBRANCH   7   8
ENDBRANCH   6   7
ENDBRANCH   5   6
ENDBRANCH   4   5
ENDBRANCH   3   4
ENDBRANCH   2   3
ENDBRANCH   1   2
BRANCH   1  11
ATOM     11  C   UNL     1      34.685  44.486  48.190  1.00  0.00     0.000 C 
BRANCH  11  12
ATOM     12  C   UNL     1      34.780  45.436  49.393  1.00  0.00     0.000 C 
BRANCH  12  13
ATOM     13  C   UNL     1      33.982  44.939  50.611  1.00  0.00     0.000 C 
BRANCH  13  14
ATOM     14  C   UNL     1      34.804  44.148  51.649  1.00  0.00     0.000 C 
BRANCH  14  15
ATOM     15  C   UNL     1      36.313  44.044  51.350  1.00  0.00     0.000 C 
BRANCH  15  16
ATOM     16  C   UNL     1      36.786  42.657  50.878  1.00  0.00     0.006 C 
BRANCH  16  17
ATOM     17  C   UNL     1      38.197  42.684  50.275  1.00  0.00     0.053 C 
BRANCH  17  18
ATOM     18  C   UNL     1      38.246  41.857  49.030  1.00  0.00     0.041 C 
ATOM     19  O   UNL     1      38.952  40.815  48.987  1.00  0.00    -0.550 OA
ATOM     20  O   UNL     1      37.553  42.265  47.897  1.00  0.00    -0.550 OA
ENDBRANCH  17  18
ENDBRANCH  16  17
ENDBRANCH  15  16
ENDBRANCH  14  15
ENDBRANCH  13  14
ENDBRANCH  12  13
ENDBRANCH  11  12
ENDBRANCH   1  11
TORSDOF 15
ENDMDL
MODEL 7
REMARK VINA RESULT:    -4.910      2.364      6.584
REMARK INTER + INTRA:         -11.210
REMARK INTER:                  -9.867
REMARK INTRA:                  -1.342
REMARK UNBOUND:                -1.994
REMARK SMILES O=C([O-])CCCCCCCCCCCCCCC(=O)[O-]
REMARK SMILES IDX 10 1 9 2 8 3 7 4 6 5 5 6 4 7 2 8 1 9 3 10 11 11 12 12 13 13
REMARK SMILES IDX 14 14 15 15 16 16 17 17 18 18 19 19 20 20
REMARK H PARENT
REMARK Flexibility Score: inf
ROOT
ATOM      1  C   UNL     1      33.351  42.929  51.178  1.00  0.00     0.000 C 
ENDROOT
BRANCH   1   2
ATOM      2  C   UNL     1      32.214  43.299  50.219  1.00  0.00     0.000 C 
BRANCH   2   3
ATOM      3  C   UNL     1      32.675  43.219  48.759  1.00  0.00     0.000 C 
BRANCH   3   4
ATOM      4  C   UNL     1      31.971  44.276  47.900  1.00  0.00     0.000 C 
BRANCH   4   5
ATOM      5  C   UNL     1      31.540  43.691  46.550  1.00  0.00     0.000 C 
BRANCH   5   6
ATOM      6  C   UNL     1      32.514  44.101  45.436  1.00  0.00     0.006 C 
BRANCH   6   7
ATOM      7  C   UNL     1      31.855  44.078  44.050  1.00  0.00     0.053 C 
BRANCH   7   8
ATOM      8  C   UNL     1      32.503  45.047  43.109  1.00  0.00     0.041 C 
ATOM      9  O   UNL     1      33.615  45.561  43.399  1.00  0.00    -0.550 OA
ATOM     10  O   UNL     1      31.866  45.402  41.929  1.00  0.00    -0.550 OA
ENDBRANCH   7   8
ENDBRANCH   6   7
ENDBRANCH   5   6
ENDBRANCH   4   5
ENDBRANCH   3   4
ENDBRANCH   2   3
ENDBRANCH   1   2
BRANCH   1  11
ATOM     11  C   UNL     1      34.666  42.719  50.418  1.00  0.00     0.000 C 
BRANCH  11  12
ATOM     12  C   UNL     1      35.875  42.966  51.333  1.00  0.00     0.000 C 
BRANCH  12  13
ATOM     13  C   UNL     1      37.155  43.310  50.551  1.00  0.00     0.000 C 
BRANCH  13  14
ATOM     14  C   UNL     1      38.102  42.120  50.296  1.00  0.00     0.000 C 
BRANCH  14  15
ATOM     15  C   UNL     1      38.077  41.558  48.860  1.00  0.00     0.000 C 
BRANCH  15  16
ATOM     16  C   UNL     1      37.814  42.602  47.759  1.00  0.00     0.006 C 
BRANCH  16  17
ATOM     17  C   UNL     1      36.426  42.457  47.121  1.00  0.00     0.053 C 
BRANCH  17  18
ATOM     18  C   UNL     1      35.942  43.781  46.623  1.00  0.00     0.041 C 
ATOM     19  O   UNL     1      36.050  44.078  45.404  1.00  0.00    -0.550 OA
ATOM     20  O   UNL     1      35.420  44.710  47.513  1.00  0.00    -0.550 OA
ENDBRANCH  17  18
ENDBRANCH  16  17
ENDBRANCH  15  16
ENDBRANCH  14  15
ENDBRANCH  13  14
ENDBRANCH  12  13
ENDBRANCH  11  12
ENDBRANCH   1  11
TORSDOF 15
ENDMDL
MODEL 8
REMARK VINA RESULT:    -4.907      2.333      7.096
REMARK INTER + INTRA:         -11.203
REMARK INTER:                  -9.688
REMARK INTRA:                  -1.515
REMARK UNBOUND:                -1.994
REMARK SMILES O=C([O-])CCCCCCCCCCCCCCC(=O)[O-]
REMARK SMILES IDX 10 1 9 2 8 3 7 4 6 5 5 6 4 7 2 8 1 9 3 10 11 11 12 12 13 13
REMARK SMILES IDX 14 14 15 15 16 16 17 17 18 18 19 19 20 20
REMARK H PARENT
REMARK Flexibility Score: inf
ROOT
ATOM      1  C   UNL     1      35.212  44.513  46.204  1.00  0.00     0.000 C 
ENDROOT
BRANCH   1   2
ATOM      2  C   UNL     1      34.822  44.899  44.772  1.00  0.00     0.000 C 
BRANCH   2   3
ATOM      3  C   UNL     1      33.377  44.486  44.464  1.00  0.00     0.000 C 
BRANCH   3   4
ATOM      4  C   UNL     1      32.599  44.201  45.754  1.00  0.00     0.000 C 
BRANCH   4   5
ATOM      5  C   UNL     1      31.695  42.974  45.593  1.00  0.00     0.000 C 
BRANCH   5   6
ATOM      6  C   UNL     1      31.728  42.097  46.853  1.00  0.00     0.006 C 
BRANCH   6   7
ATOM      7  C   UNL     1      30.458  42.250  47.701  1.00  0.00     0.053 C 
BRANCH   7   8
ATOM      8  C   UNL     1      30.572  43.383  48.674  1.00  0.00     0.041 C 
ATOM      9  O   UNL     1      31.278  43.260  49.709  1.00  0.00    -0.550 OA
ATOM     10  O   UNL     1      29.875  44.563  48.452  1.00  0.00    -0.550 OA
ENDBRANCH   7   8
ENDBRANCH   6   7
ENDBRANCH   5   6
ENDBRANCH   4   5
ENDBRANCH   3   4
ENDBRANCH   2   3
ENDBRANCH   1   2
BRANCH   1  11
ATOM     11  C   UNL     1      36.186  43.329  46.209  1.00  0.00     0.000 C 
BRANCH  11  12
ATOM     12  C   UNL     1      36.085  42.541  47.524  1.00  0.00     0.000 C 
BRANCH  12  13
ATOM     13  C   UNL     1      34.875  42.959  48.379  1.00  0.00     0.000 C 
BRANCH  13  14
ATOM     14  C   UNL     1      35.223  43.485  49.786  1.00  0.00     0.000 C 
BRANCH  14  15
ATOM     15  C   UNL     1      36.233  42.628  50.575  1.00  0.00     0.000 C 
BRANCH  15  16
ATOM     16  C   UNL     1      37.392  43.415  51.214  1.00  0.00     0.006 C 
BRANCH  16  17
ATOM     17  C   UNL     1      38.766  42.980  50.690  1.00  0.00     0.053 C 
BRANCH  17  18
ATOM     18  C   UNL     1      38.809  41.496  50.511  1.00  0.00     0.041 C 
ATOM     19  O   UNL     1      38.848  40.736  51.514  1.00  0.00    -0.550 OA
ATOM     20  O   UNL     1      38.859  40.952  49.234  1.00  0.00    -0.550 OA
ENDBRANCH  17  18
ENDBRANCH  16  17
ENDBRANCH  15  16
ENDBRANCH  14  15
ENDBRANCH  13  14
ENDBRANCH  12  13
ENDBRANCH  11  12
ENDBRANCH   1  11
TORSDOF 15
ENDMDL
MODEL 9
REMARK VINA RESULT:    -4.822      3.043      4.384
REMARK INTER + INTRA:         -11.044
REMARK INTER:                  -9.621
REMARK INTRA:                  -1.423
REMARK UNBOUND:                -1.994
REMARK SMILES O=C([O-])CCCCCCCCCCCCCCC(=O)[O-]
REMARK SMILES IDX 10 1 9 2 8 3 7 4 6 5 5 6 4 7 2 8 1 9 3 10 11 11 12 12 13 13
REMARK SMILES IDX 14 14 15 15 16 16 17 17 18 18 19 19 20 20
REMARK H PARENT
REMARK Flexibility Score: inf
ROOT
ATOM      1  C   UNL     1      37.859  42.661  47.925  1.00  0.00     0.000 C 
ENDROOT
BRANCH   1   2
ATOM      2  C   UNL     1      38.244  41.597  48.959  1.00  0.00     0.000 C 
BRANCH   2   3
ATOM      3  C   UNL     1      38.528  42.233  50.325  1.00  0.00     0.000 C 
BRANCH   3   4
ATOM      4  C   UNL     1      37.379  43.152  50.755  1.00  0.00     0.000 C 
BRANCH   4   5
ATOM      5  C   UNL     1      36.120  42.342  51.089  1.00  0.00     0.000 C 
BRANCH   5   6
ATOM      6  C   UNL     1      34.978  43.262  51.542  1.00  0.00     0.006 C 
BRANCH   6   7
ATOM      7  C   UNL     1      33.603  42.740  51.104  1.00  0.00     0.053 C 
BRANCH   7   8
ATOM      8  C   UNL     1      32.981  43.617  50.061  1.00  0.00     0.041 C 
ATOM      9  O   UNL     1      33.532  44.701  49.735  1.00  0.00    -0.550 OA
ATOM     10  O   UNL     1      31.779  43.251  49.471  1.00  0.00    -0.550 OA
ENDBRANCH   7   8
ENDBRANCH   6   7
ENDBRANCH   5   6
ENDBRANCH   4   5
ENDBRANCH   3   4
ENDBRANCH   2   3
ENDBRANCH   1   2
BRANCH   1  11
ATOM     11  C   UNL     1      36.666  42.201  47.078  1.00  0.00     0.000 C 
BRANCH  11  12
ATOM     12  C   UNL     1      35.415  43.035  47.394  1.00  0.00     0.000 C 
BRANCH  12  13
ATOM     13  C   UNL     1      35.461  44.441  46.771  1.00  0.00     0.000 C 
BRANCH  13  14
ATOM     14  C   UNL     1      35.181  44.491  45.255  1.00  0.00     0.000 C 
BRANCH  14  15
ATOM     15  C   UNL     1      33.689  44.493  44.864  1.00  0.00     0.000 C 
BRANCH  15  16
ATOM     16  C   UNL     1      32.721  44.104  45.996  1.00  0.00     0.006 C 
BRANCH  16  17
ATOM     17  C   UNL     1      31.473  43.372  45.486  1.00  0.00     0.053 C 
BRANCH  17  18
ATOM     18  C   UNL     1      31.287  42.085  46.226  1.00  0.00     0.041 C 
ATOM     19  O   UNL     1      30.129  41.645  46.452  1.00  0.00    -0.550 OA
ATOM     20  O   UNL     1      32.391  41.398  46.714  1.00  0.00    -0.550 OA
ENDBRANCH  17  18
ENDBRANCH  16  17
ENDBRANCH  15  16
ENDBRANCH  14  15
ENDBRANCH  13  14
ENDBRANCH  12  13
ENDBRANCH  11  12
ENDBRANCH   1  11
TORSDOF 15
ENDMDL
