MODEL 1
REMARK VINA RESULT:    -5.116      0.000      0.000
REMARK INTER + INTRA:          -5.439
REMARK INTER:                  -5.416
REMARK INTRA:                  -0.023
REMARK UNBOUND:                -0.023
REMARK SMILES O=C([O-])c1cccnc1
REMARK SMILES IDX 4 1 5 2 9 3 6 4 8 5 7 6 2 7 1 8 3 9
REMARK H PARENT
REMARK Flexibility Score: inf
ROOT
ATOM      1  C   UNL     1      18.674 125.428  16.447  1.00  0.00     0.016 A 
ATOM      2  C   UNL     1      19.315 126.284  15.536  1.00  0.00     0.013 A 
ATOM      3  C   UNL     1      18.286 125.949  17.693  1.00  0.00     0.120 A 
ATOM      4  C   UNL     1      19.554 127.617  15.875  1.00  0.00     0.021 A 
ATOM      5  N   UNL     1      18.530 127.252  17.999  1.00  0.00    -0.264 NA
ATOM      6  C   UNL     1      19.149 128.088  17.124  1.00  0.00     0.111 A 
ENDROOT
BRANCH   1   7
ATOM      7  C   UNL     1      18.418 124.014  16.099  1.00  0.00     0.073 C 
ATOM      8  O   UNL     1      18.471 123.630  14.900  1.00  0.00    -0.545 OA
ATOM      9  O   UNL     1      18.115 123.088  17.090  1.00  0.00    -0.545 OA
ENDBRANCH   1   7
TORSDOF 1
ENDMDL
MODEL 2
REMARK VINA RESULT:    -4.934     13.877     15.463
REMARK INTER + INTRA:          -5.246
REMARK INTER:                  -5.224
REMARK INTRA:                  -0.022
REMARK UNBOUND:                -0.023
REMARK SMILES O=C([O-])c1cccnc1
REMARK SMILES IDX 4 1 5 2 9 3 6 4 8 5 7 6 2 7 1 8 3 9
REMARK H PARENT
REMARK Flexibility Score: inf
ROOT
ATOM      1  C   UNL     1      11.287 112.893  16.463  1.00  0.00     0.016 A 
ATOM      2  C   UNL     1      10.610 111.906  15.727  1.00  0.00     0.013 A 
ATOM      3  C   UNL     1      11.776 112.557  17.738  1.00  0.00     0.120 A 
ATOM      4  C   UNL     1      10.435 110.628  16.261  1.00  0.00     0.021 A 
ATOM      5  N   UNL     1      11.593 111.304  18.235  1.00  0.00    -0.264 NA
ATOM      6  C   UNL     1      10.939 110.343  17.530  1.00  0.00     0.111 A 
ENDROOT
BRANCH   1   7
ATOM      7  C   UNL     1      11.477 114.249  15.908  1.00  0.00     0.073 C 
ATOM      8  O   UNL     1      11.511 114.432  14.661  1.00  0.00    -0.545 OA
ATOM      9  O   UNL     1      11.619 115.343  16.753  1.00  0.00    -0.545 OA
ENDBRANCH   1   7
TORSDOF 1
ENDMDL
MODEL 3
REMARK VINA RESULT:    -4.735      2.995      4.618
REMARK INTER + INTRA:          -5.035
REMARK INTER:                  -5.015
REMARK INTRA:                  -0.020
REMARK UNBOUND:                -0.023
REMARK SMILES O=C([O-])c1cccnc1
REMARK SMILES IDX 4 1 5 2 9 3 6 4 8 5 7 6 2 7 1 8 3 9
REMARK H PARENT
REMARK Flexibility Score: inf
ROOT
ATOM      1  C   UNL     1      18.363 123.854  15.691  1.00  0.00     0.016 A 
ATOM      2  C   UNL     1      17.993 123.216  16.886  1.00  0.00     0.013 A 
ATOM      3  C   UNL     1      18.318 123.112  14.497  1.00  0.00     0.120 A 
ATOM      4  C   UNL     1      17.592 121.879  16.873  1.00  0.00     0.021 A 
ATOM      5  N   UNL     1      17.923 121.811  14.511  1.00  0.00    -0.264 NA
ATOM      6  C   UNL     1      17.563 121.185  15.664  1.00  0.00     0.111 A 
ENDROOT
BRANCH   1   7
ATOM      7  C   UNL     1      18.790 125.269  15.692  1.00  0.00     0.073 C 
ATOM      8  O   UNL     1      19.549 125.708  16.599  1.00  0.00    -0.545 OA
ATOM      9  O   UNL     1      18.363 126.136  14.694  1.00  0.00    -0.545 OA
ENDBRANCH   1   7
TORSDOF 1
ENDMDL
MODEL 4
REMARK VINA RESULT:    -4.679      2.860      4.346
REMARK INTER + INTRA:          -4.976
REMARK INTER:                  -4.959
REMARK INTRA:                  -0.017
REMARK UNBOUND:                -0.023
REMARK SMILES O=C([O-])c1cccnc1
REMARK SMILES IDX 4 1 5 2 9 3 6 4 8 5 7 6 2 7 1 8 3 9
REMARK H PARENT
REMARK Flexibility Score: inf
ROOT
ATOM      1  C   UNL     1      18.267 123.718  15.902  1.00  0.00     0.016 A 
ATOM      2  C   UNL     1      18.329 123.160  14.614  1.00  0.00     0.013 A 
ATOM      3  C   UNL     1      17.855 122.896  16.966  1.00  0.00     0.120 A 
ATOM      4  C   UNL     1      17.988 121.822  14.412  1.00  0.00     0.021 A 
ATOM      5  N   UNL     1      17.529 121.594  16.742  1.00  0.00    -0.264 NA
ATOM      6  C   UNL     1      17.586 121.046  15.499  1.00  0.00     0.111 A 
ENDROOT
BRANCH   1   7
ATOM      7  C   UNL     1      18.624 125.134  16.128  1.00  0.00     0.073 C 
ATOM      8  O   UNL     1      19.824 125.512  16.050  1.00  0.00    -0.545 OA
ATOM      9  O   UNL     1      17.642 126.070  16.429  1.00  0.00    -0.545 OA
ENDBRANCH   1   7
TORSDOF 1
ENDMDL
MODEL 5
REMARK VINA RESULT:    -4.605      4.247      5.157
REMARK INTER + INTRA:          -4.898
REMARK INTER:                  -4.876
REMARK INTRA:                  -0.022
REMARK UNBOUND:                -0.023
REMARK SMILES O=C([O-])c1cccnc1
REMARK SMILES IDX 4 1 5 2 9 3 6 4 8 5 7 6 2 7 1 8 3 9
REMARK H PARENT
REMARK Flexibility Score: inf
ROOT
ATOM      1  C   UNL     1      17.148 121.001  16.372  1.00  0.00     0.016 A 
ATOM      2  C   UNL     1      17.633 122.132  17.050  1.00  0.00     0.013 A 
ATOM      3  C   UNL     1      17.287 120.951  14.974  1.00  0.00     0.120 A 
ATOM      4  C   UNL     1      18.237 123.171  16.340  1.00  0.00     0.021 A 
ATOM      5  N   UNL     1      17.879 121.977  14.305  1.00  0.00    -0.264 NA
ATOM      6  C   UNL     1      18.352 123.074  14.953  1.00  0.00     0.111 A 
ENDROOT
BRANCH   1   7
ATOM      7  C   UNL     1      16.506 119.896  17.114  1.00  0.00     0.073 C 
ATOM      8  O   UNL     1      15.660 119.152  16.550  1.00  0.00    -0.545 OA
ATOM      9  O   UNL     1      16.829 119.660  18.445  1.00  0.00    -0.545 OA
ENDBRANCH   1   7
TORSDOF 1
ENDMDL
MODEL 6
REMARK VINA RESULT:    -4.422      2.780      3.570
REMARK INTER + INTRA:          -4.704
REMARK INTER:                  -4.681
REMARK INTRA:                  -0.024
REMARK UNBOUND:                -0.023
REMARK SMILES O=C([O-])c1cccnc1
REMARK SMILES IDX 4 1 5 2 9 3 6 4 8 5 7 6 2 7 1 8 3 9
REMARK H PARENT
REMARK Flexibility Score: inf
ROOT
ATOM      1  C   UNL     1      18.595 126.281  16.715  1.00  0.00     0.016 A 
ATOM      2  C   UNL     1      18.735 125.917  15.366  1.00  0.00     0.013 A 
ATOM      3  C   UNL     1      18.243 125.285  17.643  1.00  0.00     0.120 A 
ATOM      4  C   UNL     1      18.525 124.594  14.971  1.00  0.00     0.021 A 
ATOM      5  N   UNL     1      18.045 124.004  17.232  1.00  0.00    -0.264 NA
ATOM      6  C   UNL     1      18.177 123.641  15.929  1.00  0.00     0.111 A 
ENDROOT
BRANCH   1   7
ATOM      7  C   UNL     1      18.813 127.679  17.144  1.00  0.00     0.073 C 
ATOM      8  O   UNL     1      19.397 128.498  16.385  1.00  0.00    -0.545 OA
ATOM      9  O   UNL     1      18.377 128.110  18.391  1.00  0.00    -0.545 OA
ENDBRANCH   1   7
TORSDOF 1
ENDMDL
MODEL 7
REMARK VINA RESULT:    -4.257      7.702      8.504
REMARK INTER + INTRA:          -4.530
REMARK INTER:                  -4.512
REMARK INTRA:                  -0.018
REMARK UNBOUND:                -0.023
REMARK SMILES O=C([O-])c1cccnc1
REMARK SMILES IDX 4 1 5 2 9 3 6 4 8 5 7 6 2 7 1 8 3 9
REMARK H PARENT
REMARK Flexibility Score: inf
ROOT
ATOM      1  C   UNL     1      15.027 119.311  19.675  1.00  0.00     0.016 A 
ATOM      2  C   UNL     1      13.854 119.110  18.928  1.00  0.00     0.013 A 
ATOM      3  C   UNL     1      16.223 119.567  18.983  1.00  0.00     0.120 A 
ATOM      4  C   UNL     1      13.892 119.166  17.534  1.00  0.00     0.021 A 
ATOM      5  N   UNL     1      16.234 119.616  17.623  1.00  0.00    -0.264 NA
ATOM      6  C   UNL     1      15.104 119.423  16.892  1.00  0.00     0.111 A 
ENDROOT
BRANCH   1   7
ATOM      7  C   UNL     1      14.998 119.254  21.152  1.00  0.00     0.073 C 
ATOM      8  O   UNL     1      15.388 120.236  21.838  1.00  0.00    -0.545 OA
ATOM      9  O   UNL     1      14.540 118.115  21.804  1.00  0.00    -0.545 OA
ENDBRANCH   1   7
TORSDOF 1
ENDMDL
MODEL 8
REMARK VINA RESULT:    -4.235      7.470      8.327
REMARK INTER + INTRA:          -4.506
REMARK INTER:                  -4.488
REMARK INTRA:                  -0.018
REMARK UNBOUND:                -0.023
REMARK SMILES O=C([O-])c1cccnc1
REMARK SMILES IDX 4 1 5 2 9 3 6 4 8 5 7 6 2 7 1 8 3 9
REMARK H PARENT
REMARK Flexibility Score: inf
ROOT
ATOM      1  C   UNL     1      15.151 119.372  19.672  1.00  0.00     0.016 A 
ATOM      2  C   UNL     1      16.384 119.696  19.083  1.00  0.00     0.013 A 
ATOM      3  C   UNL     1      14.054 119.121  18.829  1.00  0.00     0.120 A 
ATOM      4  C   UNL     1      16.503 119.761  17.694  1.00  0.00     0.021 A 
ATOM      5  N   UNL     1      14.196 119.191  17.478  1.00  0.00    -0.264 NA
ATOM      6  C   UNL     1      15.386 119.503  16.899  1.00  0.00     0.111 A 
ENDROOT
BRANCH   1   7
ATOM      7  C   UNL     1      15.013 119.301  21.142  1.00  0.00     0.073 C 
ATOM      8  O   UNL     1      14.567 118.259  21.694  1.00  0.00    -0.545 OA
ATOM      9  O   UNL     1      15.375 120.382  21.937  1.00  0.00    -0.545 OA
ENDBRANCH   1   7
TORSDOF 1
ENDMDL
MODEL 9
REMARK VINA RESULT:    -4.114     11.736     12.927
REMARK INTER + INTRA:          -4.378
REMARK INTER:                  -4.359
REMARK INTRA:                  -0.020
REMARK UNBOUND:                -0.023
REMARK SMILES O=C([O-])c1cccnc1
REMARK SMILES IDX 4 1 5 2 9 3 6 4 8 5 7 6 2 7 1 8 3 9
REMARK H PARENT
REMARK Flexibility Score: inf
ROOT
ATOM      1  C   UNL     1      11.589 114.738  15.398  1.00  0.00     0.016 A 
ATOM      2  C   UNL     1      11.569 115.305  14.113  1.00  0.00     0.013 A 
ATOM      3  C   UNL     1      11.985 115.547  16.478  1.00  0.00     0.120 A 
ATOM      4  C   UNL     1      11.936 116.640  13.929  1.00  0.00     0.021 A 
ATOM      5  N   UNL     1      12.337 116.844  16.272  1.00  0.00    -0.264 NA
ATOM      6  C   UNL     1      12.321 117.402  15.032  1.00  0.00     0.111 A 
ENDROOT
BRANCH   1   7
ATOM      7  C   UNL     1      11.204 113.326  15.605  1.00  0.00     0.073 C 
ATOM      8  O   UNL     1      10.465 112.999  16.572  1.00  0.00    -0.545 OA
ATOM      9  O   UNL     1      11.651 112.339  14.734  1.00  0.00    -0.545 OA
ENDBRANCH   1   7
TORSDOF 1
ENDMDL
