MODEL 1
REMARK VINA RESULT:    -4.311      0.000      0.000
REMARK INTER + INTRA:          -4.311
REMARK INTER:                  -4.311
REMARK INTRA:                   0.000
REMARK UNBOUND:                 0.000
REMARK SMILES CC(C)=C1CC[C@H](C)CC1=O
REMARK SMILES IDX 8 1 7 2 6 3 5 4 4 5 2 6 1 7 3 8 10 9 11 10 9 11
REMARK H PARENT
REMARK Flexibility Score: inf
ROOT
ATOM      1  C   UNL     1      -9.518  12.687  -3.604  1.00  0.00     0.008 C 
ATOM      2  C   UNL     1      -8.024  12.349  -3.662  1.00  0.00    -0.006 C 
ATOM      3  C   UNL     1      -7.626  11.900  -5.076  1.00  0.00     0.008 C 
ATOM      4  C   UNL     1      -6.156  11.460  -5.129  1.00  0.00     0.039 C 
ATOM      5  C   UNL     1      -5.212  12.511  -4.561  1.00  0.00    -0.006 C 
ATOM      6  C   UNL     1      -3.944  12.659  -5.045  1.00  0.00    -0.070 C 
ATOM      7  C   UNL     1      -3.418  11.775  -6.152  1.00  0.00     0.039 C 
ATOM      8  C   UNL     1      -3.017  13.735  -4.528  1.00  0.00     0.039 C 
ATOM      9  C   UNL     1      -5.714  13.276  -3.382  1.00  0.00     0.159 C 
ATOM     10  O   UNL     1      -4.930  13.688  -2.485  1.00  0.00    -0.295 OA
ATOM     11  C   UNL     1      -7.181  13.562  -3.239  1.00  0.00     0.084 C 
ENDROOT
TORSDOF 0
ENDMDL
MODEL 2
REMARK VINA RESULT:    -4.220      2.729      4.227
REMARK INTER + INTRA:          -4.220
REMARK INTER:                  -4.220
REMARK INTRA:                   0.000
REMARK UNBOUND:                 0.000
REMARK SMILES CC(C)=C1CC[C@H](C)CC1=O
REMARK SMILES IDX 8 1 7 2 6 3 5 4 4 5 2 6 1 7 3 8 10 9 11 10 9 11
REMARK H PARENT
REMARK Flexibility Score: inf
ROOT
ATOM      1  C   UNL     1      -4.930  13.578  -2.873  1.00  0.00     0.008 C 
ATOM      2  C   UNL     1      -4.347  13.708  -4.285  1.00  0.00    -0.006 C 
ATOM      3  C   UNL     1      -2.816  13.821  -4.231  1.00  0.00     0.008 C 
ATOM      4  C   UNL     1      -2.224  14.055  -5.627  1.00  0.00     0.039 C 
ATOM      5  C   UNL     1      -2.699  13.024  -6.642  1.00  0.00    -0.006 C 
ATOM      6  C   UNL     1      -1.900  12.626  -7.676  1.00  0.00    -0.070 C 
ATOM      7  C   UNL     1      -0.517  13.207  -7.866  1.00  0.00     0.039 C 
ATOM      8  C   UNL     1      -2.338  11.563  -8.656  1.00  0.00     0.039 C 
ATOM      9  C   UNL     1      -4.115  12.570  -6.504  1.00  0.00     0.159 C 
ATOM     10  O   UNL     1      -4.799  12.245  -7.511  1.00  0.00    -0.295 OA
ATOM     11  C   UNL     1      -4.755  12.504  -5.148  1.00  0.00     0.084 C 
ENDROOT
TORSDOF 0
ENDMDL
MODEL 3
REMARK VINA RESULT:    -4.211      1.365      3.949
REMARK INTER + INTRA:          -4.211
REMARK INTER:                  -4.211
REMARK INTRA:                   0.000
REMARK UNBOUND:                 0.000
REMARK SMILES CC(C)=C1CC[C@H](C)CC1=O
REMARK SMILES IDX 8 1 7 2 6 3 5 4 4 5 2 6 1 7 3 8 10 9 11 10 9 11
REMARK H PARENT
REMARK Flexibility Score: inf
ROOT
ATOM      1  C   UNL     1      -2.957  14.094  -4.005  1.00  0.00     0.008 C 
ATOM      2  C   UNL     1      -4.345  13.636  -4.469  1.00  0.00    -0.006 C 
ATOM      3  C   UNL     1      -4.256  12.277  -5.179  1.00  0.00     0.008 C 
ATOM      4  C   UNL     1      -5.619  11.850  -5.741  1.00  0.00     0.039 C 
ATOM      5  C   UNL     1      -6.721  11.890  -4.690  1.00  0.00    -0.006 C 
ATOM      6  C   UNL     1      -7.770  11.016  -4.729  1.00  0.00    -0.070 C 
ATOM      7  C   UNL     1      -7.890   9.984  -5.826  1.00  0.00     0.039 C 
ATOM      8  C   UNL     1      -8.839  11.010  -3.661  1.00  0.00     0.039 C 
ATOM      9  C   UNL     1      -6.643  13.005  -3.700  1.00  0.00     0.159 C 
ATOM     10  O   UNL     1      -7.684  13.519  -3.209  1.00  0.00    -0.295 OA
ATOM     11  C   UNL     1      -5.308  13.543  -3.275  1.00  0.00     0.084 C 
ENDROOT
TORSDOF 0
ENDMDL
MODEL 4
REMARK VINA RESULT:    -4.202      2.488      4.695
REMARK INTER + INTRA:          -4.202
REMARK INTER:                  -4.202
REMARK INTRA:                   0.000
REMARK UNBOUND:                 0.000
REMARK SMILES CC(C)=C1CC[C@H](C)CC1=O
REMARK SMILES IDX 8 1 7 2 6 3 5 4 4 5 2 6 1 7 3 8 10 9 11 10 9 11
REMARK H PARENT
REMARK Flexibility Score: inf
ROOT
ATOM      1  C   UNL     1      -3.783  13.429  -5.539  1.00  0.00     0.008 C 
ATOM      2  C   UNL     1      -5.227  12.919  -5.623  1.00  0.00    -0.006 C 
ATOM      3  C   UNL     1      -5.728  12.951  -7.074  1.00  0.00     0.008 C 
ATOM      4  C   UNL     1      -7.205  12.540  -7.164  1.00  0.00     0.039 C 
ATOM      5  C   UNL     1      -7.482  11.210  -6.478  1.00  0.00    -0.006 C 
ATOM      6  C   UNL     1      -8.457  10.367  -6.932  1.00  0.00    -0.070 C 
ATOM      7  C   UNL     1      -9.312  10.729  -8.125  1.00  0.00     0.039 C 
ATOM      8  C   UNL     1      -8.704   9.020  -6.295  1.00  0.00     0.039 C 
ATOM      9  C   UNL     1      -6.714  10.943  -5.225  1.00  0.00     0.159 C 
ATOM     10  O   UNL     1      -7.209  10.268  -4.284  1.00  0.00    -0.295 OA
ATOM     11  C   UNL     1      -5.326  11.491  -5.064  1.00  0.00     0.084 C 
ENDROOT
TORSDOF 0
ENDMDL
MODEL 5
REMARK VINA RESULT:    -4.168      2.006      3.332
REMARK INTER + INTRA:          -4.168
REMARK INTER:                  -4.168
REMARK INTRA:                   0.000
REMARK UNBOUND:                 0.000
REMARK SMILES CC(C)=C1CC[C@H](C)CC1=O
REMARK SMILES IDX 8 1 7 2 6 3 5 4 4 5 2 6 1 7 3 8 10 9 11 10 9 11
REMARK H PARENT
REMARK Flexibility Score: inf
ROOT
ATOM      1  C   UNL     1      -8.652  10.563  -7.510  1.00  0.00     0.008 C 
ATOM      2  C   UNL     1      -8.014  10.863  -6.148  1.00  0.00    -0.006 C 
ATOM      3  C   UNL     1      -6.653  11.551  -6.329  1.00  0.00     0.008 C 
ATOM      4  C   UNL     1      -5.953  11.767  -4.980  1.00  0.00     0.039 C 
ATOM      5  C   UNL     1      -6.842  12.482  -3.970  1.00  0.00    -0.006 C 
ATOM      6  C   UNL     1      -6.313  13.314  -3.025  1.00  0.00    -0.070 C 
ATOM      7  C   UNL     1      -4.823  13.546  -2.930  1.00  0.00     0.039 C 
ATOM      8  C   UNL     1      -7.188  14.072  -2.054  1.00  0.00     0.039 C 
ATOM      9  C   UNL     1      -8.292  12.128  -4.004  1.00  0.00     0.159 C 
ATOM     10  O   UNL     1      -8.992  12.131  -2.957  1.00  0.00    -0.295 OA
ATOM     11  C   UNL     1      -8.943  11.748  -5.303  1.00  0.00     0.084 C 
ENDROOT
TORSDOF 0
ENDMDL
MODEL 6
REMARK VINA RESULT:    -4.151      1.959      3.396
REMARK INTER + INTRA:          -4.151
REMARK INTER:                  -4.151
REMARK INTRA:                   0.000
REMARK UNBOUND:                 0.000
REMARK SMILES CC(C)=C1CC[C@H](C)CC1=O
REMARK SMILES IDX 8 1 7 2 6 3 5 4 4 5 2 6 1 7 3 8 10 9 11 10 9 11
REMARK H PARENT
REMARK Flexibility Score: inf
ROOT
ATOM      1  C   UNL     1      -8.676   9.361  -6.258  1.00  0.00     0.008 C 
ATOM      2  C   UNL     1      -8.344  10.735  -5.665  1.00  0.00    -0.006 C 
ATOM      3  C   UNL     1      -8.730  10.791  -4.179  1.00  0.00     0.008 C 
ATOM      4  C   UNL     1      -8.501  12.192  -3.595  1.00  0.00     0.039 C 
ATOM      5  C   UNL     1      -7.091  12.707  -3.853  1.00  0.00    -0.006 C 
ATOM      6  C   UNL     1      -6.466  13.537  -2.967  1.00  0.00    -0.070 C 
ATOM      7  C   UNL     1      -7.155  13.993  -1.701  1.00  0.00     0.039 C 
ATOM      8  C   UNL     1      -5.047  14.010  -3.184  1.00  0.00     0.039 C 
ATOM      9  C   UNL     1      -6.492  12.347  -5.173  1.00  0.00     0.159 C 
ATOM     10  O   UNL     1      -5.688  13.120  -5.760  1.00  0.00    -0.295 OA
ATOM     11  C   UNL     1      -6.849  11.046  -5.831  1.00  0.00     0.084 C 
ENDROOT
TORSDOF 0
ENDMDL
MODEL 7
REMARK VINA RESULT:    -4.102     14.464     15.544
REMARK INTER + INTRA:          -4.102
REMARK INTER:                  -4.102
REMARK INTRA:                   0.000
REMARK UNBOUND:                 0.000
REMARK SMILES CC(C)=C1CC[C@H](C)CC1=O
REMARK SMILES IDX 8 1 7 2 6 3 5 4 4 5 2 6 1 7 3 8 10 9 11 10 9 11
REMARK H PARENT
REMARK Flexibility Score: inf
ROOT
ATOM      1  C   UNL     1       7.499   4.003  -4.001  1.00  0.00     0.008 C 
ATOM      2  C   UNL     1       7.343   3.920  -5.524  1.00  0.00    -0.006 C 
ATOM      3  C   UNL     1       6.470   2.717  -5.914  1.00  0.00     0.008 C 
ATOM      4  C   UNL     1       6.387   2.559  -7.438  1.00  0.00     0.039 C 
ATOM      5  C   UNL     1       5.958   3.843  -8.135  1.00  0.00    -0.006 C 
ATOM      6  C   UNL     1       5.228   3.814  -9.289  1.00  0.00    -0.070 C 
ATOM      7  C   UNL     1       4.830   2.506  -9.932  1.00  0.00     0.039 C 
ATOM      8  C   UNL     1       4.748   5.081  -9.959  1.00  0.00     0.039 C 
ATOM      9  C   UNL     1       6.479   5.114  -7.549  1.00  0.00     0.159 C 
ATOM     10  O   UNL     1       6.730   6.115  -8.273  1.00  0.00    -0.295 OA
ATOM     11  C   UNL     1       6.726   5.216  -6.072  1.00  0.00     0.084 C 
ENDROOT
TORSDOF 0
ENDMDL
MODEL 8
REMARK VINA RESULT:    -4.061      2.461      4.507
REMARK INTER + INTRA:          -4.061
REMARK INTER:                  -4.061
REMARK INTRA:                   0.000
REMARK UNBOUND:                 0.000
REMARK SMILES CC(C)=C1CC[C@H](C)CC1=O
REMARK SMILES IDX 8 1 7 2 6 3 5 4 4 5 2 6 1 7 3 8 10 9 11 10 9 11
REMARK H PARENT
REMARK Flexibility Score: inf
ROOT
ATOM      1  C   UNL     1      -3.358  13.821  -4.116  1.00  0.00     0.008 C 
ATOM      2  C   UNL     1      -4.194  12.790  -4.885  1.00  0.00    -0.006 C 
ATOM      3  C   UNL     1      -5.354  12.279  -4.018  1.00  0.00     0.008 C 
ATOM      4  C   UNL     1      -6.140  11.172  -4.733  1.00  0.00     0.039 C 
ATOM      5  C   UNL     1      -6.590  11.586  -6.128  1.00  0.00    -0.006 C 
ATOM      6  C   UNL     1      -7.752  11.112  -6.668  1.00  0.00    -0.070 C 
ATOM      7  C   UNL     1      -8.631  10.143  -5.910  1.00  0.00     0.039 C 
ATOM      8  C   UNL     1      -8.238  11.558  -8.027  1.00  0.00     0.039 C 
ATOM      9  C   UNL     1      -5.636  12.436  -6.901  1.00  0.00     0.159 C 
ATOM     10  O   UNL     1      -5.557  12.356  -8.156  1.00  0.00    -0.295 OA
ATOM     11  C   UNL     1      -4.739  13.402  -6.184  1.00  0.00     0.084 C 
ENDROOT
TORSDOF 0
ENDMDL
