MODEL 1
REMARK VINA RESULT:    -2.740      0.000      0.000
REMARK INTER + INTRA:          -2.740
REMARK INTER:                  -2.740
REMARK INTRA:                   0.000
REMARK UNBOUND:                 0.000
REMARK SMILES CC(=O)[O-]
REMARK SMILES IDX 1 1 2 2 3 3 4 4
REMARK H PARENT
REMARK Flexibility Score: inf
ROOT
ATOM      1  C   UNL     1     -26.527 -35.958  38.552  1.00  0.00     0.063 C 
ATOM      2  C   UNL     1     -27.884 -35.516  38.987  1.00  0.00     0.038 C 
ATOM      3  O   UNL     1     -28.908 -36.094  38.540  1.00  0.00    -0.550 OA
ATOM      4  O   UNL     1     -28.021 -34.433  39.844  1.00  0.00    -0.550 OA
ENDROOT
TORSDOF 0
ENDMDL
MODEL 2
REMARK VINA RESULT:    -2.597      1.464      1.906
REMARK INTER + INTRA:          -2.597
REMARK INTER:                  -2.597
REMARK INTRA:                   0.000
REMARK UNBOUND:                 0.000
REMARK SMILES CC(=O)[O-]
REMARK SMILES IDX 1 1 2 2 3 3 4 4
REMARK H PARENT
REMARK Flexibility Score: inf
ROOT
ATOM      1  C   UNL     1     -28.124 -35.363  40.595  1.00  0.00     0.063 C 
ATOM      2  C   UNL     1     -27.959 -36.034  39.273  1.00  0.00     0.038 C 
ATOM      3  O   UNL     1     -28.945 -36.160  38.503  1.00  0.00    -0.550 OA
ATOM      4  O   UNL     1     -26.729 -36.567  38.913  1.00  0.00    -0.550 OA
ENDROOT
TORSDOF 0
ENDMDL
MODEL 3
REMARK VINA RESULT:    -2.548      1.739      2.245
REMARK INTER + INTRA:          -2.548
REMARK INTER:                  -2.548
REMARK INTRA:                   0.000
REMARK UNBOUND:                 0.000
REMARK SMILES CC(=O)[O-]
REMARK SMILES IDX 1 1 2 2 3 3 4 4
REMARK H PARENT
REMARK Flexibility Score: inf
ROOT
ATOM      1  C   UNL     1     -27.866 -34.882  39.700  1.00  0.00     0.063 C 
ATOM      2  C   UNL     1     -27.243 -35.614  38.559  1.00  0.00     0.038 C 
ATOM      3  O   UNL     1     -26.179 -36.263  38.732  1.00  0.00    -0.550 OA
ATOM      4  O   UNL     1     -27.807 -35.538  37.293  1.00  0.00    -0.550 OA
ENDROOT
TORSDOF 0
ENDMDL
MODEL 4
REMARK VINA RESULT:    -2.205      5.734      6.106
REMARK INTER + INTRA:          -2.205
REMARK INTER:                  -2.205
REMARK INTRA:                   0.000
REMARK UNBOUND:                 0.000
REMARK SMILES CC(=O)[O-]
REMARK SMILES IDX 1 1 2 2 3 3 4 4
REMARK H PARENT
REMARK Flexibility Score: inf
ROOT
ATOM      1  C   UNL     1     -24.621 -29.305  38.060  1.00  0.00     0.063 C 
ATOM      2  C   UNL     1     -25.342 -30.065  39.123  1.00  0.00     0.038 C 
ATOM      3  O   UNL     1     -26.296 -30.826  38.817  1.00  0.00    -0.550 OA
ATOM      4  O   UNL     1     -24.996 -29.893  40.456  1.00  0.00    -0.550 OA
ENDROOT
TORSDOF 0
ENDMDL
MODEL 5
REMARK VINA RESULT:    -2.195      8.586      9.196
REMARK INTER + INTRA:          -2.195
REMARK INTER:                  -2.195
REMARK INTRA:                   0.000
REMARK UNBOUND:                 0.000
REMARK SMILES CC(=O)[O-]
REMARK SMILES IDX 1 1 2 2 3 3 4 4
REMARK H PARENT
REMARK Flexibility Score: inf
ROOT
ATOM      1  C   UNL     1     -22.067 -28.149  38.148  1.00  0.00     0.063 C 
ATOM      2  C   UNL     1     -22.470 -28.256  39.580  1.00  0.00     0.038 C 
ATOM      3  O   UNL     1     -22.489 -27.230  40.308  1.00  0.00    -0.550 OA
ATOM      4  O   UNL     1     -22.774 -29.495  40.126  1.00  0.00    -0.550 OA
ENDROOT
TORSDOF 0
ENDMDL
MODEL 6
REMARK VINA RESULT:    -2.178      7.236      7.858
REMARK INTER + INTRA:          -2.178
REMARK INTER:                  -2.178
REMARK INTRA:                   0.000
REMARK UNBOUND:                 0.000
REMARK SMILES CC(=O)[O-]
REMARK SMILES IDX 1 1 2 2 3 3 4 4
REMARK H PARENT
REMARK Flexibility Score: inf
ROOT
ATOM      1  C   UNL     1     -22.628 -28.485  39.571  1.00  0.00     0.063 C 
ATOM      2  C   UNL     1     -23.614 -29.273  40.365  1.00  0.00     0.038 C 
ATOM      3  O   UNL     1     -23.535 -29.300  41.621  1.00  0.00    -0.550 OA
ATOM      4  O   UNL     1     -24.588 -30.021  39.719  1.00  0.00    -0.550 OA
ENDROOT
TORSDOF 0
ENDMDL
MODEL 7
REMARK VINA RESULT:    -2.173      7.205      7.682
REMARK INTER + INTRA:          -2.173
REMARK INTER:                  -2.173
REMARK INTRA:                   0.000
REMARK UNBOUND:                 0.000
REMARK SMILES CC(=O)[O-]
REMARK SMILES IDX 1 1 2 2 3 3 4 4
REMARK H PARENT
REMARK Flexibility Score: inf
ROOT
ATOM      1  C   UNL     1     -22.612 -28.520  39.498  1.00  0.00     0.063 C 
ATOM      2  C   UNL     1     -23.627 -29.324  40.239  1.00  0.00     0.038 C 
ATOM      3  O   UNL     1     -24.457 -30.027  39.607  1.00  0.00    -0.550 OA
ATOM      4  O   UNL     1     -23.693 -29.256  41.624  1.00  0.00    -0.550 OA
ENDROOT
TORSDOF 0
ENDMDL
MODEL 8
REMARK VINA RESULT:    -2.082      6.198      6.645
REMARK INTER + INTRA:          -2.082
REMARK INTER:                  -2.082
REMARK INTRA:                   0.000
REMARK UNBOUND:                 0.000
REMARK SMILES CC(=O)[O-]
REMARK SMILES IDX 1 1 2 2 3 3 4 4
REMARK H PARENT
REMARK Flexibility Score: inf
ROOT
ATOM      1  C   UNL     1     -24.178 -29.357  39.849  1.00  0.00     0.063 C 
ATOM      2  C   UNL     1     -24.962 -29.777  38.652  1.00  0.00     0.038 C 
ATOM      3  O   UNL     1     -24.646 -29.353  37.510  1.00  0.00    -0.550 OA
ATOM      4  O   UNL     1     -26.074 -30.594  38.801  1.00  0.00    -0.550 OA
ENDROOT
TORSDOF 0
ENDMDL
MODEL 9
REMARK VINA RESULT:    -2.031      7.670      8.120
REMARK INTER + INTRA:          -2.031
REMARK INTER:                  -2.031
REMARK INTRA:                   0.000
REMARK UNBOUND:                 0.000
REMARK SMILES CC(=O)[O-]
REMARK SMILES IDX 1 1 2 2 3 3 4 4
REMARK H PARENT
REMARK Flexibility Score: inf
ROOT
ATOM      1  C   UNL     1     -25.414 -29.168  40.192  1.00  0.00     0.063 C 
ATOM      2  C   UNL     1     -24.307 -28.764  41.106  1.00  0.00     0.038 C 
ATOM      3  O   UNL     1     -24.491 -27.855  41.956  1.00  0.00    -0.550 OA
ATOM      4  O   UNL     1     -23.055 -29.352  40.985  1.00  0.00    -0.550 OA
ENDROOT
TORSDOF 0
ENDMDL
