MODEL 1
REMARK VINA RESULT:    -3.950      0.000      0.000
REMARK INTER + INTRA:         -10.374
REMARK INTER:                  -8.567
REMARK INTRA:                  -1.806
REMARK UNBOUND:                -1.806
REMARK SMILES CCCCCCCCCCCCCCCCCCCCCC(=O)[O-]
REMARK SMILES IDX 12 1 11 2 10 3 9 4 8 5 7 6 6 7 5 8 4 9 3 10 2 11 1 12 13 13
REMARK SMILES IDX 14 14 15 15 16 16 17 17 18 18 19 19 20 20 21 21 22 22 23 23
REMARK SMILES IDX 24 24
REMARK H PARENT
REMARK Flexibility Score: inf
ROOT
ATOM      1  C   UNL     1       7.794   8.940  33.465  1.00  0.00     0.000 C 
ENDROOT
BRANCH   1   2
ATOM      2  C   UNL     1       7.721   7.480  33.944  1.00  0.00     0.000 C 
BRANCH   2   3
ATOM      3  C   UNL     1       6.966   7.326  35.278  1.00  0.00     0.000 C 
BRANCH   3   4
ATOM      4  C   UNL     1       5.563   6.703  35.165  1.00  0.00    -0.000 C 
BRANCH   4   5
ATOM      5  C   UNL     1       5.268   6.140  33.766  1.00  0.00    -0.000 C 
BRANCH   5   6
ATOM      6  C   UNL     1       5.260   4.605  33.784  1.00  0.00    -0.000 C 
BRANCH   6   7
ATOM      7  C   UNL     1       5.316   4.028  35.208  1.00  0.00    -0.000 C 
BRANCH   7   8
ATOM      8  C   UNL     1       6.057   2.684  35.274  1.00  0.00    -0.000 C 
BRANCH   8   9
ATOM      9  C   UNL     1       7.243   2.759  36.247  1.00  0.00    -0.000 C 
BRANCH   9  10
ATOM     10  C   UNL     1       8.054   4.055  36.095  1.00  0.00    -0.000 C 
BRANCH  10  11
ATOM     11  C   UNL     1       9.565   3.832  36.268  1.00  0.00    -0.003 C 
ATOM     12  C   UNL     1       9.905   2.344  36.261  1.00  0.00     0.004 C 
ENDBRANCH  10  11
ENDBRANCH   9  10
ENDBRANCH   8   9
ENDBRANCH   7   8
ENDBRANCH   6   7
ENDBRANCH   5   6
ENDBRANCH   4   5
ENDBRANCH   3   4
ENDBRANCH   2   3
ENDBRANCH   1   2
BRANCH   1  13
ATOM     13  C   UNL     1       6.463   9.435  32.875  1.00  0.00     0.000 C 
BRANCH  13  14
ATOM     14  C   UNL     1       6.024  10.789  33.462  1.00  0.00     0.000 C 
BRANCH  14  15
ATOM     15  C   UNL     1       5.356  10.647  34.839  1.00  0.00     0.000 C 
BRANCH  15  16
ATOM     16  C   UNL     1       4.923  11.997  35.432  1.00  0.00     0.000 C 
BRANCH  16  17
ATOM     17  C   UNL     1       5.302  13.154  34.494  1.00  0.00     0.000 C 
BRANCH  17  18
ATOM     18  C   UNL     1       5.175  14.530  35.168  1.00  0.00     0.000 C 
BRANCH  18  19
ATOM     19  C   UNL     1       6.219  15.536  34.653  1.00  0.00     0.000 C 
BRANCH  19  20
ATOM     20  C   UNL     1       5.632  16.938  34.405  1.00  0.00     0.006 C 
BRANCH  20  21
ATOM     21  C   UNL     1       6.625  18.087  34.657  1.00  0.00     0.053 C 
BRANCH  21  22
ATOM     22  C   UNL     1       6.605  19.114  33.566  1.00  0.00     0.041 C 
ATOM     23  O   UNL     1       7.550  19.938  33.454  1.00  0.00    -0.550 OA
ATOM     24  O   UNL     1       5.526  19.184  32.691  1.00  0.00    -0.550 OA
ENDBRANCH  21  22
ENDBRANCH  20  21
ENDBRANCH  19  20
ENDBRANCH  18  19
ENDBRANCH  17  18
ENDBRANCH  16  17
ENDBRANCH  15  16
ENDBRANCH  14  15
ENDBRANCH  13  14
ENDBRANCH   1  13
TORSDOF 20
ENDMDL
MODEL 2
REMARK VINA RESULT:    -3.940      1.018      1.969
REMARK INTER + INTRA:         -10.354
REMARK INTER:                  -8.624
REMARK INTRA:                  -1.730
REMARK UNBOUND:                -1.806
REMARK SMILES CCCCCCCCCCCCCCCCCCCCCC(=O)[O-]
REMARK SMILES IDX 12 1 11 2 10 3 9 4 8 5 7 6 6 7 5 8 4 9 3 10 2 11 1 12 13 13
REMARK SMILES IDX 14 14 15 15 16 16 17 17 18 18 19 19 20 20 21 21 22 22 23 23
REMARK SMILES IDX 24 24
REMARK H PARENT
REMARK Flexibility Score: inf
ROOT
ATOM      1  C   UNL     1       6.661   9.851  33.019  1.00  0.00     0.000 C 
ENDROOT
BRANCH   1   2
ATOM      2  C   UNL     1       7.381   8.716  33.767  1.00  0.00     0.000 C 
BRANCH   2   3
ATOM      3  C   UNL     1       6.906   7.317  33.331  1.00  0.00     0.000 C 
BRANCH   3   4
ATOM      4  C   UNL     1       5.711   6.758  34.123  1.00  0.00    -0.000 C 
BRANCH   4   5
ATOM      5  C   UNL     1       5.290   5.354  33.662  1.00  0.00    -0.000 C 
BRANCH   5   6
ATOM      6  C   UNL     1       5.011   4.443  34.866  1.00  0.00    -0.000 C 
BRANCH   6   7
ATOM      7  C   UNL     1       5.698   3.073  34.745  1.00  0.00    -0.000 C 
BRANCH   7   8
ATOM      8  C   UNL     1       6.542   2.722  35.981  1.00  0.00    -0.000 C 
BRANCH   8   9
ATOM      9  C   UNL     1       7.175   3.984  36.587  1.00  0.00    -0.000 C 
BRANCH   9  10
ATOM     10  C   UNL     1       8.554   4.302  35.988  1.00  0.00    -0.000 C 
BRANCH  10  11
ATOM     11  C   UNL     1       8.924   5.788  36.111  1.00  0.00    -0.003 C 
ATOM     12  C   UNL     1       7.922   6.533  36.988  1.00  0.00     0.004 C 
ENDBRANCH  10  11
ENDBRANCH   9  10
ENDBRANCH   8   9
ENDBRANCH   7   8
ENDBRANCH   6   7
ENDBRANCH   5   6
ENDBRANCH   4   5
ENDBRANCH   3   4
ENDBRANCH   2   3
ENDBRANCH   1   2
BRANCH   1  13
ATOM     13  C   UNL     1       5.524  10.474  33.845  1.00  0.00     0.000 C 
BRANCH  13  14
ATOM     14  C   UNL     1       5.329  11.971  33.545  1.00  0.00     0.000 C 
BRANCH  14  15
ATOM     15  C   UNL     1       5.048  12.796  34.813  1.00  0.00     0.000 C 
BRANCH  15  16
ATOM     16  C   UNL     1       5.020  14.308  34.545  1.00  0.00     0.000 C 
BRANCH  16  17
ATOM     17  C   UNL     1       6.201  15.009  35.235  1.00  0.00     0.000 C 
BRANCH  17  18
ATOM     18  C   UNL     1       6.489  16.401  34.649  1.00  0.00     0.000 C 
BRANCH  18  19
ATOM     19  C   UNL     1       5.728  17.518  35.384  1.00  0.00     0.000 C 
BRANCH  19  20
ATOM     20  C   UNL     1       6.528  18.830  35.477  1.00  0.00     0.006 C 
BRANCH  20  21
ATOM     21  C   UNL     1       5.959  19.973  34.618  1.00  0.00     0.053 C 
BRANCH  21  22
ATOM     22  C   UNL     1       6.360  19.863  33.177  1.00  0.00     0.041 C 
ATOM     23  O   UNL     1       5.553  19.398  32.330  1.00  0.00    -0.550 OA
ATOM     24  O   UNL     1       7.636  20.242  32.775  1.00  0.00    -0.550 OA
ENDBRANCH  21  22
ENDBRANCH  20  21
ENDBRANCH  19  20
ENDBRANCH  18  19
ENDBRANCH  17  18
ENDBRANCH  16  17
ENDBRANCH  15  16
ENDBRANCH  14  15
ENDBRANCH  13  14
ENDBRANCH   1  13
TORSDOF 20
ENDMDL
MODEL 3
REMARK VINA RESULT:    -3.722      1.474      1.997
REMARK INTER + INTRA:          -9.880
REMARK INTER:                  -7.948
REMARK INTRA:                  -1.931
REMARK UNBOUND:                -1.806
REMARK SMILES CCCCCCCCCCCCCCCCCCCCCC(=O)[O-]
REMARK SMILES IDX 12 1 11 2 10 3 9 4 8 5 7 6 6 7 5 8 4 9 3 10 2 11 1 12 13 13
REMARK SMILES IDX 14 14 15 15 16 16 17 17 18 18 19 19 20 20 21 21 22 22 23 23
REMARK SMILES IDX 24 24
REMARK H PARENT
REMARK Flexibility Score: inf
ROOT
ATOM      1  C   UNL     1       7.630   8.941  33.755  1.00  0.00     0.000 C 
ENDROOT
BRANCH   1   2
ATOM      2  C   UNL     1       7.500   7.408  33.777  1.00  0.00     0.000 C 
BRANCH   2   3
ATOM      3  C   UNL     1       6.269   6.901  33.002  1.00  0.00     0.000 C 
BRANCH   3   4
ATOM      4  C   UNL     1       5.232   6.143  33.849  1.00  0.00    -0.000 C 
BRANCH   4   5
ATOM      5  C   UNL     1       5.071   4.674  33.426  1.00  0.00    -0.000 C 
BRANCH   5   6
ATOM      6  C   UNL     1       5.224   3.738  34.634  1.00  0.00    -0.000 C 
BRANCH   6   7
ATOM      7  C   UNL     1       5.857   4.435  35.849  1.00  0.00    -0.000 C 
BRANCH   7   8
ATOM      8  C   UNL     1       7.355   4.125  35.996  1.00  0.00    -0.000 C 
BRANCH   8   9
ATOM      9  C   UNL     1       8.047   5.174  36.880  1.00  0.00    -0.000 C 
BRANCH   9  10
ATOM     10  C   UNL     1       9.310   5.758  36.228  1.00  0.00    -0.000 C 
BRANCH  10  11
ATOM     11  C   UNL     1       9.897   4.839  35.146  1.00  0.00    -0.003 C 
ATOM     12  C   UNL     1      10.750   5.629  34.157  1.00  0.00     0.004 C 
ENDBRANCH  10  11
ENDBRANCH   9  10
ENDBRANCH   8   9
ENDBRANCH   7   8
ENDBRANCH   6   7
ENDBRANCH   5   6
ENDBRANCH   4   5
ENDBRANCH   3   4
ENDBRANCH   2   3
ENDBRANCH   1   2
BRANCH   1  13
ATOM     13  C   UNL     1       6.309   9.640  33.394  1.00  0.00     0.000 C 
BRANCH  13  14
ATOM     14  C   UNL     1       5.487  10.025  34.637  1.00  0.00     0.000 C 
BRANCH  14  15
ATOM     15  C   UNL     1       6.132   9.538  35.946  1.00  0.00     0.000 C 
BRANCH  15  16
ATOM     16  C   UNL     1       6.211  10.638  37.016  1.00  0.00     0.000 C 
BRANCH  16  17
ATOM     17  C   UNL     1       5.315  11.830  36.643  1.00  0.00     0.000 C 
BRANCH  17  18
ATOM     18  C   UNL     1       6.037  13.180  36.779  1.00  0.00     0.000 C 
BRANCH  18  19
ATOM     19  C   UNL     1       5.722  14.136  35.615  1.00  0.00     0.000 C 
BRANCH  19  20
ATOM     20  C   UNL     1       6.195  15.578  35.876  1.00  0.00     0.006 C 
BRANCH  20  21
ATOM     21  C   UNL     1       6.539  16.366  34.600  1.00  0.00     0.053 C 
BRANCH  21  22
ATOM     22  C   UNL     1       6.165  17.814  34.700  1.00  0.00     0.041 C 
ATOM     23  O   UNL     1       6.745  18.668  33.980  1.00  0.00    -0.550 OA
ATOM     24  O   UNL     1       5.199  18.226  35.612  1.00  0.00    -0.550 OA
ENDBRANCH  21  22
ENDBRANCH  20  21
ENDBRANCH  19  20
ENDBRANCH  18  19
ENDBRANCH  17  18
ENDBRANCH  16  17
ENDBRANCH  15  16
ENDBRANCH  14  15
ENDBRANCH  13  14
ENDBRANCH   1  13
TORSDOF 20
ENDMDL
MODEL 4
REMARK VINA RESULT:    -3.601      4.301     10.918
REMARK INTER + INTRA:          -9.617
REMARK INTER:                  -8.493
REMARK INTRA:                  -1.125
REMARK UNBOUND:                -1.806
REMARK SMILES CCCCCCCCCCCCCCCCCCCCCC(=O)[O-]
REMARK SMILES IDX 12 1 11 2 10 3 9 4 8 5 7 6 6 7 5 8 4 9 3 10 2 11 1 12 13 13
REMARK SMILES IDX 14 14 15 15 16 16 17 17 18 18 19 19 20 20 21 21 22 22 23 23
REMARK SMILES IDX 24 24
REMARK H PARENT
REMARK Flexibility Score: inf
ROOT
ATOM      1  C   UNL     1       5.915   7.747  34.632  1.00  0.00     0.000 C 
ENDROOT
BRANCH   1   2
ATOM      2  C   UNL     1       6.744   9.024  34.414  1.00  0.00     0.000 C 
BRANCH   2   3
ATOM      3  C   UNL     1       6.301   9.819  33.171  1.00  0.00     0.000 C 
BRANCH   3   4
ATOM      4  C   UNL     1       5.601  11.158  33.469  1.00  0.00    -0.000 C 
BRANCH   4   5
ATOM      5  C   UNL     1       5.154  11.287  34.934  1.00  0.00    -0.000 C 
BRANCH   5   6
ATOM      6  C   UNL     1       4.888  12.756  35.297  1.00  0.00    -0.000 C 
BRANCH   6   7
ATOM      7  C   UNL     1       5.255  13.723  34.160  1.00  0.00    -0.000 C 
BRANCH   7   8
ATOM      8  C   UNL     1       5.102  15.198  34.565  1.00  0.00    -0.000 C 
BRANCH   8   9
ATOM      9  C   UNL     1       6.474  15.878  34.688  1.00  0.00    -0.000 C 
BRANCH   9  10
ATOM     10  C   UNL     1       6.370  17.406  34.814  1.00  0.00    -0.000 C 
BRANCH  10  11
ATOM     11  C   UNL     1       5.262  17.998  33.929  1.00  0.00    -0.003 C 
ATOM     12  C   UNL     1       5.780  19.186  33.122  1.00  0.00     0.004 C 
ENDBRANCH  10  11
ENDBRANCH   9  10
ENDBRANCH   8   9
ENDBRANCH   7   8
ENDBRANCH   6   7
ENDBRANCH   5   6
ENDBRANCH   4   5
ENDBRANCH   3   4
ENDBRANCH   2   3
ENDBRANCH   1   2
BRANCH   1  13
ATOM     13  C   UNL     1       6.376   6.583  33.739  1.00  0.00     0.000 C 
BRANCH  13  14
ATOM     14  C   UNL     1       5.199   5.754  33.194  1.00  0.00     0.000 C 
BRANCH  14  15
ATOM     15  C   UNL     1       5.038   4.409  33.922  1.00  0.00     0.000 C 
BRANCH  15  16
ATOM     16  C   UNL     1       5.864   4.329  35.215  1.00  0.00     0.000 C 
BRANCH  16  17
ATOM     17  C   UNL     1       5.701   2.955  35.885  1.00  0.00     0.000 C 
BRANCH  17  18
ATOM     18  C   UNL     1       7.037   2.213  36.048  1.00  0.00     0.000 C 
BRANCH  18  19
ATOM     19  C   UNL     1       8.067   3.024  36.853  1.00  0.00     0.000 C 
BRANCH  19  20
ATOM     20  C   UNL     1       9.300   3.424  36.022  1.00  0.00     0.006 C 
BRANCH  20  21
ATOM     21  C   UNL     1       9.595   4.934  36.025  1.00  0.00     0.053 C 
BRANCH  21  22
ATOM     22  C   UNL     1      10.106   5.422  34.702  1.00  0.00     0.041 C 
ATOM     23  O   UNL     1       9.492   6.328  34.082  1.00  0.00    -0.550 OA
ATOM     24  O   UNL     1      11.242   4.852  34.138  1.00  0.00    -0.550 OA
ENDBRANCH  21  22
ENDBRANCH  20  21
ENDBRANCH  19  20
ENDBRANCH  18  19
ENDBRANCH  17  18
ENDBRANCH  16  17
ENDBRANCH  15  16
ENDBRANCH  14  15
ENDBRANCH  13  14
ENDBRANCH   1  13
TORSDOF 20
ENDMDL
MODEL 5
REMARK VINA RESULT:    -3.579      5.506     12.186
REMARK INTER + INTRA:          -9.570
REMARK INTER:                  -8.382
REMARK INTRA:                  -1.189
REMARK UNBOUND:                -1.806
REMARK SMILES CCCCCCCCCCCCCCCCCCCCCC(=O)[O-]
REMARK SMILES IDX 12 1 11 2 10 3 9 4 8 5 7 6 6 7 5 8 4 9 3 10 2 11 1 12 13 13
REMARK SMILES IDX 14 14 15 15 16 16 17 17 18 18 19 19 20 20 21 21 22 22 23 23
REMARK SMILES IDX 24 24
REMARK H PARENT
REMARK Flexibility Score: inf
ROOT
ATOM      1  C   UNL     1       5.659   9.649  34.427  1.00  0.00     0.000 C 
ENDROOT
BRANCH   1   2
ATOM      2  C   UNL     1       5.966  10.633  33.285  1.00  0.00     0.000 C 
BRANCH   2   3
ATOM      3  C   UNL     1       5.103  11.907  33.345  1.00  0.00     0.000 C 
BRANCH   3   4
ATOM      4  C   UNL     1       5.192  12.694  34.666  1.00  0.00    -0.000 C 
BRANCH   4   5
ATOM      5  C   UNL     1       5.061  14.212  34.468  1.00  0.00    -0.000 C 
BRANCH   5   6
ATOM      6  C   UNL     1       6.228  14.954  35.137  1.00  0.00    -0.000 C 
BRANCH   6   7
ATOM      7  C   UNL     1       6.399  16.388  34.611  1.00  0.00    -0.000 C 
BRANCH   7   8
ATOM      8  C   UNL     1       5.063  17.140  34.497  1.00  0.00    -0.000 C 
BRANCH   8   9
ATOM      9  C   UNL     1       5.289  18.659  34.468  1.00  0.00    -0.000 C 
BRANCH   9  10
ATOM     10  C   UNL     1       5.909  19.141  33.147  1.00  0.00    -0.000 C 
BRANCH  10  11
ATOM     11  C   UNL     1       7.231  19.895  33.354  1.00  0.00    -0.003 C 
ATOM     12  C   UNL     1       7.223  20.667  34.671  1.00  0.00     0.004 C 
ENDBRANCH  10  11
ENDBRANCH   9  10
ENDBRANCH   8   9
ENDBRANCH   7   8
ENDBRANCH   6   7
ENDBRANCH   5   6
ENDBRANCH   4   5
ENDBRANCH   3   4
ENDBRANCH   2   3
ENDBRANCH   1   2
BRANCH   1  13
ATOM     13  C   UNL     1       6.695   8.518  34.528  1.00  0.00     0.000 C 
BRANCH  13  14
ATOM     14  C   UNL     1       6.441   7.392  33.510  1.00  0.00     0.000 C 
BRANCH  14  15
ATOM     15  C   UNL     1       5.189   6.564  33.846  1.00  0.00     0.000 C 
BRANCH  15  16
ATOM     16  C   UNL     1       5.492   5.067  34.008  1.00  0.00     0.000 C 
BRANCH  16  17
ATOM     17  C   UNL     1       5.095   4.577  35.410  1.00  0.00     0.000 C 
BRANCH  17  18
ATOM     18  C   UNL     1       6.237   4.710  36.431  1.00  0.00     0.000 C 
BRANCH  18  19
ATOM     19  C   UNL     1       7.619   4.464  35.803  1.00  0.00     0.000 C 
BRANCH  19  20
ATOM     20  C   UNL     1       8.728   4.260  36.851  1.00  0.00     0.006 C 
BRANCH  20  21
ATOM     21  C   UNL     1       9.842   3.296  36.406  1.00  0.00     0.053 C 
BRANCH  21  22
ATOM     22  C   UNL     1       9.398   1.865  36.407  1.00  0.00     0.041 C 
ATOM     23  O   UNL     1       8.429   1.503  37.125  1.00  0.00    -0.550 OA
ATOM     24  O   UNL     1      10.074   0.922  35.640  1.00  0.00    -0.550 OA
ENDBRANCH  21  22
ENDBRANCH  20  21
ENDBRANCH  19  20
ENDBRANCH  18  19
ENDBRANCH  17  18
ENDBRANCH  16  17
ENDBRANCH  15  16
ENDBRANCH  14  15
ENDBRANCH  13  14
ENDBRANCH   1  13
TORSDOF 20
ENDMDL
MODEL 6
REMARK VINA RESULT:    -3.516      5.175     11.514
REMARK INTER + INTRA:          -9.434
REMARK INTER:                  -8.009
REMARK INTRA:                  -1.425
REMARK UNBOUND:                -1.806
REMARK SMILES CCCCCCCCCCCCCCCCCCCCCC(=O)[O-]
REMARK SMILES IDX 12 1 11 2 10 3 9 4 8 5 7 6 6 7 5 8 4 9 3 10 2 11 1 12 13 13
REMARK SMILES IDX 14 14 15 15 16 16 17 17 18 18 19 19 20 20 21 21 22 22 23 23
REMARK SMILES IDX 24 24
REMARK H PARENT
REMARK Flexibility Score: inf
ROOT
ATOM      1  C   UNL     1       7.255   8.598  34.579  1.00  0.00     0.000 C 
ENDROOT
BRANCH   1   2
ATOM      2  C   UNL     1       7.550   9.479  33.352  1.00  0.00     0.000 C 
BRANCH   2   3
ATOM      3  C   UNL     1       6.326  10.293  32.893  1.00  0.00     0.000 C 
BRANCH   3   4
ATOM      4  C   UNL     1       5.324  10.649  34.006  1.00  0.00    -0.000 C 
BRANCH   4   5
ATOM      5  C   UNL     1       4.915  12.130  33.994  1.00  0.00    -0.000 C 
BRANCH   5   6
ATOM      6  C   UNL     1       5.629  12.905  35.111  1.00  0.00    -0.000 C 
BRANCH   6   7
ATOM      7  C   UNL     1       5.053  14.315  35.316  1.00  0.00    -0.000 C 
BRANCH   7   8
ATOM      8  C   UNL     1       6.075  15.422  35.014  1.00  0.00    -0.000 C 
BRANCH   8   9
ATOM      9  C   UNL     1       5.404  16.804  35.018  1.00  0.00    -0.000 C 
BRANCH   9  10
ATOM     10  C   UNL     1       6.380  17.938  34.669  1.00  0.00    -0.000 C 
BRANCH  10  11
ATOM     11  C   UNL     1       5.882  18.812  33.508  1.00  0.00    -0.003 C 
ATOM     12  C   UNL     1       6.969  19.774  33.038  1.00  0.00     0.004 C 
ENDBRANCH  10  11
ENDBRANCH   9  10
ENDBRANCH   8   9
ENDBRANCH   7   8
ENDBRANCH   6   7
ENDBRANCH   5   6
ENDBRANCH   4   5
ENDBRANCH   3   4
ENDBRANCH   2   3
ENDBRANCH   1   2
BRANCH   1  13
ATOM     13  C   UNL     1       7.331   7.096  34.260  1.00  0.00     0.000 C 
BRANCH  13  14
ATOM     14  C   UNL     1       6.088   6.590  33.506  1.00  0.00     0.000 C 
BRANCH  14  15
ATOM     15  C   UNL     1       4.875   6.394  34.431  1.00  0.00     0.000 C 
BRANCH  15  16
ATOM     16  C   UNL     1       5.080   5.261  35.449  1.00  0.00     0.000 C 
BRANCH  16  17
ATOM     17  C   UNL     1       5.635   4.002  34.763  1.00  0.00     0.000 C 
BRANCH  17  18
ATOM     18  C   UNL     1       6.317   3.041  35.750  1.00  0.00     0.000 C 
BRANCH  18  19
ATOM     19  C   UNL     1       7.195   3.777  36.777  1.00  0.00     0.000 C 
BRANCH  19  20
ATOM     20  C   UNL     1       8.653   3.944  36.311  1.00  0.00     0.006 C 
BRANCH  20  21
ATOM     21  C   UNL     1       9.562   2.752  36.657  1.00  0.00     0.053 C 
BRANCH  21  22
ATOM     22  C   UNL     1      10.899   2.834  35.982  1.00  0.00     0.041 C 
ATOM     23  O   UNL     1      11.064   3.600  34.997  1.00  0.00    -0.550 OA
ATOM     24  O   UNL     1      11.952   2.039  36.419  1.00  0.00    -0.550 OA
ENDBRANCH  21  22
ENDBRANCH  20  21
ENDBRANCH  19  20
ENDBRANCH  18  19
ENDBRANCH  17  18
ENDBRANCH  16  17
ENDBRANCH  15  16
ENDBRANCH  14  15
ENDBRANCH  13  14
ENDBRANCH   1  13
TORSDOF 20
ENDMDL
MODEL 7
REMARK VINA RESULT:    -3.062      1.418      2.806
REMARK INTER + INTRA:          -8.449
REMARK INTER:                  -7.269
REMARK INTRA:                  -1.179
REMARK UNBOUND:                -1.806
REMARK SMILES CCCCCCCCCCCCCCCCCCCCCC(=O)[O-]
REMARK SMILES IDX 12 1 11 2 10 3 9 4 8 5 7 6 6 7 5 8 4 9 3 10 2 11 1 12 13 13
REMARK SMILES IDX 14 14 15 15 16 16 17 17 18 18 19 19 20 20 21 21 22 22 23 23
REMARK SMILES IDX 24 24
REMARK H PARENT
REMARK Flexibility Score: inf
ROOT
ATOM      1  C   UNL     1       5.346   8.839  34.530  1.00  0.00     0.000 C 
ENDROOT
BRANCH   1   2
ATOM      2  C   UNL     1       6.603   9.434  33.872  1.00  0.00     0.000 C 
BRANCH   2   3
ATOM      3  C   UNL     1       7.372   8.411  33.017  1.00  0.00     0.000 C 
BRANCH   3   4
ATOM      4  C   UNL     1       8.414   7.574  33.781  1.00  0.00    -0.000 C 
BRANCH   4   5
ATOM      5  C   UNL     1       7.780   6.484  34.659  1.00  0.00    -0.000 C 
BRANCH   5   6
ATOM      6  C   UNL     1       8.858   5.571  35.261  1.00  0.00    -0.000 C 
BRANCH   6   7
ATOM      7  C   UNL     1       8.264   4.391  36.049  1.00  0.00    -0.000 C 
BRANCH   7   8
ATOM      8  C   UNL     1       7.263   4.842  37.124  1.00  0.00    -0.000 C 
BRANCH   8   9
ATOM      9  C   UNL     1       5.870   4.250  36.860  1.00  0.00    -0.000 C 
BRANCH   9  10
ATOM     10  C   UNL     1       5.827   3.378  35.595  1.00  0.00    -0.000 C 
BRANCH  10  11
ATOM     11  C   UNL     1       5.134   4.079  34.417  1.00  0.00    -0.003 C 
ATOM     12  C   UNL     1       4.964   3.128  33.235  1.00  0.00     0.004 C 
ENDBRANCH  10  11
ENDBRANCH   9  10
ENDBRANCH   8   9
ENDBRANCH   7   8
ENDBRANCH   6   7
ENDBRANCH   5   6
ENDBRANCH   4   5
ENDBRANCH   3   4
ENDBRANCH   2   3
ENDBRANCH   1   2
BRANCH   1  13
ATOM     13  C   UNL     1       5.080   9.419  35.929  1.00  0.00     0.000 C 
BRANCH  13  14
ATOM     14  C   UNL     1       6.003  10.605  36.261  1.00  0.00     0.000 C 
BRANCH  14  15
ATOM     15  C   UNL     1       5.279  11.718  37.038  1.00  0.00     0.000 C 
BRANCH  15  16
ATOM     16  C   UNL     1       5.974  13.082  36.910  1.00  0.00     0.000 C 
BRANCH  16  17
ATOM     17  C   UNL     1       5.055  14.102  36.219  1.00  0.00     0.000 C 
BRANCH  17  18
ATOM     18  C   UNL     1       5.660  14.661  34.921  1.00  0.00     0.000 C 
BRANCH  18  19
ATOM     19  C   UNL     1       5.159  16.080  34.601  1.00  0.00     0.000 C 
BRANCH  19  20
ATOM     20  C   UNL     1       6.217  17.166  34.870  1.00  0.00     0.006 C 
BRANCH  20  21
ATOM     21  C   UNL     1       6.103  18.394  33.949  1.00  0.00     0.053 C 
BRANCH  21  22
ATOM     22  C   UNL     1       6.890  19.566  34.453  1.00  0.00     0.041 C 
ATOM     23  O   UNL     1       6.883  19.852  35.679  1.00  0.00    -0.550 OA
ATOM     24  O   UNL     1       7.604  20.363  33.565  1.00  0.00    -0.550 OA
ENDBRANCH  21  22
ENDBRANCH  20  21
ENDBRANCH  19  20
ENDBRANCH  18  19
ENDBRANCH  17  18
ENDBRANCH  16  17
ENDBRANCH  15  16
ENDBRANCH  14  15
ENDBRANCH  13  14
ENDBRANCH   1  13
TORSDOF 20
ENDMDL
MODEL 8
REMARK VINA RESULT:    -3.037      5.147     11.142
REMARK INTER + INTRA:          -8.393
REMARK INTER:                  -7.496
REMARK INTRA:                  -0.897
REMARK UNBOUND:                -1.806
REMARK SMILES CCCCCCCCCCCCCCCCCCCCCC(=O)[O-]
REMARK SMILES IDX 12 1 11 2 10 3 9 4 8 5 7 6 6 7 5 8 4 9 3 10 2 11 1 12 13 13
REMARK SMILES IDX 14 14 15 15 16 16 17 17 18 18 19 19 20 20 21 21 22 22 23 23
REMARK SMILES IDX 24 24
REMARK H PARENT
REMARK Flexibility Score: inf
ROOT
ATOM      1  C   UNL     1       8.648   6.687  34.126  1.00  0.00     0.000 C 
ENDROOT
BRANCH   1   2
ATOM      2  C   UNL     1       7.799   7.913  34.504  1.00  0.00     0.000 C 
BRANCH   2   3
ATOM      3  C   UNL     1       7.730   8.962  33.378  1.00  0.00     0.000 C 
BRANCH   3   4
ATOM      4  C   UNL     1       6.350   9.614  33.178  1.00  0.00    -0.000 C 
BRANCH   4   5
ATOM      5  C   UNL     1       5.538   9.712  34.479  1.00  0.00    -0.000 C 
BRANCH   5   6
ATOM      6  C   UNL     1       4.875  11.091  34.608  1.00  0.00    -0.000 C 
BRANCH   6   7
ATOM      7  C   UNL     1       5.255  12.042  33.460  1.00  0.00    -0.000 C 
BRANCH   7   8
ATOM      8  C   UNL     1       5.284  13.515  33.897  1.00  0.00    -0.000 C 
BRANCH   8   9
ATOM      9  C   UNL     1       5.409  13.631  35.423  1.00  0.00    -0.000 C 
BRANCH   9  10
ATOM     10  C   UNL     1       6.105  14.928  35.864  1.00  0.00    -0.000 C 
BRANCH  10  11
ATOM     11  C   UNL     1       6.414  15.864  34.686  1.00  0.00    -0.003 C 
ATOM     12  C   UNL     1       6.194  17.324  35.071  1.00  0.00     0.004 C 
ENDBRANCH  10  11
ENDBRANCH   9  10
ENDBRANCH   8   9
ENDBRANCH   7   8
ENDBRANCH   6   7
ENDBRANCH   5   6
ENDBRANCH   4   5
ENDBRANCH   3   4
ENDBRANCH   2   3
ENDBRANCH   1   2
BRANCH   1  13
ATOM     13  C   UNL     1       9.157   5.920  35.358  1.00  0.00     0.000 C 
BRANCH  13  14
ATOM     14  C   UNL     1      10.264   4.909  35.007  1.00  0.00     0.000 C 
BRANCH  14  15
ATOM     15  C   UNL     1      10.066   3.552  35.701  1.00  0.00     0.000 C 
BRANCH  15  16
ATOM     16  C   UNL     1       9.501   3.688  37.124  1.00  0.00     0.000 C 
BRANCH  16  17
ATOM     17  C   UNL     1       7.968   3.799  37.096  1.00  0.00     0.000 C 
BRANCH  17  18
ATOM     18  C   UNL     1       7.322   2.830  36.091  1.00  0.00     0.000 C 
BRANCH  18  19
ATOM     19  C   UNL     1       6.136   2.059  36.697  1.00  0.00     0.000 C 
BRANCH  19  20
ATOM     20  C   UNL     1       4.967   1.883  35.711  1.00  0.00     0.006 C 
BRANCH  20  21
ATOM     21  C   UNL     1       5.010   2.844  34.510  1.00  0.00     0.053 C 
BRANCH  21  22
ATOM     22  C   UNL     1       5.067   2.122  33.197  1.00  0.00     0.041 C 
ATOM     23  O   UNL     1       5.249   0.877  33.167  1.00  0.00    -0.550 OA
ATOM     24  O   UNL     1       4.953   2.828  32.005  1.00  0.00    -0.550 OA
ENDBRANCH  21  22
ENDBRANCH  20  21
ENDBRANCH  19  20
ENDBRANCH  18  19
ENDBRANCH  17  18
ENDBRANCH  16  17
ENDBRANCH  15  16
ENDBRANCH  14  15
ENDBRANCH  13  14
ENDBRANCH   1  13
TORSDOF 20
ENDMDL
