MODEL 1
REMARK VINA RESULT:    -5.036      0.000      0.000
REMARK INTER + INTRA:          -5.036
REMARK INTER:                  -5.036
REMARK INTRA:                   0.000
REMARK UNBOUND:                 0.000
REMARK SMILES Cc1cccc2ccccc12
REMARK SMILES IDX 1 1 2 2 3 3 4 4 5 5 6 6 7 7 8 8 9 9 10 10 11 11
REMARK H PARENT
REMARK Flexibility Score: inf
ROOT
ATOM      1  C   UNL     1    -114.883  11.637  24.872  1.00  0.00     0.045 C 
ATOM      2  C   UNL     1    -115.572  11.691  23.532  1.00  0.00    -0.043 A 
ATOM      3  C   UNL     1    -115.252  10.721  22.566  1.00  0.00     0.004 A 
ATOM      4  C   UNL     1    -115.865  10.731  21.313  1.00  0.00     0.001 A 
ATOM      5  C   UNL     1    -116.805  11.710  20.999  1.00  0.00     0.009 A 
ATOM      6  C   UNL     1    -117.144  12.692  21.940  1.00  0.00    -0.018 A 
ATOM      7  C   UNL     1    -118.093  13.675  21.616  1.00  0.00     0.009 A 
ATOM      8  C   UNL     1    -118.435  14.656  22.548  1.00  0.00     0.001 A 
ATOM      9  C   UNL     1    -117.837  14.666  23.807  1.00  0.00     0.001 A 
ATOM     10  C   UNL     1    -116.891  13.694  24.146  1.00  0.00     0.009 A 
ATOM     11  C   UNL     1    -116.528  12.693  23.220  1.00  0.00    -0.015 A 
ENDROOT
TORSDOF 0
ENDMDL
MODEL 2
REMARK VINA RESULT:    -4.998      0.687      2.569
REMARK INTER + INTRA:          -4.998
REMARK INTER:                  -4.998
REMARK INTRA:                   0.000
REMARK UNBOUND:                 0.000
REMARK SMILES Cc1cccc2ccccc12
REMARK SMILES IDX 1 1 2 2 3 3 4 4 5 5 6 6 7 7 8 8 9 9 10 10 11 11
REMARK H PARENT
REMARK Flexibility Score: inf
ROOT
ATOM      1  C   UNL     1    -116.684  11.098  20.044  1.00  0.00     0.045 C 
ATOM      2  C   UNL     1    -116.387  11.517  21.461  1.00  0.00    -0.043 A 
ATOM      3  C   UNL     1    -115.460  10.770  22.208  1.00  0.00     0.004 A 
ATOM      4  C   UNL     1    -115.153  11.121  23.523  1.00  0.00     0.001 A 
ATOM      5  C   UNL     1    -115.765  12.222  24.118  1.00  0.00     0.009 A 
ATOM      6  C   UNL     1    -116.695  12.987  23.399  1.00  0.00    -0.018 A 
ATOM      7  C   UNL     1    -117.307  14.096  24.005  1.00  0.00     0.009 A 
ATOM      8  C   UNL     1    -118.233  14.862  23.296  1.00  0.00     0.001 A 
ATOM      9  C   UNL     1    -118.556  14.531  21.980  1.00  0.00     0.001 A 
ATOM     10  C   UNL     1    -117.954  13.431  21.362  1.00  0.00     0.009 A 
ATOM     11  C   UNL     1    -117.016  12.641  22.060  1.00  0.00    -0.015 A 
ENDROOT
TORSDOF 0
ENDMDL
MODEL 3
REMARK VINA RESULT:    -4.932      0.929      3.318
REMARK INTER + INTRA:          -4.932
REMARK INTER:                  -4.932
REMARK INTRA:                   0.000
REMARK UNBOUND:                 0.000
REMARK SMILES Cc1cccc2ccccc12
REMARK SMILES IDX 1 1 2 2 3 3 4 4 5 5 6 6 7 7 8 8 9 9 10 10 11 11
REMARK H PARENT
REMARK Flexibility Score: inf
ROOT
ATOM      1  C   UNL     1    -115.722  12.076  24.284  1.00  0.00     0.045 C 
ATOM      2  C   UNL     1    -116.680  12.911  23.472  1.00  0.00    -0.043 A 
ATOM      3  C   UNL     1    -117.336  13.987  24.094  1.00  0.00     0.004 A 
ATOM      4  C   UNL     1    -118.230  14.786  23.382  1.00  0.00     0.001 A 
ATOM      5  C   UNL     1    -118.487  14.528  22.038  1.00  0.00     0.009 A 
ATOM      6  C   UNL     1    -117.849  13.461  21.389  1.00  0.00    -0.018 A 
ATOM      7  C   UNL     1    -118.113  13.206  20.033  1.00  0.00     0.009 A 
ATOM      8  C   UNL     1    -117.481  12.146  19.382  1.00  0.00     0.001 A 
ATOM      9  C   UNL     1    -116.583  11.334  20.072  1.00  0.00     0.001 A 
ATOM     10  C   UNL     1    -116.308  11.574  21.422  1.00  0.00     0.009 A 
ATOM     11  C   UNL     1    -116.936  12.639  22.103  1.00  0.00    -0.015 A 
ENDROOT
TORSDOF 0
ENDMDL
MODEL 4
REMARK VINA RESULT:    -4.922      0.736      4.234
REMARK INTER + INTRA:          -4.922
REMARK INTER:                  -4.922
REMARK INTRA:                   0.000
REMARK UNBOUND:                 0.000
REMARK SMILES Cc1cccc2ccccc12
REMARK SMILES IDX 1 1 2 2 3 3 4 4 5 5 6 6 7 7 8 8 9 9 10 10 11 11
REMARK H PARENT
REMARK Flexibility Score: inf
ROOT
ATOM      1  C   UNL     1    -118.430  13.109  20.038  1.00  0.00     0.045 C 
ATOM      2  C   UNL     1    -118.000  13.425  21.448  1.00  0.00    -0.043 A 
ATOM      3  C   UNL     1    -118.578  14.527  22.101  1.00  0.00     0.004 A 
ATOM      4  C   UNL     1    -118.212  14.857  23.406  1.00  0.00     0.001 A 
ATOM      5  C   UNL     1    -117.262  14.096  24.083  1.00  0.00     0.009 A 
ATOM      6  C   UNL     1    -116.666  12.991  23.458  1.00  0.00    -0.018 A 
ATOM      7  C   UNL     1    -115.709  12.227  24.147  1.00  0.00     0.009 A 
ATOM      8  C   UNL     1    -115.113  11.126  23.531  1.00  0.00     0.001 A 
ATOM      9  C   UNL     1    -115.464  10.777  22.228  1.00  0.00     0.001 A 
ATOM     10  C   UNL     1    -116.415  11.525  21.529  1.00  0.00     0.009 A 
ATOM     11  C   UNL     1    -117.031  12.644  22.130  1.00  0.00    -0.015 A 
ENDROOT
TORSDOF 0
ENDMDL
MODEL 5
REMARK VINA RESULT:    -4.899      1.114      4.269
REMARK INTER + INTRA:          -4.899
REMARK INTER:                  -4.899
REMARK INTRA:                   0.000
REMARK UNBOUND:                 0.000
REMARK SMILES Cc1cccc2ccccc12
REMARK SMILES IDX 1 1 2 2 3 3 4 4 5 5 6 6 7 7 8 8 9 9 10 10 11 11
REMARK H PARENT
REMARK Flexibility Score: inf
ROOT
ATOM      1  C   UNL     1    -119.142  14.979  20.894  1.00  0.00     0.045 C 
ATOM      2  C   UNL     1    -118.278  14.244  21.888  1.00  0.00    -0.043 A 
ATOM      3  C   UNL     1    -118.230  14.706  23.215  1.00  0.00     0.004 A 
ATOM      4  C   UNL     1    -117.446  14.057  24.168  1.00  0.00     0.001 A 
ATOM      5  C   UNL     1    -116.694  12.939  23.817  1.00  0.00     0.009 A 
ATOM      6  C   UNL     1    -116.719  12.455  22.502  1.00  0.00    -0.018 A 
ATOM      7  C   UNL     1    -115.959  11.325  22.155  1.00  0.00     0.009 A 
ATOM      8  C   UNL     1    -115.980  10.839  20.848  1.00  0.00     0.001 A 
ATOM      9  C   UNL     1    -116.757  11.469  19.877  1.00  0.00     0.001 A 
ATOM     10  C   UNL     1    -117.521  12.593  20.205  1.00  0.00     0.009 A 
ATOM     11  C   UNL     1    -117.514  13.105  21.521  1.00  0.00    -0.015 A 
ENDROOT
TORSDOF 0
ENDMDL
MODEL 6
REMARK VINA RESULT:    -4.898      0.831      3.465
REMARK INTER + INTRA:          -4.898
REMARK INTER:                  -4.898
REMARK INTRA:                   0.000
REMARK UNBOUND:                 0.000
REMARK SMILES Cc1cccc2ccccc12
REMARK SMILES IDX 1 1 2 2 3 3 4 4 5 5 6 6 7 7 8 8 9 9 10 10 11 11
REMARK H PARENT
REMARK Flexibility Score: inf
ROOT
ATOM      1  C   UNL     1    -117.840  14.877  24.322  1.00  0.00     0.045 C 
ATOM      2  C   UNL     1    -117.762  14.140  23.009  1.00  0.00    -0.043 A 
ATOM      3  C   UNL     1    -118.516  14.614  21.921  1.00  0.00     0.004 A 
ATOM      4  C   UNL     1    -118.475  13.966  20.687  1.00  0.00     0.001 A 
ATOM      5  C   UNL     1    -117.683  12.832  20.514  1.00  0.00     0.009 A 
ATOM      6  C   UNL     1    -116.921  12.334  21.580  1.00  0.00    -0.018 A 
ATOM      7  C   UNL     1    -116.124  11.192  21.399  1.00  0.00     0.009 A 
ATOM      8  C   UNL     1    -115.363  10.691  22.456  1.00  0.00     0.001 A 
ATOM      9  C   UNL     1    -115.387  11.323  23.698  1.00  0.00     0.001 A 
ATOM     10  C   UNL     1    -116.174  12.462  23.896  1.00  0.00     0.009 A 
ATOM     11  C   UNL     1    -116.953  12.986  22.842  1.00  0.00    -0.015 A 
ENDROOT
TORSDOF 0
ENDMDL
MODEL 7
REMARK VINA RESULT:    -4.722      1.230      2.697
REMARK INTER + INTRA:          -4.722
REMARK INTER:                  -4.722
REMARK INTRA:                   0.000
REMARK UNBOUND:                 0.000
REMARK SMILES Cc1cccc2ccccc12
REMARK SMILES IDX 1 1 2 2 3 3 4 4 5 5 6 6 7 7 8 8 9 9 10 10 11 11
REMARK H PARENT
REMARK Flexibility Score: inf
ROOT
ATOM      1  C   UNL     1    -117.701  14.759  24.409  1.00  0.00     0.045 C 
ATOM      2  C   UNL     1    -117.288  13.700  23.418  1.00  0.00    -0.043 A 
ATOM      3  C   UNL     1    -116.436  12.668  23.846  1.00  0.00     0.004 A 
ATOM      4  C   UNL     1    -116.029  11.666  22.964  1.00  0.00     0.001 A 
ATOM      5  C   UNL     1    -116.462  11.676  21.641  1.00  0.00     0.009 A 
ATOM      6  C   UNL     1    -117.312  12.693  21.183  1.00  0.00    -0.018 A 
ATOM      7  C   UNL     1    -117.746  12.696  19.847  1.00  0.00     0.009 A 
ATOM      8  C   UNL     1    -118.592  13.706  19.386  1.00  0.00     0.001 A 
ATOM      9  C   UNL     1    -119.013  14.716  20.249  1.00  0.00     0.001 A 
ATOM     10  C   UNL     1    -118.592  14.728  21.582  1.00  0.00     0.009 A 
ATOM     11  C   UNL     1    -117.735  13.718  22.071  1.00  0.00    -0.015 A 
ENDROOT
TORSDOF 0
ENDMDL
MODEL 8
REMARK VINA RESULT:    -4.717      1.257      3.188
REMARK INTER + INTRA:          -4.717
REMARK INTER:                  -4.717
REMARK INTRA:                   0.000
REMARK UNBOUND:                 0.000
REMARK SMILES Cc1cccc2ccccc12
REMARK SMILES IDX 1 1 2 2 3 3 4 4 5 5 6 6 7 7 8 8 9 9 10 10 11 11
REMARK H PARENT
REMARK Flexibility Score: inf
ROOT
ATOM      1  C   UNL     1    -118.630  13.734  18.979  1.00  0.00     0.045 C 
ATOM      2  C   UNL     1    -117.819  13.007  20.023  1.00  0.00    -0.043 A 
ATOM      3  C   UNL     1    -117.064  11.887  19.635  1.00  0.00     0.004 A 
ATOM      4  C   UNL     1    -116.298  11.186  20.566  1.00  0.00     0.001 A 
ATOM      5  C   UNL     1    -116.273  11.585  21.900  1.00  0.00     0.009 A 
ATOM      6  C   UNL     1    -117.017  12.697  22.319  1.00  0.00    -0.018 A 
ATOM      7  C   UNL     1    -116.987  13.095  23.665  1.00  0.00     0.009 A 
ATOM      8  C   UNL     1    -117.725  14.201  24.088  1.00  0.00     0.001 A 
ATOM      9  C   UNL     1    -118.497  14.919  23.176  1.00  0.00     0.001 A 
ATOM     10  C   UNL     1    -118.538  14.537  21.832  1.00  0.00     0.009 A 
ATOM     11  C   UNL     1    -117.800  13.422  21.381  1.00  0.00    -0.015 A 
ENDROOT
TORSDOF 0
ENDMDL
MODEL 9
REMARK VINA RESULT:    -4.644      1.322      3.971
REMARK INTER + INTRA:          -4.644
REMARK INTER:                  -4.644
REMARK INTRA:                   0.000
REMARK UNBOUND:                 0.000
REMARK SMILES Cc1cccc2ccccc12
REMARK SMILES IDX 1 1 2 2 3 3 4 4 5 5 6 6 7 7 8 8 9 9 10 10 11 11
REMARK H PARENT
REMARK Flexibility Score: inf
ROOT
ATOM      1  C   UNL     1    -116.975  13.342  23.743  1.00  0.00     0.045 C 
ATOM      2  C   UNL     1    -116.233  12.181  23.133  1.00  0.00    -0.043 A 
ATOM      3  C   UNL     1    -116.743  11.588  21.965  1.00  0.00     0.004 A 
ATOM      4  C   UNL     1    -116.089  10.512  21.365  1.00  0.00     0.001 A 
ATOM      5  C   UNL     1    -114.916  10.005  21.919  1.00  0.00     0.009 A 
ATOM      6  C   UNL     1    -114.382  10.573  23.085  1.00  0.00    -0.018 A 
ATOM      7  C   UNL     1    -113.198  10.057  23.638  1.00  0.00     0.009 A 
ATOM      8  C   UNL     1    -112.662  10.618  24.797  1.00  0.00     0.001 A 
ATOM      9  C   UNL     1    -113.297  11.695  25.414  1.00  0.00     0.001 A 
ATOM     10  C   UNL     1    -114.476  12.221  24.876  1.00  0.00     0.009 A 
ATOM     11  C   UNL     1    -115.038  11.670  23.705  1.00  0.00    -0.015 A 
ENDROOT
TORSDOF 0
ENDMDL
