MODEL 1
REMARK VINA RESULT:    -3.154      0.000      0.000
REMARK INTER + INTRA:          -6.819
REMARK INTER:                  -5.367
REMARK INTRA:                  -1.452
REMARK UNBOUND:                -1.452
REMARK SMILES CCCCCCCCCCCCCC(=O)[O-]
REMARK SMILES IDX 8 1 9 2 10 3 11 4 12 5 13 6 14 7 15 8 16 9 7 10 6 11 5 12
REMARK SMILES IDX 4 13 3 14 2 15 1 16
REMARK H PARENT
REMARK Flexibility Score: inf
ROOT
ATOM      1  C   UNL     1    -115.143  33.774  -8.941  1.00  0.00     0.000 C 
ENDROOT
BRANCH   1   2
ATOM      2  C   UNL     1    -114.979  34.774  -7.779  1.00  0.00     0.000 C 
BRANCH   2   3
ATOM      3  C   UNL     1    -116.285  35.436  -7.304  1.00  0.00     0.000 C 
BRANCH   3   4
ATOM      4  C   UNL     1    -116.434  36.885  -7.800  1.00  0.00     0.000 C 
BRANCH   4   5
ATOM      5  C   UNL     1    -115.237  37.339  -8.662  1.00  0.00     0.006 C 
BRANCH   5   6
ATOM      6  C   UNL     1    -115.627  38.292  -9.802  1.00  0.00     0.053 C 
BRANCH   6   7
ATOM      7  C   UNL     1    -114.538  39.263 -10.134  1.00  0.00     0.041 C 
ATOM      8  O   UNL     1    -114.349  40.274  -9.408  1.00  0.00    -0.550 OA
ATOM      9  O   UNL     1    -113.748  39.067 -11.260  1.00  0.00    -0.550 OA
ENDBRANCH   6   7
ENDBRANCH   5   6
ENDBRANCH   4   5
ENDBRANCH   3   4
ENDBRANCH   2   3
ENDBRANCH   1   2
BRANCH   1  10
ATOM     10  C   UNL     1    -116.600  33.485  -9.359  1.00  0.00     0.000 C 
BRANCH  10  11
ATOM     11  C   UNL     1    -116.935  33.810 -10.825  1.00  0.00    -0.000 C 
BRANCH  11  12
ATOM     12  C   UNL     1    -116.073  34.948 -11.397  1.00  0.00    -0.000 C 
BRANCH  12  13
ATOM     13  C   UNL     1    -115.403  34.569 -12.727  1.00  0.00    -0.000 C 
BRANCH  13  14
ATOM     14  C   UNL     1    -114.719  33.191 -12.677  1.00  0.00    -0.000 C 
BRANCH  14  15
ATOM     15  C   UNL     1    -115.135  32.285 -13.847  1.00  0.00    -0.003 C 
ATOM     16  C   UNL     1    -116.156  31.224 -13.437  1.00  0.00     0.004 C 
ENDBRANCH  14  15
ENDBRANCH  13  14
ENDBRANCH  12  13
ENDBRANCH  11  12
ENDBRANCH  10  11
ENDBRANCH   1  10
TORSDOF 12
ENDMDL
MODEL 2
REMARK VINA RESULT:    -3.128      3.208      5.821
REMARK INTER + INTRA:          -6.774
REMARK INTER:                  -5.328
REMARK INTRA:                  -1.446
REMARK UNBOUND:                -1.452
REMARK SMILES CCCCCCCCCCCCCC(=O)[O-]
REMARK SMILES IDX 8 1 9 2 10 3 11 4 12 5 13 6 14 7 15 8 16 9 7 10 6 11 5 12
REMARK SMILES IDX 4 13 3 14 2 15 1 16
REMARK H PARENT
REMARK Flexibility Score: inf
ROOT
ATOM      1  C   UNL     1    -115.154  33.812  -8.676  1.00  0.00     0.000 C 
ENDROOT
BRANCH   1   2
ATOM      2  C   UNL     1    -116.581  33.572  -9.208  1.00  0.00     0.000 C 
BRANCH   2   3
ATOM      3  C   UNL     1    -116.729  33.672 -10.736  1.00  0.00     0.000 C 
BRANCH   3   4
ATOM      4  C   UNL     1    -115.787  34.717 -11.360  1.00  0.00     0.000 C 
BRANCH   4   5
ATOM      5  C   UNL     1    -115.379  34.356 -12.804  1.00  0.00     0.006 C 
BRANCH   5   6
ATOM      6  C   UNL     1    -114.654  33.006 -12.917  1.00  0.00     0.053 C 
BRANCH   6   7
ATOM      7  C   UNL     1    -115.352  32.058 -13.841  1.00  0.00     0.041 C 
ATOM      8  O   UNL     1    -115.324  32.249 -15.085  1.00  0.00    -0.550 OA
ATOM      9  O   UNL     1    -116.059  30.978 -13.326  1.00  0.00    -0.550 OA
ENDBRANCH   6   7
ENDBRANCH   5   6
ENDBRANCH   4   5
ENDBRANCH   3   4
ENDBRANCH   2   3
ENDBRANCH   1   2
BRANCH   1  10
ATOM     10  C   UNL     1    -115.005  35.003  -7.707  1.00  0.00     0.000 C 
BRANCH  10  11
ATOM     11  C   UNL     1    -116.323  35.694  -7.313  1.00  0.00    -0.000 C 
BRANCH  11  12
ATOM     12  C   UNL     1    -116.395  37.155  -7.789  1.00  0.00    -0.000 C 
BRANCH  12  13
ATOM     13  C   UNL     1    -115.296  37.499  -8.807  1.00  0.00    -0.000 C 
BRANCH  13  14
ATOM     14  C   UNL     1    -115.841  38.232 -10.045  1.00  0.00    -0.000 C 
BRANCH  14  15
ATOM     15  C   UNL     1    -114.723  38.725 -10.977  1.00  0.00    -0.003 C 
ATOM     16  C   UNL     1    -114.797  38.101 -12.371  1.00  0.00     0.004 C 
ENDBRANCH  14  15
ENDBRANCH  13  14
ENDBRANCH  12  13
ENDBRANCH  11  12
ENDBRANCH  10  11
ENDBRANCH   1  10
TORSDOF 12
ENDMDL
MODEL 3
REMARK VINA RESULT:    -3.077      2.528      5.943
REMARK INTER + INTRA:          -6.688
REMARK INTER:                  -5.101
REMARK INTRA:                  -1.586
REMARK UNBOUND:                -1.452
REMARK SMILES CCCCCCCCCCCCCC(=O)[O-]
REMARK SMILES IDX 8 1 9 2 10 3 11 4 12 5 13 6 14 7 15 8 16 9 7 10 6 11 5 12
REMARK SMILES IDX 4 13 3 14 2 15 1 16
REMARK H PARENT
REMARK Flexibility Score: inf
ROOT
ATOM      1  C   UNL     1    -116.364  35.397  -7.135  1.00  0.00     0.000 C 
ENDROOT
BRANCH   1   2
ATOM      2  C   UNL     1    -115.007  34.781  -7.528  1.00  0.00     0.000 C 
BRANCH   2   3
ATOM      3  C   UNL     1    -115.037  33.889  -8.781  1.00  0.00     0.000 C 
BRANCH   3   4
ATOM      4  C   UNL     1    -116.463  33.646  -9.305  1.00  0.00     0.000 C 
BRANCH   4   5
ATOM      5  C   UNL     1    -116.500  33.423 -10.832  1.00  0.00     0.006 C 
BRANCH   5   6
ATOM      6  C   UNL     1    -115.709  34.474 -11.626  1.00  0.00     0.053 C 
BRANCH   6   7
ATOM      7  C   UNL     1    -115.136  33.921 -12.893  1.00  0.00     0.041 C 
ATOM      8  O   UNL     1    -114.548  32.808 -12.890  1.00  0.00    -0.550 OA
ATOM      9  O   UNL     1    -115.228  34.648 -14.074  1.00  0.00    -0.550 OA
ENDBRANCH   6   7
ENDBRANCH   5   6
ENDBRANCH   4   5
ENDBRANCH   3   4
ENDBRANCH   2   3
ENDBRANCH   1   2
BRANCH   1  10
ATOM     10  C   UNL     1    -116.506  36.907  -7.414  1.00  0.00     0.000 C 
BRANCH  10  11
ATOM     11  C   UNL     1    -116.966  37.268  -8.838  1.00  0.00    -0.000 C 
BRANCH  11  12
ATOM     12  C   UNL     1    -115.795  37.624  -9.770  1.00  0.00    -0.000 C 
BRANCH  12  13
ATOM     13  C   UNL     1    -114.664  38.367  -9.041  1.00  0.00    -0.000 C 
BRANCH  13  14
ATOM     14  C   UNL     1    -114.891  39.888  -8.984  1.00  0.00    -0.000 C 
BRANCH  14  15
ATOM     15  C   UNL     1    -114.837  40.438  -7.551  1.00  0.00    -0.003 C 
ATOM     16  C   UNL     1    -116.224  40.615  -6.932  1.00  0.00     0.004 C 
ENDBRANCH  14  15
ENDBRANCH  13  14
ENDBRANCH  12  13
ENDBRANCH  11  12
ENDBRANCH  10  11
ENDBRANCH   1  10
TORSDOF 12
ENDMDL
MODEL 4
REMARK VINA RESULT:    -3.026      0.880      1.589
REMARK INTER + INTRA:          -6.600
REMARK INTER:                  -5.242
REMARK INTRA:                  -1.358
REMARK UNBOUND:                -1.452
REMARK SMILES CCCCCCCCCCCCCC(=O)[O-]
REMARK SMILES IDX 8 1 9 2 10 3 11 4 12 5 13 6 14 7 15 8 16 9 7 10 6 11 5 12
REMARK SMILES IDX 4 13 3 14 2 15 1 16
REMARK H PARENT
REMARK Flexibility Score: inf
ROOT
ATOM      1  C   UNL     1    -114.974  34.634  -7.762  1.00  0.00     0.000 C 
ENDROOT
BRANCH   1   2
ATOM      2  C   UNL     1    -116.228  35.399  -7.293  1.00  0.00     0.000 C 
BRANCH   2   3
ATOM      3  C   UNL     1    -116.403  36.798  -7.911  1.00  0.00     0.000 C 
BRANCH   3   4
ATOM      4  C   UNL     1    -115.147  37.283  -8.654  1.00  0.00     0.000 C 
BRANCH   4   5
ATOM      5  C   UNL     1    -115.487  38.163  -9.876  1.00  0.00     0.006 C 
BRANCH   5   6
ATOM      6  C   UNL     1    -114.384  39.171 -10.233  1.00  0.00     0.053 C 
BRANCH   6   7
ATOM      7  C   UNL     1    -114.559  40.481  -9.532  1.00  0.00     0.041 C 
ATOM      8  O   UNL     1    -115.635  40.740  -8.932  1.00  0.00    -0.550 OA
ATOM      9  O   UNL     1    -113.543  41.430  -9.563  1.00  0.00    -0.550 OA
ENDBRANCH   6   7
ENDBRANCH   5   6
ENDBRANCH   4   5
ENDBRANCH   3   4
ENDBRANCH   2   3
ENDBRANCH   1   2
BRANCH   1  10
ATOM     10  C   UNL     1    -115.177  33.737  -9.000  1.00  0.00     0.000 C 
BRANCH  10  11
ATOM     11  C   UNL     1    -116.644  33.485  -9.391  1.00  0.00    -0.000 C 
BRANCH  11  12
ATOM     12  C   UNL     1    -116.986  34.013 -10.795  1.00  0.00    -0.000 C 
BRANCH  12  13
ATOM     13  C   UNL     1    -115.859  34.871 -11.393  1.00  0.00    -0.000 C 
BRANCH  13  14
ATOM     14  C   UNL     1    -115.472  34.436 -12.817  1.00  0.00    -0.000 C 
BRANCH  14  15
ATOM     15  C   UNL     1    -114.699  33.108 -12.838  1.00  0.00    -0.003 C 
ATOM     16  C   UNL     1    -115.338  32.067 -13.758  1.00  0.00     0.004 C 
ENDBRANCH  14  15
ENDBRANCH  13  14
ENDBRANCH  12  13
ENDBRANCH  11  12
ENDBRANCH  10  11
ENDBRANCH   1  10
TORSDOF 12
ENDMDL
MODEL 5
REMARK VINA RESULT:    -3.023      2.836      5.444
REMARK INTER + INTRA:          -6.596
REMARK INTER:                  -5.057
REMARK INTRA:                  -1.539
REMARK UNBOUND:                -1.452
REMARK SMILES CCCCCCCCCCCCCC(=O)[O-]
REMARK SMILES IDX 8 1 9 2 10 3 11 4 12 5 13 6 14 7 15 8 16 9 7 10 6 11 5 12
REMARK SMILES IDX 4 13 3 14 2 15 1 16
REMARK H PARENT
REMARK Flexibility Score: inf
ROOT
ATOM      1  C   UNL     1    -115.021  34.964  -7.549  1.00  0.00     0.000 C 
ENDROOT
BRANCH   1   2
ATOM      2  C   UNL     1    -115.178  33.843  -8.595  1.00  0.00     0.000 C 
BRANCH   2   3
ATOM      3  C   UNL     1    -116.610  33.644  -9.123  1.00  0.00     0.000 C 
BRANCH   3   4
ATOM      4  C   UNL     1    -116.710  33.801 -10.650  1.00  0.00     0.000 C 
BRANCH   4   5
ATOM      5  C   UNL     1    -115.325  33.913 -11.323  1.00  0.00     0.006 C 
BRANCH   5   6
ATOM      6  C   UNL     1    -115.378  34.494 -12.745  1.00  0.00     0.053 C 
BRANCH   6   7
ATOM      7  C   UNL     1    -114.960  33.501 -13.783  1.00  0.00     0.041 C 
ATOM      8  O   UNL     1    -114.804  32.290 -13.476  1.00  0.00    -0.550 OA
ATOM      9  O   UNL     1    -114.716  33.917 -15.087  1.00  0.00    -0.550 OA
ENDBRANCH   6   7
ENDBRANCH   5   6
ENDBRANCH   4   5
ENDBRANCH   3   4
ENDBRANCH   2   3
ENDBRANCH   1   2
BRANCH   1  10
ATOM     10  C   UNL     1    -116.317  35.724  -7.201  1.00  0.00     0.000 C 
BRANCH  10  11
ATOM     11  C   UNL     1    -116.423  37.140  -7.795  1.00  0.00    -0.000 C 
BRANCH  11  12
ATOM     12  C   UNL     1    -115.433  37.380  -8.948  1.00  0.00    -0.000 C 
BRANCH  12  13
ATOM     13  C   UNL     1    -116.128  37.458 -10.316  1.00  0.00    -0.000 C 
BRANCH  13  14
ATOM     14  C   UNL     1    -115.224  38.054 -11.410  1.00  0.00    -0.000 C 
BRANCH  14  15
ATOM     15  C   UNL     1    -114.241  39.097 -10.856  1.00  0.00    -0.003 C 
ATOM     16  C   UNL     1    -114.821  40.512 -10.854  1.00  0.00     0.004 C 
ENDBRANCH  14  15
ENDBRANCH  13  14
ENDBRANCH  12  13
ENDBRANCH  11  12
ENDBRANCH  10  11
ENDBRANCH   1  10
TORSDOF 12
ENDMDL
MODEL 6
REMARK VINA RESULT:    -2.980      1.649      2.924
REMARK INTER + INTRA:          -6.522
REMARK INTER:                  -5.148
REMARK INTRA:                  -1.374
REMARK UNBOUND:                -1.452
REMARK SMILES CCCCCCCCCCCCCC(=O)[O-]
REMARK SMILES IDX 8 1 9 2 10 3 11 4 12 5 13 6 14 7 15 8 16 9 7 10 6 11 5 12
REMARK SMILES IDX 4 13 3 14 2 15 1 16
REMARK H PARENT
REMARK Flexibility Score: inf
ROOT
ATOM      1  C   UNL     1    -116.389  35.654  -7.252  1.00  0.00     0.000 C 
ENDROOT
BRANCH   1   2
ATOM      2  C   UNL     1    -116.454  37.144  -7.640  1.00  0.00     0.000 C 
BRANCH   2   3
ATOM      3  C   UNL     1    -115.915  37.473  -9.043  1.00  0.00     0.000 C 
BRANCH   3   4
ATOM      4  C   UNL     1    -114.674  38.382  -9.007  1.00  0.00     0.000 C 
BRANCH   4   5
ATOM      5  C   UNL     1    -114.672  39.421 -10.149  1.00  0.00     0.006 C 
BRANCH   5   6
ATOM      6  C   UNL     1    -114.535  38.798 -11.547  1.00  0.00     0.053 C 
BRANCH   6   7
ATOM      7  C   UNL     1    -113.280  39.222 -12.241  1.00  0.00     0.041 C 
ATOM      8  O   UNL     1    -112.721  38.453 -13.067  1.00  0.00    -0.550 OA
ATOM      9  O   UNL     1    -112.709  40.457 -11.956  1.00  0.00    -0.550 OA
ENDBRANCH   6   7
ENDBRANCH   5   6
ENDBRANCH   4   5
ENDBRANCH   3   4
ENDBRANCH   2   3
ENDBRANCH   1   2
BRANCH   1  10
ATOM     10  C   UNL     1    -115.052  34.951  -7.564  1.00  0.00     0.000 C 
BRANCH  10  11
ATOM     11  C   UNL     1    -115.111  33.907  -8.693  1.00  0.00    -0.000 C 
BRANCH  11  12
ATOM     12  C   UNL     1    -116.549  33.595  -9.143  1.00  0.00    -0.000 C 
BRANCH  12  13
ATOM     13  C   UNL     1    -116.687  33.531 -10.672  1.00  0.00    -0.000 C 
BRANCH  13  14
ATOM     14  C   UNL     1    -115.494  34.170 -11.405  1.00  0.00    -0.000 C 
BRANCH  14  15
ATOM     15  C   UNL     1    -115.883  35.454 -12.154  1.00  0.00    -0.003 C 
ATOM     16  C   UNL     1    -115.139  35.612 -13.480  1.00  0.00     0.004 C 
ENDBRANCH  14  15
ENDBRANCH  13  14
ENDBRANCH  12  13
ENDBRANCH  11  12
ENDBRANCH  10  11
ENDBRANCH   1  10
TORSDOF 12
ENDMDL
MODEL 7
REMARK VINA RESULT:    -2.977      1.869      4.759
REMARK INTER + INTRA:          -6.517
REMARK INTER:                  -4.773
REMARK INTRA:                  -1.744
REMARK UNBOUND:                -1.452
REMARK SMILES CCCCCCCCCCCCCC(=O)[O-]
REMARK SMILES IDX 8 1 9 2 10 3 11 4 12 5 13 6 14 7 15 8 16 9 7 10 6 11 5 12
REMARK SMILES IDX 4 13 3 14 2 15 1 16
REMARK H PARENT
REMARK Flexibility Score: inf
ROOT
ATOM      1  C   UNL     1    -116.498  33.581  -9.277  1.00  0.00     0.000 C 
ENDROOT
BRANCH   1   2
ATOM      2  C   UNL     1    -116.751  33.942 -10.754  1.00  0.00     0.000 C 
BRANCH   2   3
ATOM      3  C   UNL     1    -115.639  34.771 -11.420  1.00  0.00     0.000 C 
BRANCH   3   4
ATOM      4  C   UNL     1    -116.188  35.924 -12.278  1.00  0.00     0.000 C 
BRANCH   4   5
ATOM      5  C   UNL     1    -115.110  36.541 -13.194  1.00  0.00     0.006 C 
BRANCH   5   6
ATOM      6  C   UNL     1    -114.685  37.958 -12.775  1.00  0.00     0.053 C 
BRANCH   6   7
ATOM      7  C   UNL     1    -113.291  38.288 -13.208  1.00  0.00     0.041 C 
ATOM      8  O   UNL     1    -112.563  39.023 -12.492  1.00  0.00    -0.550 OA
ATOM      9  O   UNL     1    -112.805  37.805 -14.418  1.00  0.00    -0.550 OA
ENDBRANCH   6   7
ENDBRANCH   5   6
ENDBRANCH   4   5
ENDBRANCH   3   4
ENDBRANCH   2   3
ENDBRANCH   1   2
BRANCH   1  10
ATOM     10  C   UNL     1    -115.081  33.897  -8.758  1.00  0.00     0.000 C 
BRANCH  10  11
ATOM     11  C   UNL     1    -115.017  34.934  -7.622  1.00  0.00    -0.000 C 
BRANCH  11  12
ATOM     12  C   UNL     1    -116.409  35.371  -7.135  1.00  0.00    -0.000 C 
BRANCH  12  13
ATOM     13  C   UNL     1    -116.668  36.869  -7.359  1.00  0.00    -0.000 C 
BRANCH  13  14
ATOM     14  C   UNL     1    -116.995  37.204  -8.825  1.00  0.00    -0.000 C 
BRANCH  14  15
ATOM     15  C   UNL     1    -116.235  38.441  -9.329  1.00  0.00    -0.003 C 
ATOM     16  C   UNL     1    -114.725  38.335  -9.115  1.00  0.00     0.004 C 
ENDBRANCH  14  15
ENDBRANCH  13  14
ENDBRANCH  12  13
ENDBRANCH  11  12
ENDBRANCH  10  11
ENDBRANCH   1  10
TORSDOF 12
ENDMDL
MODEL 8
REMARK VINA RESULT:    -2.914      3.071      6.232
REMARK INTER + INTRA:          -6.411
REMARK INTER:                  -4.942
REMARK INTRA:                  -1.469
REMARK UNBOUND:                -1.452
REMARK SMILES CCCCCCCCCCCCCC(=O)[O-]
REMARK SMILES IDX 8 1 9 2 10 3 11 4 12 5 13 6 14 7 15 8 16 9 7 10 6 11 5 12
REMARK SMILES IDX 4 13 3 14 2 15 1 16
REMARK H PARENT
REMARK Flexibility Score: inf
ROOT
ATOM      1  C   UNL     1    -116.381  33.825 -10.867  1.00  0.00     0.000 C 
ENDROOT
BRANCH   1   2
ATOM      2  C   UNL     1    -115.624  35.073 -11.362  1.00  0.00     0.000 C 
BRANCH   2   3
ATOM      3  C   UNL     1    -116.065  35.593 -12.742  1.00  0.00     0.000 C 
BRANCH   3   4
ATOM      4  C   UNL     1    -114.878  35.870 -13.681  1.00  0.00     0.000 C 
BRANCH   4   5
ATOM      5  C   UNL     1    -114.595  34.690 -14.635  1.00  0.00     0.006 C 
BRANCH   5   6
ATOM      6  C   UNL     1    -115.786  33.733 -14.799  1.00  0.00     0.053 C 
BRANCH   6   7
ATOM      7  C   UNL     1    -115.431  32.318 -14.468  1.00  0.00     0.041 C 
ATOM      8  O   UNL     1    -114.786  32.055 -13.420  1.00  0.00    -0.550 OA
ATOM      9  O   UNL     1    -115.788  31.289 -15.332  1.00  0.00    -0.550 OA
ENDBRANCH   6   7
ENDBRANCH   5   6
ENDBRANCH   4   5
ENDBRANCH   3   4
ENDBRANCH   2   3
ENDBRANCH   1   2
BRANCH   1  10
ATOM     10  C   UNL     1    -116.402  33.634  -9.336  1.00  0.00     0.000 C 
BRANCH  10  11
ATOM     11  C   UNL     1    -115.042  33.806  -8.637  1.00  0.00    -0.000 C 
BRANCH  11  12
ATOM     12  C   UNL     1    -115.029  34.977  -7.639  1.00  0.00    -0.000 C 
BRANCH  12  13
ATOM     13  C   UNL     1    -116.421  35.594  -7.435  1.00  0.00    -0.000 C 
BRANCH  13  14
ATOM     14  C   UNL     1    -116.487  37.070  -7.869  1.00  0.00    -0.000 C 
BRANCH  14  15
ATOM     15  C   UNL     1    -115.251  37.502  -8.674  1.00  0.00    -0.003 C 
ATOM     16  C   UNL     1    -115.606  38.384  -9.871  1.00  0.00     0.004 C 
ENDBRANCH  14  15
ENDBRANCH  13  14
ENDBRANCH  12  13
ENDBRANCH  11  12
ENDBRANCH  10  11
ENDBRANCH   1  10
TORSDOF 12
ENDMDL
MODEL 9
REMARK VINA RESULT:    -2.906      1.523      2.870
REMARK INTER + INTRA:          -6.397
REMARK INTER:                  -4.895
REMARK INTRA:                  -1.502
REMARK UNBOUND:                -1.452
REMARK SMILES CCCCCCCCCCCCCC(=O)[O-]
REMARK SMILES IDX 8 1 9 2 10 3 11 4 12 5 13 6 14 7 15 8 16 9 7 10 6 11 5 12
REMARK SMILES IDX 4 13 3 14 2 15 1 16
REMARK H PARENT
REMARK Flexibility Score: inf
ROOT
ATOM      1  C   UNL     1    -115.247  33.827  -8.700  1.00  0.00     0.000 C 
ENDROOT
BRANCH   1   2
ATOM      2  C   UNL     1    -115.002  35.070  -7.823  1.00  0.00     0.000 C 
BRANCH   2   3
ATOM      3  C   UNL     1    -116.277  35.754  -7.296  1.00  0.00     0.000 C 
BRANCH   3   4
ATOM      4  C   UNL     1    -116.571  37.089  -8.001  1.00  0.00     0.000 C 
BRANCH   4   5
ATOM      5  C   UNL     1    -115.312  37.705  -8.646  1.00  0.00     0.006 C 
BRANCH   5   6
ATOM      6  C   UNL     1    -115.569  39.060  -9.324  1.00  0.00     0.053 C 
BRANCH   6   7
ATOM      7  C   UNL     1    -114.629  40.124  -8.850  1.00  0.00     0.041 C 
ATOM      8  O   UNL     1    -114.514  40.366  -7.620  1.00  0.00    -0.550 OA
ATOM      9  O   UNL     1    -113.899  40.868  -9.769  1.00  0.00    -0.550 OA
ENDBRANCH   6   7
ENDBRANCH   5   6
ENDBRANCH   4   5
ENDBRANCH   3   4
ENDBRANCH   2   3
ENDBRANCH   1   2
BRANCH   1  10
ATOM     10  C   UNL     1    -116.053  34.081  -9.990  1.00  0.00     0.000 C 
BRANCH  10  11
ATOM     11  C   UNL     1    -115.280  33.848 -11.300  1.00  0.00    -0.000 C 
BRANCH  11  12
ATOM     12  C   UNL     1    -115.607  34.893 -12.381  1.00  0.00    -0.000 C 
BRANCH  12  13
ATOM     13  C   UNL     1    -116.172  36.195 -11.789  1.00  0.00    -0.000 C 
BRANCH  13  14
ATOM     14  C   UNL     1    -115.918  37.416 -12.689  1.00  0.00    -0.000 C 
BRANCH  14  15
ATOM     15  C   UNL     1    -114.460  37.500 -13.169  1.00  0.00    -0.003 C 
ATOM     16  C   UNL     1    -113.714  38.700 -12.586  1.00  0.00     0.004 C 
ENDBRANCH  14  15
ENDBRANCH  13  14
ENDBRANCH  12  13
ENDBRANCH  11  12
ENDBRANCH  10  11
ENDBRANCH   1  10
TORSDOF 12
ENDMDL
