MODEL 1
REMARK VINA RESULT:    -0.204      0.000      0.000
REMARK INTER + INTRA:          -0.912
REMARK INTER:                  -0.251
REMARK INTRA:                  -0.661
REMARK UNBOUND:                -0.661
REMARK SMILES CC(C)=CCC[C@@H](C)c1ccc(C)cc1
REMARK SMILES IDX 6 1 7 2 8 3 9 4 13 5 12 6 11 7 14 8 10 9 15 10 5 11 4 12
REMARK SMILES IDX 2 13 1 14 3 15
REMARK H PARENT
REMARK Flexibility Score: inf
ROOT
ATOM      1  C   UNL     1       2.118  21.124  10.632  1.00  0.00     0.012 C 
ENDROOT
BRANCH   1   2
ATOM      2  C   UNL     1       0.941  20.140  10.829  1.00  0.00     0.016 C 
ATOM      3  C   UNL     1       1.304  18.698  10.441  1.00  0.00     0.013 C 
BRANCH   2   4
ATOM      4  C   UNL     1       0.449  20.192  12.265  1.00  0.00    -0.045 A 
ATOM      5  C   UNL     1      -0.966  20.317  16.344  1.00  0.00     0.044 C 
ATOM      6  C   UNL     1      -0.496  20.296  14.921  1.00  0.00    -0.051 A 
ATOM      7  C   UNL     1       0.559  21.124  14.513  1.00  0.00     0.004 A 
ATOM      8  C   UNL     1      -1.062  19.399  14.002  1.00  0.00     0.004 A 
ATOM      9  C   UNL     1       1.023  21.079  13.195  1.00  0.00     0.004 A 
ATOM     10  C   UNL     1      -0.598  19.353  12.684  1.00  0.00     0.004 A 
ENDBRANCH   2   4
ENDBRANCH   1   2
BRANCH   1  11
ATOM     11  C   UNL     1       3.508  20.460  10.718  1.00  0.00     0.028 C 
BRANCH  11  12
ATOM     12  C   UNL     1       4.489  21.055   9.736  1.00  0.00    -0.028 C 
ATOM     13  C   UNL     1       5.012  20.391   8.680  1.00  0.00    -0.080 C 
ATOM     14  C   UNL     1       4.691  18.941   8.405  1.00  0.00     0.039 C 
ATOM     15  C   UNL     1       5.969  21.123   7.775  1.00  0.00     0.039 C 
ENDBRANCH  11  12
ENDBRANCH   1  11
TORSDOF 4
ENDMDL
MODEL 2
REMARK VINA RESULT:    -0.147      1.138      6.390
REMARK INTER + INTRA:          -0.843
REMARK INTER:                  -1.104
REMARK INTRA:                   0.261
REMARK UNBOUND:                -0.661
REMARK SMILES CC(C)=CCC[C@@H](C)c1ccc(C)cc1
REMARK SMILES IDX 6 1 7 2 8 3 9 4 13 5 12 6 11 7 14 8 10 9 15 10 5 11 4 12
REMARK SMILES IDX 2 13 1 14 3 15
REMARK H PARENT
REMARK Flexibility Score: inf
ROOT
ATOM      1  C   UNL     1      -0.423  19.195  13.132  1.00  0.00     0.012 C 
ENDROOT
BRANCH   1   2
ATOM      2  C   UNL     1      -0.410  19.734  11.682  1.00  0.00     0.016 C 
ATOM      3  C   UNL     1      -1.149  21.073  11.542  1.00  0.00     0.013 C 
BRANCH   2   4
ATOM      4  C   UNL     1       1.018  19.863  11.184  1.00  0.00    -0.045 A 
ATOM      5  C   UNL     1       5.086  20.258   9.786  1.00  0.00     0.044 C 
ATOM      6  C   UNL     1       3.664  20.136  10.245  1.00  0.00    -0.051 A 
ATOM      7  C   UNL     1       2.911  19.000   9.916  1.00  0.00     0.004 A 
ATOM      8  C   UNL     1       3.098  21.124  11.064  1.00  0.00     0.004 A 
ATOM      9  C   UNL     1       1.597  18.868  10.375  1.00  0.00     0.004 A 
ATOM     10  C   UNL     1       1.784  20.993  11.523  1.00  0.00     0.004 A 
ENDBRANCH   2   4
ENDBRANCH   1   2
BRANCH   1  11
ATOM     11  C   UNL     1      -1.748  19.447  13.880  1.00  0.00     0.028 C 
BRANCH  11  12
ATOM     12  C   UNL     1      -1.527  19.911  15.300  1.00  0.00    -0.028 C 
ATOM     13  C   UNL     1      -0.489  20.681  15.700  1.00  0.00    -0.080 C 
ATOM     14  C   UNL     1       0.599  21.121  14.748  1.00  0.00     0.039 C 
ATOM     15  C   UNL     1      -0.410  21.080  17.151  1.00  0.00     0.039 C 
ENDBRANCH  11  12
ENDBRANCH   1  11
TORSDOF 4
ENDMDL
MODEL 3
REMARK VINA RESULT:     0.453      1.278      6.628
REMARK INTER + INTRA:          -0.101
REMARK INTER:                   0.325
REMARK INTRA:                  -0.427
REMARK UNBOUND:                -0.661
REMARK SMILES CC(C)=CCC[C@@H](C)c1ccc(C)cc1
REMARK SMILES IDX 6 1 7 2 8 3 9 4 13 5 12 6 11 7 14 8 10 9 15 10 5 11 4 12
REMARK SMILES IDX 2 13 1 14 3 15
REMARK H PARENT
REMARK Flexibility Score: inf
ROOT
ATOM      1  C   UNL     1       0.792  21.116  13.350  1.00  0.00     0.012 C 
ENDROOT
BRANCH   1   2
ATOM      2  C   UNL     1       0.632  20.077  12.215  1.00  0.00     0.016 C 
ATOM      3  C   UNL     1      -0.653  20.286  11.399  1.00  0.00     0.013 C 
BRANCH   2   4
ATOM      4  C   UNL     1       1.846  20.104  11.305  1.00  0.00    -0.045 A 
ATOM      5  C   UNL     1       5.289  20.160   8.696  1.00  0.00     0.044 C 
ATOM      6  C   UNL     1       4.110  20.123   9.622  1.00  0.00    -0.051 A 
ATOM      7  C   UNL     1       3.946  21.117  10.597  1.00  0.00     0.004 A 
ATOM      8  C   UNL     1       3.127  19.133   9.475  1.00  0.00     0.004 A 
ATOM      9  C   UNL     1       2.829  21.104  11.436  1.00  0.00     0.004 A 
ATOM     10  C   UNL     1       2.008  19.120  10.314  1.00  0.00     0.004 A 
ENDBRANCH   2   4
ENDBRANCH   1   2
BRANCH   1  11
ATOM     11  C   UNL     1      -0.247  20.972  14.480  1.00  0.00     0.028 C 
BRANCH  11  12
ATOM     12  C   UNL     1      -0.902  19.611  14.488  1.00  0.00    -0.028 C 
ATOM     13  C   UNL     1      -2.236  19.404  14.569  1.00  0.00    -0.080 C 
ATOM     14  C   UNL     1      -3.218  20.544  14.710  1.00  0.00     0.039 C 
ATOM     15  C   UNL     1      -2.745  17.986  14.548  1.00  0.00     0.039 C 
ENDBRANCH  11  12
ENDBRANCH   1  11
TORSDOF 4
ENDMDL
MODEL 4
REMARK VINA RESULT:     0.490      1.369      2.647
REMARK INTER + INTRA:          -0.057
REMARK INTER:                   0.618
REMARK INTRA:                  -0.675
REMARK UNBOUND:                -0.661
REMARK SMILES CC(C)=CCC[C@@H](C)c1ccc(C)cc1
REMARK SMILES IDX 6 1 7 2 8 3 9 4 13 5 12 6 11 7 14 8 10 9 15 10 5 11 4 12
REMARK SMILES IDX 2 13 1 14 3 15
REMARK H PARENT
REMARK Flexibility Score: inf
ROOT
ATOM      1  C   UNL     1      -0.047  19.030  11.869  1.00  0.00     0.012 C 
ENDROOT
BRANCH   1   2
ATOM      2  C   UNL     1      -0.346  20.510  12.203  1.00  0.00     0.016 C 
ATOM      3  C   UNL     1      -1.521  21.074  11.390  1.00  0.00     0.013 C 
BRANCH   2   4
ATOM      4  C   UNL     1      -0.608  20.669  13.691  1.00  0.00    -0.045 A 
ATOM      5  C   UNL     1      -1.323  21.124  17.926  1.00  0.00     0.044 C 
ATOM      6  C   UNL     1      -1.077  20.935  16.459  1.00  0.00    -0.051 A 
ATOM      7  C   UNL     1      -2.151  20.912  15.560  1.00  0.00     0.004 A 
ATOM      8  C   UNL     1       0.235  20.848  15.968  1.00  0.00     0.004 A 
ATOM      9  C   UNL     1      -1.920  20.773  14.188  1.00  0.00     0.004 A 
ATOM     10  C   UNL     1       0.467  20.709  14.597  1.00  0.00     0.004 A 
ENDBRANCH   2   4
ENDBRANCH   1   2
BRANCH   1  11
ATOM     11  C   UNL     1       1.092  18.838  10.847  1.00  0.00     0.028 C 
BRANCH  11  12
ATOM     12  C   UNL     1       2.135  19.927  10.938  1.00  0.00    -0.028 C 
ATOM     13  C   UNL     1       3.272  19.959  10.207  1.00  0.00    -0.080 C 
ATOM     14  C   UNL     1       3.637  18.856   9.240  1.00  0.00     0.039 C 
ATOM     15  C   UNL     1       4.213  21.121  10.395  1.00  0.00     0.039 C 
ENDBRANCH  11  12
ENDBRANCH   1  11
TORSDOF 4
ENDMDL
MODEL 5
REMARK VINA RESULT:     0.496      1.361      2.010
REMARK INTER + INTRA:          -0.049
REMARK INTER:                   0.471
REMARK INTRA:                  -0.521
REMARK UNBOUND:                -0.661
REMARK SMILES CC(C)=CCC[C@@H](C)c1ccc(C)cc1
REMARK SMILES IDX 6 1 7 2 8 3 9 4 13 5 12 6 11 7 14 8 10 9 15 10 5 11 4 12
REMARK SMILES IDX 2 13 1 14 3 15
REMARK H PARENT
REMARK Flexibility Score: inf
ROOT
ATOM      1  C   UNL     1       1.459  19.985  10.652  1.00  0.00     0.012 C 
ENDROOT
BRANCH   1   2
ATOM      2  C   UNL     1       0.224  20.848  11.001  1.00  0.00     0.016 C 
ATOM      3  C   UNL     1      -0.668  21.125   9.781  1.00  0.00     0.013 C 
BRANCH   2   4
ATOM      4  C   UNL     1      -0.582  20.187  12.106  1.00  0.00    -0.045 A 
ATOM      5  C   UNL     1      -2.883  18.336  15.257  1.00  0.00     0.044 C 
ATOM      6  C   UNL     1      -2.058  18.975  14.181  1.00  0.00    -0.051 A 
ATOM      7  C   UNL     1      -1.491  18.192  13.166  1.00  0.00     0.004 A 
ATOM      8  C   UNL     1      -1.905  20.369  14.142  1.00  0.00     0.004 A 
ATOM      9  C   UNL     1      -0.753  18.791  12.142  1.00  0.00     0.004 A 
ATOM     10  C   UNL     1      -1.167  20.969  13.117  1.00  0.00     0.004 A 
ENDBRANCH   2   4
ENDBRANCH   1   2
BRANCH   1  11
ATOM     11  C   UNL     1       2.793  20.568  11.161  1.00  0.00     0.028 C 
BRANCH  11  12
ATOM     12  C   UNL     1       3.641  21.124  10.042  1.00  0.00    -0.028 C 
ATOM     13  C   UNL     1       4.479  20.386   9.279  1.00  0.00    -0.080 C 
ATOM     14  C   UNL     1       4.685  18.907   9.512  1.00  0.00     0.039 C 
ATOM     15  C   UNL     1       5.250  21.078   8.185  1.00  0.00     0.039 C 
ENDBRANCH  11  12
ENDBRANCH   1  11
TORSDOF 4
ENDMDL
