MODEL 1
REMARK VINA RESULT:    19.532      0.000      0.000
REMARK INTER + INTRA:          26.141
REMARK INTER:                  26.953
REMARK INTRA:                  -0.812
REMARK UNBOUND:                -0.812
REMARK SMILES O=C([O-])[C@@H]1O[C@@H](Oc2cc3oc(-c4ccccc4)cc(=O)c3c(O)c2O)[C@H](O)[C@H](O)[C@@H]1O
REMARK SMILES IDX 7 1 6 2 4 3 31 4 5 5 29 6 27 7 2 8 1 9 3 10 32 11 30 13
REMARK SMILES IDX 28 15 8 17 25 18 9 19 23 20 10 21 22 22 11 23 20 24 12 25
REMARK SMILES IDX 19 26 21 27 26 28 24 30 13 32 14 33 18 34 15 35 17 36 16 37
REMARK H PARENT 32 12 30 14 28 16 26 29 24 31
REMARK Flexibility Score: inf
ROOT
ATOM      1  O   UNL     1      14.413  22.470   3.291  1.00  0.00    -0.458 OA
ENDROOT
BRANCH   1   2
ATOM      2  C   UNL     1      13.296  22.485   4.192  1.00  0.00     0.339 C 
ATOM      3  C   UNL     1      14.550  21.453   5.890  1.00  0.00     0.199 C 
ATOM      4  C   UNL     1      13.722  20.152   5.856  1.00  0.00     0.180 C 
ATOM      5  O   UNL     1      13.754  22.574   5.533  1.00  0.00    -0.328 OA
ATOM      6  C   UNL     1      13.121  19.972   4.447  1.00  0.00     0.181 C 
ATOM      7  C   UNL     1      12.384  21.247   4.002  1.00  0.00     0.214 C 
BRANCH   3   8
ATOM      8  C   UNL     1      15.116  21.671   7.263  1.00  0.00     0.073 C 
ATOM      9  O   UNL     1      14.347  21.781   8.254  1.00  0.00    -0.547 OA
ATOM     10  O   UNL     1      16.488  21.807   7.443  1.00  0.00    -0.547 OA
ENDBRANCH   3   8
BRANCH   4  11
ATOM     11  O   UNL     1      12.702  20.208   6.823  1.00  0.00    -0.387 OA
ATOM     12  H   UNL     1      12.727  21.120   7.217  1.00  0.00     0.211 HD
ENDBRANCH   4  11
BRANCH   6  13
ATOM     13  O   UNL     1      12.240  18.880   4.415  1.00  0.00    -0.387 OA
ATOM     14  H   UNL     1      12.687  18.168   3.885  1.00  0.00     0.211 HD
ENDBRANCH   6  13
BRANCH   7  15
ATOM     15  O   UNL     1      11.207  21.404   4.754  1.00  0.00    -0.384 OA
ATOM     16  H   UNL     1      10.474  20.990   4.229  1.00  0.00     0.211 HD
ENDBRANCH   7  15
ENDBRANCH   1   2
BRANCH   1  17
ATOM     17  C   UNL     1      14.406  22.780   1.917  1.00  0.00     0.172 A 
ATOM     18  C   UNL     1      15.168  23.821   1.338  1.00  0.00     0.201 A 
ATOM     19  C   UNL     1      13.608  21.976   1.103  1.00  0.00     0.098 A 
ATOM     20  C   UNL     1      15.052  24.090  -0.051  1.00  0.00     0.176 A 
ATOM     21  C   UNL     1      13.515  22.205  -0.266  1.00  0.00     0.146 A 
ATOM     22  C   UNL     1      14.233  23.265  -0.860  1.00  0.00     0.111 A 
ATOM     23  O   UNL     1      12.734  21.417  -1.000  1.00  0.00    -0.456 OA
ATOM     24  C   UNL     1      14.081  23.452  -2.252  1.00  0.00     0.197 A 
ATOM     25  C   UNL     1      12.578  21.561  -2.313  1.00  0.00     0.138 A 
ATOM     26  C   UNL     1      13.250  22.597  -2.978  1.00  0.00     0.100 A 
ATOM     27  O   UNL     1      14.680  24.379  -2.862  1.00  0.00    -0.289 OA
BRANCH  18  28
ATOM     28  O   UNL     1      16.052  24.543   2.142  1.00  0.00    -0.502 OA
ATOM     29  H   UNL     1      16.890  24.161   2.556  1.00  0.00     0.293 HD
ENDBRANCH  18  28
BRANCH  20  30
ATOM     30  O   UNL     1      15.725  25.166  -0.641  1.00  0.00    -0.504 OA
ATOM     31  H   UNL     1      15.998  26.006  -0.153  1.00  0.00     0.293 HD
ENDBRANCH  20  30
BRANCH  25  32
ATOM     32  C   UNL     1      11.676  20.624  -3.030  1.00  0.00     0.017 A 
ATOM     33  C   UNL     1      11.781  20.494  -4.427  1.00  0.00     0.012 A 
ATOM     34  C   UNL     1      10.692  19.875  -2.351  1.00  0.00     0.012 A 
ATOM     35  C   UNL     1      10.940  19.623  -5.125  1.00  0.00     0.001 A 
ATOM     36  C   UNL     1       9.853  19.006  -3.055  1.00  0.00     0.001 A 
ATOM     37  C   UNL     1       9.979  18.878  -4.440  1.00  0.00     0.000 A 
ENDBRANCH  25  32
ENDBRANCH   1  17
TORSDOF 9
ENDMDL
MODEL 2
REMARK VINA RESULT:    21.544      2.512      7.767
REMARK INTER + INTRA:          28.919
REMARK INTER:                  29.319
REMARK INTRA:                  -0.400
REMARK UNBOUND:                -0.812
REMARK SMILES O=C([O-])[C@@H]1O[C@@H](Oc2cc3oc(-c4ccccc4)cc(=O)c3c(O)c2O)[C@H](O)[C@H](O)[C@@H]1O
REMARK SMILES IDX 7 1 6 2 4 3 31 4 5 5 29 6 27 7 2 8 1 9 3 10 32 11 30 13
REMARK SMILES IDX 28 15 8 17 25 18 9 19 23 20 10 21 22 22 11 23 20 24 12 25
REMARK SMILES IDX 19 26 21 27 26 28 24 30 13 32 14 33 18 34 15 35 17 36 16 37
REMARK H PARENT 32 12 30 14 28 16 26 29 24 31
REMARK Flexibility Score: inf
ROOT
ATOM      1  O   UNL     1      12.119  23.124  -2.799  1.00  0.00    -0.458 OA
ENDROOT
BRANCH   1   2
ATOM      2  C   UNL     1      12.446  22.333  -3.951  1.00  0.00     0.339 C 
ATOM      3  C   UNL     1      11.577  20.387  -2.961  1.00  0.00     0.199 C 
ATOM      4  C   UNL     1      12.954  19.699  -2.856  1.00  0.00     0.180 C 
ATOM      5  O   UNL     1      11.527  21.259  -4.082  1.00  0.00    -0.328 OA
ATOM      6  C   UNL     1      14.052  20.778  -2.762  1.00  0.00     0.181 C 
ATOM      7  C   UNL     1      13.903  21.808  -3.896  1.00  0.00     0.214 C 
BRANCH   3   8
ATOM      8  C   UNL     1      10.492  19.359  -3.092  1.00  0.00     0.073 C 
ATOM      9  O   UNL     1       9.935  18.892  -2.064  1.00  0.00    -0.547 OA
ATOM     10  O   UNL     1      10.131  18.875  -4.344  1.00  0.00    -0.547 OA
ENDBRANCH   3   8
BRANCH   4  11
ATOM     11  O   UNL     1      13.165  18.877  -3.978  1.00  0.00    -0.387 OA
ATOM     12  H   UNL     1      14.101  18.548  -3.923  1.00  0.00     0.211 HD
ENDBRANCH   4  11
BRANCH   6  13
ATOM     13  O   UNL     1      15.329  20.197  -2.815  1.00  0.00    -0.387 OA
ATOM     14  H   UNL     1      15.250  19.297  -2.400  1.00  0.00     0.211 HD
ENDBRANCH   6  13
BRANCH   7  15
ATOM     15  O   UNL     1      14.242  21.217  -5.125  1.00  0.00    -0.384 OA
ATOM     16  H   UNL     1      13.392  20.933  -5.551  1.00  0.00     0.211 HD
ENDBRANCH   7  15
ENDBRANCH   1   2
BRANCH   1  17
ATOM     17  C   UNL     1      12.927  23.367  -1.672  1.00  0.00     0.172 A 
ATOM     18  C   UNL     1      13.995  24.295  -1.650  1.00  0.00     0.201 A 
ATOM     19  C   UNL     1      12.614  22.652  -0.516  1.00  0.00     0.098 A 
ATOM     20  C   UNL     1      14.786  24.430  -0.479  1.00  0.00     0.176 A 
ATOM     21  C   UNL     1      13.358  22.803   0.649  1.00  0.00     0.146 A 
ATOM     22  C   UNL     1      14.454  23.691   0.682  1.00  0.00     0.111 A 
ATOM     23  O   UNL     1      13.025  22.092   1.723  1.00  0.00    -0.456 OA
ATOM     24  C   UNL     1      15.177  23.785   1.892  1.00  0.00     0.197 A 
ATOM     25  C   UNL     1      13.679  22.165   2.879  1.00  0.00     0.138 A 
ATOM     26  C   UNL     1      14.787  23.019   2.992  1.00  0.00     0.100 A 
ATOM     27  O   UNL     1      16.174  24.548   2.007  1.00  0.00    -0.289 OA
BRANCH  18  28
ATOM     28  O   UNL     1      14.225  25.090  -2.774  1.00  0.00    -0.502 OA
ATOM     29  H   UNL     1      15.131  25.438  -3.053  1.00  0.00     0.293 HD
ENDBRANCH  18  28
BRANCH  20  30
ATOM     30  O   UNL     1      15.902  25.275  -0.451  1.00  0.00    -0.504 OA
ATOM     31  H   UNL     1      16.641  25.222   0.233  1.00  0.00     0.293 HD
ENDBRANCH  20  30
BRANCH  25  32
ATOM     32  C   UNL     1      13.221  21.321   4.011  1.00  0.00     0.017 A 
ATOM     33  C   UNL     1      12.278  20.302   3.778  1.00  0.00     0.012 A 
ATOM     34  C   UNL     1      13.685  21.528   5.327  1.00  0.00     0.012 A 
ATOM     35  C   UNL     1      11.827  19.498   4.829  1.00  0.00     0.001 A 
ATOM     36  C   UNL     1      13.229  20.720   6.373  1.00  0.00     0.001 A 
ATOM     37  C   UNL     1      12.304  19.704   6.124  1.00  0.00     0.000 A 
ENDBRANCH  25  32
ENDBRANCH   1  17
TORSDOF 9
ENDMDL
