MODEL 1
REMARK VINA RESULT:    -2.612      0.000      0.000
REMARK INTER + INTRA:          -3.828
REMARK INTER:                  -3.604
REMARK INTRA:                  -0.224
REMARK UNBOUND:                -0.224
REMARK SMILES CCCCCCCCO
REMARK SMILES IDX 5 1 4 2 3 3 2 4 1 5 6 6 7 7 8 8 9 9
REMARK H PARENT 9 10
REMARK Flexibility Score: inf
ROOT
ATOM      1  C   UNL     1     119.400 118.875 112.042  1.00  0.00     0.000 C 
ENDROOT
BRANCH   1   2
ATOM      2  C   UNL     1     118.505 117.634 111.876  1.00  0.00    -0.000 C 
BRANCH   2   3
ATOM      3  C   UNL     1     119.281 116.301 111.923  1.00  0.00    -0.000 C 
BRANCH   3   4
ATOM      4  C   UNL     1     119.212 115.638 113.305  1.00  0.00    -0.003 C 
ATOM      5  C   UNL     1     119.812 114.235 113.275  1.00  0.00     0.004 C 
ENDBRANCH   3   4
ENDBRANCH   2   3
ENDBRANCH   1   2
BRANCH   1   6
ATOM      6  C   UNL     1     118.751 119.968 112.902  1.00  0.00     0.002 C 
BRANCH   6   7
ATOM      7  C   UNL     1     118.978 119.698 114.396  1.00  0.00     0.028 C 
BRANCH   7   8
ATOM      8  C   UNL     1     120.302 120.294 114.885  1.00  0.00     0.156 C 
BRANCH   8   9
ATOM      9  O   UNL     1     120.171 121.668 115.138  1.00  0.00    -0.396 OA
ATOM     10  H   UNL     1     119.341 121.781 115.671  1.00  0.00     0.210 HD
ENDBRANCH   8   9
ENDBRANCH   7   8
ENDBRANCH   6   7
ENDBRANCH   1   6
TORSDOF 7
ENDMDL
MODEL 2
REMARK VINA RESULT:    -2.604      5.723      6.719
REMARK INTER + INTRA:          -3.818
REMARK INTER:                  -3.550
REMARK INTRA:                  -0.268
REMARK UNBOUND:                -0.224
REMARK SMILES CCCCCCCCO
REMARK SMILES IDX 5 1 4 2 3 3 2 4 1 5 6 6 7 7 8 8 9 9
REMARK H PARENT 9 10
REMARK Flexibility Score: inf
ROOT
ATOM      1  C   UNL     1     122.002 121.368 117.566  1.00  0.00     0.000 C 
ENDROOT
BRANCH   1   2
ATOM      2  C   UNL     1     123.319 122.163 117.514  1.00  0.00    -0.000 C 
BRANCH   2   3
ATOM      3  C   UNL     1     124.565 121.282 117.284  1.00  0.00    -0.000 C 
BRANCH   3   4
ATOM      4  C   UNL     1     125.187 121.508 115.899  1.00  0.00    -0.003 C 
ATOM      5  C   UNL     1     124.710 120.457 114.901  1.00  0.00     0.004 C 
ENDBRANCH   3   4
ENDBRANCH   2   3
ENDBRANCH   1   2
BRANCH   1   6
ATOM      6  C   UNL     1     120.975 121.847 116.531  1.00  0.00     0.002 C 
BRANCH   6   7
ATOM      7  C   UNL     1     120.136 123.007 117.085  1.00  0.00     0.028 C 
BRANCH   7   8
ATOM      8  C   UNL     1     120.229 124.250 116.194  1.00  0.00     0.156 C 
BRANCH   8   9
ATOM      9  O   UNL     1     120.082 123.910 114.841  1.00  0.00    -0.396 OA
ATOM     10  H   UNL     1     119.314 123.283 114.787  1.00  0.00     0.210 HD
ENDBRANCH   8   9
ENDBRANCH   7   8
ENDBRANCH   6   7
ENDBRANCH   1   6
TORSDOF 7
ENDMDL
MODEL 3
REMARK VINA RESULT:    -2.588      5.225      6.797
REMARK INTER + INTRA:          -3.796
REMARK INTER:                  -3.456
REMARK INTRA:                  -0.340
REMARK UNBOUND:                -0.224
REMARK SMILES CCCCCCCCO
REMARK SMILES IDX 5 1 4 2 3 3 2 4 1 5 6 6 7 7 8 8 9 9
REMARK H PARENT 9 10
REMARK Flexibility Score: inf
ROOT
ATOM      1  C   UNL     1     116.126 114.279 113.672  1.00  0.00     0.000 C 
ENDROOT
BRANCH   1   2
ATOM      2  C   UNL     1     117.654 114.350 113.841  1.00  0.00    -0.000 C 
BRANCH   2   3
ATOM      3  C   UNL     1     118.437 113.932 112.579  1.00  0.00    -0.000 C 
BRANCH   3   4
ATOM      4  C   UNL     1     119.548 114.931 112.228  1.00  0.00    -0.003 C 
ATOM      5  C   UNL     1     119.077 116.370 112.421  1.00  0.00     0.004 C 
ENDBRANCH   3   4
ENDBRANCH   2   3
ENDBRANCH   1   2
BRANCH   1   6
ATOM      6  C   UNL     1     115.702 113.865 112.256  1.00  0.00     0.002 C 
BRANCH   6   7
ATOM      7  C   UNL     1     114.335 113.166 112.275  1.00  0.00     0.028 C 
BRANCH   7   8
ATOM      8  C   UNL     1     113.627 113.342 113.622  1.00  0.00     0.156 C 
BRANCH   8   9
ATOM      9  O   UNL     1     113.177 112.109 114.118  1.00  0.00    -0.396 OA
ATOM     10  H   UNL     1     112.512 112.314 114.826  1.00  0.00     0.210 HD
ENDBRANCH   8   9
ENDBRANCH   7   8
ENDBRANCH   6   7
ENDBRANCH   1   6
TORSDOF 7
ENDMDL
MODEL 4
REMARK VINA RESULT:    -2.575      6.523      8.500
REMARK INTER + INTRA:          -3.778
REMARK INTER:                  -3.510
REMARK INTRA:                  -0.267
REMARK UNBOUND:                -0.224
REMARK SMILES CCCCCCCCO
REMARK SMILES IDX 5 1 4 2 3 3 2 4 1 5 6 6 7 7 8 8 9 9
REMARK H PARENT 9 10
REMARK Flexibility Score: inf
ROOT
ATOM      1  C   UNL     1     126.710 123.765 116.269  1.00  0.00     0.000 C 
ENDROOT
BRANCH   1   2
ATOM      2  C   UNL     1     125.873 122.586 115.743  1.00  0.00    -0.000 C 
BRANCH   2   3
ATOM      3  C   UNL     1     125.230 121.736 116.859  1.00  0.00    -0.000 C 
BRANCH   3   4
ATOM      4  C   UNL     1     124.550 120.475 116.309  1.00  0.00    -0.003 C 
ATOM      5  C   UNL     1     124.684 120.392 114.791  1.00  0.00     0.004 C 
ENDBRANCH   3   4
ENDBRANCH   2   3
ENDBRANCH   1   2
BRANCH   1   6
ATOM      6  C   UNL     1     126.844 124.903 115.248  1.00  0.00     0.002 C 
BRANCH   6   7
ATOM      7  C   UNL     1     125.752 124.810 114.174  1.00  0.00     0.028 C 
BRANCH   7   8
ATOM      8  C   UNL     1     124.790 126.000 114.238  1.00  0.00     0.156 C 
BRANCH   8   9
ATOM      9  O   UNL     1     123.481 125.575 114.510  1.00  0.00    -0.396 OA
ATOM     10  H   UNL     1     123.087 126.245 115.128  1.00  0.00     0.210 HD
ENDBRANCH   8   9
ENDBRANCH   7   8
ENDBRANCH   6   7
ENDBRANCH   1   6
TORSDOF 7
ENDMDL
MODEL 5
REMARK VINA RESULT:    -2.551      6.623      7.828
REMARK INTER + INTRA:          -3.745
REMARK INTER:                  -3.271
REMARK INTRA:                  -0.474
REMARK UNBOUND:                -0.224
REMARK SMILES CCCCCCCCO
REMARK SMILES IDX 5 1 4 2 3 3 2 4 1 5 6 6 7 7 8 8 9 9
REMARK H PARENT 9 10
REMARK Flexibility Score: inf
ROOT
ATOM      1  C   UNL     1     124.489 120.364 116.174  1.00  0.00     0.000 C 
ENDROOT
BRANCH   1   2
ATOM      2  C   UNL     1     124.594 120.694 117.673  1.00  0.00    -0.000 C 
BRANCH   2   3
ATOM      3  C   UNL     1     123.227 120.901 118.359  1.00  0.00    -0.000 C 
BRANCH   3   4
ATOM      4  C   UNL     1     122.191 121.520 117.411  1.00  0.00    -0.003 C 
ATOM      5  C   UNL     1     122.236 123.045 117.464  1.00  0.00     0.004 C 
ENDBRANCH   3   4
ENDBRANCH   2   3
ENDBRANCH   1   2
BRANCH   1   6
ATOM      6  C   UNL     1     125.252 121.359 115.289  1.00  0.00     0.002 C 
BRANCH   6   7
ATOM      7  C   UNL     1     125.836 122.504 116.128  1.00  0.00     0.028 C 
BRANCH   7   8
ATOM      8  C   UNL     1     125.891 123.815 115.338  1.00  0.00     0.156 C 
BRANCH   8   9
ATOM      9  O   UNL     1     125.652 123.590 113.974  1.00  0.00    -0.396 OA
ATOM     10  H   UNL     1     125.424 122.628 113.880  1.00  0.00     0.210 HD
ENDBRANCH   8   9
ENDBRANCH   7   8
ENDBRANCH   6   7
ENDBRANCH   1   6
TORSDOF 7
ENDMDL
MODEL 6
REMARK VINA RESULT:    -2.546      9.881     11.416
REMARK INTER + INTRA:          -3.738
REMARK INTER:                  -3.212
REMARK INTRA:                  -0.526
REMARK UNBOUND:                -0.224
REMARK SMILES CCCCCCCCO
REMARK SMILES IDX 5 1 4 2 3 3 2 4 1 5 6 6 7 7 8 8 9 9
REMARK H PARENT 9 10
REMARK Flexibility Score: inf
ROOT
ATOM      1  C   UNL     1     121.560 107.819 117.958  1.00  0.00     0.000 C 
ENDROOT
BRANCH   1   2
ATOM      2  C   UNL     1     122.540 108.598 118.852  1.00  0.00    -0.000 C 
BRANCH   2   3
ATOM      3  C   UNL     1     122.290 110.121 118.864  1.00  0.00    -0.000 C 
BRANCH   3   4
ATOM      4  C   UNL     1     122.708 110.788 117.547  1.00  0.00    -0.003 C 
ATOM      5  C   UNL     1     124.185 110.545 117.249  1.00  0.00     0.004 C 
ENDBRANCH   3   4
ENDBRANCH   2   3
ENDBRANCH   1   2
BRANCH   1   6
ATOM      6  C   UNL     1     122.252 107.130 116.773  1.00  0.00     0.002 C 
BRANCH   6   7
ATOM      7  C   UNL     1     121.760 107.708 115.439  1.00  0.00     0.028 C 
BRANCH   7   8
ATOM      8  C   UNL     1     120.433 108.456 115.599  1.00  0.00     0.156 C 
BRANCH   8   9
ATOM      9  O   UNL     1     119.594 108.231 114.498  1.00  0.00    -0.396 OA
ATOM     10  H   UNL     1     118.988 107.486 114.750  1.00  0.00     0.210 HD
ENDBRANCH   8   9
ENDBRANCH   7   8
ENDBRANCH   6   7
ENDBRANCH   1   6
TORSDOF 7
ENDMDL
MODEL 7
REMARK VINA RESULT:    -2.494     10.365     11.396
REMARK INTER + INTRA:          -3.666
REMARK INTER:                  -3.378
REMARK INTRA:                  -0.288
REMARK UNBOUND:                -0.224
REMARK SMILES CCCCCCCCO
REMARK SMILES IDX 5 1 4 2 3 3 2 4 1 5 6 6 7 7 8 8 9 9
REMARK H PARENT 9 10
REMARK Flexibility Score: inf
ROOT
ATOM      1  C   UNL     1     122.396 107.278 115.726  1.00  0.00     0.000 C 
ENDROOT
BRANCH   1   2
ATOM      2  C   UNL     1     121.144 107.998 115.195  1.00  0.00    -0.000 C 
BRANCH   2   3
ATOM      3  C   UNL     1     120.331 108.716 116.292  1.00  0.00    -0.000 C 
BRANCH   3   4
ATOM      4  C   UNL     1     121.189 109.061 117.517  1.00  0.00    -0.003 C 
ATOM      5  C   UNL     1     120.632 108.413 118.782  1.00  0.00     0.004 C 
ENDBRANCH   3   4
ENDBRANCH   2   3
ENDBRANCH   1   2
BRANCH   1   6
ATOM      6  C   UNL     1     123.545 107.250 114.709  1.00  0.00     0.002 C 
BRANCH   6   7
ATOM      7  C   UNL     1     124.897 107.479 115.401  1.00  0.00     0.028 C 
BRANCH   7   8
ATOM      8  C   UNL     1     124.970 108.861 116.058  1.00  0.00     0.156 C 
BRANCH   8   9
ATOM      9  O   UNL     1     125.315 109.845 115.120  1.00  0.00    -0.396 OA
ATOM     10  H   UNL     1     124.809 110.663 115.369  1.00  0.00     0.210 HD
ENDBRANCH   8   9
ENDBRANCH   7   8
ENDBRANCH   6   7
ENDBRANCH   1   6
TORSDOF 7
ENDMDL
MODEL 8
REMARK VINA RESULT:    -2.493      7.150      8.594
REMARK INTER + INTRA:          -3.664
REMARK INTER:                  -3.204
REMARK INTRA:                  -0.460
REMARK UNBOUND:                -0.224
REMARK SMILES CCCCCCCCO
REMARK SMILES IDX 5 1 4 2 3 3 2 4 1 5 6 6 7 7 8 8 9 9
REMARK H PARENT 9 10
REMARK Flexibility Score: inf
ROOT
ATOM      1  C   UNL     1     124.540 120.897 116.244  1.00  0.00     0.000 C 
ENDROOT
BRANCH   1   2
ATOM      2  C   UNL     1     123.950 121.296 117.608  1.00  0.00    -0.000 C 
BRANCH   2   3
ATOM      3  C   UNL     1     124.553 120.515 118.795  1.00  0.00    -0.000 C 
BRANCH   3   4
ATOM      4  C   UNL     1     125.208 121.444 119.826  1.00  0.00    -0.003 C 
ATOM      5  C   UNL     1     126.570 121.935 119.343  1.00  0.00     0.004 C 
ENDBRANCH   3   4
ENDBRANCH   2   3
ENDBRANCH   1   2
BRANCH   1   6
ATOM      6  C   UNL     1     125.557 121.917 115.712  1.00  0.00     0.002 C 
BRANCH   6   7
ATOM      7  C   UNL     1     125.190 123.340 116.155  1.00  0.00     0.028 C 
BRANCH   7   8
ATOM      8  C   UNL     1     125.550 124.377 115.086  1.00  0.00     0.156 C 
BRANCH   8   9
ATOM      9  O   UNL     1     125.694 123.773 113.829  1.00  0.00    -0.396 OA
ATOM     10  H   UNL     1     125.396 124.440 113.157  1.00  0.00     0.210 HD
ENDBRANCH   8   9
ENDBRANCH   7   8
ENDBRANCH   6   7
ENDBRANCH   1   6
TORSDOF 7
ENDMDL
MODEL 9
REMARK VINA RESULT:    -2.486      6.417      7.940
REMARK INTER + INTRA:          -3.655
REMARK INTER:                  -3.484
REMARK INTRA:                  -0.171
REMARK UNBOUND:                -0.224
REMARK SMILES CCCCCCCCO
REMARK SMILES IDX 5 1 4 2 3 3 2 4 1 5 6 6 7 7 8 8 9 9
REMARK H PARENT 9 10
REMARK Flexibility Score: inf
ROOT
ATOM      1  C   UNL     1     115.028 115.260 113.896  1.00  0.00     0.000 C 
ENDROOT
BRANCH   1   2
ATOM      2  C   UNL     1     114.344 116.435 113.175  1.00  0.00    -0.000 C 
BRANCH   2   3
ATOM      3  C   UNL     1     114.025 117.628 114.100  1.00  0.00    -0.000 C 
BRANCH   3   4
ATOM      4  C   UNL     1     113.538 118.855 113.318  1.00  0.00    -0.003 C 
ATOM      5  C   UNL     1     113.135 118.477 111.895  1.00  0.00     0.004 C 
ENDBRANCH   3   4
ENDBRANCH   2   3
ENDBRANCH   1   2
BRANCH   1   6
ATOM      6  C   UNL     1     115.212 114.032 112.994  1.00  0.00     0.002 C 
BRANCH   6   7
ATOM      7  C   UNL     1     113.918 113.209 112.916  1.00  0.00     0.028 C 
BRANCH   7   8
ATOM      8  C   UNL     1     113.217 113.126 114.275  1.00  0.00     0.156 C 
BRANCH   8   9
ATOM      9  O   UNL     1     112.899 111.798 114.596  1.00  0.00    -0.396 OA
ATOM     10  H   UNL     1     111.955 111.657 114.323  1.00  0.00     0.210 HD
ENDBRANCH   8   9
ENDBRANCH   7   8
ENDBRANCH   6   7
ENDBRANCH   1   6
TORSDOF 7
ENDMDL
