MODEL 1
REMARK VINA RESULT:    -3.752      0.000      0.000
REMARK INTER + INTRA:          -8.194
REMARK INTER:                  -6.824
REMARK INTRA:                  -1.370
REMARK UNBOUND:                -1.370
REMARK SMILES CCCCCCCCCCCCCC[C@H](C)C(=O)[O-]
REMARK SMILES IDX 9 1 10 2 11 3 12 4 13 5 14 6 15 7 16 8 17 9 18 10 19 11 8 12
REMARK SMILES IDX 7 13 6 14 5 15 4 16 3 17 2 18 1 19
REMARK H PARENT
REMARK Flexibility Score: inf
ROOT
ATOM      1  C   UNL     1      15.456  -7.884   6.760  1.00  0.00     0.000 C 
ENDROOT
BRANCH   1   2
ATOM      2  C   UNL     1      14.383  -8.860   6.253  1.00  0.00     0.000 C 
BRANCH   2   3
ATOM      3  C   UNL     1      12.972  -8.500   6.767  1.00  0.00     0.000 C 
BRANCH   3   4
ATOM      4  C   UNL     1      12.053  -7.878   5.694  1.00  0.00     0.000 C 
BRANCH   4   5
ATOM      5  C   UNL     1      10.795  -8.694   5.352  1.00  0.00     0.001 C 
BRANCH   5   6
ATOM      6  C   UNL     1       9.974  -9.075   6.602  1.00  0.00     0.009 C 
BRANCH   6   7
ATOM      7  C   UNL     1       8.444  -9.000   6.405  1.00  0.00     0.032 C 
ATOM      8  C   UNL     1       8.027  -7.911   5.406  1.00  0.00     0.014 C 
BRANCH   7   9
ATOM      9  C   UNL     1       7.721  -8.860   7.719  1.00  0.00     0.044 C 
ATOM     10  O   UNL     1       7.501  -9.879   8.425  1.00  0.00    -0.550 OA
ATOM     11  O   UNL     1       7.338  -7.606   8.189  1.00  0.00    -0.550 OA
ENDBRANCH   7   9
ENDBRANCH   6   7
ENDBRANCH   5   6
ENDBRANCH   4   5
ENDBRANCH   3   4
ENDBRANCH   2   3
ENDBRANCH   1   2
BRANCH   1  12
ATOM     12  C   UNL     1      15.952  -6.974   5.629  1.00  0.00     0.000 C 
BRANCH  12  13
ATOM     13  C   UNL     1      16.392  -7.803   4.413  1.00  0.00    -0.000 C 
BRANCH  13  14
ATOM     14  C   UNL     1      17.850  -8.279   4.516  1.00  0.00    -0.000 C 
BRANCH  14  15
ATOM     15  C   UNL     1      18.844  -7.113   4.659  1.00  0.00    -0.000 C 
BRANCH  15  16
ATOM     16  C   UNL     1      19.815  -7.311   5.836  1.00  0.00    -0.000 C 
BRANCH  16  17
ATOM     17  C   UNL     1      19.526  -8.592   6.632  1.00  0.00    -0.000 C 
BRANCH  17  18
ATOM     18  C   UNL     1      19.496  -8.304   8.137  1.00  0.00    -0.003 C 
ATOM     19  C   UNL     1      18.793  -6.981   8.432  1.00  0.00     0.004 C 
ENDBRANCH  17  18
ENDBRANCH  16  17
ENDBRANCH  15  16
ENDBRANCH  14  15
ENDBRANCH  13  14
ENDBRANCH  12  13
ENDBRANCH   1  12
TORSDOF 14
ENDMDL
MODEL 2
REMARK VINA RESULT:    -3.670      4.004      9.525
REMARK INTER + INTRA:          -8.043
REMARK INTER:                  -7.115
REMARK INTRA:                  -0.928
REMARK UNBOUND:                -1.370
REMARK SMILES CCCCCCCCCCCCCC[C@H](C)C(=O)[O-]
REMARK SMILES IDX 9 1 10 2 11 3 12 4 13 5 14 6 15 7 16 8 17 9 18 10 19 11 8 12
REMARK SMILES IDX 7 13 6 14 5 15 4 16 3 17 2 18 1 19
REMARK H PARENT
REMARK Flexibility Score: inf
ROOT
ATOM      1  C   UNL     1      12.880  -8.336   5.624  1.00  0.00     0.000 C 
ENDROOT
BRANCH   1   2
ATOM      2  C   UNL     1      13.895  -8.587   6.750  1.00  0.00     0.000 C 
BRANCH   2   3
ATOM      3  C   UNL     1      15.247  -7.890   6.487  1.00  0.00     0.000 C 
BRANCH   3   4
ATOM      4  C   UNL     1      15.482  -7.514   5.009  1.00  0.00     0.000 C 
BRANCH   4   5
ATOM      5  C   UNL     1      16.930  -7.137   4.648  1.00  0.00     0.001 C 
BRANCH   5   6
ATOM      6  C   UNL     1      17.973  -7.977   5.414  1.00  0.00     0.009 C 
BRANCH   6   7
ATOM      7  C   UNL     1      18.978  -7.145   6.240  1.00  0.00     0.032 C 
ATOM      8  C   UNL     1      20.311  -6.929   5.510  1.00  0.00     0.014 C 
BRANCH   7   9
ATOM      9  C   UNL     1      19.182  -7.725   7.615  1.00  0.00     0.044 C 
ATOM     10  O   UNL     1      18.820  -7.073   8.630  1.00  0.00    -0.550 OA
ATOM     11  O   UNL     1      19.718  -9.000   7.777  1.00  0.00    -0.550 OA
ENDBRANCH   7   9
ENDBRANCH   6   7
ENDBRANCH   5   6
ENDBRANCH   4   5
ENDBRANCH   3   4
ENDBRANCH   2   3
ENDBRANCH   1   2
BRANCH   1  12
ATOM     12  C   UNL     1      11.507  -7.954   6.194  1.00  0.00     0.000 C 
BRANCH  12  13
ATOM     13  C   UNL     1      10.394  -8.233   5.172  1.00  0.00    -0.000 C 
BRANCH  13  14
ATOM     14  C   UNL     1       9.441  -9.351   5.625  1.00  0.00    -0.000 C 
BRANCH  14  15
ATOM     15  C   UNL     1       8.916  -9.136   7.056  1.00  0.00    -0.000 C 
BRANCH  15  16
ATOM     16  C   UNL     1       7.390  -8.952   7.100  1.00  0.00    -0.000 C 
BRANCH  16  17
ATOM     17  C   UNL     1       6.777  -8.768   5.703  1.00  0.00    -0.000 C 
BRANCH  17  18
ATOM     18  C   UNL     1       6.361  -7.311   5.477  1.00  0.00    -0.003 C 
ATOM     19  C   UNL     1       6.363  -6.527   6.787  1.00  0.00     0.004 C 
ENDBRANCH  17  18
ENDBRANCH  16  17
ENDBRANCH  15  16
ENDBRANCH  14  15
ENDBRANCH  13  14
ENDBRANCH  12  13
ENDBRANCH   1  12
TORSDOF 14
ENDMDL
MODEL 3
REMARK VINA RESULT:    -3.571      1.290      1.901
REMARK INTER + INTRA:          -7.864
REMARK INTER:                  -6.715
REMARK INTRA:                  -1.149
REMARK UNBOUND:                -1.370
REMARK SMILES CCCCCCCCCCCCCC[C@H](C)C(=O)[O-]
REMARK SMILES IDX 9 1 10 2 11 3 12 4 13 5 14 6 15 7 16 8 17 9 18 10 19 11 8 12
REMARK SMILES IDX 7 13 6 14 5 15 4 16 3 17 2 18 1 19
REMARK H PARENT
REMARK Flexibility Score: inf
ROOT
ATOM      1  C   UNL     1      14.153  -8.612   6.538  1.00  0.00     0.000 C 
ENDROOT
BRANCH   1   2
ATOM      2  C   UNL     1      13.228  -8.020   5.464  1.00  0.00     0.000 C 
BRANCH   2   3
ATOM      3  C   UNL     1      12.108  -8.998   5.049  1.00  0.00     0.000 C 
BRANCH   3   4
ATOM      4  C   UNL     1      10.723  -8.651   5.634  1.00  0.00     0.000 C 
BRANCH   4   5
ATOM      5  C   UNL     1       9.621  -9.696   5.381  1.00  0.00     0.001 C 
BRANCH   5   6
ATOM      6  C   UNL     1       8.211  -9.073   5.327  1.00  0.00     0.009 C 
BRANCH   6   7
ATOM      7  C   UNL     1       7.884  -8.134   6.509  1.00  0.00     0.032 C 
ATOM      8  C   UNL     1       7.710  -8.888   7.835  1.00  0.00     0.014 C 
BRANCH   7   9
ATOM      9  C   UNL     1       6.701  -7.252   6.208  1.00  0.00     0.044 C 
ATOM     10  O   UNL     1       6.069  -7.400   5.128  1.00  0.00    -0.550 OA
ATOM     11  O   UNL     1       6.263  -6.309   7.133  1.00  0.00    -0.550 OA
ENDBRANCH   7   9
ENDBRANCH   6   7
ENDBRANCH   5   6
ENDBRANCH   4   5
ENDBRANCH   3   4
ENDBRANCH   2   3
ENDBRANCH   1   2
BRANCH   1  12
ATOM     12  C   UNL     1      15.548  -7.976   6.477  1.00  0.00     0.000 C 
BRANCH  12  13
ATOM     13  C   UNL     1      15.653  -7.001   5.295  1.00  0.00    -0.000 C 
BRANCH  13  14
ATOM     14  C   UNL     1      16.989  -7.122   4.544  1.00  0.00    -0.000 C 
BRANCH  14  15
ATOM     15  C   UNL     1      17.740  -8.422   4.881  1.00  0.00    -0.000 C 
BRANCH  15  16
ATOM     16  C   UNL     1      19.266  -8.237   4.875  1.00  0.00    -0.000 C 
BRANCH  16  17
ATOM     17  C   UNL     1      19.771  -7.452   6.095  1.00  0.00    -0.000 C 
BRANCH  17  18
ATOM     18  C   UNL     1      19.258  -8.078   7.397  1.00  0.00    -0.003 C 
ATOM     19  C   UNL     1      18.863  -7.002   8.407  1.00  0.00     0.004 C 
ENDBRANCH  17  18
ENDBRANCH  16  17
ENDBRANCH  15  16
ENDBRANCH  14  15
ENDBRANCH  13  14
ENDBRANCH  12  13
ENDBRANCH   1  12
TORSDOF 14
ENDMDL
MODEL 4
REMARK VINA RESULT:    -3.562      4.547      9.528
REMARK INTER + INTRA:          -7.848
REMARK INTER:                  -6.888
REMARK INTRA:                  -0.960
REMARK UNBOUND:                -1.370
REMARK SMILES CCCCCCCCCCCCCC[C@H](C)C(=O)[O-]
REMARK SMILES IDX 9 1 10 2 11 3 12 4 13 5 14 6 15 7 16 8 17 9 18 10 19 11 8 12
REMARK SMILES IDX 7 13 6 14 5 15 4 16 3 17 2 18 1 19
REMARK H PARENT
REMARK Flexibility Score: inf
ROOT
ATOM      1  C   UNL     1      12.496  -8.216   6.194  1.00  0.00     0.000 C 
ENDROOT
BRANCH   1   2
ATOM      2  C   UNL     1      13.364  -8.662   5.006  1.00  0.00     0.000 C 
BRANCH   2   3
ATOM      3  C   UNL     1      14.857  -8.778   5.381  1.00  0.00     0.000 C 
BRANCH   3   4
ATOM      4  C   UNL     1      15.204  -8.187   6.764  1.00  0.00     0.000 C 
BRANCH   4   5
ATOM      5  C   UNL     1      16.345  -7.154   6.770  1.00  0.00     0.001 C 
BRANCH   5   6
ATOM      6  C   UNL     1      17.537  -7.577   5.885  1.00  0.00     0.009 C 
BRANCH   6   7
ATOM      7  C   UNL     1      18.847  -7.831   6.662  1.00  0.00     0.032 C 
ATOM      8  C   UNL     1      18.864  -7.148   8.037  1.00  0.00     0.014 C 
BRANCH   7   9
ATOM      9  C   UNL     1      20.058  -7.468   5.843  1.00  0.00     0.044 C 
ATOM     10  O   UNL     1      20.206  -6.286   5.434  1.00  0.00    -0.550 OA
ATOM     11  O   UNL     1      21.045  -8.413   5.575  1.00  0.00    -0.550 OA
ENDBRANCH   7   9
ENDBRANCH   6   7
ENDBRANCH   5   6
ENDBRANCH   4   5
ENDBRANCH   3   4
ENDBRANCH   2   3
ENDBRANCH   1   2
BRANCH   1  12
ATOM     12  C   UNL     1      11.028  -8.057   5.776  1.00  0.00     0.000 C 
BRANCH  12  13
ATOM     13  C   UNL     1      10.887  -7.006   4.664  1.00  0.00    -0.000 C 
BRANCH  13  14
ATOM     14  C   UNL     1       9.425  -6.612   4.404  1.00  0.00    -0.000 C 
BRANCH  14  15
ATOM     15  C   UNL     1       8.463  -7.809   4.504  1.00  0.00    -0.000 C 
BRANCH  15  16
ATOM     16  C   UNL     1       7.224  -7.497   5.359  1.00  0.00    -0.000 C 
BRANCH  16  17
ATOM     17  C   UNL     1       6.842  -8.656   6.292  1.00  0.00    -0.000 C 
BRANCH  17  18
ATOM     18  C   UNL     1       7.926  -8.884   7.351  1.00  0.00    -0.003 C 
ATOM     19  C   UNL     1       7.437  -9.827   8.448  1.00  0.00     0.004 C 
ENDBRANCH  17  18
ENDBRANCH  16  17
ENDBRANCH  15  16
ENDBRANCH  14  15
ENDBRANCH  13  14
ENDBRANCH  12  13
ENDBRANCH   1  12
TORSDOF 14
ENDMDL
MODEL 5
REMARK VINA RESULT:    -3.474      1.198      2.414
REMARK INTER + INTRA:          -7.687
REMARK INTER:                  -6.660
REMARK INTRA:                  -1.026
REMARK UNBOUND:                -1.370
REMARK SMILES CCCCCCCCCCCCCC[C@H](C)C(=O)[O-]
REMARK SMILES IDX 9 1 10 2 11 3 12 4 13 5 14 6 15 7 16 8 17 9 18 10 19 11 8 12
REMARK SMILES IDX 7 13 6 14 5 15 4 16 3 17 2 18 1 19
REMARK H PARENT
REMARK Flexibility Score: inf
ROOT
ATOM      1  C   UNL     1      12.011  -8.218   6.493  1.00  0.00     0.000 C 
ENDROOT
BRANCH   1   2
ATOM      2  C   UNL     1      11.978  -7.548   5.111  1.00  0.00     0.000 C 
BRANCH   2   3
ATOM      3  C   UNL     1      10.689  -7.881   4.328  1.00  0.00     0.000 C 
BRANCH   3   4
ATOM      4  C   UNL     1       9.771  -6.666   4.084  1.00  0.00     0.000 C 
BRANCH   4   5
ATOM      5  C   UNL     1       8.308  -6.846   4.527  1.00  0.00     0.001 C 
BRANCH   5   6
ATOM      6  C   UNL     1       7.986  -8.298   4.940  1.00  0.00     0.009 C 
BRANCH   6   7
ATOM      7  C   UNL     1       7.143  -8.420   6.228  1.00  0.00     0.032 C 
ATOM      8  C   UNL     1       6.662  -7.060   6.754  1.00  0.00     0.014 C 
BRANCH   7   9
ATOM      9  C   UNL     1       7.865  -9.207   7.291  1.00  0.00     0.044 C 
ATOM     10  O   UNL     1       7.390  -9.268   8.455  1.00  0.00    -0.550 OA
ATOM     11  O   UNL     1       9.027  -9.912   6.987  1.00  0.00    -0.550 OA
ENDBRANCH   7   9
ENDBRANCH   6   7
ENDBRANCH   5   6
ENDBRANCH   4   5
ENDBRANCH   3   4
ENDBRANCH   2   3
ENDBRANCH   1   2
BRANCH   1  12
ATOM     12  C   UNL     1      13.442  -8.617   6.879  1.00  0.00     0.000 C 
BRANCH  12  13
ATOM     13  C   UNL     1      14.397  -8.445   5.687  1.00  0.00    -0.000 C 
BRANCH  13  14
ATOM     14  C   UNL     1      15.876  -8.552   6.094  1.00  0.00    -0.000 C 
BRANCH  14  15
ATOM     15  C   UNL     1      16.775  -7.576   5.314  1.00  0.00    -0.000 C 
BRANCH  15  16
ATOM     16  C   UNL     1      18.200  -8.120   5.119  1.00  0.00    -0.000 C 
BRANCH  16  17
ATOM     17  C   UNL     1      19.244  -7.348   5.940  1.00  0.00    -0.000 C 
BRANCH  17  18
ATOM     18  C   UNL     1      19.407  -7.964   7.333  1.00  0.00    -0.003 C 
ATOM     19  C   UNL     1      18.814  -7.058   8.410  1.00  0.00     0.004 C 
ENDBRANCH  17  18
ENDBRANCH  16  17
ENDBRANCH  15  16
ENDBRANCH  14  15
ENDBRANCH  13  14
ENDBRANCH  12  13
ENDBRANCH   1  12
TORSDOF 14
ENDMDL
MODEL 6
REMARK VINA RESULT:    -3.262      1.551      2.631
REMARK INTER + INTRA:          -7.302
REMARK INTER:                  -6.293
REMARK INTRA:                  -1.010
REMARK UNBOUND:                -1.370
REMARK SMILES CCCCCCCCCCCCCC[C@H](C)C(=O)[O-]
REMARK SMILES IDX 9 1 10 2 11 3 12 4 13 5 14 6 15 7 16 8 17 9 18 10 19 11 8 12
REMARK SMILES IDX 7 13 6 14 5 15 4 16 3 17 2 18 1 19
REMARK H PARENT
REMARK Flexibility Score: inf
ROOT
ATOM      1  C   UNL     1      13.471  -7.730   4.191  1.00  0.00     0.000 C 
ENDROOT
BRANCH   1   2
ATOM      2  C   UNL     1      11.946  -7.579   4.298  1.00  0.00     0.000 C 
BRANCH   2   3
ATOM      3  C   UNL     1      11.462  -7.534   5.763  1.00  0.00     0.000 C 
BRANCH   3   4
ATOM      4  C   UNL     1      10.548  -8.713   6.158  1.00  0.00     0.000 C 
BRANCH   4   5
ATOM      5  C   UNL     1       9.560  -9.173   5.072  1.00  0.00     0.001 C 
BRANCH   5   6
ATOM      6  C   UNL     1       8.143  -9.430   5.625  1.00  0.00     0.009 C 
BRANCH   6   7
ATOM      7  C   UNL     1       7.738  -8.503   6.792  1.00  0.00     0.032 C 
ATOM      8  C   UNL     1       7.493  -9.268   8.100  1.00  0.00     0.014 C 
BRANCH   7   9
ATOM      9  C   UNL     1       6.566  -7.630   6.427  1.00  0.00     0.044 C 
ATOM     10  O   UNL     1       6.413  -6.517   6.995  1.00  0.00    -0.550 OA
ATOM     11  O   UNL     1       5.676  -8.016   5.428  1.00  0.00    -0.550 OA
ENDBRANCH   7   9
ENDBRANCH   6   7
ENDBRANCH   5   6
ENDBRANCH   4   5
ENDBRANCH   3   4
ENDBRANCH   2   3
ENDBRANCH   1   2
BRANCH   1  12
ATOM     12  C   UNL     1      13.914  -9.146   4.582  1.00  0.00     0.000 C 
BRANCH  12  13
ATOM     13  C   UNL     1      15.361  -9.143   5.098  1.00  0.00    -0.000 C 
BRANCH  13  14
ATOM     14  C   UNL     1      15.644  -7.980   6.062  1.00  0.00    -0.000 C 
BRANCH  14  15
ATOM     15  C   UNL     1      17.023  -7.339   5.826  1.00  0.00    -0.000 C 
BRANCH  15  16
ATOM     16  C   UNL     1      17.945  -7.462   7.050  1.00  0.00    -0.000 C 
BRANCH  16  17
ATOM     17  C   UNL     1      19.424  -7.609   6.664  1.00  0.00    -0.000 C 
BRANCH  17  18
ATOM     18  C   UNL     1      19.679  -7.060   5.256  1.00  0.00    -0.003 C 
ATOM     19  C   UNL     1      20.743  -5.965   5.275  1.00  0.00     0.004 C 
ENDBRANCH  17  18
ENDBRANCH  16  17
ENDBRANCH  15  16
ENDBRANCH  14  15
ENDBRANCH  13  14
ENDBRANCH  12  13
ENDBRANCH   1  12
TORSDOF 14
ENDMDL
MODEL 7
REMARK VINA RESULT:    -3.125      1.546      3.258
REMARK INTER + INTRA:          -7.053
REMARK INTER:                  -6.099
REMARK INTRA:                  -0.954
REMARK UNBOUND:                -1.370
REMARK SMILES CCCCCCCCCCCCCC[C@H](C)C(=O)[O-]
REMARK SMILES IDX 9 1 10 2 11 3 12 4 13 5 14 6 15 7 16 8 17 9 18 10 19 11 8 12
REMARK SMILES IDX 7 13 6 14 5 15 4 16 3 17 2 18 1 19
REMARK H PARENT
REMARK Flexibility Score: inf
ROOT
ATOM      1  C   UNL     1      11.257  -8.188   5.524  1.00  0.00     0.000 C 
ENDROOT
BRANCH   1   2
ATOM      2  C   UNL     1      10.976  -9.650   5.143  1.00  0.00     0.000 C 
BRANCH   2   3
ATOM      3  C   UNL     1      10.101  -9.768   3.876  1.00  0.00     0.000 C 
BRANCH   3   4
ATOM      4  C   UNL     1       8.810  -8.926   3.923  1.00  0.00     0.000 C 
BRANCH   4   5
ATOM      5  C   UNL     1       7.510  -9.724   4.131  1.00  0.00     0.001 C 
BRANCH   5   6
ATOM      6  C   UNL     1       7.073  -9.776   5.610  1.00  0.00     0.009 C 
BRANCH   6   7
ATOM      7  C   UNL     1       7.399  -8.499   6.415  1.00  0.00     0.032 C 
ATOM      8  C   UNL     1       7.603  -8.776   7.911  1.00  0.00     0.014 C 
BRANCH   7   9
ATOM      9  C   UNL     1       6.375  -7.419   6.181  1.00  0.00     0.044 C 
ATOM     10  O   UNL     1       5.492  -7.574   5.297  1.00  0.00    -0.550 OA
ATOM     11  O   UNL     1       6.361  -6.270   6.969  1.00  0.00    -0.550 OA
ENDBRANCH   7   9
ENDBRANCH   6   7
ENDBRANCH   5   6
ENDBRANCH   4   5
ENDBRANCH   3   4
ENDBRANCH   2   3
ENDBRANCH   1   2
BRANCH   1  12
ATOM     12  C   UNL     1      12.763  -7.932   5.658  1.00  0.00     0.000 C 
BRANCH  12  13
ATOM     13  C   UNL     1      13.290  -8.460   7.002  1.00  0.00    -0.000 C 
BRANCH  13  14
ATOM     14  C   UNL     1      14.670  -9.124   6.877  1.00  0.00    -0.000 C 
BRANCH  14  15
ATOM     15  C   UNL     1      15.602  -8.373   5.909  1.00  0.00    -0.000 C 
BRANCH  15  16
ATOM     16  C   UNL     1      16.673  -7.550   6.645  1.00  0.00    -0.000 C 
BRANCH  16  17
ATOM     17  C   UNL     1      18.013  -7.517   5.895  1.00  0.00    -0.000 C 
BRANCH  17  18
ATOM     18  C   UNL     1      19.174  -7.857   6.835  1.00  0.00    -0.003 C 
ATOM     19  C   UNL     1      19.011  -7.162   8.186  1.00  0.00     0.004 C 
ENDBRANCH  17  18
ENDBRANCH  16  17
ENDBRANCH  15  16
ENDBRANCH  14  15
ENDBRANCH  13  14
ENDBRANCH  12  13
ENDBRANCH   1  12
TORSDOF 14
ENDMDL
MODEL 8
REMARK VINA RESULT:    -3.035      5.198      9.934
REMARK INTER + INTRA:          -6.889
REMARK INTER:                  -6.004
REMARK INTRA:                  -0.885
REMARK UNBOUND:                -1.370
REMARK SMILES CCCCCCCCCCCCCC[C@H](C)C(=O)[O-]
REMARK SMILES IDX 9 1 10 2 11 3 12 4 13 5 14 6 15 7 16 8 17 9 18 10 19 11 8 12
REMARK SMILES IDX 7 13 6 14 5 15 4 16 3 17 2 18 1 19
REMARK H PARENT
REMARK Flexibility Score: inf
ROOT
ATOM      1  C   UNL     1      15.213  -7.501   5.058  1.00  0.00     0.000 C 
ENDROOT
BRANCH   1   2
ATOM      2  C   UNL     1      16.326  -8.070   5.952  1.00  0.00     0.000 C 
BRANCH   2   3
ATOM      3  C   UNL     1      16.722  -7.099   7.086  1.00  0.00     0.000 C 
BRANCH   3   4
ATOM      4  C   UNL     1      18.030  -7.480   7.810  1.00  0.00     0.000 C 
BRANCH   4   5
ATOM      5  C   UNL     1      19.288  -6.735   7.331  1.00  0.00     0.001 C 
BRANCH   5   6
ATOM      6  C   UNL     1      19.989  -7.445   6.154  1.00  0.00     0.009 C 
BRANCH   6   7
ATOM      7  C   UNL     1      20.369  -6.512   4.983  1.00  0.00     0.032 C 
ATOM      8  C   UNL     1      19.300  -6.477   3.882  1.00  0.00     0.014 C 
BRANCH   7   9
ATOM      9  C   UNL     1      21.731  -6.841   4.430  1.00  0.00     0.044 C 
ATOM     10  O   UNL     1      22.461  -5.921   3.975  1.00  0.00    -0.550 OA
ATOM     11  O   UNL     1      22.216  -8.146   4.465  1.00  0.00    -0.550 OA
ENDBRANCH   7   9
ENDBRANCH   6   7
ENDBRANCH   5   6
ENDBRANCH   4   5
ENDBRANCH   3   4
ENDBRANCH   2   3
ENDBRANCH   1   2
BRANCH   1  12
ATOM     12  C   UNL     1      13.852  -8.112   5.414  1.00  0.00     0.000 C 
BRANCH  12  13
ATOM     13  C   UNL     1      12.841  -7.895   4.278  1.00  0.00    -0.000 C 
BRANCH  13  14
ATOM     14  C   UNL     1      11.458  -7.460   4.790  1.00  0.00    -0.000 C 
BRANCH  14  15
ATOM     15  C   UNL     1      11.154  -7.997   6.200  1.00  0.00    -0.000 C 
BRANCH  15  16
ATOM     16  C   UNL     1       9.939  -8.939   6.219  1.00  0.00    -0.000 C 
BRANCH  16  17
ATOM     17  C   UNL     1       8.688  -8.303   5.592  1.00  0.00    -0.000 C 
BRANCH  17  18
ATOM     18  C   UNL     1       7.515  -8.320   6.578  1.00  0.00    -0.003 C 
ATOM     19  C   UNL     1       6.607  -7.109   6.374  1.00  0.00     0.004 C 
ENDBRANCH  17  18
ENDBRANCH  16  17
ENDBRANCH  15  16
ENDBRANCH  14  15
ENDBRANCH  13  14
ENDBRANCH  12  13
ENDBRANCH   1  12
TORSDOF 14
ENDMDL
MODEL 9
REMARK VINA RESULT:    -2.894      2.322      4.058
REMARK INTER + INTRA:          -6.632
REMARK INTER:                  -5.534
REMARK INTRA:                  -1.098
REMARK UNBOUND:                -1.370
REMARK SMILES CCCCCCCCCCCCCC[C@H](C)C(=O)[O-]
REMARK SMILES IDX 9 1 10 2 11 3 12 4 13 5 14 6 15 7 16 8 17 9 18 10 19 11 8 12
REMARK SMILES IDX 7 13 6 14 5 15 4 16 3 17 2 18 1 19
REMARK H PARENT
REMARK Flexibility Score: inf
ROOT
ATOM      1  C   UNL     1      10.807  -7.470   5.538  1.00  0.00     0.000 C 
ENDROOT
BRANCH   1   2
ATOM      2  C   UNL     1      10.597  -8.887   6.093  1.00  0.00     0.000 C 
BRANCH   2   3
ATOM      3  C   UNL     1       9.250  -9.035   6.832  1.00  0.00     0.000 C 
BRANCH   3   4
ATOM      4  C   UNL     1       8.236  -9.948   6.112  1.00  0.00     0.000 C 
BRANCH   4   5
ATOM      5  C   UNL     1       7.593  -9.350   4.848  1.00  0.00     0.001 C 
BRANCH   5   6
ATOM      6  C   UNL     1       6.143  -8.876   5.084  1.00  0.00     0.009 C 
BRANCH   6   7
ATOM      7  C   UNL     1       5.974  -7.342   5.124  1.00  0.00     0.032 C 
ATOM      8  C   UNL     1       6.302  -6.744   6.500  1.00  0.00     0.014 C 
BRANCH   7   9
ATOM      9  C   UNL     1       4.610  -6.921   4.643  1.00  0.00     0.044 C 
ATOM     10  O   UNL     1       3.662  -7.750   4.643  1.00  0.00    -0.550 OA
ATOM     11  O   UNL     1       4.370  -5.607   4.247  1.00  0.00    -0.550 OA
ENDBRANCH   7   9
ENDBRANCH   6   7
ENDBRANCH   5   6
ENDBRANCH   4   5
ENDBRANCH   3   4
ENDBRANCH   2   3
ENDBRANCH   1   2
BRANCH   1  12
ATOM     12  C   UNL     1      11.545  -7.507   4.193  1.00  0.00     0.000 C 
BRANCH  12  13
ATOM     13  C   UNL     1      12.695  -8.525   4.229  1.00  0.00    -0.000 C 
BRANCH  13  14
ATOM     14  C   UNL     1      14.028  -7.897   4.665  1.00  0.00    -0.000 C 
BRANCH  14  15
ATOM     15  C   UNL     1      14.513  -8.427   6.027  1.00  0.00    -0.000 C 
BRANCH  15  16
ATOM     16  C   UNL     1      16.045  -8.398   6.156  1.00  0.00    -0.000 C 
BRANCH  16  17
ATOM     17  C   UNL     1      16.685  -7.258   5.350  1.00  0.00    -0.000 C 
BRANCH  17  18
ATOM     18  C   UNL     1      18.214  -7.349   5.395  1.00  0.00    -0.003 C 
ATOM     19  C   UNL     1      18.707  -7.668   6.805  1.00  0.00     0.004 C 
ENDBRANCH  17  18
ENDBRANCH  16  17
ENDBRANCH  15  16
ENDBRANCH  14  15
ENDBRANCH  13  14
ENDBRANCH  12  13
ENDBRANCH   1  12
TORSDOF 14
ENDMDL
