MODEL 1
REMARK VINA RESULT:     9.361      0.000      0.000
REMARK INTER + INTRA:          10.438
REMARK INTER:                  10.729
REMARK INTRA:                  -0.291
REMARK UNBOUND:                -0.291
REMARK SMILES COc1ccc(C(C)=O)c(O)c1
REMARK SMILES IDX 6 1 10 2 12 3 3 4 4 5 5 6 7 7 8 8 9 9 11 10 2 12 1 13
REMARK H PARENT 11 11
REMARK Flexibility Score: inf
ROOT
ATOM      1  C   UNL     1      15.122  53.253  62.054  1.00  0.00     0.059 A 
ATOM      2  C   UNL     1      14.391  52.062  62.264  1.00  0.00     0.130 A 
ATOM      3  C   UNL     1      14.751  50.890  61.581  1.00  0.00     0.093 A 
ATOM      4  C   UNL     1      15.817  50.884  60.677  1.00  0.00     0.122 A 
ATOM      5  C   UNL     1      16.533  52.072  60.454  1.00  0.00     0.047 A 
ATOM      6  C   UNL     1      16.184  53.241  61.133  1.00  0.00     0.019 A 
ENDROOT
BRANCH   1   7
ATOM      7  C   UNL     1      14.801  54.523  62.761  1.00  0.00     0.163 C 
ATOM      8  C   UNL     1      15.711  55.125  63.788  1.00  0.00     0.093 C 
ATOM      9  O   UNL     1      13.725  55.125  62.493  1.00  0.00    -0.294 OA
ENDBRANCH   1   7
BRANCH   2  10
ATOM     10  O   UNL     1      13.296  52.035  63.128  1.00  0.00    -0.507 OA
ATOM     11  H   UNL     1      13.335  52.447  64.053  1.00  0.00     0.293 HD
ENDBRANCH   2  10
BRANCH   4  12
ATOM     12  O   UNL     1      16.129  49.683  60.023  1.00  0.00    -0.497 OA
ATOM     13  C   UNL     1      15.995  49.472  58.621  1.00  0.00     0.278 C 
ENDBRANCH   4  12
TORSDOF 3
ENDMDL
MODEL 2
REMARK VINA RESULT:     9.509      1.857      2.233
REMARK INTER + INTRA:          10.607
REMARK INTER:                  10.777
REMARK INTRA:                  -0.170
REMARK UNBOUND:                -0.291
REMARK SMILES COc1ccc(C(C)=O)c(O)c1
REMARK SMILES IDX 6 1 10 2 12 3 3 4 4 5 5 6 7 7 8 8 9 9 11 10 2 12 1 13
REMARK H PARENT 11 11
REMARK Flexibility Score: inf
ROOT
ATOM      1  C   UNL     1      15.547  53.469  61.544  1.00  0.00     0.059 A 
ATOM      2  C   UNL     1      15.309  53.663  60.164  1.00  0.00     0.130 A 
ATOM      3  C   UNL     1      15.295  52.561  59.295  1.00  0.00     0.093 A 
ATOM      4  C   UNL     1      15.529  51.268  59.770  1.00  0.00     0.122 A 
ATOM      5  C   UNL     1      15.783  51.076  61.137  1.00  0.00     0.047 A 
ATOM      6  C   UNL     1      15.795  52.166  62.011  1.00  0.00     0.019 A 
ENDROOT
BRANCH   1   7
ATOM      7  C   UNL     1      15.558  54.593  62.519  1.00  0.00     0.163 C 
ATOM      8  C   UNL     1      14.306  55.125  63.149  1.00  0.00     0.093 C 
ATOM      9  O   UNL     1      16.657  55.125  62.837  1.00  0.00    -0.294 OA
ENDBRANCH   1   7
BRANCH   2  10
ATOM     10  O   UNL     1      15.109  54.941  59.644  1.00  0.00    -0.507 OA
ATOM     11  H   UNL     1      15.885  55.552  59.416  1.00  0.00     0.293 HD
ENDBRANCH   2  10
BRANCH   4  12
ATOM     12  O   UNL     1      15.503  50.207  58.853  1.00  0.00    -0.497 OA
ATOM     13  C   UNL     1      16.258  49.007  58.989  1.00  0.00     0.278 C 
ENDBRANCH   4  12
TORSDOF 3
ENDMDL
MODEL 3
REMARK VINA RESULT:     9.826      1.479      4.568
REMARK INTER + INTRA:          10.971
REMARK INTER:                  11.105
REMARK INTRA:                  -0.134
REMARK UNBOUND:                -0.291
REMARK SMILES COc1ccc(C(C)=O)c(O)c1
REMARK SMILES IDX 6 1 10 2 12 3 3 4 4 5 5 6 7 7 8 8 9 9 11 10 2 12 1 13
REMARK H PARENT 11 11
REMARK Flexibility Score: inf
ROOT
ATOM      1  C   UNL     1      15.287  52.360  60.535  1.00  0.00     0.059 A 
ATOM      2  C   UNL     1      14.728  51.954  61.768  1.00  0.00     0.130 A 
ATOM      3  C   UNL     1      14.532  52.894  62.791  1.00  0.00     0.093 A 
ATOM      4  C   UNL     1      14.897  54.231  62.618  1.00  0.00     0.122 A 
ATOM      5  C   UNL     1      15.469  54.633  61.400  1.00  0.00     0.047 A 
ATOM      6  C   UNL     1      15.664  53.705  60.374  1.00  0.00     0.019 A 
ENDROOT
BRANCH   1   7
ATOM      7  C   UNL     1      15.504  51.416  59.406  1.00  0.00     0.163 C 
ATOM      8  C   UNL     1      16.626  50.422  59.391  1.00  0.00     0.093 C 
ATOM      9  O   UNL     1      14.720  51.442  58.418  1.00  0.00    -0.294 OA
ENDBRANCH   1   7
BRANCH   2  10
ATOM     10  O   UNL     1      14.387  50.621  61.996  1.00  0.00    -0.507 OA
ATOM     11  H   UNL     1      14.856  49.860  61.518  1.00  0.00     0.293 HD
ENDBRANCH   2  10
BRANCH   4  12
ATOM     12  O   UNL     1      14.677  55.125  63.677  1.00  0.00    -0.497 OA
ATOM     13  C   UNL     1      15.362  55.077  64.925  1.00  0.00     0.278 C 
ENDBRANCH   4  12
TORSDOF 3
ENDMDL
MODEL 4
REMARK VINA RESULT:    10.082      1.854      4.937
REMARK INTER + INTRA:          11.265
REMARK INTER:                  11.580
REMARK INTRA:                  -0.315
REMARK UNBOUND:                -0.291
REMARK SMILES COc1ccc(C(C)=O)c(O)c1
REMARK SMILES IDX 6 1 10 2 12 3 3 4 4 5 5 6 7 7 8 8 9 9 11 10 2 12 1 13
REMARK H PARENT 11 11
REMARK Flexibility Score: inf
ROOT
ATOM      1  C   UNL     1      15.139  52.718  60.543  1.00  0.00     0.059 A 
ATOM      2  C   UNL     1      15.150  54.129  60.463  1.00  0.00     0.130 A 
ATOM      3  C   UNL     1      15.010  54.898  61.629  1.00  0.00     0.093 A 
ATOM      4  C   UNL     1      14.842  54.289  62.875  1.00  0.00     0.122 A 
ATOM      5  C   UNL     1      14.813  52.888  62.954  1.00  0.00     0.047 A 
ATOM      6  C   UNL     1      14.956  52.114  61.800  1.00  0.00     0.019 A 
ENDROOT
BRANCH   1   7
ATOM      7  C   UNL     1      15.300  51.848  59.348  1.00  0.00     0.163 C 
ATOM      8  C   UNL     1      15.997  50.522  59.404  1.00  0.00     0.093 C 
ATOM      9  O   UNL     1      14.835  52.229  58.238  1.00  0.00    -0.294 OA
ENDBRANCH   1   7
BRANCH   2  10
ATOM     10  O   UNL     1      15.276  54.776  59.234  1.00  0.00    -0.507 OA
ATOM     11  H   UNL     1      14.621  54.618  58.477  1.00  0.00     0.293 HD
ENDBRANCH   2  10
BRANCH   4  12
ATOM     12  O   UNL     1      14.707  55.110  64.005  1.00  0.00    -0.497 OA
ATOM     13  C   UNL     1      15.571  55.071  65.136  1.00  0.00     0.278 C 
ENDBRANCH   4  12
TORSDOF 3
ENDMDL
MODEL 5
REMARK VINA RESULT:    10.134      1.796      2.260
REMARK INTER + INTRA:          11.325
REMARK INTER:                  11.514
REMARK INTRA:                  -0.190
REMARK UNBOUND:                -0.291
REMARK SMILES COc1ccc(C(C)=O)c(O)c1
REMARK SMILES IDX 6 1 10 2 12 3 3 4 4 5 5 6 7 7 8 8 9 9 11 10 2 12 1 13
REMARK H PARENT 11 11
REMARK Flexibility Score: inf
ROOT
ATOM      1  C   UNL     1      15.794  53.459  62.056  1.00  0.00     0.059 A 
ATOM      2  C   UNL     1      17.126  52.993  61.975  1.00  0.00     0.130 A 
ATOM      3  C   UNL     1      17.445  51.934  61.112  1.00  0.00     0.093 A 
ATOM      4  C   UNL     1      16.460  51.316  60.337  1.00  0.00     0.122 A 
ATOM      5  C   UNL     1      15.133  51.766  60.429  1.00  0.00     0.047 A 
ATOM      6  C   UNL     1      14.807  52.823  61.282  1.00  0.00     0.019 A 
ENDROOT
BRANCH   1   7
ATOM      7  C   UNL     1      15.394  54.589  62.938  1.00  0.00     0.163 C 
ATOM      8  C   UNL     1      13.995  55.124  62.977  1.00  0.00     0.093 C 
ATOM      9  O   UNL     1      16.258  55.124  63.686  1.00  0.00    -0.294 OA
ENDBRANCH   1   7
BRANCH   2  10
ATOM     10  O   UNL     1      18.131  53.556  62.760  1.00  0.00    -0.507 OA
ATOM     11  H   UNL     1      18.858  52.991  63.184  1.00  0.00     0.293 HD
ENDBRANCH   2  10
BRANCH   4  12
ATOM     12  O   UNL     1      16.840  50.261  59.493  1.00  0.00    -0.497 OA
ATOM     13  C   UNL     1      15.939  49.301  58.950  1.00  0.00     0.278 C 
ENDBRANCH   4  12
TORSDOF 3
ENDMDL
