MODEL 1
REMARK VINA RESULT:    -5.473      0.000      0.000
REMARK INTER + INTRA:          -5.952
REMARK INTER:                  -5.793
REMARK INTRA:                  -0.159
REMARK UNBOUND:                -0.159
REMARK SMILES Cc1ccc(C(C)C)cc1
REMARK SMILES IDX 1 1 2 2 3 3 4 4 5 5 9 6 10 7 6 8 7 9 8 10
REMARK H PARENT
REMARK Flexibility Score: inf
ROOT
ATOM      1  C   UNL     1     -17.681  56.249  -4.021  1.00  0.00     0.044 C 
ATOM      2  C   UNL     1     -18.908  55.675  -3.375  1.00  0.00    -0.051 A 
ATOM      3  C   UNL     1     -18.929  54.334  -2.967  1.00  0.00     0.004 A 
ATOM      4  C   UNL     1     -20.084  53.788  -2.398  1.00  0.00     0.004 A 
ATOM      5  C   UNL     1     -21.242  54.572  -2.239  1.00  0.00    -0.045 A 
ATOM      6  C   UNL     1     -21.220  55.911  -2.668  1.00  0.00     0.004 A 
ATOM      7  C   UNL     1     -20.065  56.456  -3.236  1.00  0.00     0.004 A 
ENDROOT
BRANCH   5   8
ATOM      8  C   UNL     1     -22.502  53.993  -1.625  1.00  0.00     0.013 C 
ATOM      9  C   UNL     1     -22.396  53.933  -0.097  1.00  0.00     0.012 C 
ATOM     10  C   UNL     1     -23.743  54.780  -2.062  1.00  0.00     0.012 C 
ENDBRANCH   5   8
TORSDOF 1
ENDMDL
MODEL 2
REMARK VINA RESULT:    -5.444      0.237      1.549
REMARK INTER + INTRA:          -5.921
REMARK INTER:                  -5.763
REMARK INTRA:                  -0.158
REMARK UNBOUND:                -0.159
REMARK SMILES Cc1ccc(C(C)C)cc1
REMARK SMILES IDX 1 1 2 2 3 3 4 4 5 5 9 6 10 7 6 8 7 9 8 10
REMARK H PARENT
REMARK Flexibility Score: inf
ROOT
ATOM      1  C   UNL     1     -17.484  56.217  -4.017  1.00  0.00     0.044 C 
ATOM      2  C   UNL     1     -18.728  55.614  -3.434  1.00  0.00    -0.051 A 
ATOM      3  C   UNL     1     -19.858  56.411  -3.203  1.00  0.00     0.004 A 
ATOM      4  C   UNL     1     -21.005  55.860  -2.626  1.00  0.00     0.004 A 
ATOM      5  C   UNL     1     -21.038  54.501  -2.259  1.00  0.00    -0.045 A 
ATOM      6  C   UNL     1     -19.896  53.711  -2.476  1.00  0.00     0.004 A 
ATOM      7  C   UNL     1     -18.749  54.265  -3.053  1.00  0.00     0.004 A 
ENDROOT
BRANCH   5   8
ATOM      8  C   UNL     1     -22.276  53.889  -1.631  1.00  0.00     0.013 C 
ATOM      9  C   UNL     1     -22.108  53.733  -0.116  1.00  0.00     0.012 C 
ATOM     10  C   UNL     1     -23.529  54.707  -1.967  1.00  0.00     0.012 C 
ENDBRANCH   5   8
TORSDOF 1
ENDMDL
MODEL 3
REMARK VINA RESULT:    -5.325      0.968      4.505
REMARK INTER + INTRA:          -5.795
REMARK INTER:                  -5.628
REMARK INTRA:                  -0.167
REMARK UNBOUND:                -0.159
REMARK SMILES Cc1ccc(C(C)C)cc1
REMARK SMILES IDX 1 1 2 2 3 3 4 4 5 5 9 6 10 7 6 8 7 9 8 10
REMARK H PARENT
REMARK Flexibility Score: inf
ROOT
ATOM      1  C   UNL     1     -23.771  54.825  -1.780  1.00  0.00     0.044 C 
ATOM      2  C   UNL     1     -22.330  54.980  -2.168  1.00  0.00    -0.051 A 
ATOM      3  C   UNL     1     -21.912  56.102  -2.898  1.00  0.00     0.004 A 
ATOM      4  C   UNL     1     -20.577  56.230  -3.292  1.00  0.00     0.004 A 
ATOM      5  C   UNL     1     -19.638  55.230  -2.973  1.00  0.00    -0.045 A 
ATOM      6  C   UNL     1     -20.067  54.099  -2.257  1.00  0.00     0.004 A 
ATOM      7  C   UNL     1     -21.403  53.973  -1.863  1.00  0.00     0.004 A 
ENDROOT
BRANCH   5   8
ATOM      8  C   UNL     1     -18.186  55.356  -3.395  1.00  0.00     0.013 C 
ATOM      9  C   UNL     1     -17.820  56.815  -3.688  1.00  0.00     0.012 C 
ATOM     10  C   UNL     1     -17.250  54.751  -2.342  1.00  0.00     0.012 C 
ENDBRANCH   5   8
TORSDOF 1
ENDMDL
MODEL 4
REMARK VINA RESULT:    -5.267      0.955      4.245
REMARK INTER + INTRA:          -5.733
REMARK INTER:                  -5.566
REMARK INTRA:                  -0.167
REMARK UNBOUND:                -0.159
REMARK SMILES Cc1ccc(C(C)C)cc1
REMARK SMILES IDX 1 1 2 2 3 3 4 4 5 5 9 6 10 7 6 8 7 9 8 10
REMARK H PARENT
REMARK Flexibility Score: inf
ROOT
ATOM      1  C   UNL     1     -23.851  55.072  -1.868  1.00  0.00     0.044 C 
ATOM      2  C   UNL     1     -22.411  55.107  -2.290  1.00  0.00    -0.051 A 
ATOM      3  C   UNL     1     -21.551  54.053  -1.954  1.00  0.00     0.004 A 
ATOM      4  C   UNL     1     -20.201  54.102  -2.315  1.00  0.00     0.004 A 
ATOM      5  C   UNL     1     -19.686  55.213  -3.009  1.00  0.00    -0.045 A 
ATOM      6  C   UNL     1     -20.550  56.275  -3.327  1.00  0.00     0.004 A 
ATOM      7  C   UNL     1     -21.900  56.225  -2.966  1.00  0.00     0.004 A 
ENDROOT
BRANCH   5   8
ATOM      8  C   UNL     1     -18.223  55.280  -3.406  1.00  0.00     0.013 C 
ATOM      9  C   UNL     1     -17.797  56.721  -3.708  1.00  0.00     0.012 C 
ATOM     10  C   UNL     1     -17.329  54.653  -2.329  1.00  0.00     0.012 C 
ENDBRANCH   5   8
TORSDOF 1
ENDMDL
MODEL 5
REMARK VINA RESULT:    -5.086      1.092      1.969
REMARK INTER + INTRA:          -5.543
REMARK INTER:                  -5.376
REMARK INTRA:                  -0.167
REMARK UNBOUND:                -0.159
REMARK SMILES Cc1ccc(C(C)C)cc1
REMARK SMILES IDX 1 1 2 2 3 3 4 4 5 5 9 6 10 7 6 8 7 9 8 10
REMARK H PARENT
REMARK Flexibility Score: inf
ROOT
ATOM      1  C   UNL     1     -17.404  56.615  -4.011  1.00  0.00     0.044 C 
ATOM      2  C   UNL     1     -18.404  55.712  -3.351  1.00  0.00    -0.051 A 
ATOM      3  C   UNL     1     -19.727  56.136  -3.171  1.00  0.00     0.004 A 
ATOM      4  C   UNL     1     -20.651  55.311  -2.523  1.00  0.00     0.004 A 
ATOM      5  C   UNL     1     -20.263  54.049  -2.035  1.00  0.00    -0.045 A 
ATOM      6  C   UNL     1     -18.929  53.637  -2.202  1.00  0.00     0.004 A 
ATOM      7  C   UNL     1     -18.006  54.464  -2.850  1.00  0.00     0.004 A 
ENDROOT
BRANCH   5   8
ATOM      8  C   UNL     1     -21.254  53.143  -1.329  1.00  0.00     0.013 C 
ATOM      9  C   UNL     1     -20.604  52.435  -0.135  1.00  0.00     0.012 C 
ATOM     10  C   UNL     1     -22.504  53.920  -0.898  1.00  0.00     0.012 C 
ENDBRANCH   5   8
TORSDOF 1
ENDMDL
MODEL 6
REMARK VINA RESULT:    -5.017      1.936      4.726
REMARK INTER + INTRA:          -5.470
REMARK INTER:                  -5.305
REMARK INTRA:                  -0.164
REMARK UNBOUND:                -0.159
REMARK SMILES Cc1ccc(C(C)C)cc1
REMARK SMILES IDX 1 1 2 2 3 3 4 4 5 5 9 6 10 7 6 8 7 9 8 10
REMARK H PARENT
REMARK Flexibility Score: inf
ROOT
ATOM      1  C   UNL     1     -25.284  55.937   0.178  1.00  0.00     0.044 C 
ATOM      2  C   UNL     1     -24.136  55.096  -0.297  1.00  0.00    -0.051 A 
ATOM      3  C   UNL     1     -23.356  54.381   0.623  1.00  0.00     0.004 A 
ATOM      4  C   UNL     1     -22.263  53.627   0.186  1.00  0.00     0.004 A 
ATOM      5  C   UNL     1     -21.925  53.584  -1.180  1.00  0.00    -0.045 A 
ATOM      6  C   UNL     1     -22.699  54.318  -2.095  1.00  0.00     0.004 A 
ATOM      7  C   UNL     1     -23.792  55.072  -1.656  1.00  0.00     0.004 A 
ENDROOT
BRANCH   5   8
ATOM      8  C   UNL     1     -20.741  52.770  -1.668  1.00  0.00     0.013 C 
ATOM      9  C   UNL     1     -19.775  53.636  -2.486  1.00  0.00     0.012 C 
ATOM     10  C   UNL     1     -20.019  52.089  -0.500  1.00  0.00     0.012 C 
ENDBRANCH   5   8
TORSDOF 1
ENDMDL
MODEL 7
REMARK VINA RESULT:    -4.876      1.552      2.465
REMARK INTER + INTRA:          -5.320
REMARK INTER:                  -5.154
REMARK INTRA:                  -0.166
REMARK UNBOUND:                -0.159
REMARK SMILES Cc1ccc(C(C)C)cc1
REMARK SMILES IDX 1 1 2 2 3 3 4 4 5 5 9 6 10 7 6 8 7 9 8 10
REMARK H PARENT
REMARK Flexibility Score: inf
ROOT
ATOM      1  C   UNL     1     -19.122  53.635  -3.076  1.00  0.00     0.044 C 
ATOM      2  C   UNL     1     -20.306  53.946  -2.209  1.00  0.00    -0.051 A 
ATOM      3  C   UNL     1     -20.535  53.212  -1.038  1.00  0.00     0.004 A 
ATOM      4  C   UNL     1     -21.658  53.475  -0.248  1.00  0.00     0.004 A 
ATOM      5  C   UNL     1     -22.578  54.473  -0.624  1.00  0.00    -0.045 A 
ATOM      6  C   UNL     1     -22.352  55.193  -1.810  1.00  0.00     0.004 A 
ATOM      7  C   UNL     1     -21.228  54.928  -2.598  1.00  0.00     0.004 A 
ENDROOT
BRANCH   5   8
ATOM      8  C   UNL     1     -23.802  54.769   0.223  1.00  0.00     0.013 C 
ATOM      9  C   UNL     1     -23.746  54.017   1.558  1.00  0.00     0.012 C 
ATOM     10  C   UNL     1     -23.969  56.277   0.444  1.00  0.00     0.012 C 
ENDBRANCH   5   8
TORSDOF 1
ENDMDL
MODEL 8
REMARK VINA RESULT:    -4.840      1.522      2.680
REMARK INTER + INTRA:          -5.282
REMARK INTER:                  -5.114
REMARK INTRA:                  -0.167
REMARK UNBOUND:                -0.159
REMARK SMILES Cc1ccc(C(C)C)cc1
REMARK SMILES IDX 1 1 2 2 3 3 4 4 5 5 9 6 10 7 6 8 7 9 8 10
REMARK H PARENT
REMARK Flexibility Score: inf
ROOT
ATOM      1  C   UNL     1     -19.004  53.626  -3.238  1.00  0.00     0.044 C 
ATOM      2  C   UNL     1     -20.240  53.913  -2.438  1.00  0.00    -0.051 A 
ATOM      3  C   UNL     1     -21.030  55.032  -2.735  1.00  0.00     0.004 A 
ATOM      4  C   UNL     1     -22.162  55.322  -1.967  1.00  0.00     0.004 A 
ATOM      5  C   UNL     1     -22.517  54.501  -0.879  1.00  0.00    -0.045 A 
ATOM      6  C   UNL     1     -21.710  53.391  -0.574  1.00  0.00     0.004 A 
ATOM      7  C   UNL     1     -20.578  53.103  -1.344  1.00  0.00     0.004 A 
ENDROOT
BRANCH   5   8
ATOM      8  C   UNL     1     -23.741  54.803  -0.037  1.00  0.00     0.013 C 
ATOM      9  C   UNL     1     -23.646  54.132   1.338  1.00  0.00     0.012 C 
ATOM     10  C   UNL     1     -23.958  56.315   0.101  1.00  0.00     0.012 C 
ENDBRANCH   5   8
TORSDOF 1
ENDMDL
MODEL 9
REMARK VINA RESULT:    -4.765      3.248      3.803
REMARK INTER + INTRA:          -5.203
REMARK INTER:                  -5.035
REMARK INTRA:                  -0.167
REMARK UNBOUND:                -0.159
REMARK SMILES Cc1ccc(C(C)C)cc1
REMARK SMILES IDX 1 1 2 2 3 3 4 4 5 5 9 6 10 7 6 8 7 9 8 10
REMARK H PARENT
REMARK Flexibility Score: inf
ROOT
ATOM      1  C   UNL     1     -16.802  57.330   1.188  1.00  0.00     0.044 C 
ATOM      2  C   UNL     1     -17.707  56.286   0.604  1.00  0.00    -0.051 A 
ATOM      3  C   UNL     1     -19.039  56.596   0.299  1.00  0.00     0.004 A 
ATOM      4  C   UNL     1     -19.894  55.614  -0.211  1.00  0.00     0.004 A 
ATOM      5  C   UNL     1     -19.432  54.299  -0.413  1.00  0.00    -0.045 A 
ATOM      6  C   UNL     1     -18.100  53.990  -0.088  1.00  0.00     0.004 A 
ATOM      7  C   UNL     1     -17.246  54.974   0.422  1.00  0.00     0.004 A 
ENDROOT
BRANCH   5   8
ATOM      8  C   UNL     1     -20.348  53.223  -0.964  1.00  0.00     0.013 C 
ATOM      9  C   UNL     1     -19.934  51.835  -0.463  1.00  0.00     0.012 C 
ATOM     10  C   UNL     1     -21.814  53.519  -0.625  1.00  0.00     0.012 C 
ENDBRANCH   5   8
TORSDOF 1
ENDMDL
