MODEL 1
REMARK VINA RESULT:    -3.416      0.000      0.000
REMARK INTER + INTRA:          -4.730
REMARK INTER:                  -4.414
REMARK INTRA:                  -0.316
REMARK UNBOUND:                -0.316
REMARK SMILES CCCCCCC(=O)[O-]
REMARK SMILES IDX 5 1 6 2 7 3 8 4 9 5 4 6 3 7 2 8 1 9
REMARK H PARENT
REMARK Flexibility Score: inf
ROOT
ATOM      1  C   UNL     1      49.922  13.303  17.612  1.00  0.00     0.006 C 
ENDROOT
BRANCH   1   2
ATOM      2  C   UNL     1      48.961  13.706  18.734  1.00  0.00     0.053 C 
BRANCH   2   3
ATOM      3  C   UNL     1      49.303  15.066  19.254  1.00  0.00     0.041 C 
ATOM      4  O   UNL     1      48.637  15.570  20.197  1.00  0.00    -0.550 OA
ATOM      5  O   UNL     1      50.389  15.757  18.732  1.00  0.00    -0.550 OA
ENDBRANCH   2   3
ENDBRANCH   1   2
BRANCH   1   6
ATOM      6  C   UNL     1      49.263  13.465  16.237  1.00  0.00     0.000 C 
BRANCH   6   7
ATOM      7  C   UNL     1      50.315  13.749  15.154  1.00  0.00    -0.000 C 
BRANCH   7   8
ATOM      8  C   UNL     1      50.514  15.253  14.906  1.00  0.00    -0.003 C 
ATOM      9  C   UNL     1      49.308  16.088  15.331  1.00  0.00     0.004 C 
ENDBRANCH   7   8
ENDBRANCH   6   7
ENDBRANCH   1   6
TORSDOF 5
ENDMDL
MODEL 2
REMARK VINA RESULT:    -3.377     17.025     17.836
REMARK INTER + INTRA:          -4.680
REMARK INTER:                  -4.525
REMARK INTRA:                  -0.155
REMARK UNBOUND:                -0.316
REMARK SMILES CCCCCCC(=O)[O-]
REMARK SMILES IDX 5 1 6 2 7 3 8 4 9 5 4 6 3 7 2 8 1 9
REMARK H PARENT
REMARK Flexibility Score: inf
ROOT
ATOM      1  C   UNL     1      56.983  -1.857  19.640  1.00  0.00     0.006 C 
ENDROOT
BRANCH   1   2
ATOM      2  C   UNL     1      56.331  -2.782  18.608  1.00  0.00     0.053 C 
BRANCH   2   3
ATOM      3  C   UNL     1      54.845  -2.795  18.780  1.00  0.00     0.041 C 
ATOM      4  O   UNL     1      54.154  -3.706  18.252  1.00  0.00    -0.550 OA
ATOM      5  O   UNL     1      54.228  -1.830  19.565  1.00  0.00    -0.550 OA
ENDBRANCH   2   3
ENDBRANCH   1   2
BRANCH   1   6
ATOM      6  C   UNL     1      57.420  -0.535  18.995  1.00  0.00     0.000 C 
BRANCH   6   7
ATOM      7  C   UNL     1      58.137  -0.786  17.661  1.00  0.00    -0.000 C 
BRANCH   7   8
ATOM      8  C   UNL     1      58.753   0.493  17.073  1.00  0.00    -0.003 C 
ATOM      9  C   UNL     1      58.790   0.484  15.546  1.00  0.00     0.004 C 
ENDBRANCH   7   8
ENDBRANCH   6   7
ENDBRANCH   1   6
TORSDOF 5
ENDMDL
MODEL 3
REMARK VINA RESULT:    -3.335      4.750      5.546
REMARK INTER + INTRA:          -4.627
REMARK INTER:                  -4.508
REMARK INTRA:                  -0.119
REMARK UNBOUND:                -0.316
REMARK SMILES CCCCCCC(=O)[O-]
REMARK SMILES IDX 5 1 6 2 7 3 8 4 9 5 4 6 3 7 2 8 1 9
REMARK H PARENT
REMARK Flexibility Score: inf
ROOT
ATOM      1  C   UNL     1      49.544  10.202  18.809  1.00  0.00     0.006 C 
ENDROOT
BRANCH   1   2
ATOM      2  C   UNL     1      50.735   9.262  19.016  1.00  0.00     0.053 C 
BRANCH   2   3
ATOM      3  C   UNL     1      50.648   8.093  18.086  1.00  0.00     0.041 C 
ATOM      4  O   UNL     1      51.266   7.027  18.349  1.00  0.00    -0.550 OA
ATOM      5  O   UNL     1      49.846   8.163  16.955  1.00  0.00    -0.550 OA
ENDBRANCH   2   3
ENDBRANCH   1   2
BRANCH   1   6
ATOM      6  C   UNL     1      50.013  11.600  18.385  1.00  0.00     0.000 C 
BRANCH   6   7
ATOM      7  C   UNL     1      48.969  12.664  18.755  1.00  0.00    -0.000 C 
BRANCH   7   8
ATOM      8  C   UNL     1      49.504  14.095  18.595  1.00  0.00    -0.003 C 
ATOM      9  C   UNL     1      49.690  14.497  17.133  1.00  0.00     0.004 C 
ENDBRANCH   7   8
ENDBRANCH   6   7
ENDBRANCH   1   6
TORSDOF 5
ENDMDL
MODEL 4
REMARK VINA RESULT:    -3.303      9.238     10.187
REMARK INTER + INTRA:          -4.585
REMARK INTER:                  -4.447
REMARK INTRA:                  -0.139
REMARK UNBOUND:                -0.316
REMARK SMILES CCCCCCC(=O)[O-]
REMARK SMILES IDX 5 1 6 2 7 3 8 4 9 5 4 6 3 7 2 8 1 9
REMARK H PARENT
REMARK Flexibility Score: inf
ROOT
ATOM      1  C   UNL     1      52.079   5.246  18.104  1.00  0.00     0.006 C 
ENDROOT
BRANCH   1   2
ATOM      2  C   UNL     1      51.676   4.208  19.155  1.00  0.00     0.053 C 
BRANCH   2   3
ATOM      3  C   UNL     1      52.740   3.167  19.298  1.00  0.00     0.041 C 
ATOM      4  O   UNL     1      52.516   1.978  18.945  1.00  0.00    -0.550 OA
ATOM      5  O   UNL     1      53.997   3.518  19.774  1.00  0.00    -0.550 OA
ENDBRANCH   2   3
ENDBRANCH   1   2
BRANCH   1   6
ATOM      6  C   UNL     1      52.380   6.601  18.757  1.00  0.00     0.000 C 
BRANCH   6   7
ATOM      7  C   UNL     1      51.115   7.201  19.387  1.00  0.00    -0.000 C 
BRANCH   7   8
ATOM      8  C   UNL     1      50.929   8.686  19.039  1.00  0.00    -0.003 C 
ATOM      9  C   UNL     1      49.473   9.138  19.134  1.00  0.00     0.004 C 
ENDBRANCH   7   8
ENDBRANCH   6   7
ENDBRANCH   1   6
TORSDOF 5
ENDMDL
MODEL 5
REMARK VINA RESULT:    -3.276     17.454     18.327
REMARK INTER + INTRA:          -4.550
REMARK INTER:                  -4.354
REMARK INTRA:                  -0.197
REMARK UNBOUND:                -0.316
REMARK SMILES CCCCCCC(=O)[O-]
REMARK SMILES IDX 5 1 6 2 7 3 8 4 9 5 4 6 3 7 2 8 1 9
REMARK H PARENT
REMARK Flexibility Score: inf
ROOT
ATOM      1  C   UNL     1      57.487  -0.935  18.851  1.00  0.00     0.006 C 
ENDROOT
BRANCH   1   2
ATOM      2  C   UNL     1      56.669  -2.210  19.080  1.00  0.00     0.053 C 
BRANCH   2   3
ATOM      3  C   UNL     1      55.211  -1.938  18.894  1.00  0.00     0.041 C 
ATOM      4  O   UNL     1      54.781  -0.754  18.897  1.00  0.00    -0.550 OA
ATOM      5  O   UNL     1      54.332  -2.989  18.665  1.00  0.00    -0.550 OA
ENDBRANCH   2   3
ENDBRANCH   1   2
BRANCH   1   6
ATOM      6  C   UNL     1      58.243  -0.998  17.518  1.00  0.00     0.000 C 
BRANCH   6   7
ATOM      7  C   UNL     1      58.558  -2.452  17.134  1.00  0.00    -0.000 C 
BRANCH   7   8
ATOM      8  C   UNL     1      59.656  -2.554  16.064  1.00  0.00    -0.003 C 
ATOM      9  C   UNL     1      59.244  -1.931  14.732  1.00  0.00     0.004 C 
ENDBRANCH   7   8
ENDBRANCH   6   7
ENDBRANCH   1   6
TORSDOF 5
ENDMDL
MODEL 6
REMARK VINA RESULT:    -3.259      6.598      8.379
REMARK INTER + INTRA:          -4.528
REMARK INTER:                  -4.413
REMARK INTRA:                  -0.116
REMARK UNBOUND:                -0.316
REMARK SMILES CCCCCCC(=O)[O-]
REMARK SMILES IDX 5 1 6 2 7 3 8 4 9 5 4 6 3 7 2 8 1 9
REMARK H PARENT
REMARK Flexibility Score: inf
ROOT
ATOM      1  C   UNL     1      50.303   7.393  20.030  1.00  0.00     0.006 C 
ENDROOT
BRANCH   1   2
ATOM      2  C   UNL     1      51.096   8.277  19.063  1.00  0.00     0.053 C 
BRANCH   2   3
ATOM      3  C   UNL     1      50.172   8.990  18.128  1.00  0.00     0.041 C 
ATOM      4  O   UNL     1      49.943  10.220  18.278  1.00  0.00    -0.550 OA
ATOM      5  O   UNL     1      49.602   8.310  17.060  1.00  0.00    -0.550 OA
ENDBRANCH   2   3
ENDBRANCH   1   2
BRANCH   1   6
ATOM      6  C   UNL     1      49.638   8.235  21.127  1.00  0.00     0.000 C 
BRANCH   6   7
ATOM      7  C   UNL     1      49.713   7.523  22.486  1.00  0.00    -0.000 C 
BRANCH   7   8
ATOM      8  C   UNL     1      49.667   8.504  23.668  1.00  0.00    -0.003 C 
ATOM      9  C   UNL     1      50.466   8.014  24.874  1.00  0.00     0.004 C 
ENDBRANCH   7   8
ENDBRANCH   6   7
ENDBRANCH   1   6
TORSDOF 5
ENDMDL
MODEL 7
REMARK VINA RESULT:    -3.222     12.538     13.836
REMARK INTER + INTRA:          -4.481
REMARK INTER:                  -4.116
REMARK INTRA:                  -0.365
REMARK UNBOUND:                -0.316
REMARK SMILES CCCCCCC(=O)[O-]
REMARK SMILES IDX 5 1 6 2 7 3 8 4 9 5 4 6 3 7 2 8 1 9
REMARK H PARENT
REMARK Flexibility Score: inf
ROOT
ATOM      1  C   UNL     1      51.006   3.292  20.410  1.00  0.00     0.006 C 
ENDROOT
BRANCH   1   2
ATOM      2  C   UNL     1      51.870   3.115  19.158  1.00  0.00     0.053 C 
BRANCH   2   3
ATOM      3  C   UNL     1      53.138   2.397  19.493  1.00  0.00     0.041 C 
ATOM      4  O   UNL     1      54.103   3.021  20.009  1.00  0.00    -0.550 OA
ATOM      5  O   UNL     1      53.237   1.027  19.283  1.00  0.00    -0.550 OA
ENDBRANCH   2   3
ENDBRANCH   1   2
BRANCH   1   6
ATOM      6  C   UNL     1      49.833   2.304  20.415  1.00  0.00     0.000 C 
BRANCH   6   7
ATOM      7  C   UNL     1      49.757   1.548  21.750  1.00  0.00    -0.000 C 
BRANCH   7   8
ATOM      8  C   UNL     1      51.145   1.233  22.328  1.00  0.00    -0.003 C 
ATOM      9  C   UNL     1      51.543  -0.231  22.147  1.00  0.00     0.004 C 
ENDBRANCH   7   8
ENDBRANCH   6   7
ENDBRANCH   1   6
TORSDOF 5
ENDMDL
MODEL 8
REMARK VINA RESULT:    -3.210      5.878      6.700
REMARK INTER + INTRA:          -4.465
REMARK INTER:                  -4.206
REMARK INTRA:                  -0.259
REMARK UNBOUND:                -0.316
REMARK SMILES CCCCCCC(=O)[O-]
REMARK SMILES IDX 5 1 6 2 7 3 8 4 9 5 4 6 3 7 2 8 1 9
REMARK H PARENT
REMARK Flexibility Score: inf
ROOT
ATOM      1  C   UNL     1      49.245   7.581  20.371  1.00  0.00     0.006 C 
ENDROOT
BRANCH   1   2
ATOM      2  C   UNL     1      48.608   8.592  21.329  1.00  0.00     0.053 C 
BRANCH   2   3
ATOM      3  C   UNL     1      47.566   9.399  20.622  1.00  0.00     0.041 C 
ATOM      4  O   UNL     1      46.447   8.889  20.346  1.00  0.00    -0.550 OA
ATOM      5  O   UNL     1      47.810  10.731  20.312  1.00  0.00    -0.550 OA
ENDBRANCH   2   3
ENDBRANCH   1   2
BRANCH   1   6
ATOM      6  C   UNL     1      50.715   7.926  20.104  1.00  0.00     0.000 C 
BRANCH   6   7
ATOM      7  C   UNL     1      51.016   7.916  18.598  1.00  0.00    -0.000 C 
BRANCH   7   8
ATOM      8  C   UNL     1      49.982   8.710  17.784  1.00  0.00    -0.003 C 
ATOM      9  C   UNL     1      49.814   8.179  16.362  1.00  0.00     0.004 C 
ENDBRANCH   7   8
ENDBRANCH   6   7
ENDBRANCH   1   6
TORSDOF 5
ENDMDL
MODEL 9
REMARK VINA RESULT:    -3.203     11.632     12.727
REMARK INTER + INTRA:          -4.456
REMARK INTER:                  -4.231
REMARK INTRA:                  -0.224
REMARK UNBOUND:                -0.316
REMARK SMILES CCCCCCC(=O)[O-]
REMARK SMILES IDX 5 1 6 2 7 3 8 4 9 5 4 6 3 7 2 8 1 9
REMARK H PARENT
REMARK Flexibility Score: inf
ROOT
ATOM      1  C   UNL     1      50.428   3.390  20.984  1.00  0.00     0.006 C 
ENDROOT
BRANCH   1   2
ATOM      2  C   UNL     1      51.083   2.621  19.833  1.00  0.00     0.053 C 
BRANCH   2   3
ATOM      3  C   UNL     1      52.164   3.440  19.204  1.00  0.00     0.041 C 
ATOM      4  O   UNL     1      51.872   4.374  18.410  1.00  0.00    -0.550 OA
ATOM      5  O   UNL     1      53.493   3.206  19.532  1.00  0.00    -0.550 OA
ENDBRANCH   2   3
ENDBRANCH   1   2
BRANCH   1   6
ATOM      6  C   UNL     1      49.004   2.883  21.245  1.00  0.00     0.000 C 
BRANCH   6   7
ATOM      7  C   UNL     1      48.812   1.469  20.677  1.00  0.00    -0.000 C 
BRANCH   7   8
ATOM      8  C   UNL     1      47.392   1.238  20.137  1.00  0.00    -0.003 C 
ATOM      9  C   UNL     1      46.546   2.511  20.132  1.00  0.00     0.004 C 
ENDBRANCH   7   8
ENDBRANCH   6   7
ENDBRANCH   1   6
TORSDOF 5
ENDMDL
