MODEL 1
REMARK VINA RESULT:    -4.308      0.000      0.000
REMARK INTER + INTRA:          -6.404
REMARK INTER:                  -6.070
REMARK INTRA:                  -0.333
REMARK UNBOUND:                -0.333
REMARK SMILES C=CCCCCCCC(=O)[O-]
REMARK SMILES IDX 6 1 7 2 8 3 9 4 10 5 11 6 5 7 4 8 3 9 2 10 1 11
REMARK H PARENT
REMARK Flexibility Score: inf
ROOT
ATOM      1  C   UNL     1      -0.554  -3.569   7.041  1.00  0.00     0.000 C 
ENDROOT
BRANCH   1   2
ATOM      2  C   UNL     1      -1.280  -2.643   6.060  1.00  0.00     0.006 C 
BRANCH   2   3
ATOM      3  C   UNL     1      -1.681  -3.394   4.788  1.00  0.00     0.053 C 
BRANCH   3   4
ATOM      4  C   UNL     1      -1.482  -2.530   3.583  1.00  0.00     0.041 C 
ATOM      5  O   UNL     1      -1.466  -1.276   3.697  1.00  0.00    -0.550 OA
ATOM      6  O   UNL     1      -1.264  -3.111   2.339  1.00  0.00    -0.550 OA
ENDBRANCH   3   4
ENDBRANCH   2   3
ENDBRANCH   1   2
BRANCH   1   7
ATOM      7  C   UNL     1      -0.553  -5.018   6.530  1.00  0.00     0.000 C 
BRANCH   7   8
ATOM      8  C   UNL     1       0.188  -5.978   7.475  1.00  0.00     0.004 C 
BRANCH   8   9
ATOM      9  C   UNL     1       0.882  -5.248   8.636  1.00  0.00     0.027 C 
BRANCH   9  10
ATOM     10  C   UNL     1       2.377  -5.273   8.476  1.00  0.00    -0.035 C 
ATOM     11  C   UNL     1       3.194  -5.371   9.529  1.00  0.00     0.004 C 
ENDBRANCH   9  10
ENDBRANCH   8   9
ENDBRANCH   7   8
ENDBRANCH   1   7
TORSDOF 7
ENDMDL
MODEL 2
REMARK VINA RESULT:    -4.301      3.953      6.056
REMARK INTER + INTRA:          -6.395
REMARK INTER:                  -6.059
REMARK INTRA:                  -0.336
REMARK UNBOUND:                -0.333
REMARK SMILES C=CCCCCCCC(=O)[O-]
REMARK SMILES IDX 6 1 7 2 8 3 9 4 10 5 11 6 5 7 4 8 3 9 2 10 1 11
REMARK H PARENT
REMARK Flexibility Score: inf
ROOT
ATOM      1  C   UNL     1      -1.408  -0.326   7.595  1.00  0.00     0.000 C 
ENDROOT
BRANCH   1   2
ATOM      2  C   UNL     1      -0.319   0.032   8.612  1.00  0.00     0.006 C 
BRANCH   2   3
ATOM      3  C   UNL     1      -0.452  -0.814   9.882  1.00  0.00     0.053 C 
BRANCH   3   4
ATOM      4  C   UNL     1       0.336  -2.078   9.755  1.00  0.00     0.041 C 
ATOM      5  O   UNL     1       1.559  -2.097  10.054  1.00  0.00    -0.550 OA
ATOM      6  O   UNL     1      -0.292  -3.252   9.354  1.00  0.00    -0.550 OA
ENDBRANCH   3   4
ENDBRANCH   2   3
ENDBRANCH   1   2
BRANCH   1   7
ATOM      7  C   UNL     1      -1.132   0.339   6.238  1.00  0.00     0.000 C 
BRANCH   7   8
ATOM      8  C   UNL     1      -1.419  -0.596   5.052  1.00  0.00     0.004 C 
BRANCH   8   9
ATOM      9  C   UNL     1      -1.302  -2.082   5.428  1.00  0.00     0.027 C 
BRANCH   9  10
ATOM     10  C   UNL     1      -1.667  -2.965   4.267  1.00  0.00    -0.035 C 
ATOM     11  C   UNL     1      -1.320  -2.658   3.014  1.00  0.00     0.004 C 
ENDBRANCH   9  10
ENDBRANCH   8   9
ENDBRANCH   7   8
ENDBRANCH   1   7
TORSDOF 7
ENDMDL
MODEL 3
REMARK VINA RESULT:    -4.137      4.304      4.965
REMARK INTER + INTRA:          -6.164
REMARK INTER:                  -5.605
REMARK INTRA:                  -0.558
REMARK UNBOUND:                -0.333
REMARK SMILES C=CCCCCCCC(=O)[O-]
REMARK SMILES IDX 6 1 7 2 8 3 9 4 10 5 11 6 5 7 4 8 3 9 2 10 1 11
REMARK H PARENT
REMARK Flexibility Score: inf
ROOT
ATOM      1  C   UNL     1       0.161  -5.885   6.925  1.00  0.00     0.000 C 
ENDROOT
BRANCH   1   2
ATOM      2  C   UNL     1      -0.626  -7.200   6.913  1.00  0.00     0.006 C 
BRANCH   2   3
ATOM      3  C   UNL     1      -1.644  -7.242   8.057  1.00  0.00     0.053 C 
BRANCH   3   4
ATOM      4  C   UNL     1      -2.418  -8.521   8.023  1.00  0.00     0.041 C 
ATOM      5  O   UNL     1      -3.646  -8.528   8.301  1.00  0.00    -0.550 OA
ATOM      6  O   UNL     1      -1.794  -9.702   7.634  1.00  0.00    -0.550 OA
ENDBRANCH   3   4
ENDBRANCH   2   3
ENDBRANCH   1   2
BRANCH   1   7
ATOM      7  C   UNL     1      -0.440  -4.894   7.934  1.00  0.00     0.000 C 
BRANCH   7   8
ATOM      8  C   UNL     1       0.603  -4.354   8.925  1.00  0.00     0.004 C 
BRANCH   8   9
ATOM      9  C   UNL     1       1.221  -5.459   9.795  1.00  0.00     0.027 C 
BRANCH   9  10
ATOM     10  C   UNL     1       2.723  -5.417   9.740  1.00  0.00    -0.035 C 
ATOM     11  C   UNL     1       3.380  -5.247   8.589  1.00  0.00     0.004 C 
ENDBRANCH   9  10
ENDBRANCH   8   9
ENDBRANCH   7   8
ENDBRANCH   1   7
TORSDOF 7
ENDMDL
MODEL 4
REMARK VINA RESULT:    -4.109      4.281      5.284
REMARK INTER + INTRA:          -6.124
REMARK INTER:                  -5.747
REMARK INTRA:                  -0.377
REMARK UNBOUND:                -0.333
REMARK SMILES C=CCCCCCCC(=O)[O-]
REMARK SMILES IDX 6 1 7 2 8 3 9 4 10 5 11 6 5 7 4 8 3 9 2 10 1 11
REMARK H PARENT
REMARK Flexibility Score: inf
ROOT
ATOM      1  C   UNL     1      -0.750  -7.106   7.067  1.00  0.00     0.000 C 
ENDROOT
BRANCH   1   2
ATOM      2  C   UNL     1      -1.796  -7.267   8.175  1.00  0.00     0.006 C 
BRANCH   2   3
ATOM      3  C   UNL     1      -2.452  -8.650   8.116  1.00  0.00     0.053 C 
BRANCH   3   4
ATOM      4  C   UNL     1      -3.940  -8.530   8.202  1.00  0.00     0.041 C 
ATOM      5  O   UNL     1      -4.613  -9.397   8.819  1.00  0.00    -0.550 OA
ATOM      6  O   UNL     1      -4.583  -7.431   7.642  1.00  0.00    -0.550 OA
ENDBRANCH   3   4
ENDBRANCH   2   3
ENDBRANCH   1   2
BRANCH   1   7
ATOM      7  C   UNL     1      -0.056  -5.738   7.163  1.00  0.00     0.000 C 
BRANCH   7   8
ATOM      8  C   UNL     1      -0.280  -5.055   8.521  1.00  0.00     0.004 C 
BRANCH   8   9
ATOM      9  C   UNL     1       0.983  -4.355   9.048  1.00  0.00     0.027 C 
BRANCH   9  10
ATOM     10  C   UNL     1       2.089  -5.344   9.295  1.00  0.00    -0.035 C 
ATOM     11  C   UNL     1       3.236  -5.300   8.610  1.00  0.00     0.004 C 
ENDBRANCH   9  10
ENDBRANCH   8   9
ENDBRANCH   7   8
ENDBRANCH   1   7
TORSDOF 7
ENDMDL
MODEL 5
REMARK VINA RESULT:    -4.095      1.637      2.902
REMARK INTER + INTRA:          -6.103
REMARK INTER:                  -5.776
REMARK INTRA:                  -0.327
REMARK UNBOUND:                -0.333
REMARK SMILES C=CCCCCCCC(=O)[O-]
REMARK SMILES IDX 6 1 7 2 8 3 9 4 10 5 11 6 5 7 4 8 3 9 2 10 1 11
REMARK H PARENT
REMARK Flexibility Score: inf
ROOT
ATOM      1  C   UNL     1      -0.653  -3.785   7.126  1.00  0.00     0.000 C 
ENDROOT
BRANCH   1   2
ATOM      2  C   UNL     1      -1.098  -2.632   6.219  1.00  0.00     0.006 C 
BRANCH   2   3
ATOM      3  C   UNL     1      -1.743  -3.159   4.934  1.00  0.00     0.053 C 
BRANCH   3   4
ATOM      4  C   UNL     1      -1.540  -2.193   3.810  1.00  0.00     0.041 C 
ATOM      5  O   UNL     1      -1.228  -2.609   2.664  1.00  0.00    -0.550 OA
ATOM      6  O   UNL     1      -1.746  -0.834   4.017  1.00  0.00    -0.550 OA
ENDBRANCH   3   4
ENDBRANCH   2   3
ENDBRANCH   1   2
BRANCH   1   7
ATOM      7  C   UNL     1      -0.471  -5.079   6.318  1.00  0.00     0.000 C 
BRANCH   7   8
ATOM      8  C   UNL     1       0.042  -6.245   7.179  1.00  0.00     0.004 C 
BRANCH   8   9
ATOM      9  C   UNL     1      -0.928  -7.436   7.201  1.00  0.00     0.027 C 
BRANCH   9  10
ATOM     10  C   UNL     1      -1.951  -7.284   8.292  1.00  0.00    -0.035 C 
ATOM     11  C   UNL     1      -3.111  -7.946   8.265  1.00  0.00     0.004 C 
ENDBRANCH   9  10
ENDBRANCH   8   9
ENDBRANCH   7   8
ENDBRANCH   1   7
TORSDOF 7
ENDMDL
MODEL 6
REMARK VINA RESULT:    -3.973      2.602      3.322
REMARK INTER + INTRA:          -5.932
REMARK INTER:                  -5.603
REMARK INTRA:                  -0.329
REMARK UNBOUND:                -0.333
REMARK SMILES C=CCCCCCCC(=O)[O-]
REMARK SMILES IDX 6 1 7 2 8 3 9 4 10 5 11 6 5 7 4 8 3 9 2 10 1 11
REMARK H PARENT
REMARK Flexibility Score: inf
ROOT
ATOM      1  C   UNL     1      -0.309  -0.036   8.695  1.00  0.00     0.000 C 
ENDROOT
BRANCH   1   2
ATOM      2  C   UNL     1      -1.550   0.003   7.796  1.00  0.00     0.006 C 
BRANCH   2   3
ATOM      3  C   UNL     1      -1.170   0.321   6.347  1.00  0.00     0.053 C 
BRANCH   3   4
ATOM      4  C   UNL     1      -1.359  -0.882   5.479  1.00  0.00     0.041 C 
ATOM      5  O   UNL     1      -1.214  -2.039   5.956  1.00  0.00    -0.550 OA
ATOM      6  O   UNL     1      -1.747  -0.729   4.152  1.00  0.00    -0.550 OA
ENDBRANCH   3   4
ENDBRANCH   2   3
ENDBRANCH   1   2
BRANCH   1   7
ATOM      7  C   UNL     1      -0.511  -1.008   9.868  1.00  0.00     0.000 C 
BRANCH   7   8
ATOM      8  C   UNL     1       0.469  -2.191   9.830  1.00  0.00     0.004 C 
BRANCH   8   9
ATOM      9  C   UNL     1      -0.080  -3.391   9.043  1.00  0.00     0.027 C 
BRANCH   9  10
ATOM     10  C   UNL     1       0.656  -4.654   9.394  1.00  0.00    -0.035 C 
ATOM     11  C   UNL     1       1.873  -4.916   8.910  1.00  0.00     0.004 C 
ENDBRANCH   9  10
ENDBRANCH   8   9
ENDBRANCH   7   8
ENDBRANCH   1   7
TORSDOF 7
ENDMDL
MODEL 7
REMARK VINA RESULT:    -3.826      4.510      6.235
REMARK INTER + INTRA:          -5.725
REMARK INTER:                  -5.554
REMARK INTRA:                  -0.171
REMARK UNBOUND:                -0.333
REMARK SMILES C=CCCCCCCC(=O)[O-]
REMARK SMILES IDX 6 1 7 2 8 3 9 4 10 5 11 6 5 7 4 8 3 9 2 10 1 11
REMARK H PARENT
REMARK Flexibility Score: inf
ROOT
ATOM      1  C   UNL     1       3.664  -2.752  10.037  1.00  0.00     0.000 C 
ENDROOT
BRANCH   1   2
ATOM      2  C   UNL     1       3.641  -1.231   9.851  1.00  0.00     0.006 C 
BRANCH   2   3
ATOM      3  C   UNL     1       5.053  -0.683   9.622  1.00  0.00     0.053 C 
BRANCH   3   4
ATOM      4  C   UNL     1       5.082   0.209   8.422  1.00  0.00     0.041 C 
ATOM      5  O   UNL     1       5.526  -0.218   7.324  1.00  0.00    -0.550 OA
ATOM      6  O   UNL     1       4.570   1.500   8.502  1.00  0.00    -0.550 OA
ENDBRANCH   3   4
ENDBRANCH   2   3
ENDBRANCH   1   2
BRANCH   1   7
ATOM      7  C   UNL     1       2.284  -3.361   9.750  1.00  0.00     0.000 C 
BRANCH   7   8
ATOM      8  C   UNL     1       2.370  -4.816   9.263  1.00  0.00     0.004 C 
BRANCH   8   9
ATOM      9  C   UNL     1       0.988  -5.446   9.029  1.00  0.00     0.027 C 
BRANCH   9  10
ATOM     10  C   UNL     1       0.493  -5.169   7.636  1.00  0.00    -0.035 C 
ATOM     11  C   UNL     1      -0.077  -6.120   6.891  1.00  0.00     0.004 C 
ENDBRANCH   9  10
ENDBRANCH   8   9
ENDBRANCH   7   8
ENDBRANCH   1   7
TORSDOF 7
ENDMDL
MODEL 8
REMARK VINA RESULT:    -3.795      4.326      5.993
REMARK INTER + INTRA:          -5.681
REMARK INTER:                  -5.350
REMARK INTRA:                  -0.331
REMARK UNBOUND:                -0.333
REMARK SMILES C=CCCCCCCC(=O)[O-]
REMARK SMILES IDX 6 1 7 2 8 3 9 4 10 5 11 6 5 7 4 8 3 9 2 10 1 11
REMARK H PARENT
REMARK Flexibility Score: inf
ROOT
ATOM      1  C   UNL     1      -0.361  -6.880   6.756  1.00  0.00     0.000 C 
ENDROOT
BRANCH   1   2
ATOM      2  C   UNL     1       0.363  -5.584   7.136  1.00  0.00     0.006 C 
BRANCH   2   3
ATOM      3  C   UNL     1       0.672  -5.545   8.635  1.00  0.00     0.053 C 
BRANCH   3   4
ATOM      4  C   UNL     1       2.012  -4.926   8.879  1.00  0.00     0.041 C 
ATOM      5  O   UNL     1       3.025  -5.338   8.254  1.00  0.00    -0.550 OA
ATOM      6  O   UNL     1       2.134  -3.858   9.760  1.00  0.00    -0.550 OA
ENDBRANCH   3   4
ENDBRANCH   2   3
ENDBRANCH   1   2
BRANCH   1   7
ATOM      7  C   UNL     1      -1.490  -7.190   7.751  1.00  0.00     0.000 C 
BRANCH   7   8
ATOM      8  C   UNL     1      -1.830  -8.688   7.810  1.00  0.00     0.004 C 
BRANCH   8   9
ATOM      9  C   UNL     1      -3.267  -8.951   8.289  1.00  0.00     0.027 C 
BRANCH   9  10
ATOM     10  C   UNL     1      -4.048  -7.670   8.389  1.00  0.00    -0.035 C 
ATOM     11  C   UNL     1      -5.278  -7.556   7.877  1.00  0.00     0.004 C 
ENDBRANCH   9  10
ENDBRANCH   8   9
ENDBRANCH   7   8
ENDBRANCH   1   7
TORSDOF 7
ENDMDL
MODEL 9
REMARK VINA RESULT:    -3.763      2.575      3.638
REMARK INTER + INTRA:          -5.637
REMARK INTER:                  -5.313
REMARK INTRA:                  -0.324
REMARK UNBOUND:                -0.333
REMARK SMILES C=CCCCCCCC(=O)[O-]
REMARK SMILES IDX 6 1 7 2 8 3 9 4 10 5 11 6 5 7 4 8 3 9 2 10 1 11
REMARK H PARENT
REMARK Flexibility Score: inf
ROOT
ATOM      1  C   UNL     1      -0.159  -1.658   9.996  1.00  0.00     0.000 C 
ENDROOT
BRANCH   1   2
ATOM      2  C   UNL     1       0.059  -0.534   8.977  1.00  0.00     0.006 C 
BRANCH   2   3
ATOM      3  C   UNL     1      -1.256  -0.146   8.296  1.00  0.00     0.053 C 
BRANCH   3   4
ATOM      4  C   UNL     1      -1.183  -0.406   6.825  1.00  0.00     0.041 C 
ATOM      5  O   UNL     1      -1.167  -1.588   6.390  1.00  0.00    -0.550 OA
ATOM      6  O   UNL     1      -1.182   0.657   5.930  1.00  0.00    -0.550 OA
ENDBRANCH   3   4
ENDBRANCH   2   3
ENDBRANCH   1   2
BRANCH   1   7
ATOM      7  C   UNL     1      -0.223  -3.026   9.300  1.00  0.00     0.000 C 
BRANCH   7   8
ATOM      8  C   UNL     1       1.111  -3.786   9.368  1.00  0.00     0.004 C 
BRANCH   8   9
ATOM      9  C   UNL     1       1.028  -5.185   8.737  1.00  0.00     0.027 C 
BRANCH   9  10
ATOM     10  C   UNL     1       0.206  -5.166   7.479  1.00  0.00    -0.035 C 
ATOM     11  C   UNL     1      -0.052  -6.282   6.791  1.00  0.00     0.004 C 
ENDBRANCH   9  10
ENDBRANCH   8   9
ENDBRANCH   7   8
ENDBRANCH   1   7
TORSDOF 7
ENDMDL
