MODEL 1
REMARK VINA RESULT:    -4.042      0.000      0.000
REMARK INTER + INTRA:          -6.422
REMARK INTER:                  -5.933
REMARK INTRA:                  -0.489
REMARK UNBOUND:                -0.489
REMARK SMILES O=C([O-])CCCCCCCC(=O)[O-]
REMARK SMILES IDX 7 1 6 2 5 3 4 4 2 5 1 6 3 7 8 8 9 9 10 10 11 11 12 12 13 13
REMARK H PARENT
REMARK Flexibility Score: inf
ROOT
ATOM      1  C   UNL     1      10.747  39.694   0.632  1.00  0.00     0.000 C 
ENDROOT
BRANCH   1   2
ATOM      2  C   UNL     1      11.007  38.891   1.912  1.00  0.00     0.000 C 
BRANCH   2   3
ATOM      3  C   UNL     1      11.600  39.781   3.010  1.00  0.00     0.006 C 
BRANCH   3   4
ATOM      4  C   UNL     1      12.554  38.987   3.907  1.00  0.00     0.053 C 
BRANCH   4   5
ATOM      5  C   UNL     1      13.806  38.641   3.164  1.00  0.00     0.041 C 
ATOM      6  O   UNL     1      14.110  37.437   2.960  1.00  0.00    -0.550 OA
ATOM      7  O   UNL     1      14.612  39.651   2.655  1.00  0.00    -0.550 OA
ENDBRANCH   4   5
ENDBRANCH   3   4
ENDBRANCH   2   3
ENDBRANCH   1   2
BRANCH   1   8
ATOM      8  C   UNL     1      11.777  40.818   0.468  1.00  0.00     0.000 C 
BRANCH   8   9
ATOM      9  C   UNL     1      11.268  41.894  -0.502  1.00  0.00     0.006 C 
BRANCH   9  10
ATOM     10  C   UNL     1       9.773  41.741  -0.808  1.00  0.00     0.053 C 
BRANCH  10  11
ATOM     11  C   UNL     1       9.170  43.026  -1.289  1.00  0.00     0.041 C 
ATOM     12  O   UNL     1       8.290  43.609  -0.604  1.00  0.00    -0.550 OA
ATOM     13  O   UNL     1       9.606  43.595  -2.479  1.00  0.00    -0.550 OA
ENDBRANCH  10  11
ENDBRANCH   9  10
ENDBRANCH   8   9
ENDBRANCH   1   8
TORSDOF 8
ENDMDL
MODEL 2
REMARK VINA RESULT:    -4.020      2.608      5.958
REMARK INTER + INTRA:          -6.389
REMARK INTER:                  -5.990
REMARK INTRA:                  -0.399
REMARK UNBOUND:                -0.489
REMARK SMILES O=C([O-])CCCCCCCC(=O)[O-]
REMARK SMILES IDX 7 1 6 2 5 3 4 4 2 5 1 6 3 7 8 8 9 9 10 10 11 11 12 12 13 13
REMARK H PARENT
REMARK Flexibility Score: inf
ROOT
ATOM      1  C   UNL     1      11.918  40.812   0.483  1.00  0.00     0.000 C 
ENDROOT
BRANCH   1   2
ATOM      2  C   UNL     1      12.609  42.167   0.288  1.00  0.00     0.000 C 
BRANCH   2   3
ATOM      3  C   UNL     1      11.938  42.971  -0.831  1.00  0.00     0.006 C 
BRANCH   3   4
ATOM      4  C   UNL     1      10.791  42.180  -1.466  1.00  0.00     0.053 C 
BRANCH   4   5
ATOM      5  C   UNL     1       9.567  43.032  -1.580  1.00  0.00     0.041 C 
ATOM      6  O   UNL     1       9.395  43.763  -2.590  1.00  0.00    -0.550 OA
ATOM      7  O   UNL     1       8.591  42.981  -0.593  1.00  0.00    -0.550 OA
ENDBRANCH   4   5
ENDBRANCH   3   4
ENDBRANCH   2   3
ENDBRANCH   1   2
BRANCH   1   8
ATOM      8  C   UNL     1      12.072  40.318   1.927  1.00  0.00     0.000 C 
BRANCH   8   9
ATOM      9  C   UNL     1      11.032  39.235   2.252  1.00  0.00     0.006 C 
BRANCH   9  10
ATOM     10  C   UNL     1      11.039  38.096   1.225  1.00  0.00     0.053 C 
BRANCH  10  11
ATOM     11  C   UNL     1       9.656  37.585   0.954  1.00  0.00     0.041 C 
ATOM     12  O   UNL     1       8.675  38.373   0.972  1.00  0.00    -0.550 OA
ATOM     13  O   UNL     1       9.458  36.245   0.648  1.00  0.00    -0.550 OA
ENDBRANCH  10  11
ENDBRANCH   9  10
ENDBRANCH   8   9
ENDBRANCH   1   8
TORSDOF 8
ENDMDL
MODEL 3
REMARK VINA RESULT:    -4.000      3.087      5.784
REMARK INTER + INTRA:          -6.360
REMARK INTER:                  -5.927
REMARK INTRA:                  -0.433
REMARK UNBOUND:                -0.489
REMARK SMILES O=C([O-])CCCCCCCC(=O)[O-]
REMARK SMILES IDX 7 1 6 2 5 3 4 4 2 5 1 6 3 7 8 8 9 9 10 10 11 11 12 12 13 13
REMARK H PARENT
REMARK Flexibility Score: inf
ROOT
ATOM      1  C   UNL     1      11.848  40.670   0.285  1.00  0.00     0.000 C 
ENDROOT
BRANCH   1   2
ATOM      2  C   UNL     1      10.505  41.284  -0.126  1.00  0.00     0.000 C 
BRANCH   2   3
ATOM      3  C   UNL     1      10.553  41.801  -1.568  1.00  0.00     0.006 C 
BRANCH   3   4
ATOM      4  C   UNL     1      11.736  41.197  -2.329  1.00  0.00     0.053 C 
BRANCH   4   5
ATOM      5  C   UNL     1      12.332  42.208  -3.259  1.00  0.00     0.041 C 
ATOM      6  O   UNL     1      13.540  42.542  -3.141  1.00  0.00    -0.550 OA
ATOM      7  O   UNL     1      11.566  42.743  -4.285  1.00  0.00    -0.550 OA
ENDBRANCH   4   5
ENDBRANCH   3   4
ENDBRANCH   2   3
ENDBRANCH   1   2
BRANCH   1   8
ATOM      8  C   UNL     1      11.914  40.452   1.801  1.00  0.00     0.000 C 
BRANCH   8   9
ATOM      9  C   UNL     1      10.993  39.301   2.233  1.00  0.00     0.006 C 
BRANCH   9  10
ATOM     10  C   UNL     1      11.054  38.113   1.265  1.00  0.00     0.053 C 
BRANCH  10  11
ATOM     11  C   UNL     1       9.690  37.568   0.969  1.00  0.00     0.041 C 
ATOM     12  O   UNL     1       8.688  38.330   0.972  1.00  0.00    -0.550 OA
ATOM     13  O   UNL     1       9.532  36.223   0.659  1.00  0.00    -0.550 OA
ENDBRANCH  10  11
ENDBRANCH   9  10
ENDBRANCH   8   9
ENDBRANCH   1   8
TORSDOF 8
ENDMDL
MODEL 4
REMARK VINA RESULT:    -3.950      2.637      3.185
REMARK INTER + INTRA:          -6.287
REMARK INTER:                  -5.915
REMARK INTRA:                  -0.372
REMARK UNBOUND:                -0.489
REMARK SMILES O=C([O-])CCCCCCCC(=O)[O-]
REMARK SMILES IDX 7 1 6 2 5 3 4 4 2 5 1 6 3 7 8 8 9 9 10 10 11 11 12 12 13 13
REMARK H PARENT
REMARK Flexibility Score: inf
ROOT
ATOM      1  C   UNL     1      13.105  41.357   0.962  1.00  0.00     0.000 C 
ENDROOT
BRANCH   1   2
ATOM      2  C   UNL     1      12.377  40.455   1.966  1.00  0.00     0.000 C 
BRANCH   2   3
ATOM      3  C   UNL     1      11.093  39.879   1.359  1.00  0.00     0.006 C 
BRANCH   3   4
ATOM      4  C   UNL     1      11.051  38.355   1.507  1.00  0.00     0.053 C 
BRANCH   4   5
ATOM      5  C   UNL     1       9.749  37.815   1.003  1.00  0.00     0.041 C 
ATOM      6  O   UNL     1       8.743  38.566   0.917  1.00  0.00    -0.550 OA
ATOM      7  O   UNL     1       9.662  36.495   0.582  1.00  0.00    -0.550 OA
ENDBRANCH   4   5
ENDBRANCH   3   4
ENDBRANCH   2   3
ENDBRANCH   1   2
BRANCH   1   8
ATOM      8  C   UNL     1      12.107  42.117   0.080  1.00  0.00     0.000 C 
BRANCH   8   9
ATOM      9  C   UNL     1      12.371  41.848  -1.408  1.00  0.00     0.006 C 
BRANCH   9  10
ATOM     10  C   UNL     1      11.084  41.519  -2.176  1.00  0.00     0.053 C 
BRANCH  10  11
ATOM     11  C   UNL     1       9.926  42.339  -1.695  1.00  0.00     0.041 C 
ATOM     12  O   UNL     1       9.080  41.839  -0.908  1.00  0.00    -0.550 OA
ATOM     13  O   UNL     1       9.800  43.664  -2.091  1.00  0.00    -0.550 OA
ENDBRANCH  10  11
ENDBRANCH   9  10
ENDBRANCH   8   9
ENDBRANCH   1   8
TORSDOF 8
ENDMDL
MODEL 5
REMARK VINA RESULT:    -3.884      0.426      6.539
REMARK INTER + INTRA:          -6.189
REMARK INTER:                  -5.780
REMARK INTRA:                  -0.409
REMARK UNBOUND:                -0.489
REMARK SMILES O=C([O-])CCCCCCCC(=O)[O-]
REMARK SMILES IDX 7 1 6 2 5 3 4 4 2 5 1 6 3 7 8 8 9 9 10 10 11 11 12 12 13 13
REMARK H PARENT
REMARK Flexibility Score: inf
ROOT
ATOM      1  C   UNL     1      10.399  39.707   0.630  1.00  0.00     0.000 C 
ENDROOT
BRANCH   1   2
ATOM      2  C   UNL     1      11.513  40.510  -0.053  1.00  0.00     0.000 C 
BRANCH   2   3
ATOM      3  C   UNL     1      11.015  41.898  -0.473  1.00  0.00     0.006 C 
BRANCH   3   4
ATOM      4  C   UNL     1       9.541  41.851  -0.886  1.00  0.00     0.053 C 
BRANCH   4   5
ATOM      5  C   UNL     1       9.080  43.200  -1.339  1.00  0.00     0.041 C 
ATOM      6  O   UNL     1       9.441  43.650  -2.458  1.00  0.00    -0.550 OA
ATOM      7  O   UNL     1       8.213  43.940  -0.546  1.00  0.00    -0.550 OA
ENDBRANCH   4   5
ENDBRANCH   3   4
ENDBRANCH   2   3
ENDBRANCH   1   2
BRANCH   1   8
ATOM      8  C   UNL     1      10.960  38.841   1.765  1.00  0.00     0.000 C 
BRANCH   8   9
ATOM      9  C   UNL     1      11.627  39.709   2.842  1.00  0.00     0.006 C 
BRANCH   9  10
ATOM     10  C   UNL     1      12.654  38.923   3.668  1.00  0.00     0.053 C 
BRANCH  10  11
ATOM     11  C   UNL     1      14.025  39.001   3.067  1.00  0.00     0.041 C 
ATOM     12  O   UNL     1      14.398  40.045   2.473  1.00  0.00    -0.550 OA
ATOM     13  O   UNL     1      14.899  37.929   3.193  1.00  0.00    -0.550 OA
ENDBRANCH  10  11
ENDBRANCH   9  10
ENDBRANCH   8   9
ENDBRANCH   1   8
TORSDOF 8
ENDMDL
MODEL 6
REMARK VINA RESULT:    -3.825      9.602     11.489
REMARK INTER + INTRA:          -6.103
REMARK INTER:                  -5.574
REMARK INTRA:                  -0.529
REMARK UNBOUND:                -0.489
REMARK SMILES O=C([O-])CCCCCCCC(=O)[O-]
REMARK SMILES IDX 7 1 6 2 5 3 4 4 2 5 1 6 3 7 8 8 9 9 10 10 11 11 12 12 13 13
REMARK H PARENT
REMARK Flexibility Score: inf
ROOT
ATOM      1  C   UNL     1       4.837  35.495  -5.178  1.00  0.00     0.000 C 
ENDROOT
BRANCH   1   2
ATOM      2  C   UNL     1       4.440  36.808  -4.493  1.00  0.00     0.000 C 
BRANCH   2   3
ATOM      3  C   UNL     1       5.273  37.980  -5.026  1.00  0.00     0.006 C 
BRANCH   3   4
ATOM      4  C   UNL     1       5.386  37.927  -6.552  1.00  0.00     0.053 C 
BRANCH   4   5
ATOM      5  C   UNL     1       5.944  39.210  -7.082  1.00  0.00     0.041 C 
ATOM      6  O   UNL     1       7.188  39.363  -7.190  1.00  0.00    -0.550 OA
ATOM      7  O   UNL     1       5.086  40.218  -7.501  1.00  0.00    -0.550 OA
ENDBRANCH   4   5
ENDBRANCH   3   4
ENDBRANCH   2   3
ENDBRANCH   1   2
BRANCH   1   8
ATOM      8  C   UNL     1       5.687  34.623  -4.245  1.00  0.00     0.000 C 
BRANCH   8   9
ATOM      9  C   UNL     1       6.799  33.905  -5.024  1.00  0.00     0.006 C 
BRANCH   9  10
ATOM     10  C   UNL     1       6.967  34.462  -6.443  1.00  0.00     0.053 C 
BRANCH  10  11
ATOM     11  C   UNL     1       7.143  33.367  -7.451  1.00  0.00     0.041 C 
ATOM     12  O   UNL     1       7.297  33.645  -8.669  1.00  0.00    -0.550 OA
ATOM     13  O   UNL     1       7.169  32.041  -7.039  1.00  0.00    -0.550 OA
ENDBRANCH  10  11
ENDBRANCH   9  10
ENDBRANCH   8   9
ENDBRANCH   1   8
TORSDOF 8
ENDMDL
MODEL 7
REMARK VINA RESULT:    -3.791      9.692     11.940
REMARK INTER + INTRA:          -6.053
REMARK INTER:                  -5.306
REMARK INTRA:                  -0.748
REMARK UNBOUND:                -0.489
REMARK SMILES O=C([O-])CCCCCCCC(=O)[O-]
REMARK SMILES IDX 7 1 6 2 5 3 4 4 2 5 1 6 3 7 8 8 9 9 10 10 11 11 12 12 13 13
REMARK H PARENT
REMARK Flexibility Score: inf
ROOT
ATOM      1  C   UNL     1       6.093  38.185  -6.310  1.00  0.00     0.000 C 
ENDROOT
BRANCH   1   2
ATOM      2  C   UNL     1       5.784  39.415  -7.171  1.00  0.00     0.000 C 
BRANCH   2   3
ATOM      3  C   UNL     1       4.300  39.790  -7.083  1.00  0.00     0.006 C 
BRANCH   3   4
ATOM      4  C   UNL     1       3.466  38.971  -8.072  1.00  0.00     0.053 C 
BRANCH   4   5
ATOM      5  C   UNL     1       2.514  38.077  -7.340  1.00  0.00     0.041 C 
ATOM      6  O   UNL     1       1.971  38.468  -6.274  1.00  0.00    -0.550 OA
ATOM      7  O   UNL     1       2.190  36.833  -7.863  1.00  0.00    -0.550 OA
ENDBRANCH   4   5
ENDBRANCH   3   4
ENDBRANCH   2   3
ENDBRANCH   1   2
BRANCH   1   8
ATOM      8  C   UNL     1       5.363  38.256  -4.964  1.00  0.00     0.000 C 
BRANCH   8   9
ATOM      9  C   UNL     1       4.819  36.878  -4.558  1.00  0.00     0.006 C 
BRANCH   9  10
ATOM     10  C   UNL     1       5.130  35.800  -5.603  1.00  0.00     0.053 C 
BRANCH  10  11
ATOM     11  C   UNL     1       6.129  34.805  -5.094  1.00  0.00     0.041 C 
ATOM     12  O   UNL     1       7.069  34.416  -5.835  1.00  0.00    -0.550 OA
ATOM     13  O   UNL     1       6.038  34.335  -3.790  1.00  0.00    -0.550 OA
ENDBRANCH  10  11
ENDBRANCH   9  10
ENDBRANCH   8   9
ENDBRANCH   1   8
TORSDOF 8
ENDMDL
MODEL 8
REMARK VINA RESULT:    -3.784      9.637     10.899
REMARK INTER + INTRA:          -6.042
REMARK INTER:                  -5.658
REMARK INTRA:                  -0.384
REMARK UNBOUND:                -0.489
REMARK SMILES O=C([O-])CCCCCCCC(=O)[O-]
REMARK SMILES IDX 7 1 6 2 5 3 4 4 2 5 1 6 3 7 8 8 9 9 10 10 11 11 12 12 13 13
REMARK H PARENT
REMARK Flexibility Score: inf
ROOT
ATOM      1  C   UNL     1       5.057  36.071  -6.244  1.00  0.00     0.000 C 
ENDROOT
BRANCH   1   2
ATOM      2  C   UNL     1       6.493  35.858  -6.737  1.00  0.00     0.000 C 
BRANCH   2   3
ATOM      3  C   UNL     1       6.920  34.394  -6.577  1.00  0.00     0.006 C 
BRANCH   3   4
ATOM      4  C   UNL     1       6.915  33.669  -7.925  1.00  0.00     0.053 C 
BRANCH   4   5
ATOM      5  C   UNL     1       7.618  32.353  -7.815  1.00  0.00     0.041 C 
ATOM      6  O   UNL     1       7.169  31.456  -7.054  1.00  0.00    -0.550 OA
ATOM      7  O   UNL     1       8.741  32.099  -8.591  1.00  0.00    -0.550 OA
ENDBRANCH   4   5
ENDBRANCH   3   4
ENDBRANCH   2   3
ENDBRANCH   1   2
BRANCH   1   8
ATOM      8  C   UNL     1       5.041  36.681  -4.838  1.00  0.00     0.000 C 
BRANCH   8   9
ATOM      9  C   UNL     1       5.275  38.198  -4.893  1.00  0.00     0.006 C 
BRANCH   9  10
ATOM     10  C   UNL     1       4.337  38.895  -5.886  1.00  0.00     0.053 C 
BRANCH  10  11
ATOM     11  C   UNL     1       5.098  39.670  -6.918  1.00  0.00     0.041 C 
ATOM     12  O   UNL     1       4.535  40.596  -7.558  1.00  0.00    -0.550 OA
ATOM     13  O   UNL     1       6.438  39.389  -7.149  1.00  0.00    -0.550 OA
ENDBRANCH  10  11
ENDBRANCH   9  10
ENDBRANCH   8   9
ENDBRANCH   1   8
TORSDOF 8
ENDMDL
MODEL 9
REMARK VINA RESULT:    -3.736      9.519     11.675
REMARK INTER + INTRA:          -5.973
REMARK INTER:                  -5.437
REMARK INTRA:                  -0.536
REMARK UNBOUND:                -0.489
REMARK SMILES O=C([O-])CCCCCCCC(=O)[O-]
REMARK SMILES IDX 7 1 6 2 5 3 4 4 2 5 1 6 3 7 8 8 9 9 10 10 11 11 12 12 13 13
REMARK H PARENT
REMARK Flexibility Score: inf
ROOT
ATOM      1  C   UNL     1       6.105  36.602  -6.749  1.00  0.00     0.000 C 
ENDROOT
BRANCH   1   2
ATOM      2  C   UNL     1       5.309  37.098  -5.536  1.00  0.00     0.000 C 
BRANCH   2   3
ATOM      3  C   UNL     1       5.325  38.630  -5.456  1.00  0.00     0.006 C 
BRANCH   3   4
ATOM      4  C   UNL     1       5.593  39.249  -6.831  1.00  0.00     0.053 C 
BRANCH   4   5
ATOM      5  C   UNL     1       4.356  39.902  -7.362  1.00  0.00     0.041 C 
ATOM      6  O   UNL     1       3.296  39.236  -7.495  1.00  0.00    -0.550 OA
ATOM      7  O   UNL     1       4.362  41.257  -7.665  1.00  0.00    -0.550 OA
ENDBRANCH   4   5
ENDBRANCH   3   4
ENDBRANCH   2   3
ENDBRANCH   1   2
BRANCH   1   8
ATOM      8  C   UNL     1       5.897  35.098  -6.966  1.00  0.00     0.000 C 
BRANCH   8   9
ATOM      9  C   UNL     1       7.025  34.286  -6.314  1.00  0.00     0.006 C 
BRANCH   9  10
ATOM     10  C   UNL     1       6.489  33.164  -5.416  1.00  0.00     0.053 C 
BRANCH  10  11
ATOM     11  C   UNL     1       5.741  33.707  -4.237  1.00  0.00     0.041 C 
ATOM     12  O   UNL     1       6.345  34.367  -3.352  1.00  0.00    -0.550 OA
ATOM     13  O   UNL     1       4.370  33.511  -4.135  1.00  0.00    -0.550 OA
ENDBRANCH  10  11
ENDBRANCH   9  10
ENDBRANCH   8   9
ENDBRANCH   1   8
TORSDOF 8
ENDMDL
