MODEL 1
REMARK VINA RESULT:    -6.547      0.000      0.000
REMARK INTER + INTRA:          -8.194
REMARK INTER:                  -7.887
REMARK INTRA:                  -0.307
REMARK UNBOUND:                -0.307
REMARK SMILES O=c1c(O)c(-c2ccc(O)c(O)c2)oc2cc(O)cc(O)c12
REMARK SMILES IDX 5 1 3 2 2 3 1 4 22 5 20 6 19 7 17 8 16 9 15 10 14 11 6 12
REMARK SMILES IDX 7 13 8 14 9 15 13 16 11 17 10 18 12 20 4 22 21 24 18 26
REMARK H PARENT 10 19 12 21 4 23 21 25 18 27
REMARK Flexibility Score: inf
ROOT
ATOM      1  C   UNL     1     -44.669 -50.725   8.173  1.00  0.00     0.180 A 
ATOM      2  C   UNL     1     -45.303 -51.847   8.735  1.00  0.00     0.208 A 
ATOM      3  C   UNL     1     -44.598 -52.637   9.656  1.00  0.00     0.238 A 
ATOM      4  O   UNL     1     -45.189 -53.609  10.197  1.00  0.00    -0.285 OA
ATOM      5  C   UNL     1     -43.263 -52.307   9.991  1.00  0.00     0.111 A 
ATOM      6  C   UNL     1     -42.439 -53.060  10.881  1.00  0.00     0.134 A 
ATOM      7  C   UNL     1     -41.179 -52.568  11.241  1.00  0.00     0.093 A 
ATOM      8  C   UNL     1     -40.686 -51.381  10.691  1.00  0.00     0.123 A 
ATOM      9  C   UNL     1     -41.457 -50.670   9.776  1.00  0.00     0.094 A 
ATOM     10  C   UNL     1     -42.733 -51.117   9.425  1.00  0.00     0.146 A 
ATOM     11  O   UNL     1     -43.440 -50.403   8.557  1.00  0.00    -0.452 OA
ENDROOT
BRANCH   1  12
ATOM     12  C   UNL     1     -45.340 -49.858   7.177  1.00  0.00     0.025 A 
ATOM     13  C   UNL     1     -46.181 -48.824   7.616  1.00  0.00     0.016 A 
ATOM     14  C   UNL     1     -46.808 -47.982   6.694  1.00  0.00     0.051 A 
ATOM     15  C   UNL     1     -46.590 -48.148   5.323  1.00  0.00     0.157 A 
ATOM     16  C   UNL     1     -45.105 -50.010   5.798  1.00  0.00     0.062 A 
ATOM     17  C   UNL     1     -45.731 -49.163   4.871  1.00  0.00     0.158 A 
BRANCH  15  18
ATOM     18  O   UNL     1     -47.230 -47.292   4.427  1.00  0.00    -0.504 OA
ATOM     19  H   UNL     1     -47.190 -47.435   3.425  1.00  0.00     0.293 HD
ENDBRANCH  15  18
BRANCH  17  20
ATOM     20  O   UNL     1     -45.499 -49.325   3.506  1.00  0.00    -0.504 OA
ATOM     21  H   UNL     1     -44.662 -49.780   3.160  1.00  0.00     0.293 HD
ENDBRANCH  17  20
ENDBRANCH   1  12
BRANCH   2  22
ATOM     22  O   UNL     1     -46.629 -52.142   8.407  1.00  0.00    -0.502 OA
ATOM     23  H   UNL     1     -46.875 -52.781   7.659  1.00  0.00     0.293 HD
ENDBRANCH   2  22
BRANCH   6  24
ATOM     24  O   UNL     1     -42.799 -54.302  11.414  1.00  0.00    -0.507 OA
ATOM     25  H   UNL     1     -42.438 -55.189  11.098  1.00  0.00     0.293 HD
ENDBRANCH   6  24
BRANCH   8  26
ATOM     26  O   UNL     1     -39.424 -50.906  11.042  1.00  0.00    -0.508 OA
ATOM     27  H   UNL     1     -39.292 -49.968  11.404  1.00  0.00     0.293 HD
ENDBRANCH   8  26
TORSDOF 6
ENDMDL
MODEL 2
REMARK VINA RESULT:    -6.264      5.077      7.035
REMARK INTER + INTRA:          -7.853
REMARK INTER:                  -7.533
REMARK INTRA:                  -0.320
REMARK UNBOUND:                -0.307
REMARK SMILES O=c1c(O)c(-c2ccc(O)c(O)c2)oc2cc(O)cc(O)c12
REMARK SMILES IDX 5 1 3 2 2 3 1 4 22 5 20 6 19 7 17 8 16 9 15 10 14 11 6 12
REMARK SMILES IDX 7 13 8 14 9 15 13 16 11 17 10 18 12 20 4 22 21 24 18 26
REMARK H PARENT 10 19 12 21 4 23 21 25 18 27
REMARK Flexibility Score: inf
ROOT
ATOM      1  C   UNL     1     -45.621 -48.203  11.640  1.00  0.00     0.180 A 
ATOM      2  C   UNL     1     -45.908 -47.637  10.386  1.00  0.00     0.208 A 
ATOM      3  C   UNL     1     -45.931 -48.466   9.253  1.00  0.00     0.238 A 
ATOM      4  O   UNL     1     -46.241 -47.963   8.142  1.00  0.00    -0.285 OA
ATOM      5  C   UNL     1     -45.650 -49.847   9.386  1.00  0.00     0.111 A 
ATOM      6  C   UNL     1     -45.605 -50.774   8.301  1.00  0.00     0.134 A 
ATOM      7  C   UNL     1     -45.447 -52.140   8.565  1.00  0.00     0.093 A 
ATOM      8  C   UNL     1     -45.267 -52.605   9.870  1.00  0.00     0.123 A 
ATOM      9  C   UNL     1     -45.249 -51.702  10.930  1.00  0.00     0.094 A 
ATOM     10  C   UNL     1     -45.440 -50.337  10.702  1.00  0.00     0.146 A 
ATOM     11  O   UNL     1     -45.427 -49.513  11.741  1.00  0.00    -0.452 OA
ENDROOT
BRANCH   1  12
ATOM     12  C   UNL     1     -45.555 -47.389  12.875  1.00  0.00     0.025 A 
ATOM     13  C   UNL     1     -44.361 -46.731  13.207  1.00  0.00     0.016 A 
ATOM     14  C   UNL     1     -44.283 -45.941  14.357  1.00  0.00     0.051 A 
ATOM     15  C   UNL     1     -45.400 -45.783  15.183  1.00  0.00     0.157 A 
ATOM     16  C   UNL     1     -46.684 -47.212  13.696  1.00  0.00     0.062 A 
ATOM     17  C   UNL     1     -46.608 -46.417  14.850  1.00  0.00     0.158 A 
BRANCH  15  18
ATOM     18  O   UNL     1     -45.291 -44.991  16.325  1.00  0.00    -0.504 OA
ATOM     19  H   UNL     1     -44.826 -44.091  16.313  1.00  0.00     0.293 HD
ENDBRANCH  15  18
BRANCH  17  20
ATOM     20  O   UNL     1     -47.729 -46.253  15.662  1.00  0.00    -0.504 OA
ATOM     21  H   UNL     1     -48.503 -46.908  15.638  1.00  0.00     0.293 HD
ENDBRANCH  17  20
ENDBRANCH   1  12
BRANCH   2  22
ATOM     22  O   UNL     1     -46.204 -46.275  10.281  1.00  0.00    -0.502 OA
ATOM     23  H   UNL     1     -47.079 -45.937   9.898  1.00  0.00     0.293 HD
ENDBRANCH   2  22
BRANCH   6  24
ATOM     24  O   UNL     1     -45.683 -50.403   6.955  1.00  0.00    -0.507 OA
ATOM     25  H   UNL     1     -44.892 -50.328   6.333  1.00  0.00     0.293 HD
ENDBRANCH   6  24
BRANCH   8  26
ATOM     26  O   UNL     1     -45.094 -53.964  10.122  1.00  0.00    -0.508 OA
ATOM     27  H   UNL     1     -45.200 -54.348  11.055  1.00  0.00     0.293 HD
ENDBRANCH   8  26
TORSDOF 6
ENDMDL
MODEL 3
REMARK VINA RESULT:    -6.197      1.270      2.806
REMARK INTER + INTRA:          -7.772
REMARK INTER:                  -7.574
REMARK INTRA:                  -0.197
REMARK UNBOUND:                -0.307
REMARK SMILES O=c1c(O)c(-c2ccc(O)c(O)c2)oc2cc(O)cc(O)c12
REMARK SMILES IDX 5 1 3 2 2 3 1 4 22 5 20 6 19 7 17 8 16 9 15 10 14 11 6 12
REMARK SMILES IDX 7 13 8 14 9 15 13 16 11 17 10 18 12 20 4 22 21 24 18 26
REMARK H PARENT 10 19 12 21 4 23 21 25 18 27
REMARK Flexibility Score: inf
ROOT
ATOM      1  C   UNL     1     -44.086 -50.329   7.967  1.00  0.00     0.180 A 
ATOM      2  C   UNL     1     -42.683 -50.251   7.928  1.00  0.00     0.208 A 
ATOM      3  C   UNL     1     -41.935 -50.983   8.863  1.00  0.00     0.238 A 
ATOM      4  O   UNL     1     -40.678 -50.952   8.789  1.00  0.00    -0.285 OA
ATOM      5  C   UNL     1     -42.598 -51.771   9.835  1.00  0.00     0.111 A 
ATOM      6  C   UNL     1     -41.941 -52.522  10.856  1.00  0.00     0.134 A 
ATOM      7  C   UNL     1     -42.691 -53.368  11.681  1.00  0.00     0.093 A 
ATOM      8  C   UNL     1     -44.081 -53.441  11.565  1.00  0.00     0.123 A 
ATOM      9  C   UNL     1     -44.737 -52.667  10.612  1.00  0.00     0.094 A 
ATOM     10  C   UNL     1     -44.013 -51.840   9.750  1.00  0.00     0.146 A 
ATOM     11  O   UNL     1     -44.677 -51.128   8.848  1.00  0.00    -0.452 OA
ENDROOT
BRANCH   1  12
ATOM     12  C   UNL     1     -44.944 -49.567   7.030  1.00  0.00     0.025 A 
ATOM     13  C   UNL     1     -45.692 -48.479   7.507  1.00  0.00     0.016 A 
ATOM     14  C   UNL     1     -46.492 -47.734   6.636  1.00  0.00     0.051 A 
ATOM     15  C   UNL     1     -46.543 -48.053   5.276  1.00  0.00     0.157 A 
ATOM     16  C   UNL     1     -44.980 -49.872   5.658  1.00  0.00     0.062 A 
ATOM     17  C   UNL     1     -45.780 -49.124   4.781  1.00  0.00     0.158 A 
BRANCH  15  18
ATOM     18  O   UNL     1     -47.351 -47.292   4.432  1.00  0.00    -0.504 OA
ATOM     19  H   UNL     1     -47.110 -46.345   4.165  1.00  0.00     0.293 HD
ENDBRANCH  15  18
BRANCH  17  20
ATOM     20  O   UNL     1     -45.816 -49.438   3.424  1.00  0.00    -0.504 OA
ATOM     21  H   UNL     1     -45.249 -48.938   2.748  1.00  0.00     0.293 HD
ENDBRANCH  17  20
ENDBRANCH   1  12
BRANCH   2  22
ATOM     22  O   UNL     1     -42.049 -49.485   6.946  1.00  0.00    -0.502 OA
ATOM     23  H   UNL     1     -42.547 -48.811   6.377  1.00  0.00     0.293 HD
ENDBRANCH   2  22
BRANCH   6  24
ATOM     24  O   UNL     1     -40.569 -52.451  11.117  1.00  0.00    -0.507 OA
ATOM     25  H   UNL     1     -39.848 -52.480  10.412  1.00  0.00     0.293 HD
ENDBRANCH   6  24
BRANCH   8  26
ATOM     26  O   UNL     1     -44.822 -54.274  12.401  1.00  0.00    -0.508 OA
ATOM     27  H   UNL     1     -44.517 -54.485  13.345  1.00  0.00     0.293 HD
ENDBRANCH   8  26
TORSDOF 6
ENDMDL
MODEL 4
REMARK VINA RESULT:    -6.045      4.489      6.814
REMARK INTER + INTRA:          -7.589
REMARK INTER:                  -7.394
REMARK INTRA:                  -0.194
REMARK UNBOUND:                -0.307
REMARK SMILES O=c1c(O)c(-c2ccc(O)c(O)c2)oc2cc(O)cc(O)c12
REMARK SMILES IDX 5 1 3 2 2 3 1 4 22 5 20 6 19 7 17 8 16 9 15 10 14 11 6 12
REMARK SMILES IDX 7 13 8 14 9 15 13 16 11 17 10 18 12 20 4 22 21 24 18 26
REMARK H PARENT 10 19 12 21 4 23 21 25 18 27
REMARK Flexibility Score: inf
ROOT
ATOM      1  C   UNL     1     -45.476 -49.016  10.560  1.00  0.00     0.180 A 
ATOM      2  C   UNL     1     -45.442 -47.958   9.635  1.00  0.00     0.208 A 
ATOM      3  C   UNL     1     -45.717 -46.655  10.080  1.00  0.00     0.238 A 
ATOM      4  O   UNL     1     -45.631 -45.705   9.259  1.00  0.00    -0.285 OA
ATOM      5  C   UNL     1     -46.039 -46.428  11.440  1.00  0.00     0.111 A 
ATOM      6  C   UNL     1     -46.375 -45.156  11.993  1.00  0.00     0.134 A 
ATOM      7  C   UNL     1     -46.547 -45.027  13.376  1.00  0.00     0.093 A 
ATOM      8  C   UNL     1     -46.461 -46.139  14.219  1.00  0.00     0.123 A 
ATOM      9  C   UNL     1     -46.193 -47.395  13.682  1.00  0.00     0.094 A 
ATOM     10  C   UNL     1     -45.980 -47.549  12.310  1.00  0.00     0.146 A 
ATOM     11  O   UNL     1     -45.717 -48.762  11.841  1.00  0.00    -0.452 OA
ENDROOT
BRANCH   1  12
ATOM     12  C   UNL     1     -45.221 -50.419  10.161  1.00  0.00     0.025 A 
ATOM     13  C   UNL     1     -44.128 -51.106  10.711  1.00  0.00     0.016 A 
ATOM     14  C   UNL     1     -43.881 -52.437  10.364  1.00  0.00     0.051 A 
ATOM     15  C   UNL     1     -44.731 -53.106   9.478  1.00  0.00     0.157 A 
ATOM     16  C   UNL     1     -46.087 -51.100   9.286  1.00  0.00     0.062 A 
ATOM     17  C   UNL     1     -45.842 -52.438   8.939  1.00  0.00     0.158 A 
BRANCH  15  18
ATOM     18  O   UNL     1     -44.458 -54.433   9.149  1.00  0.00    -0.504 OA
ATOM     19  H   UNL     1     -43.844 -55.011   9.710  1.00  0.00     0.293 HD
ENDBRANCH  15  18
BRANCH  17  20
ATOM     20  O   UNL     1     -46.701 -53.103   8.065  1.00  0.00    -0.504 OA
ATOM     21  H   UNL     1     -47.583 -52.696   7.775  1.00  0.00     0.293 HD
ENDBRANCH  17  20
ENDBRANCH   1  12
BRANCH   2  22
ATOM     22  O   UNL     1     -45.100 -48.201   8.302  1.00  0.00    -0.502 OA
ATOM     23  H   UNL     1     -44.886 -49.129   7.956  1.00  0.00     0.293 HD
ENDBRANCH   2  22
BRANCH   6  24
ATOM     24  O   UNL     1     -46.575 -44.002  11.229  1.00  0.00    -0.507 OA
ATOM     25  H   UNL     1     -46.553 -43.969  10.221  1.00  0.00     0.293 HD
ENDBRANCH   6  24
BRANCH   8  26
ATOM     26  O   UNL     1     -46.651 -46.005  15.593  1.00  0.00    -0.508 OA
ATOM     27  H   UNL     1     -46.235 -46.655  16.251  1.00  0.00     0.293 HD
ENDBRANCH   8  26
TORSDOF 6
ENDMDL
MODEL 5
REMARK VINA RESULT:    -5.987      2.593      6.273
REMARK INTER + INTRA:          -7.519
REMARK INTER:                  -7.228
REMARK INTRA:                  -0.291
REMARK UNBOUND:                -0.307
REMARK SMILES O=c1c(O)c(-c2ccc(O)c(O)c2)oc2cc(O)cc(O)c12
REMARK SMILES IDX 5 1 3 2 2 3 1 4 22 5 20 6 19 7 17 8 16 9 15 10 14 11 6 12
REMARK SMILES IDX 7 13 8 14 9 15 13 16 11 17 10 18 12 20 4 22 21 24 18 26
REMARK H PARENT 10 19 12 21 4 23 21 25 18 27
REMARK Flexibility Score: inf
ROOT
ATOM      1  C   UNL     1     -44.857 -51.243   8.708  1.00  0.00     0.180 A 
ATOM      2  C   UNL     1     -45.254 -50.760   9.967  1.00  0.00     0.208 A 
ATOM      3  C   UNL     1     -45.584 -49.402  10.102  1.00  0.00     0.238 A 
ATOM      4  O   UNL     1     -45.991 -48.987  11.219  1.00  0.00    -0.285 OA
ATOM      5  C   UNL     1     -45.498 -48.541   8.982  1.00  0.00     0.111 A 
ATOM      6  C   UNL     1     -45.769 -47.139   9.013  1.00  0.00     0.134 A 
ATOM      7  C   UNL     1     -45.779 -46.411   7.818  1.00  0.00     0.093 A 
ATOM      8  C   UNL     1     -45.463 -47.020   6.601  1.00  0.00     0.123 A 
ATOM      9  C   UNL     1     -45.138 -48.374   6.568  1.00  0.00     0.094 A 
ATOM     10  C   UNL     1     -45.155 -49.135   7.739  1.00  0.00     0.146 A 
ATOM     11  O   UNL     1     -44.850 -50.424   7.662  1.00  0.00    -0.452 OA
ENDROOT
BRANCH   1  12
ATOM     12  C   UNL     1     -44.470 -52.656   8.492  1.00  0.00     0.025 A 
ATOM     13  C   UNL     1     -43.112 -53.010   8.499  1.00  0.00     0.016 A 
ATOM     14  C   UNL     1     -42.726 -54.340   8.318  1.00  0.00     0.051 A 
ATOM     15  C   UNL     1     -43.689 -55.339   8.144  1.00  0.00     0.157 A 
ATOM     16  C   UNL     1     -45.439 -53.664   8.338  1.00  0.00     0.062 A 
ATOM     17  C   UNL     1     -45.053 -55.002   8.159  1.00  0.00     0.158 A 
BRANCH  15  18
ATOM     18  O   UNL     1     -43.274 -56.657   7.964  1.00  0.00    -0.504 OA
ATOM     19  H   UNL     1     -43.241 -57.091   7.049  1.00  0.00     0.293 HD
ENDBRANCH  15  18
BRANCH  17  20
ATOM     20  O   UNL     1     -46.019 -55.994   8.000  1.00  0.00    -0.504 OA
ATOM     21  H   UNL     1     -46.172 -56.705   8.706  1.00  0.00     0.293 HD
ENDBRANCH  17  20
ENDBRANCH   1  12
BRANCH   2  22
ATOM     22  O   UNL     1     -45.353 -51.632  11.055  1.00  0.00    -0.502 OA
ATOM     23  H   UNL     1     -45.880 -52.497  11.011  1.00  0.00     0.293 HD
ENDBRANCH   2  22
BRANCH   6  24
ATOM     24  O   UNL     1     -46.006 -46.417  10.186  1.00  0.00    -0.507 OA
ATOM     25  H   UNL     1     -45.521 -46.562  11.059  1.00  0.00     0.293 HD
ENDBRANCH   6  24
BRANCH   8  26
ATOM     26  O   UNL     1     -45.459 -46.284   5.418  1.00  0.00    -0.508 OA
ATOM     27  H   UNL     1     -45.691 -46.710   4.528  1.00  0.00     0.293 HD
ENDBRANCH   8  26
TORSDOF 6
ENDMDL
MODEL 6
REMARK VINA RESULT:    -5.854      4.138      5.453
REMARK INTER + INTRA:          -7.359
REMARK INTER:                  -7.470
REMARK INTRA:                   0.112
REMARK UNBOUND:                -0.307
REMARK SMILES O=c1c(O)c(-c2ccc(O)c(O)c2)oc2cc(O)cc(O)c12
REMARK SMILES IDX 5 1 3 2 2 3 1 4 22 5 20 6 19 7 17 8 16 9 15 10 14 11 6 12
REMARK SMILES IDX 7 13 8 14 9 15 13 16 11 17 10 18 12 20 4 22 21 24 18 26
REMARK H PARENT 10 19 12 21 4 23 21 25 18 27
REMARK Flexibility Score: inf
ROOT
ATOM      1  C   UNL     1     -45.853 -47.908   9.014  1.00  0.00     0.180 A 
ATOM      2  C   UNL     1     -45.897 -48.887  10.021  1.00  0.00     0.208 A 
ATOM      3  C   UNL     1     -45.919 -48.482  11.365  1.00  0.00     0.238 A 
ATOM      4  O   UNL     1     -46.013 -49.362  12.261  1.00  0.00    -0.285 OA
ATOM      5  C   UNL     1     -45.878 -47.103  11.686  1.00  0.00     0.111 A 
ATOM      6  C   UNL     1     -45.854 -46.580  13.014  1.00  0.00     0.134 A 
ATOM      7  C   UNL     1     -45.948 -45.198  13.213  1.00  0.00     0.093 A 
ATOM      8  C   UNL     1     -45.997 -44.315  12.131  1.00  0.00     0.123 A 
ATOM      9  C   UNL     1     -45.961 -44.813  10.831  1.00  0.00     0.094 A 
ATOM     10  C   UNL     1     -45.905 -46.189  10.600  1.00  0.00     0.146 A 
ATOM     11  O   UNL     1     -45.883 -46.622   9.345  1.00  0.00    -0.452 OA
ENDROOT
BRANCH   1  12
ATOM     12  C   UNL     1     -45.804 -48.258   7.576  1.00  0.00     0.025 A 
ATOM     13  C   UNL     1     -44.960 -49.293   7.145  1.00  0.00     0.016 A 
ATOM     14  C   UNL     1     -44.913 -49.653   5.796  1.00  0.00     0.051 A 
ATOM     15  C   UNL     1     -45.719 -48.998   4.861  1.00  0.00     0.157 A 
ATOM     16  C   UNL     1     -46.629 -47.614   6.637  1.00  0.00     0.062 A 
ATOM     17  C   UNL     1     -46.586 -47.976   5.282  1.00  0.00     0.158 A 
BRANCH  15  18
ATOM     18  O   UNL     1     -45.650 -49.378   3.521  1.00  0.00    -0.504 OA
ATOM     19  H   UNL     1     -44.816 -49.235   2.963  1.00  0.00     0.293 HD
ENDBRANCH  15  18
BRANCH  17  20
ATOM     20  O   UNL     1     -47.402 -47.327   4.357  1.00  0.00    -0.504 OA
ATOM     21  H   UNL     1     -47.698 -46.367   4.492  1.00  0.00     0.293 HD
ENDBRANCH  17  20
ENDBRANCH   1  12
BRANCH   2  22
ATOM     22  O   UNL     1     -45.959 -50.242   9.682  1.00  0.00    -0.502 OA
ATOM     23  H   UNL     1     -46.380 -50.567   8.819  1.00  0.00     0.293 HD
ENDBRANCH   2  22
BRANCH   6  24
ATOM     24  O   UNL     1     -45.714 -47.368  14.160  1.00  0.00    -0.507 OA
ATOM     25  H   UNL     1     -44.939 -47.315  14.803  1.00  0.00     0.293 HD
ENDBRANCH   6  24
BRANCH   8  26
ATOM     26  O   UNL     1     -46.073 -42.940  12.338  1.00  0.00    -0.508 OA
ATOM     27  H   UNL     1     -45.441 -42.463  12.971  1.00  0.00     0.293 HD
ENDBRANCH   8  26
TORSDOF 6
ENDMDL
MODEL 7
REMARK VINA RESULT:    -5.833      2.196      6.842
REMARK INTER + INTRA:          -7.333
REMARK INTER:                  -7.229
REMARK INTRA:                  -0.104
REMARK UNBOUND:                -0.307
REMARK SMILES O=c1c(O)c(-c2ccc(O)c(O)c2)oc2cc(O)cc(O)c12
REMARK SMILES IDX 5 1 3 2 2 3 1 4 22 5 20 6 19 7 17 8 16 9 15 10 14 11 6 12
REMARK SMILES IDX 7 13 8 14 9 15 13 16 11 17 10 18 12 20 4 22 21 24 18 26
REMARK H PARENT 10 19 12 21 4 23 21 25 18 27
REMARK Flexibility Score: inf
ROOT
ATOM      1  C   UNL     1     -44.487 -50.717   8.956  1.00  0.00     0.180 A 
ATOM      2  C   UNL     1     -44.438 -49.316   9.053  1.00  0.00     0.208 A 
ATOM      3  C   UNL     1     -44.435 -48.551   7.876  1.00  0.00     0.238 A 
ATOM      4  O   UNL     1     -44.445 -47.296   7.970  1.00  0.00    -0.285 OA
ATOM      5  C   UNL     1     -44.464 -49.197   6.616  1.00  0.00     0.111 A 
ATOM      6  C   UNL     1     -44.423 -48.524   5.358  1.00  0.00     0.134 A 
ATOM      7  C   UNL     1     -44.590 -49.256   4.177  1.00  0.00     0.093 A 
ATOM      8  C   UNL     1     -44.730 -50.646   4.205  1.00  0.00     0.123 A 
ATOM      9  C   UNL     1     -44.711 -51.318   5.424  1.00  0.00     0.094 A 
ATOM     10  C   UNL     1     -44.583 -50.612   6.622  1.00  0.00     0.146 A 
ATOM     11  O   UNL     1     -44.581 -51.291   7.762  1.00  0.00    -0.452 OA
ENDROOT
BRANCH   1  12
ATOM     12  C   UNL     1     -44.469 -51.591  10.152  1.00  0.00     0.025 A 
ATOM     13  C   UNL     1     -45.510 -51.501  11.089  1.00  0.00     0.016 A 
ATOM     14  C   UNL     1     -45.523 -52.330  12.214  1.00  0.00     0.051 A 
ATOM     15  C   UNL     1     -44.508 -53.272  12.410  1.00  0.00     0.157 A 
ATOM     16  C   UNL     1     -43.461 -52.553  10.340  1.00  0.00     0.062 A 
ATOM     17  C   UNL     1     -43.474 -53.388  11.468  1.00  0.00     0.158 A 
BRANCH  15  18
ATOM     18  O   UNL     1     -44.548 -54.084  13.542  1.00  0.00    -0.504 OA
ATOM     19  H   UNL     1     -43.947 -53.922  14.342  1.00  0.00     0.293 HD
ENDBRANCH  15  18
BRANCH  17  20
ATOM     20  O   UNL     1     -42.466 -54.334  11.650  1.00  0.00    -0.504 OA
ATOM     21  H   UNL     1     -41.496 -54.122  11.448  1.00  0.00     0.293 HD
ENDBRANCH  17  20
ENDBRANCH   1  12
BRANCH   2  22
ATOM     22  O   UNL     1     -44.432 -48.698  10.307  1.00  0.00    -0.502 OA
ATOM     23  H   UNL     1     -44.237 -49.206  11.162  1.00  0.00     0.293 HD
ENDBRANCH   2  22
BRANCH   6  24
ATOM     24  O   UNL     1     -44.196 -47.151   5.215  1.00  0.00    -0.507 OA
ATOM     25  H   UNL     1     -43.382 -46.665   5.558  1.00  0.00     0.293 HD
ENDBRANCH   6  24
BRANCH   8  26
ATOM     26  O   UNL     1     -44.879 -51.369   3.023  1.00  0.00    -0.508 OA
ATOM     27  H   UNL     1     -44.233 -51.260   2.250  1.00  0.00     0.293 HD
ENDBRANCH   8  26
TORSDOF 6
ENDMDL
MODEL 8
REMARK VINA RESULT:    -5.798      2.923      4.958
REMARK INTER + INTRA:          -7.292
REMARK INTER:                  -7.031
REMARK INTRA:                  -0.261
REMARK UNBOUND:                -0.307
REMARK SMILES O=c1c(O)c(-c2ccc(O)c(O)c2)oc2cc(O)cc(O)c12
REMARK SMILES IDX 5 1 3 2 2 3 1 4 22 5 20 6 19 7 17 8 16 9 15 10 14 11 6 12
REMARK SMILES IDX 7 13 8 14 9 15 13 16 11 17 10 18 12 20 4 22 21 24 18 26
REMARK H PARENT 10 19 12 21 4 23 21 25 18 27
REMARK Flexibility Score: inf
ROOT
ATOM      1  C   UNL     1     -44.938 -48.948   6.153  1.00  0.00     0.180 A 
ATOM      2  C   UNL     1     -45.208 -47.610   6.492  1.00  0.00     0.208 A 
ATOM      3  C   UNL     1     -45.506 -47.293   7.826  1.00  0.00     0.238 A 
ATOM      4  O   UNL     1     -45.694 -46.087   8.134  1.00  0.00    -0.285 OA
ATOM      5  C   UNL     1     -45.548 -48.318   8.802  1.00  0.00     0.111 A 
ATOM      6  C   UNL     1     -45.879 -48.117  10.176  1.00  0.00     0.134 A 
ATOM      7  C   UNL     1     -45.761 -49.181  11.078  1.00  0.00     0.093 A 
ATOM      8  C   UNL     1     -45.387 -50.455  10.643  1.00  0.00     0.123 A 
ATOM      9  C   UNL     1     -45.119 -50.675   9.295  1.00  0.00     0.094 A 
ATOM     10  C   UNL     1     -45.193 -49.625   8.377  1.00  0.00     0.146 A 
ATOM     11  O   UNL     1     -44.920 -49.876   7.102  1.00  0.00    -0.452 OA
ENDROOT
BRANCH   1  12
ATOM     12  C   UNL     1     -44.640 -49.364   4.763  1.00  0.00     0.025 A 
ATOM     13  C   UNL     1     -43.367 -49.117   4.227  1.00  0.00     0.016 A 
ATOM     14  C   UNL     1     -43.057 -49.519   2.925  1.00  0.00     0.051 A 
ATOM     15  C   UNL     1     -44.007 -50.187   2.146  1.00  0.00     0.157 A 
ATOM     16  C   UNL     1     -45.587 -50.054   3.986  1.00  0.00     0.062 A 
ATOM     17  C   UNL     1     -45.277 -50.461   2.679  1.00  0.00     0.158 A 
BRANCH  15  18
ATOM     18  O   UNL     1     -43.670 -50.575   0.851  1.00  0.00    -0.504 OA
ATOM     19  H   UNL     1     -43.903 -50.011   0.042  1.00  0.00     0.293 HD
ENDBRANCH  15  18
BRANCH  17  20
ATOM     20  O   UNL     1     -46.225 -51.139   1.914  1.00  0.00    -0.504 OA
ATOM     21  H   UNL     1     -47.006 -50.655   1.486  1.00  0.00     0.293 HD
ENDBRANCH  17  20
ENDBRANCH   1  12
BRANCH   2  22
ATOM     22  O   UNL     1     -45.140 -46.611   5.517  1.00  0.00    -0.502 OA
ATOM     23  H   UNL     1     -44.319 -46.032   5.389  1.00  0.00     0.293 HD
ENDBRANCH   2  22
BRANCH   6  24
ATOM     24  O   UNL     1     -46.352 -46.908  10.696  1.00  0.00    -0.507 OA
ATOM     25  H   UNL     1     -46.991 -46.827  11.472  1.00  0.00     0.293 HD
ENDBRANCH   6  24
BRANCH   8  26
ATOM     26  O   UNL     1     -45.287 -51.513  11.545  1.00  0.00    -0.508 OA
ATOM     27  H   UNL     1     -44.608 -51.506  12.298  1.00  0.00     0.293 HD
ENDBRANCH   8  26
TORSDOF 6
ENDMDL
MODEL 9
REMARK VINA RESULT:    -5.741      1.249      2.012
REMARK INTER + INTRA:          -7.223
REMARK INTER:                  -6.963
REMARK INTRA:                  -0.260
REMARK UNBOUND:                -0.307
REMARK SMILES O=c1c(O)c(-c2ccc(O)c(O)c2)oc2cc(O)cc(O)c12
REMARK SMILES IDX 5 1 3 2 2 3 1 4 22 5 20 6 19 7 17 8 16 9 15 10 14 11 6 12
REMARK SMILES IDX 7 13 8 14 9 15 13 16 11 17 10 18 12 20 4 22 21 24 18 26
REMARK H PARENT 10 19 12 21 4 23 21 25 18 27
REMARK Flexibility Score: inf
ROOT
ATOM      1  C   UNL     1     -43.980 -51.735   7.305  1.00  0.00     0.180 A 
ATOM      2  C   UNL     1     -44.872 -52.437   8.135  1.00  0.00     0.208 A 
ATOM      3  C   UNL     1     -44.392 -52.999   9.328  1.00  0.00     0.238 A 
ATOM      4  O   UNL     1     -45.206 -53.580  10.093  1.00  0.00    -0.285 OA
ATOM      5  C   UNL     1     -43.024 -52.868   9.669  1.00  0.00     0.111 A 
ATOM      6  C   UNL     1     -42.419 -53.433  10.833  1.00  0.00     0.134 A 
ATOM      7  C   UNL     1     -41.087 -53.128  11.136  1.00  0.00     0.093 A 
ATOM      8  C   UNL     1     -40.318 -52.333  10.283  1.00  0.00     0.123 A 
ATOM      9  C   UNL     1     -40.881 -51.827   9.114  1.00  0.00     0.094 A 
ATOM     10  C   UNL     1     -42.218 -52.083   8.803  1.00  0.00     0.146 A 
ATOM     11  O   UNL     1     -42.718 -51.572   7.684  1.00  0.00    -0.452 OA
ENDROOT
BRANCH   1  12
ATOM     12  C   UNL     1     -44.407 -51.135   6.020  1.00  0.00     0.025 A 
ATOM     13  C   UNL     1     -44.090 -51.782   4.816  1.00  0.00     0.016 A 
ATOM     14  C   UNL     1     -44.500 -51.244   3.594  1.00  0.00     0.051 A 
ATOM     15  C   UNL     1     -45.246 -50.062   3.556  1.00  0.00     0.157 A 
ATOM     16  C   UNL     1     -45.175 -49.957   5.982  1.00  0.00     0.062 A 
ATOM     17  C   UNL     1     -45.590 -49.417   4.755  1.00  0.00     0.158 A 
BRANCH  15  18
ATOM     18  O   UNL     1     -45.640 -49.548   2.321  1.00  0.00    -0.504 OA
ATOM     19  H   UNL     1     -46.594 -49.617   1.989  1.00  0.00     0.293 HD
ENDBRANCH  15  18
BRANCH  17  20
ATOM     20  O   UNL     1     -46.346 -48.245   4.726  1.00  0.00    -0.504 OA
ATOM     21  H   UNL     1     -47.150 -48.117   5.329  1.00  0.00     0.293 HD
ENDBRANCH  17  20
ENDBRANCH   1  12
BRANCH   2  22
ATOM     22  O   UNL     1     -46.223 -52.535   7.791  1.00  0.00    -0.502 OA
ATOM     23  H   UNL     1     -46.693 -53.427   7.686  1.00  0.00     0.293 HD
ENDBRANCH   2  22
BRANCH   6  24
ATOM     24  O   UNL     1     -43.072 -54.313  11.701  1.00  0.00    -0.507 OA
ATOM     25  H   UNL     1     -43.052 -55.318  11.623  1.00  0.00     0.293 HD
ENDBRANCH   6  24
BRANCH   8  26
ATOM     26  O   UNL     1     -38.988 -52.048  10.584  1.00  0.00    -0.508 OA
ATOM     27  H   UNL     1     -38.725 -51.203  11.078  1.00  0.00     0.293 HD
ENDBRANCH   8  26
TORSDOF 6
ENDMDL
