MODEL 1
REMARK VINA RESULT:    -3.656      0.000      0.000
REMARK INTER + INTRA:          -4.517
REMARK INTER:                  -4.405
REMARK INTRA:                  -0.113
REMARK UNBOUND:                -0.113
REMARK SMILES CC[C@H](C)[C@@H]([NH3+])C(=O)[O-]
REMARK SMILES IDX 3 1 4 2 5 3 6 4 7 8 8 9 9 10 2 11 1 12
REMARK H PARENT 6 5 6 6 6 7
REMARK Flexibility Score: inf
ROOT
ATOM      1  C   UNL     1      25.105  -5.682  17.847  1.00  0.00     0.050 C 
ATOM      2  C   UNL     1      25.854  -4.392  17.466  1.00  0.00     0.014 C 
ENDROOT
BRANCH   1   3
ATOM      3  C   UNL     1      24.518  -6.360  16.562  1.00  0.00     0.230 C 
BRANCH   3   4
ATOM      4  N   UNL     1      25.482  -6.373  15.451  1.00  0.00    -0.350 N 
ATOM      5  H   UNL     1      25.643  -5.395  15.118  1.00  0.00     0.345 HD
ATOM      6  H   UNL     1      25.144  -6.941  14.646  1.00  0.00     0.345 HD
ATOM      7  H   UNL     1      26.399  -6.755  15.777  1.00  0.00     0.345 HD
ENDBRANCH   3   4
BRANCH   3   8
ATOM      8  C   UNL     1      23.965  -7.741  16.820  1.00  0.00     0.099 C 
ATOM      9  O   UNL     1      24.730  -8.741  16.783  1.00  0.00    -0.544 OA
ATOM     10  O   UNL     1      22.611  -7.929  17.066  1.00  0.00    -0.544 OA
ENDBRANCH   3   8
ENDBRANCH   1   3
BRANCH   1  11
ATOM     11  C   UNL     1      24.079  -5.353  18.967  1.00  0.00     0.006 C 
ATOM     12  C   UNL     1      23.038  -4.304  18.579  1.00  0.00     0.004 C 
ENDBRANCH   1  11
TORSDOF 4
ENDMDL
MODEL 2
REMARK VINA RESULT:    -3.651      2.210      2.714
REMARK INTER + INTRA:          -4.510
REMARK INTER:                  -4.398
REMARK INTRA:                  -0.113
REMARK UNBOUND:                -0.113
REMARK SMILES CC[C@H](C)[C@@H]([NH3+])C(=O)[O-]
REMARK SMILES IDX 3 1 4 2 5 3 6 4 7 8 8 9 9 10 2 11 1 12
REMARK H PARENT 6 5 6 6 6 7
REMARK Flexibility Score: inf
ROOT
ATOM      1  C   UNL     1      24.503  -3.520  16.774  1.00  0.00     0.050 C 
ATOM      2  C   UNL     1      23.067  -2.997  16.957  1.00  0.00     0.014 C 
ENDROOT
BRANCH   1   3
ATOM      3  C   UNL     1      24.510  -5.087  16.808  1.00  0.00     0.230 C 
BRANCH   3   4
ATOM      4  N   UNL     1      25.386  -5.661  15.775  1.00  0.00    -0.350 N 
ATOM      5  H   UNL     1      26.371  -5.682  16.126  1.00  0.00     0.345 HD
ATOM      6  H   UNL     1      25.364  -5.109  14.892  1.00  0.00     0.345 HD
ATOM      7  H   UNL     1      25.099  -6.645  15.569  1.00  0.00     0.345 HD
ENDBRANCH   3   4
BRANCH   3   8
ATOM      8  C   UNL     1      24.834  -5.649  18.172  1.00  0.00     0.099 C 
ATOM      9  O   UNL     1      25.896  -6.303  18.345  1.00  0.00    -0.544 OA
ATOM     10  O   UNL     1      23.956  -5.482  19.235  1.00  0.00    -0.544 OA
ENDBRANCH   3   8
ENDBRANCH   1   3
BRANCH   1  11
ATOM     11  C   UNL     1      25.428  -2.817  17.807  1.00  0.00     0.006 C 
ATOM     12  C   UNL     1      24.714  -1.809  18.707  1.00  0.00     0.004 C 
ENDBRANCH   1  11
TORSDOF 4
ENDMDL
MODEL 3
REMARK VINA RESULT:    -3.625      1.219      1.859
REMARK INTER + INTRA:          -4.479
REMARK INTER:                  -4.399
REMARK INTRA:                  -0.081
REMARK UNBOUND:                -0.113
REMARK SMILES CC[C@H](C)[C@@H]([NH3+])C(=O)[O-]
REMARK SMILES IDX 3 1 4 2 5 3 6 4 7 8 8 9 9 10 2 11 1 12
REMARK H PARENT 6 5 6 6 6 7
REMARK Flexibility Score: inf
ROOT
ATOM      1  C   UNL     1      24.549  -4.749  17.591  1.00  0.00     0.050 C 
ATOM      2  C   UNL     1      25.861  -5.148  18.292  1.00  0.00     0.014 C 
ENDROOT
BRANCH   1   3
ATOM      3  C   UNL     1      24.202  -5.789  16.472  1.00  0.00     0.230 C 
BRANCH   3   4
ATOM      4  N   UNL     1      25.331  -6.018  15.557  1.00  0.00    -0.350 N 
ATOM      5  H   UNL     1      25.989  -6.711  15.982  1.00  0.00     0.345 HD
ATOM      6  H   UNL     1      25.860  -5.142  15.362  1.00  0.00     0.345 HD
ATOM      7  H   UNL     1      24.986  -6.416  14.654  1.00  0.00     0.345 HD
ENDBRANCH   3   4
BRANCH   3   8
ATOM      8  C   UNL     1      23.670  -7.093  17.018  1.00  0.00     0.099 C 
ATOM      9  O   UNL     1      22.559  -7.119  17.609  1.00  0.00    -0.544 OA
ATOM     10  O   UNL     1      24.411  -8.263  16.908  1.00  0.00    -0.544 OA
ENDBRANCH   3   8
ENDBRANCH   1   3
BRANCH   1  11
ATOM     11  C   UNL     1      24.657  -3.269  17.129  1.00  0.00     0.006 C 
ATOM     12  C   UNL     1      24.989  -2.283  18.249  1.00  0.00     0.004 C 
ENDBRANCH   1  11
TORSDOF 4
ENDMDL
MODEL 4
REMARK VINA RESULT:    -3.388      2.181      3.573
REMARK INTER + INTRA:          -4.193
REMARK INTER:                  -4.085
REMARK INTRA:                  -0.108
REMARK UNBOUND:                -0.113
REMARK SMILES CC[C@H](C)[C@@H]([NH3+])C(=O)[O-]
REMARK SMILES IDX 3 1 4 2 5 3 6 4 7 8 8 9 9 10 2 11 1 12
REMARK H PARENT 6 5 6 6 6 7
REMARK Flexibility Score: inf
ROOT
ATOM      1  C   UNL     1      23.598  -7.287  16.944  1.00  0.00     0.050 C 
ATOM      2  C   UNL     1      22.654  -6.413  16.099  1.00  0.00     0.014 C 
ENDROOT
BRANCH   1   3
ATOM      3  C   UNL     1      25.054  -6.710  16.889  1.00  0.00     0.230 C 
BRANCH   3   4
ATOM      4  N   UNL     1      25.469  -6.379  15.517  1.00  0.00    -0.350 N 
ATOM      5  H   UNL     1      26.505  -6.495  15.428  1.00  0.00     0.345 HD
ATOM      6  H   UNL     1      25.226  -5.399  15.261  1.00  0.00     0.345 HD
ATOM      7  H   UNL     1      25.015  -7.032  14.838  1.00  0.00     0.345 HD
ENDBRANCH   3   4
BRANCH   3   8
ATOM      8  C   UNL     1      25.264  -5.540  17.819  1.00  0.00     0.099 C 
ATOM      9  O   UNL     1      26.159  -4.691  17.569  1.00  0.00    -0.544 OA
ATOM     10  O   UNL     1      24.501  -5.405  18.972  1.00  0.00    -0.544 OA
ENDBRANCH   3   8
ENDBRANCH   1   3
BRANCH   1  11
ATOM     11  C   UNL     1      23.440  -8.768  16.501  1.00  0.00     0.006 C 
ATOM     12  C   UNL     1      24.625  -9.664  16.863  1.00  0.00     0.004 C 
ENDBRANCH   1  11
TORSDOF 4
ENDMDL
MODEL 5
REMARK VINA RESULT:    -3.354      2.368      3.054
REMARK INTER + INTRA:          -4.153
REMARK INTER:                  -4.031
REMARK INTRA:                  -0.121
REMARK UNBOUND:                -0.113
REMARK SMILES CC[C@H](C)[C@@H]([NH3+])C(=O)[O-]
REMARK SMILES IDX 3 1 4 2 5 3 6 4 7 8 8 9 9 10 2 11 1 12
REMARK H PARENT 6 5 6 6 6 7
REMARK Flexibility Score: inf
ROOT
ATOM      1  C   UNL     1      24.744  -3.857  18.168  1.00  0.00     0.050 C 
ATOM      2  C   UNL     1      25.904  -4.634  17.520  1.00  0.00     0.014 C 
ENDROOT
BRANCH   1   3
ATOM      3  C   UNL     1      23.376  -4.350  17.582  1.00  0.00     0.230 C 
BRANCH   3   4
ATOM      4  N   UNL     1      23.553  -5.165  16.371  1.00  0.00    -0.350 N 
ATOM      5  H   UNL     1      23.866  -6.126  16.640  1.00  0.00     0.345 HD
ATOM      6  H   UNL     1      24.262  -4.759  15.726  1.00  0.00     0.345 HD
ATOM      7  H   UNL     1      22.643  -5.255  15.864  1.00  0.00     0.345 HD
ENDBRANCH   3   4
BRANCH   3   8
ATOM      8  C   UNL     1      22.519  -5.064  18.600  1.00  0.00     0.099 C 
ATOM      9  O   UNL     1      22.070  -6.213  18.348  1.00  0.00    -0.544 OA
ATOM     10  O   UNL     1      22.189  -4.453  19.803  1.00  0.00    -0.544 OA
ENDBRANCH   3   8
ENDBRANCH   1   3
BRANCH   1  11
ATOM     11  C   UNL     1      25.026  -2.334  18.036  1.00  0.00     0.006 C 
ATOM     12  C   UNL     1      23.875  -1.438  18.492  1.00  0.00     0.004 C 
ENDBRANCH   1  11
TORSDOF 4
ENDMDL
MODEL 6
REMARK VINA RESULT:    -3.324      1.724      2.059
REMARK INTER + INTRA:          -4.117
REMARK INTER:                  -4.030
REMARK INTRA:                  -0.087
REMARK UNBOUND:                -0.113
REMARK SMILES CC[C@H](C)[C@@H]([NH3+])C(=O)[O-]
REMARK SMILES IDX 3 1 4 2 5 3 6 4 7 8 8 9 9 10 2 11 1 12
REMARK H PARENT 6 5 6 6 6 7
REMARK Flexibility Score: inf
ROOT
ATOM      1  C   UNL     1      24.329  -3.931  18.429  1.00  0.00     0.050 C 
ATOM      2  C   UNL     1      24.855  -2.489  18.309  1.00  0.00     0.014 C 
ENDROOT
BRANCH   1   3
ATOM      3  C   UNL     1      25.026  -4.846  17.365  1.00  0.00     0.230 C 
BRANCH   3   4
ATOM      4  N   UNL     1      26.437  -4.483  17.160  1.00  0.00    -0.350 N 
ATOM      5  H   UNL     1      26.592  -3.496  17.468  1.00  0.00     0.345 HD
ATOM      6  H   UNL     1      26.720  -4.562  16.160  1.00  0.00     0.345 HD
ATOM      7  H   UNL     1      27.053  -5.099  17.738  1.00  0.00     0.345 HD
ENDBRANCH   3   4
BRANCH   3   8
ATOM      8  C   UNL     1      24.879  -6.319  17.662  1.00  0.00     0.099 C 
ATOM      9  O   UNL     1      25.828  -6.948  18.200  1.00  0.00    -0.544 OA
ATOM     10  O   UNL     1      23.719  -7.000  17.317  1.00  0.00    -0.544 OA
ENDBRANCH   3   8
ENDBRANCH   1   3
BRANCH   1  11
ATOM     11  C   UNL     1      22.776  -3.903  18.383  1.00  0.00     0.006 C 
ATOM     12  C   UNL     1      22.098  -4.597  19.564  1.00  0.00     0.004 C 
ENDBRANCH   1  11
TORSDOF 4
ENDMDL
MODEL 7
REMARK VINA RESULT:    -3.304      9.590     10.372
REMARK INTER + INTRA:          -4.093
REMARK INTER:                  -4.047
REMARK INTRA:                  -0.046
REMARK UNBOUND:                -0.113
REMARK SMILES CC[C@H](C)[C@@H]([NH3+])C(=O)[O-]
REMARK SMILES IDX 3 1 4 2 5 3 6 4 7 8 8 9 9 10 2 11 1 12
REMARK H PARENT 6 5 6 6 6 7
REMARK Flexibility Score: inf
ROOT
ATOM      1  C   UNL     1      28.208  -0.945  10.726  1.00  0.00     0.050 C 
ATOM      2  C   UNL     1      29.125  -0.036  11.566  1.00  0.00     0.014 C 
ENDROOT
BRANCH   1   3
ATOM      3  C   UNL     1      28.959  -1.413   9.432  1.00  0.00     0.230 C 
BRANCH   3   4
ATOM      4  N   UNL     1      29.085  -2.876   9.362  1.00  0.00    -0.350 N 
ATOM      5  H   UNL     1      29.003  -3.280  10.323  1.00  0.00     0.345 HD
ATOM      6  H   UNL     1      30.000  -3.171   8.961  1.00  0.00     0.345 HD
ATOM      7  H   UNL     1      28.314  -3.275   8.780  1.00  0.00     0.345 HD
ENDBRANCH   3   4
BRANCH   3   8
ATOM      8  C   UNL     1      28.356  -0.856   8.165  1.00  0.00     0.099 C 
ATOM      9  O   UNL     1      28.609   0.328   7.817  1.00  0.00    -0.544 OA
ATOM     10  O   UNL     1      27.495  -1.623   7.391  1.00  0.00    -0.544 OA
ENDBRANCH   3   8
ENDBRANCH   1   3
BRANCH   1  11
ATOM     11  C   UNL     1      26.854  -0.217  10.498  1.00  0.00     0.006 C 
ATOM     12  C   UNL     1      25.631  -1.132  10.546  1.00  0.00     0.004 C 
ENDBRANCH   1  11
TORSDOF 4
ENDMDL
MODEL 8
REMARK VINA RESULT:    -3.295     11.732     12.584
REMARK INTER + INTRA:          -4.082
REMARK INTER:                  -3.988
REMARK INTRA:                  -0.095
REMARK UNBOUND:                -0.113
REMARK SMILES CC[C@H](C)[C@@H]([NH3+])C(=O)[O-]
REMARK SMILES IDX 3 1 4 2 5 3 6 4 7 8 8 9 9 10 2 11 1 12
REMARK H PARENT 6 5 6 6 6 7
REMARK Flexibility Score: inf
ROOT
ATOM      1  C   UNL     1      27.504  -0.088   6.308  1.00  0.00     0.050 C 
ATOM      2  C   UNL     1      25.971  -0.175   6.419  1.00  0.00     0.014 C 
ENDROOT
BRANCH   1   3
ATOM      3  C   UNL     1      28.146  -0.109   7.738  1.00  0.00     0.230 C 
BRANCH   3   4
ATOM      4  N   UNL     1      27.260   0.481   8.753  1.00  0.00    -0.350 N 
ATOM      5  H   UNL     1      26.721   1.271   8.329  1.00  0.00     0.345 HD
ATOM      6  H   UNL     1      27.791   0.850   9.570  1.00  0.00     0.345 HD
ATOM      7  H   UNL     1      26.573  -0.232   9.087  1.00  0.00     0.345 HD
ENDBRANCH   3   4
BRANCH   3   8
ATOM      8  C   UNL     1      28.616  -1.482   8.157  1.00  0.00     0.099 C 
ATOM      9  O   UNL     1      28.517  -2.449   7.357  1.00  0.00    -0.544 OA
ATOM     10  O   UNL     1      29.125  -1.700   9.430  1.00  0.00    -0.544 OA
ENDBRANCH   3   8
ENDBRANCH   1   3
BRANCH   1  11
ATOM     11  C   UNL     1      27.874   1.132   5.419  1.00  0.00     0.006 C 
ATOM     12  C   UNL     1      26.781   2.195   5.321  1.00  0.00     0.004 C 
ENDBRANCH   1  11
TORSDOF 4
ENDMDL
MODEL 9
REMARK VINA RESULT:    -3.239      2.919      3.502
REMARK INTER + INTRA:          -4.014
REMARK INTER:                  -4.006
REMARK INTRA:                  -0.008
REMARK UNBOUND:                -0.113
REMARK SMILES CC[C@H](C)[C@@H]([NH3+])C(=O)[O-]
REMARK SMILES IDX 3 1 4 2 5 3 6 4 7 8 8 9 9 10 2 11 1 12
REMARK H PARENT 6 5 6 6 6 7
REMARK Flexibility Score: inf
ROOT
ATOM      1  C   UNL     1      24.283  -5.784  18.181  1.00  0.00     0.050 C 
ATOM      2  C   UNL     1      23.652  -5.032  19.367  1.00  0.00     0.014 C 
ENDROOT
BRANCH   1   3
ATOM      3  C   UNL     1      25.176  -4.808  17.341  1.00  0.00     0.230 C 
BRANCH   3   4
ATOM      4  N   UNL     1      25.377  -5.284  15.965  1.00  0.00    -0.350 N 
ATOM      5  H   UNL     1      26.162  -5.975  15.946  1.00  0.00     0.345 HD
ATOM      6  H   UNL     1      25.609  -4.507  15.311  1.00  0.00     0.345 HD
ATOM      7  H   UNL     1      24.516  -5.769  15.624  1.00  0.00     0.345 HD
ENDBRANCH   3   4
BRANCH   3   8
ATOM      8  C   UNL     1      24.673  -3.384  17.358  1.00  0.00     0.099 C 
ATOM      9  O   UNL     1      25.360  -2.482  17.906  1.00  0.00    -0.544 OA
ATOM     10  O   UNL     1      23.441  -3.059  16.805  1.00  0.00    -0.544 OA
ENDBRANCH   3   8
ENDBRANCH   1   3
BRANCH   1  11
ATOM     11  C   UNL     1      23.157  -6.515  17.396  1.00  0.00     0.006 C 
ATOM     12  C   UNL     1      21.755  -6.307  17.967  1.00  0.00     0.004 C 
ENDBRANCH   1  11
TORSDOF 4
ENDMDL
