MODEL 1
REMARK VINA RESULT:    -6.102      0.000      0.000
REMARK INTER + INTRA:          -8.280
REMARK INTER:                  -7.885
REMARK INTRA:                  -0.395
REMARK UNBOUND:                -0.395
REMARK SMILES CCO[C@@H]1O[C@H](CO)[C@H](O)[C@H](O)[C@@H]1O
REMARK SMILES IDX 4 1 13 2 11 3 9 4 6 5 5 6 3 7 2 8 1 9 14 10 12 12 7 14 8 15
REMARK SMILES IDX 10 17
REMARK H PARENT 14 11 12 13 8 16 10 18
REMARK Flexibility Score: inf
ROOT
ATOM      1  C   UNL     1     -15.717  -9.890  -0.168  1.00  0.00     0.281 C 
ATOM      2  C   UNL     1     -15.317  -9.969  -1.653  1.00  0.00     0.202 C 
ATOM      3  C   UNL     1     -15.699 -11.360  -2.211  1.00  0.00     0.179 C 
ATOM      4  C   UNL     1     -15.164 -12.493  -1.308  1.00  0.00     0.177 C 
ATOM      5  C   UNL     1     -15.580 -12.199   0.153  1.00  0.00     0.178 C 
ATOM      6  O   UNL     1     -15.089 -10.935   0.567  1.00  0.00    -0.341 OA
ENDROOT
BRANCH   1   7
ATOM      7  O   UNL     1     -15.304  -8.637   0.342  1.00  0.00    -0.350 OA
BRANCH   7   8
ATOM      8  C   UNL     1     -16.372  -7.704   0.348  1.00  0.00     0.160 C 
ATOM      9  C   UNL     1     -17.601  -8.341   0.982  1.00  0.00     0.035 C 
ENDBRANCH   7   8
ENDBRANCH   1   7
BRANCH   2  10
ATOM     10  O   UNL     1     -13.933  -9.745  -1.772  1.00  0.00    -0.385 OA
ATOM     11  H   UNL     1     -13.689  -9.919  -2.719  1.00  0.00     0.211 HD
ENDBRANCH   2  10
BRANCH   3  12
ATOM     12  O   UNL     1     -15.301 -11.519  -3.552  1.00  0.00    -0.387 OA
ATOM     13  H   UNL     1     -15.368 -12.480  -3.786  1.00  0.00     0.211 HD
ENDBRANCH   3  12
BRANCH   5  14
ATOM     14  C   UNL     1     -15.082 -13.280   1.122  1.00  0.00     0.191 C 
BRANCH  14  15
ATOM     15  O   UNL     1     -13.693 -13.196   1.287  1.00  0.00    -0.394 OA
ATOM     16  H   UNL     1     -13.350 -14.124   1.204  1.00  0.00     0.210 HD
ENDBRANCH  14  15
ENDBRANCH   5  14
BRANCH   4  17
ATOM     17  O   UNL     1     -13.763 -12.575  -1.401  1.00  0.00    -0.387 OA
ATOM     18  H   UNL     1     -13.555 -13.180  -2.160  1.00  0.00     0.211 HD
ENDBRANCH   4  17
TORSDOF 7
ENDMDL
MODEL 2
REMARK VINA RESULT:    -6.063      1.869      4.795
REMARK INTER + INTRA:          -8.230
REMARK INTER:                  -7.838
REMARK INTRA:                  -0.391
REMARK UNBOUND:                -0.395
REMARK SMILES CCO[C@@H]1O[C@H](CO)[C@H](O)[C@H](O)[C@@H]1O
REMARK SMILES IDX 4 1 13 2 11 3 9 4 6 5 5 6 3 7 2 8 1 9 14 10 12 12 7 14 8 15
REMARK SMILES IDX 10 17
REMARK H PARENT 14 11 12 13 8 16 10 18
REMARK Flexibility Score: inf
ROOT
ATOM      1  C   UNL     1     -16.190 -12.317  -2.208  1.00  0.00     0.281 C 
ATOM      2  C   UNL     1     -15.402 -12.141  -0.896  1.00  0.00     0.202 C 
ATOM      3  C   UNL     1     -15.500 -10.669  -0.435  1.00  0.00     0.179 C 
ATOM      4  C   UNL     1     -15.131  -9.698  -1.578  1.00  0.00     0.177 C 
ATOM      5  C   UNL     1     -15.946 -10.082  -2.836  1.00  0.00     0.178 C 
ATOM      6  O   UNL     1     -15.694 -11.429  -3.202  1.00  0.00    -0.341 OA
ENDROOT
BRANCH   1   7
ATOM      7  O   UNL     1     -16.038 -13.654  -2.646  1.00  0.00    -0.350 OA
BRANCH   7   8
ATOM      8  C   UNL     1     -17.064 -14.020  -3.554  1.00  0.00     0.160 C 
ATOM      9  C   UNL     1     -18.404 -14.033  -2.832  1.00  0.00     0.035 C 
ENDBRANCH   7   8
ENDBRANCH   1   7
BRANCH   2  10
ATOM     10  O   UNL     1     -14.061 -12.512  -1.108  1.00  0.00    -0.385 OA
ATOM     11  H   UNL     1     -13.569 -11.691  -1.371  1.00  0.00     0.211 HD
ENDBRANCH   2  10
BRANCH   3  12
ATOM     12  O   UNL     1     -14.746 -10.428   0.729  1.00  0.00    -0.387 OA
ATOM     13  H   UNL     1     -15.363 -10.419   1.505  1.00  0.00     0.211 HD
ENDBRANCH   3  12
BRANCH   5  14
ATOM     14  C   UNL     1     -15.634  -9.165  -4.027  1.00  0.00     0.191 C 
BRANCH  14  15
ATOM     15  O   UNL     1     -14.404  -9.505  -4.606  1.00  0.00    -0.394 OA
ATOM     16  H   UNL     1     -13.706  -9.153  -3.994  1.00  0.00     0.210 HD
ENDBRANCH  14  15
ENDBRANCH   5  14
BRANCH   4  17
ATOM     17  O   UNL     1     -13.754  -9.770  -1.859  1.00  0.00    -0.387 OA
ATOM     18  H   UNL     1     -13.390  -8.850  -1.775  1.00  0.00     0.211 HD
ENDBRANCH   4  17
TORSDOF 7
ENDMDL
MODEL 3
REMARK VINA RESULT:    -5.784      2.098      2.469
REMARK INTER + INTRA:          -7.869
REMARK INTER:                  -7.498
REMARK INTRA:                  -0.371
REMARK UNBOUND:                -0.395
REMARK SMILES CCO[C@@H]1O[C@H](CO)[C@H](O)[C@H](O)[C@@H]1O
REMARK SMILES IDX 4 1 13 2 11 3 9 4 6 5 5 6 3 7 2 8 1 9 14 10 12 12 7 14 8 15
REMARK SMILES IDX 10 17
REMARK H PARENT 14 11 12 13 8 16 10 18
REMARK Flexibility Score: inf
ROOT
ATOM      1  C   UNL     1     -16.072  -9.199  -0.968  1.00  0.00     0.281 C 
ATOM      2  C   UNL     1     -14.948  -8.994  -2.001  1.00  0.00     0.202 C 
ATOM      3  C   UNL     1     -15.400  -9.559  -3.367  1.00  0.00     0.179 C 
ATOM      4  C   UNL     1     -15.931 -11.003  -3.227  1.00  0.00     0.177 C 
ATOM      5  C   UNL     1     -16.976 -11.038  -2.087  1.00  0.00     0.178 C 
ATOM      6  O   UNL     1     -16.406 -10.579  -0.873  1.00  0.00    -0.341 OA
ENDROOT
BRANCH   1   7
ATOM      7  O   UNL     1     -15.618  -8.732   0.288  1.00  0.00    -0.350 OA
BRANCH   7   8
ATOM      8  C   UNL     1     -16.383  -7.627   0.737  1.00  0.00     0.160 C 
ATOM      9  C   UNL     1     -17.766  -8.102   1.161  1.00  0.00     0.035 C 
ENDBRANCH   7   8
ENDBRANCH   1   7
BRANCH   2  10
ATOM     10  O   UNL     1     -13.782  -9.641  -1.551  1.00  0.00    -0.385 OA
ATOM     11  H   UNL     1     -13.402  -9.084  -0.822  1.00  0.00     0.211 HD
ENDBRANCH   2  10
BRANCH   3  12
ATOM     12  O   UNL     1     -14.390  -9.459  -4.341  1.00  0.00    -0.387 OA
ATOM     13  H   UNL     1     -13.701  -8.825  -4.013  1.00  0.00     0.211 HD
ENDBRANCH   3  12
BRANCH   5  14
ATOM     14  C   UNL     1     -17.554 -12.444  -1.877  1.00  0.00     0.191 C 
BRANCH  14  15
ATOM     15  O   UNL     1     -17.497 -13.186  -3.065  1.00  0.00    -0.394 OA
ATOM     16  H   UNL     1     -16.590 -13.035  -3.440  1.00  0.00     0.210 HD
ENDBRANCH  14  15
ENDBRANCH   5  14
BRANCH   4  17
ATOM     17  O   UNL     1     -14.877 -11.889  -2.938  1.00  0.00    -0.387 OA
ATOM     18  H   UNL     1     -15.013 -12.212  -2.009  1.00  0.00     0.211 HD
ENDBRANCH   4  17
TORSDOF 7
ENDMDL
MODEL 4
REMARK VINA RESULT:    -5.775      3.089      4.217
REMARK INTER + INTRA:          -7.858
REMARK INTER:                  -7.487
REMARK INTRA:                  -0.371
REMARK UNBOUND:                -0.395
REMARK SMILES CCO[C@@H]1O[C@H](CO)[C@H](O)[C@H](O)[C@@H]1O
REMARK SMILES IDX 4 1 13 2 11 3 9 4 6 5 5 6 3 7 2 8 1 9 14 10 12 12 7 14 8 15
REMARK SMILES IDX 10 17
REMARK H PARENT 14 11 12 13 8 16 10 18
REMARK Flexibility Score: inf
ROOT
ATOM      1  C   UNL     1     -16.953  -9.888  -1.934  1.00  0.00     0.281 C 
ATOM      2  C   UNL     1     -18.145 -10.121  -0.987  1.00  0.00     0.202 C 
ATOM      3  C   UNL     1     -17.979 -11.489  -0.286  1.00  0.00     0.179 C 
ATOM      4  C   UNL     1     -17.702 -12.613  -1.309  1.00  0.00     0.177 C 
ATOM      5  C   UNL     1     -16.543 -12.167  -2.231  1.00  0.00     0.178 C 
ATOM      6  O   UNL     1     -16.862 -10.947  -2.880  1.00  0.00    -0.341 OA
ENDROOT
BRANCH   1   7
ATOM      7  O   UNL     1     -17.151  -8.662  -2.612  1.00  0.00    -0.350 OA
BRANCH   7   8
ATOM      8  C   UNL     1     -16.079  -8.379  -3.495  1.00  0.00     0.160 C 
ATOM      9  C   UNL     1     -16.630  -8.002  -4.862  1.00  0.00     0.035 C 
ENDBRANCH   7   8
ENDBRANCH   1   7
BRANCH   2  10
ATOM     10  O   UNL     1     -19.340 -10.078  -1.727  1.00  0.00    -0.385 OA
ATOM     11  H   UNL     1     -19.771  -9.205  -1.536  1.00  0.00     0.211 HD
ENDBRANCH   2  10
BRANCH   3  12
ATOM     12  O   UNL     1     -19.071 -11.791   0.549  1.00  0.00    -0.387 OA
ATOM     13  H   UNL     1     -19.859 -11.282   0.228  1.00  0.00     0.211 HD
ENDBRANCH   3  12
BRANCH   5  14
ATOM     14  C   UNL     1     -16.204 -13.230  -3.286  1.00  0.00     0.191 C 
BRANCH  14  15
ATOM     15  O   UNL     1     -16.728 -14.477  -2.920  1.00  0.00    -0.394 OA
ATOM     16  H   UNL     1     -16.947 -14.410  -1.954  1.00  0.00     0.210 HD
ENDBRANCH  14  15
ENDBRANCH   5  14
BRANCH   4  17
ATOM     17  O   UNL     1     -18.852 -12.874  -2.076  1.00  0.00    -0.387 OA
ATOM     18  H   UNL     1     -18.545 -13.131  -2.985  1.00  0.00     0.211 HD
ENDBRANCH   4  17
TORSDOF 7
ENDMDL
MODEL 5
REMARK VINA RESULT:    -5.753      2.426      3.397
REMARK INTER + INTRA:          -7.829
REMARK INTER:                  -7.679
REMARK INTRA:                  -0.149
REMARK UNBOUND:                -0.395
REMARK SMILES CCO[C@@H]1O[C@H](CO)[C@H](O)[C@H](O)[C@@H]1O
REMARK SMILES IDX 4 1 13 2 11 3 9 4 6 5 5 6 3 7 2 8 1 9 14 10 12 12 7 14 8 15
REMARK SMILES IDX 10 17
REMARK H PARENT 14 11 12 13 8 16 10 18
REMARK Flexibility Score: inf
ROOT
ATOM      1  C   UNL     1     -16.283 -10.609  -1.808  1.00  0.00     0.281 C 
ATOM      2  C   UNL     1     -17.744 -10.949  -1.459  1.00  0.00     0.202 C 
ATOM      3  C   UNL     1     -17.802 -11.555  -0.037  1.00  0.00     0.179 C 
ATOM      4  C   UNL     1     -16.786 -12.707   0.123  1.00  0.00     0.177 C 
ATOM      5  C   UNL     1     -15.401 -12.215  -0.360  1.00  0.00     0.178 C 
ATOM      6  O   UNL     1     -15.470 -11.772  -1.706  1.00  0.00    -0.341 OA
ENDROOT
BRANCH   1   7
ATOM      7  O   UNL     1     -16.241 -10.114  -3.132  1.00  0.00    -0.350 OA
BRANCH   7   8
ATOM      8  C   UNL     1     -16.701  -8.775  -3.199  1.00  0.00     0.160 C 
ATOM      9  C   UNL     1     -16.455  -8.221  -4.596  1.00  0.00     0.035 C 
ENDBRANCH   7   8
ENDBRANCH   1   7
BRANCH   2  10
ATOM     10  O   UNL     1     -18.248 -11.855  -2.411  1.00  0.00    -0.385 OA
ATOM     11  H   UNL     1     -17.731 -11.717  -3.247  1.00  0.00     0.211 HD
ENDBRANCH   2  10
BRANCH   3  12
ATOM     12  O   UNL     1     -19.107 -11.947   0.317  1.00  0.00    -0.387 OA
ATOM     13  H   UNL     1     -19.477 -12.499  -0.418  1.00  0.00     0.211 HD
ENDBRANCH   3  12
BRANCH   5  14
ATOM     14  C   UNL     1     -14.327 -13.305  -0.239  1.00  0.00     0.191 C 
BRANCH  14  15
ATOM     15  O   UNL     1     -13.627 -13.179   0.969  1.00  0.00    -0.394 OA
ATOM     16  H   UNL     1     -12.842 -13.782   0.896  1.00  0.00     0.210 HD
ENDBRANCH  14  15
ENDBRANCH   5  14
BRANCH   4  17
ATOM     17  O   UNL     1     -17.187 -13.825  -0.631  1.00  0.00    -0.387 OA
ATOM     18  H   UNL     1     -17.426 -13.496  -1.537  1.00  0.00     0.211 HD
ENDBRANCH   4  17
TORSDOF 7
ENDMDL
MODEL 6
REMARK VINA RESULT:    -5.700      2.267      2.733
REMARK INTER + INTRA:          -7.761
REMARK INTER:                  -7.341
REMARK INTRA:                  -0.421
REMARK UNBOUND:                -0.395
REMARK SMILES CCO[C@@H]1O[C@H](CO)[C@H](O)[C@H](O)[C@@H]1O
REMARK SMILES IDX 4 1 13 2 11 3 9 4 6 5 5 6 3 7 2 8 1 9 14 10 12 12 7 14 8 15
REMARK SMILES IDX 10 17
REMARK H PARENT 14 11 12 13 8 16 10 18
REMARK Flexibility Score: inf
ROOT
ATOM      1  C   UNL     1     -17.600 -12.818  -1.461  1.00  0.00     0.281 C 
ATOM      2  C   UNL     1     -16.825 -12.493  -2.752  1.00  0.00     0.202 C 
ATOM      3  C   UNL     1     -15.462 -13.223  -2.727  1.00  0.00     0.179 C 
ATOM      4  C   UNL     1     -14.709 -12.958  -1.404  1.00  0.00     0.177 C 
ATOM      5  C   UNL     1     -15.666 -13.246  -0.224  1.00  0.00     0.178 C 
ATOM      6  O   UNL     1     -16.833 -12.446  -0.321  1.00  0.00    -0.341 OA
ENDROOT
BRANCH   1   7
ATOM      7  O   UNL     1     -18.815 -12.094  -1.473  1.00  0.00    -0.350 OA
BRANCH   7   8
ATOM      8  C   UNL     1     -18.945 -11.283  -0.318  1.00  0.00     0.160 C 
ATOM      9  C   UNL     1     -19.198  -9.841  -0.735  1.00  0.00     0.035 C 
ENDBRANCH   7   8
ENDBRANCH   1   7
BRANCH   2  10
ATOM     10  O   UNL     1     -16.646 -11.101  -2.847  1.00  0.00    -0.385 OA
ATOM     11  H   UNL     1     -15.996 -10.841  -2.142  1.00  0.00     0.211 HD
ENDBRANCH   2  10
BRANCH   3  12
ATOM     12  O   UNL     1     -14.677 -12.916  -3.854  1.00  0.00    -0.387 OA
ATOM     13  H   UNL     1     -14.046 -12.192  -3.607  1.00  0.00     0.211 HD
ENDBRANCH   3  12
BRANCH   5  14
ATOM     14  C   UNL     1     -14.995 -13.002   1.135  1.00  0.00     0.191 C 
BRANCH  14  15
ATOM     15  O   UNL     1     -13.600 -12.998   1.006  1.00  0.00    -0.394 OA
ATOM     16  H   UNL     1     -13.337 -13.941   0.836  1.00  0.00     0.210 HD
ENDBRANCH  14  15
ENDBRANCH   5  14
BRANCH   4  17
ATOM     17  O   UNL     1     -14.267 -11.623  -1.349  1.00  0.00    -0.387 OA
ATOM     18  H   UNL     1     -13.815 -11.429  -2.212  1.00  0.00     0.211 HD
ENDBRANCH   4  17
TORSDOF 7
ENDMDL
MODEL 7
REMARK VINA RESULT:    -5.659      1.616      4.539
REMARK INTER + INTRA:          -7.708
REMARK INTER:                  -7.299
REMARK INTRA:                  -0.409
REMARK UNBOUND:                -0.395
REMARK SMILES CCO[C@@H]1O[C@H](CO)[C@H](O)[C@H](O)[C@@H]1O
REMARK SMILES IDX 4 1 13 2 11 3 9 4 6 5 5 6 3 7 2 8 1 9 14 10 12 12 7 14 8 15
REMARK SMILES IDX 10 17
REMARK H PARENT 14 11 12 13 8 16 10 18
REMARK Flexibility Score: inf
ROOT
ATOM      1  C   UNL     1     -16.220 -11.035  -1.110  1.00  0.00     0.281 C 
ATOM      2  C   UNL     1     -15.921 -10.074   0.056  1.00  0.00     0.202 C 
ATOM      3  C   UNL     1     -16.415  -8.655  -0.312  1.00  0.00     0.179 C 
ATOM      4  C   UNL     1     -15.885  -8.219  -1.696  1.00  0.00     0.177 C 
ATOM      5  C   UNL     1     -16.189  -9.341  -2.717  1.00  0.00     0.178 C 
ATOM      6  O   UNL     1     -15.604 -10.565  -2.304  1.00  0.00    -0.341 OA
ENDROOT
BRANCH   1   7
ATOM      7  O   UNL     1     -15.708 -12.312  -0.782  1.00  0.00    -0.350 OA
BRANCH   7   8
ATOM      8  C   UNL     1     -16.539 -12.978   0.154  1.00  0.00     0.160 C 
ATOM      9  C   UNL     1     -15.677 -13.682   1.191  1.00  0.00     0.035 C 
ENDBRANCH   7   8
ENDBRANCH   1   7
BRANCH   2  10
ATOM     10  O   UNL     1     -14.538 -10.073   0.312  1.00  0.00    -0.385 OA
ATOM     11  H   UNL     1     -14.079  -9.972  -0.563  1.00  0.00     0.211 HD
ENDBRANCH   2  10
BRANCH   3  12
ATOM     12  O   UNL     1     -16.113  -7.714   0.690  1.00  0.00    -0.387 OA
ATOM     13  H   UNL     1     -15.382  -7.130   0.361  1.00  0.00     0.211 HD
ENDBRANCH   3  12
BRANCH   5  14
ATOM     14  C   UNL     1     -15.690  -8.989  -4.126  1.00  0.00     0.191 C 
BRANCH  14  15
ATOM     15  O   UNL     1     -14.376  -9.440  -4.312  1.00  0.00    -0.394 OA
ATOM     16  H   UNL     1     -14.285 -10.258  -3.757  1.00  0.00     0.210 HD
ENDBRANCH  14  15
ENDBRANCH   5  14
BRANCH   4  17
ATOM     17  O   UNL     1     -14.499  -7.985  -1.640  1.00  0.00    -0.387 OA
ATOM     18  H   UNL     1     -14.161  -8.424  -0.816  1.00  0.00     0.211 HD
ENDBRANCH   4  17
TORSDOF 7
ENDMDL
MODEL 8
REMARK VINA RESULT:    -5.646      1.858      2.401
REMARK INTER + INTRA:          -7.691
REMARK INTER:                  -7.275
REMARK INTRA:                  -0.417
REMARK UNBOUND:                -0.395
REMARK SMILES CCO[C@@H]1O[C@H](CO)[C@H](O)[C@H](O)[C@@H]1O
REMARK SMILES IDX 4 1 13 2 11 3 9 4 6 5 5 6 3 7 2 8 1 9 14 10 12 12 7 14 8 15
REMARK SMILES IDX 10 17
REMARK H PARENT 14 11 12 13 8 16 10 18
REMARK Flexibility Score: inf
ROOT
ATOM      1  C   UNL     1     -16.450 -11.205  -1.259  1.00  0.00     0.281 C 
ATOM      2  C   UNL     1     -16.490 -12.072  -2.533  1.00  0.00     0.202 C 
ATOM      3  C   UNL     1     -16.845 -13.527  -2.149  1.00  0.00     0.179 C 
ATOM      4  C   UNL     1     -15.938 -14.044  -1.011  1.00  0.00     0.177 C 
ATOM      5  C   UNL     1     -15.946 -13.007   0.138  1.00  0.00     0.178 C 
ATOM      6  O   UNL     1     -15.514 -11.740  -0.331  1.00  0.00    -0.341 OA
ENDROOT
BRANCH   1   7
ATOM      7  O   UNL     1     -16.064  -9.893  -1.621  1.00  0.00    -0.350 OA
BRANCH   7   8
ATOM      8  C   UNL     1     -17.134  -9.189  -2.230  1.00  0.00     0.160 C 
ATOM      9  C   UNL     1     -16.620  -8.436  -3.449  1.00  0.00     0.035 C 
ENDBRANCH   7   8
ENDBRANCH   1   7
BRANCH   2  10
ATOM     10  O   UNL     1     -15.238 -12.013  -3.172  1.00  0.00    -0.385 OA
ATOM     11  H   UNL     1     -14.698 -12.771  -2.826  1.00  0.00     0.211 HD
ENDBRANCH   2  10
BRANCH   3  12
ATOM     12  O   UNL     1     -16.835 -14.385  -3.265  1.00  0.00    -0.387 OA
ATOM     13  H   UNL     1     -17.508 -15.098  -3.117  1.00  0.00     0.211 HD
ENDBRANCH   3  12
BRANCH   5  14
ATOM     14  C   UNL     1     -15.061 -13.442   1.314  1.00  0.00     0.191 C 
BRANCH  14  15
ATOM     15  O   UNL     1     -13.727 -13.074   1.093  1.00  0.00    -0.394 OA
ATOM     16  H   UNL     1     -13.753 -12.326   0.441  1.00  0.00     0.210 HD
ENDBRANCH  14  15
ENDBRANCH   5  14
BRANCH   4  17
ATOM     17  O   UNL     1     -14.624 -14.232  -1.477  1.00  0.00    -0.387 OA
ATOM     18  H   UNL     1     -14.173 -13.348  -1.446  1.00  0.00     0.211 HD
ENDBRANCH   4  17
TORSDOF 7
ENDMDL
MODEL 9
REMARK VINA RESULT:    -5.577      2.513      3.475
REMARK INTER + INTRA:          -7.601
REMARK INTER:                  -7.243
REMARK INTRA:                  -0.358
REMARK UNBOUND:                -0.395
REMARK SMILES CCO[C@@H]1O[C@H](CO)[C@H](O)[C@H](O)[C@@H]1O
REMARK SMILES IDX 4 1 13 2 11 3 9 4 6 5 5 6 3 7 2 8 1 9 14 10 12 12 7 14 8 15
REMARK SMILES IDX 10 17
REMARK H PARENT 14 11 12 13 8 16 10 18
REMARK Flexibility Score: inf
ROOT
ATOM      1  C   UNL     1     -17.570 -11.042  -0.746  1.00  0.00     0.281 C 
ATOM      2  C   UNL     1     -16.151 -11.432  -0.291  1.00  0.00     0.202 C 
ATOM      3  C   UNL     1     -15.421 -12.146  -1.452  1.00  0.00     0.179 C 
ATOM      4  C   UNL     1     -16.280 -13.290  -2.035  1.00  0.00     0.177 C 
ATOM      5  C   UNL     1     -17.692 -12.739  -2.344  1.00  0.00     0.178 C 
ATOM      6  O   UNL     1     -18.283 -12.196  -1.175  1.00  0.00    -0.341 OA
ENDROOT
BRANCH   1   7
ATOM      7  O   UNL     1     -18.244 -10.446   0.347  1.00  0.00    -0.350 OA
BRANCH   7   8
ATOM      8  C   UNL     1     -18.600  -9.104   0.065  1.00  0.00     0.160 C 
ATOM      9  C   UNL     1     -18.183  -8.211   1.226  1.00  0.00     0.035 C 
ENDBRANCH   7   8
ENDBRANCH   1   7
BRANCH   2  10
ATOM     10  O   UNL     1     -16.240 -12.270   0.836  1.00  0.00    -0.385 OA
ATOM     11  H   UNL     1     -16.402 -11.686   1.622  1.00  0.00     0.211 HD
ENDBRANCH   2  10
BRANCH   3  12
ATOM     12  O   UNL     1     -14.137 -12.585  -1.078  1.00  0.00    -0.387 OA
ATOM     13  H   UNL     1     -13.565 -11.789  -0.931  1.00  0.00     0.211 HD
ENDBRANCH   3  12
BRANCH   5  14
ATOM     14  C   UNL     1     -18.616 -13.818  -2.926  1.00  0.00     0.191 C 
BRANCH  14  15
ATOM     15  O   UNL     1     -17.876 -14.779  -3.628  1.00  0.00    -0.394 OA
ATOM     16  H   UNL     1     -18.033 -15.641  -3.161  1.00  0.00     0.210 HD
ENDBRANCH  14  15
ENDBRANCH   5  14
BRANCH   4  17
ATOM     17  O   UNL     1     -16.370 -14.353  -1.118  1.00  0.00    -0.387 OA
ATOM     18  H   UNL     1     -17.044 -14.990  -1.474  1.00  0.00     0.211 HD
ENDBRANCH   4  17
TORSDOF 7
ENDMDL
