MODEL 1
REMARK VINA RESULT:    -7.609      0.000      0.000
REMARK INTER + INTRA:          -8.313
REMARK INTER:                  -8.277
REMARK INTRA:                  -0.037
REMARK UNBOUND:                -0.037
REMARK SMILES CC(=O)[C@H]1CC[C@H]2[C@@H]3CC=C4C[C@H](O)CC[C@]4(C)[C@@H]3CC[C@@]12C
REMARK SMILES IDX 4 1 5 2 6 3 7 4 22 5 21 6 20 7 19 8 8 9 9 10 10 11 11 12
REMARK SMILES IDX 17 13 16 14 15 15 13 16 12 17 18 18 23 19 2 20 1 21 3 22
REMARK SMILES IDX 14 23
REMARK H PARENT 14 24
REMARK Flexibility Score: inf
ROOT
ATOM      1  C   UNL     1      -5.073  25.310  49.295  1.00  0.00     0.062 C 
ATOM      2  C   UNL     1      -4.792  24.788  50.704  1.00  0.00     0.012 C 
ATOM      3  C   UNL     1      -3.620  23.816  50.569  1.00  0.00     0.005 C 
ATOM      4  C   UNL     1      -3.297  23.700  49.066  1.00  0.00    -0.001 C 
ATOM      5  C   UNL     1      -4.563  24.212  48.323  1.00  0.00    -0.020 C 
ATOM      6  C   UNL     1      -5.606  23.071  48.137  1.00  0.00     0.008 C 
ATOM      7  C   UNL     1      -5.008  21.768  47.594  1.00  0.00     0.005 C 
ATOM      8  C   UNL     1      -3.910  21.228  48.540  1.00  0.00     0.003 C 
ATOM      9  C   UNL     1      -2.778  22.279  48.685  1.00  0.00     0.000 C 
ATOM     10  C   UNL     1      -1.888  22.327  47.430  1.00  0.00     0.031 C 
ATOM     11  C   UNL     1      -1.463  20.970  46.960  1.00  0.00    -0.027 C 
ATOM     12  C   UNL     1      -2.172  19.845  47.184  1.00  0.00    -0.065 C 
ATOM     13  C   UNL     1      -3.327  19.791  48.191  1.00  0.00    -0.008 C 
ATOM     14  C   UNL     1      -4.432  18.846  47.618  1.00  0.00     0.014 C 
ATOM     15  C   UNL     1      -3.899  17.486  47.132  1.00  0.00     0.033 C 
ATOM     16  C   UNL     1      -2.805  17.664  46.071  1.00  0.00     0.118 C 
ATOM     17  C   UNL     1      -1.657  18.540  46.600  1.00  0.00     0.063 C 
ATOM     18  C   UNL     1      -2.783  19.171  49.510  1.00  0.00     0.016 C 
ATOM     19  C   UNL     1      -4.242  24.867  46.955  1.00  0.00     0.012 C 
ENDROOT
BRANCH   1  20
ATOM     20  C   UNL     1      -6.515  25.751  49.095  1.00  0.00     0.133 C 
ATOM     21  C   UNL     1      -6.848  26.945  48.251  1.00  0.00     0.088 C 
ATOM     22  O   UNL     1      -7.428  25.142  49.634  1.00  0.00    -0.300 OA
ENDBRANCH   1  20
BRANCH  16  23
ATOM     23  O   UNL     1      -3.358  18.236  44.913  1.00  0.00    -0.393 OA
ATOM     24  H   UNL     1      -3.017  19.167  44.860  1.00  0.00     0.210 HD
ENDBRANCH  16  23
TORSDOF 2
ENDMDL
MODEL 2
REMARK VINA RESULT:    -7.580      1.668      6.756
REMARK INTER + INTRA:          -8.281
REMARK INTER:                  -8.320
REMARK INTRA:                   0.039
REMARK UNBOUND:                -0.037
REMARK SMILES CC(=O)[C@H]1CC[C@H]2[C@@H]3CC=C4C[C@H](O)CC[C@]4(C)[C@@H]3CC[C@@]12C
REMARK SMILES IDX 4 1 5 2 6 3 7 4 22 5 21 6 20 7 19 8 8 9 9 10 10 11 11 12
REMARK SMILES IDX 17 13 16 14 15 15 13 16 12 17 18 18 23 19 2 20 1 21 3 22
REMARK SMILES IDX 14 23
REMARK H PARENT 14 24
REMARK Flexibility Score: inf
ROOT
ATOM      1  C   UNL     1      -2.221  18.336  47.304  1.00  0.00     0.062 C 
ATOM      2  C   UNL     1      -2.379  18.049  48.797  1.00  0.00     0.012 C 
ATOM      3  C   UNL     1      -3.488  18.978  49.290  1.00  0.00     0.005 C 
ATOM      4  C   UNL     1      -3.894  19.873  48.101  1.00  0.00    -0.001 C 
ATOM      5  C   UNL     1      -2.713  19.793  47.093  1.00  0.00    -0.020 C 
ATOM      6  C   UNL     1      -1.608  20.834  47.437  1.00  0.00     0.008 C 
ATOM      7  C   UNL     1      -2.147  22.244  47.706  1.00  0.00     0.005 C 
ATOM      8  C   UNL     1      -3.146  22.237  48.887  1.00  0.00     0.003 C 
ATOM      9  C   UNL     1      -4.337  21.296  48.562  1.00  0.00     0.000 C 
ATOM     10  C   UNL     1      -5.302  21.936  47.549  1.00  0.00     0.031 C 
ATOM     11  C   UNL     1      -5.662  23.349  47.892  1.00  0.00    -0.027 C 
ATOM     12  C   UNL     1      -4.866  24.170  48.606  1.00  0.00    -0.065 C 
ATOM     13  C   UNL     1      -3.650  23.659  49.388  1.00  0.00    -0.008 C 
ATOM     14  C   UNL     1      -2.520  24.734  49.296  1.00  0.00     0.014 C 
ATOM     15  C   UNL     1      -2.987  26.160  49.637  1.00  0.00     0.033 C 
ATOM     16  C   UNL     1      -4.154  26.594  48.739  1.00  0.00     0.118 C 
ATOM     17  C   UNL     1      -5.324  25.601  48.833  1.00  0.00     0.063 C 
ATOM     18  C   UNL     1      -4.070  23.510  50.879  1.00  0.00     0.016 C 
ATOM     19  C   UNL     1      -3.160  19.961  45.618  1.00  0.00     0.012 C 
ENDROOT
BRANCH   1  20
ATOM     20  C   UNL     1      -0.828  18.027  46.778  1.00  0.00     0.133 C 
ATOM     21  C   UNL     1      -0.634  17.267  45.499  1.00  0.00     0.088 C 
ATOM     22  O   UNL     1       0.161  18.385  47.401  1.00  0.00    -0.300 OA
ENDBRANCH   1  20
BRANCH  16  23
ATOM     23  O   UNL     1      -3.712  26.699  47.409  1.00  0.00    -0.393 OA
ATOM     24  H   UNL     1      -3.084  27.467  47.374  1.00  0.00     0.210 HD
ENDBRANCH  16  23
TORSDOF 2
ENDMDL
MODEL 3
REMARK VINA RESULT:    -7.031      2.130      3.666
REMARK INTER + INTRA:          -7.684
REMARK INTER:                  -7.630
REMARK INTRA:                  -0.054
REMARK UNBOUND:                -0.037
REMARK SMILES CC(=O)[C@H]1CC[C@H]2[C@@H]3CC=C4C[C@H](O)CC[C@]4(C)[C@@H]3CC[C@@]12C
REMARK SMILES IDX 4 1 5 2 6 3 7 4 22 5 21 6 20 7 19 8 8 9 9 10 10 11 11 12
REMARK SMILES IDX 17 13 16 14 15 15 13 16 12 17 18 18 23 19 2 20 1 21 3 22
REMARK SMILES IDX 14 23
REMARK H PARENT 14 24
REMARK Flexibility Score: inf
ROOT
ATOM      1  C   UNL     1      -4.044  26.336  50.980  1.00  0.00     0.062 C 
ATOM      2  C   UNL     1      -3.673  27.169  49.753  1.00  0.00     0.012 C 
ATOM      3  C   UNL     1      -4.009  26.306  48.539  1.00  0.00     0.005 C 
ATOM      4  C   UNL     1      -4.475  24.935  49.070  1.00  0.00    -0.001 C 
ATOM      5  C   UNL     1      -3.954  24.852  50.532  1.00  0.00    -0.020 C 
ATOM      6  C   UNL     1      -2.492  24.320  50.579  1.00  0.00     0.008 C 
ATOM      7  C   UNL     1      -2.262  23.064  49.729  1.00  0.00     0.005 C 
ATOM      8  C   UNL     1      -2.598  23.335  48.243  1.00  0.00     0.003 C 
ATOM      9  C   UNL     1      -4.082  23.769  48.111  1.00  0.00     0.000 C 
ATOM     10  C   UNL     1      -5.036  22.572  48.267  1.00  0.00     0.031 C 
ATOM     11  C   UNL     1      -4.627  21.384  47.450  1.00  0.00    -0.027 C 
ATOM     12  C   UNL     1      -3.354  21.130  47.088  1.00  0.00    -0.065 C 
ATOM     13  C   UNL     1      -2.238  22.174  47.219  1.00  0.00    -0.008 C 
ATOM     14  C   UNL     1      -0.922  21.437  47.625  1.00  0.00     0.014 C 
ATOM     15  C   UNL     1      -0.597  20.214  46.750  1.00  0.00     0.033 C 
ATOM     16  C   UNL     1      -1.751  19.201  46.757  1.00  0.00     0.118 C 
ATOM     17  C   UNL     1      -3.066  19.857  46.308  1.00  0.00     0.063 C 
ATOM     18  C   UNL     1      -2.028  22.827  45.823  1.00  0.00     0.016 C 
ATOM     19  C   UNL     1      -4.861  23.997  51.454  1.00  0.00     0.012 C 
ENDROOT
BRANCH   1  20
ATOM     20  C   UNL     1      -3.240  26.702  52.218  1.00  0.00     0.133 C 
ATOM     21  C   UNL     1      -3.849  26.619  53.587  1.00  0.00     0.088 C 
ATOM     22  O   UNL     1      -2.084  27.083  52.115  1.00  0.00    -0.300 OA
ENDBRANCH   1  20
BRANCH  16  23
ATOM     23  O   UNL     1      -1.894  18.658  48.046  1.00  0.00    -0.393 OA
ATOM     24  H   UNL     1      -2.240  17.735  47.932  1.00  0.00     0.210 HD
ENDBRANCH  16  23
TORSDOF 2
ENDMDL
MODEL 4
REMARK VINA RESULT:    -6.887      2.957      6.841
REMARK INTER + INTRA:          -7.527
REMARK INTER:                  -7.409
REMARK INTRA:                  -0.119
REMARK UNBOUND:                -0.037
REMARK SMILES CC(=O)[C@H]1CC[C@H]2[C@@H]3CC=C4C[C@H](O)CC[C@]4(C)[C@@H]3CC[C@@]12C
REMARK SMILES IDX 4 1 5 2 6 3 7 4 22 5 21 6 20 7 19 8 8 9 9 10 10 11 11 12
REMARK SMILES IDX 17 13 16 14 15 15 13 16 12 17 18 18 23 19 2 20 1 21 3 22
REMARK SMILES IDX 14 23
REMARK H PARENT 14 24
REMARK Flexibility Score: inf
ROOT
ATOM      1  C   UNL     1      -3.992  21.924  47.117  1.00  0.00     0.062 C 
ATOM      2  C   UNL     1      -5.369  21.981  47.777  1.00  0.00     0.012 C 
ATOM      3  C   UNL     1      -5.458  23.350  48.451  1.00  0.00     0.005 C 
ATOM      4  C   UNL     1      -4.090  24.037  48.267  1.00  0.00    -0.001 C 
ATOM      5  C   UNL     1      -3.090  22.898  47.923  1.00  0.00    -0.020 C 
ATOM      6  C   UNL     1      -2.529  22.234  49.214  1.00  0.00     0.008 C 
ATOM      7  C   UNL     1      -2.043  23.238  50.267  1.00  0.00     0.005 C 
ATOM      8  C   UNL     1      -3.191  24.179  50.703  1.00  0.00     0.003 C 
ATOM      9  C   UNL     1      -3.728  24.958  49.473  1.00  0.00     0.000 C 
ATOM     10  C   UNL     1      -2.764  26.080  49.050  1.00  0.00     0.031 C 
ATOM     11  C   UNL     1      -2.297  26.918  50.201  1.00  0.00    -0.027 C 
ATOM     12  C   UNL     1      -2.220  26.468  51.470  1.00  0.00    -0.065 C 
ATOM     13  C   UNL     1      -2.875  25.156  51.917  1.00  0.00    -0.008 C 
ATOM     14  C   UNL     1      -1.943  24.478  52.973  1.00  0.00     0.014 C 
ATOM     15  C   UNL     1      -1.491  25.421  54.101  1.00  0.00     0.033 C 
ATOM     16  C   UNL     1      -0.779  26.660  53.540  1.00  0.00     0.118 C 
ATOM     17  C   UNL     1      -1.673  27.404  52.535  1.00  0.00     0.063 C 
ATOM     18  C   UNL     1      -4.226  25.506  52.602  1.00  0.00     0.016 C 
ATOM     19  C   UNL     1      -1.923  23.365  47.016  1.00  0.00     0.012 C 
ENDROOT
BRANCH   1  20
ATOM     20  C   UNL     1      -3.459  20.508  46.962  1.00  0.00     0.133 C 
ATOM     21  C   UNL     1      -3.912  19.407  47.875  1.00  0.00     0.088 C 
ATOM     22  O   UNL     1      -2.641  20.247  46.092  1.00  0.00    -0.300 OA
ENDBRANCH   1  20
BRANCH  16  23
ATOM     23  O   UNL     1       0.425  26.274  52.926  1.00  0.00    -0.393 OA
ATOM     24  H   UNL     1       0.811  25.546  53.481  1.00  0.00     0.210 HD
ENDBRANCH  16  23
TORSDOF 2
ENDMDL
MODEL 5
REMARK VINA RESULT:    -6.882      2.103      7.134
REMARK INTER + INTRA:          -7.522
REMARK INTER:                  -7.375
REMARK INTRA:                  -0.146
REMARK UNBOUND:                -0.037
REMARK SMILES CC(=O)[C@H]1CC[C@H]2[C@@H]3CC=C4C[C@H](O)CC[C@]4(C)[C@@H]3CC[C@@]12C
REMARK SMILES IDX 4 1 5 2 6 3 7 4 22 5 21 6 20 7 19 8 8 9 9 10 10 11 11 12
REMARK SMILES IDX 17 13 16 14 15 15 13 16 12 17 18 18 23 19 2 20 1 21 3 22
REMARK SMILES IDX 14 23
REMARK H PARENT 14 24
REMARK Flexibility Score: inf
ROOT
ATOM      1  C   UNL     1      -2.932  21.665  48.691  1.00  0.00     0.062 C 
ATOM      2  C   UNL     1      -2.029  22.500  49.599  1.00  0.00     0.012 C 
ATOM      3  C   UNL     1      -2.907  23.624  50.149  1.00  0.00     0.005 C 
ATOM      4  C   UNL     1      -4.287  23.495  49.473  1.00  0.00    -0.001 C 
ATOM      5  C   UNL     1      -4.055  22.621  48.208  1.00  0.00    -0.020 C 
ATOM      6  C   UNL     1      -3.598  23.490  47.000  1.00  0.00     0.008 C 
ATOM      7  C   UNL     1      -4.450  24.746  46.782  1.00  0.00     0.005 C 
ATOM      8  C   UNL     1      -4.419  25.657  48.032  1.00  0.00     0.003 C 
ATOM      9  C   UNL     1      -4.968  24.883  49.260  1.00  0.00     0.000 C 
ATOM     10  C   UNL     1      -6.500  24.750  49.205  1.00  0.00     0.031 C 
ATOM     11  C   UNL     1      -7.190  26.041  48.886  1.00  0.00    -0.027 C 
ATOM     12  C   UNL     1      -6.621  27.037  48.179  1.00  0.00    -0.065 C 
ATOM     13  C   UNL     1      -5.116  27.078  47.883  1.00  0.00    -0.008 C 
ATOM     14  C   UNL     1      -4.915  27.669  46.450  1.00  0.00     0.014 C 
ATOM     15  C   UNL     1      -5.683  28.979  46.203  1.00  0.00     0.033 C 
ATOM     16  C   UNL     1      -7.187  28.798  46.453  1.00  0.00     0.118 C 
ATOM     17  C   UNL     1      -7.452  28.272  47.873  1.00  0.00     0.063 C 
ATOM     18  C   UNL     1      -4.453  28.037  48.912  1.00  0.00     0.016 C 
ATOM     19  C   UNL     1      -5.296  21.777  47.817  1.00  0.00     0.012 C 
ENDROOT
BRANCH   1  20
ATOM     20  C   UNL     1      -2.170  20.935  47.596  1.00  0.00     0.133 C 
ATOM     21  C   UNL     1      -0.759  21.311  47.253  1.00  0.00     0.088 C 
ATOM     22  O   UNL     1      -2.704  20.033  46.966  1.00  0.00    -0.300 OA
ENDBRANCH   1  20
BRANCH  16  23
ATOM     23  O   UNL     1      -7.721  27.914  45.500  1.00  0.00    -0.393 OA
ATOM     24  H   UNL     1      -8.709  27.997  45.553  1.00  0.00     0.210 HD
ENDBRANCH  16  23
TORSDOF 2
ENDMDL
MODEL 6
REMARK VINA RESULT:    -6.865      1.485      2.498
REMARK INTER + INTRA:          -7.504
REMARK INTER:                  -7.437
REMARK INTRA:                  -0.066
REMARK UNBOUND:                -0.037
REMARK SMILES CC(=O)[C@H]1CC[C@H]2[C@@H]3CC=C4C[C@H](O)CC[C@]4(C)[C@@H]3CC[C@@]12C
REMARK SMILES IDX 4 1 5 2 6 3 7 4 22 5 21 6 20 7 19 8 8 9 9 10 10 11 11 12
REMARK SMILES IDX 17 13 16 14 15 15 13 16 12 17 18 18 23 19 2 20 1 21 3 22
REMARK SMILES IDX 14 23
REMARK H PARENT 14 24
REMARK Flexibility Score: inf
ROOT
ATOM      1  C   UNL     1      -5.764  27.513  48.307  1.00  0.00     0.062 C 
ATOM      2  C   UNL     1      -4.836  27.713  49.506  1.00  0.00     0.012 C 
ATOM      3  C   UNL     1      -3.562  26.932  49.188  1.00  0.00     0.005 C 
ATOM      4  C   UNL     1      -3.799  26.198  47.853  1.00  0.00    -0.001 C 
ATOM      5  C   UNL     1      -5.341  26.168  47.658  1.00  0.00    -0.020 C 
ATOM      6  C   UNL     1      -5.976  24.948  48.387  1.00  0.00     0.008 C 
ATOM      7  C   UNL     1      -5.255  23.621  48.118  1.00  0.00     0.005 C 
ATOM      8  C   UNL     1      -3.776  23.696  48.566  1.00  0.00     0.003 C 
ATOM      9  C   UNL     1      -3.051  24.830  47.794  1.00  0.00     0.000 C 
ATOM     10  C   UNL     1      -2.750  24.421  46.341  1.00  0.00     0.031 C 
ATOM     11  C   UNL     1      -2.136  23.058  46.230  1.00  0.00    -0.027 C 
ATOM     12  C   UNL     1      -2.331  22.076  47.132  1.00  0.00    -0.065 C 
ATOM     13  C   UNL     1      -2.955  22.337  48.509  1.00  0.00    -0.008 C 
ATOM     14  C   UNL     1      -3.848  21.110  48.883  1.00  0.00     0.014 C 
ATOM     15  C   UNL     1      -3.145  19.752  48.711  1.00  0.00     0.033 C 
ATOM     16  C   UNL     1      -2.632  19.568  47.275  1.00  0.00     0.118 C 
ATOM     17  C   UNL     1      -1.697  20.719  46.870  1.00  0.00     0.063 C 
ATOM     18  C   UNL     1      -1.800  22.441  49.545  1.00  0.00     0.016 C 
ATOM     19  C   UNL     1      -5.767  26.177  46.168  1.00  0.00     0.012 C 
ENDROOT
BRANCH   1  20
ATOM     20  C   UNL     1      -7.237  27.641  48.662  1.00  0.00     0.133 C 
ATOM     21  C   UNL     1      -8.237  28.119  47.651  1.00  0.00     0.088 C 
ATOM     22  O   UNL     1      -7.629  27.367  49.787  1.00  0.00    -0.300 OA
ENDBRANCH   1  20
BRANCH  16  23
ATOM     23  O   UNL     1      -3.722  19.492  46.391  1.00  0.00    -0.393 OA
ATOM     24  H   UNL     1      -4.420  18.948  46.840  1.00  0.00     0.210 HD
ENDBRANCH  16  23
TORSDOF 2
ENDMDL
MODEL 7
REMARK VINA RESULT:    -6.712      5.070      6.691
REMARK INTER + INTRA:          -7.337
REMARK INTER:                  -7.276
REMARK INTRA:                  -0.061
REMARK UNBOUND:                -0.037
REMARK SMILES CC(=O)[C@H]1CC[C@H]2[C@@H]3CC=C4C[C@H](O)CC[C@]4(C)[C@@H]3CC[C@@]12C
REMARK SMILES IDX 4 1 5 2 6 3 7 4 22 5 21 6 20 7 19 8 8 9 9 10 10 11 11 12
REMARK SMILES IDX 17 13 16 14 15 15 13 16 12 17 18 18 23 19 2 20 1 21 3 22
REMARK SMILES IDX 14 23
REMARK H PARENT 14 24
REMARK Flexibility Score: inf
ROOT
ATOM      1  C   UNL     1      -6.934  27.370  46.730  1.00  0.00     0.062 C 
ATOM      2  C   UNL     1      -5.902  26.708  45.818  1.00  0.00     0.012 C 
ATOM      3  C   UNL     1      -5.278  25.579  46.638  1.00  0.00     0.005 C 
ATOM      4  C   UNL     1      -5.877  25.662  48.056  1.00  0.00    -0.001 C 
ATOM      5  C   UNL     1      -6.460  27.098  48.183  1.00  0.00    -0.020 C 
ATOM      6  C   UNL     1      -5.369  28.110  48.637  1.00  0.00     0.008 C 
ATOM      7  C   UNL     1      -4.539  27.632  49.834  1.00  0.00     0.005 C 
ATOM      8  C   UNL     1      -3.816  26.303  49.509  1.00  0.00     0.003 C 
ATOM      9  C   UNL     1      -4.859  25.212  49.150  1.00  0.00     0.000 C 
ATOM     10  C   UNL     1      -5.583  24.689  50.404  1.00  0.00     0.031 C 
ATOM     11  C   UNL     1      -4.647  24.355  51.525  1.00  0.00    -0.027 C 
ATOM     12  C   UNL     1      -3.443  24.938  51.692  1.00  0.00    -0.065 C 
ATOM     13  C   UNL     1      -2.781  25.782  50.597  1.00  0.00    -0.008 C 
ATOM     14  C   UNL     1      -2.022  26.965  51.281  1.00  0.00     0.014 C 
ATOM     15  C   UNL     1      -1.108  26.531  52.440  1.00  0.00     0.033 C 
ATOM     16  C   UNL     1      -1.893  25.764  53.512  1.00  0.00     0.118 C 
ATOM     17  C   UNL     1      -2.616  24.550  52.907  1.00  0.00     0.063 C 
ATOM     18  C   UNL     1      -1.742  24.885  49.865  1.00  0.00     0.016 C 
ATOM     19  C   UNL     1      -7.684  27.175  49.131  1.00  0.00     0.012 C 
ENDROOT
BRANCH   1  20
ATOM     20  C   UNL     1      -7.193  28.829  46.383  1.00  0.00     0.133 C 
ATOM     21  C   UNL     1      -8.532  29.457  46.630  1.00  0.00     0.088 C 
ATOM     22  O   UNL     1      -6.310  29.511  45.883  1.00  0.00    -0.300 OA
ENDBRANCH   1  20
BRANCH  16  23
ATOM     23  O   UNL     1      -2.819  26.625  54.125  1.00  0.00    -0.393 OA
ATOM     24  H   UNL     1      -3.199  27.197  53.407  1.00  0.00     0.210 HD
ENDBRANCH  16  23
TORSDOF 2
ENDMDL
MODEL 8
REMARK VINA RESULT:    -6.696      1.930      2.787
REMARK INTER + INTRA:          -7.320
REMARK INTER:                  -7.200
REMARK INTRA:                  -0.120
REMARK UNBOUND:                -0.037
REMARK SMILES CC(=O)[C@H]1CC[C@H]2[C@@H]3CC=C4C[C@H](O)CC[C@]4(C)[C@@H]3CC[C@@]12C
REMARK SMILES IDX 4 1 5 2 6 3 7 4 22 5 21 6 20 7 19 8 8 9 9 10 10 11 11 12
REMARK SMILES IDX 17 13 16 14 15 15 13 16 12 17 18 18 23 19 2 20 1 21 3 22
REMARK SMILES IDX 14 23
REMARK H PARENT 14 24
REMARK Flexibility Score: inf
ROOT
ATOM      1  C   UNL     1      -6.017  27.010  49.062  1.00  0.00     0.062 C 
ATOM      2  C   UNL     1      -7.160  26.075  49.458  1.00  0.00     0.012 C 
ATOM      3  C   UNL     1      -6.500  24.788  49.952  1.00  0.00     0.005 C 
ATOM      4  C   UNL     1      -4.981  24.945  49.740  1.00  0.00    -0.001 C 
ATOM      5  C   UNL     1      -4.818  26.092  48.703  1.00  0.00    -0.020 C 
ATOM      6  C   UNL     1      -4.917  25.551  47.247  1.00  0.00     0.008 C 
ATOM      7  C   UNL     1      -4.060  24.306  46.988  1.00  0.00     0.005 C 
ATOM      8  C   UNL     1      -4.470  23.149  47.929  1.00  0.00     0.003 C 
ATOM      9  C   UNL     1      -4.291  23.586  49.408  1.00  0.00     0.000 C 
ATOM     10  C   UNL     1      -2.808  23.597  49.817  1.00  0.00     0.031 C 
ATOM     11  C   UNL     1      -2.077  22.354  49.410  1.00  0.00    -0.027 C 
ATOM     12  C   UNL     1      -2.432  21.589  48.359  1.00  0.00    -0.065 C 
ATOM     13  C   UNL     1      -3.784  21.742  47.652  1.00  0.00    -0.008 C 
ATOM     14  C   UNL     1      -3.569  21.498  46.124  1.00  0.00     0.014 C 
ATOM     15  C   UNL     1      -2.784  20.214  45.802  1.00  0.00     0.033 C 
ATOM     16  C   UNL     1      -1.416  20.209  46.499  1.00  0.00     0.118 C 
ATOM     17  C   UNL     1      -1.568  20.386  48.018  1.00  0.00     0.063 C 
ATOM     18  C   UNL     1      -4.736  20.639  48.199  1.00  0.00     0.016 C 
ATOM     19  C   UNL     1      -3.503  26.893  48.884  1.00  0.00     0.012 C 
ENDROOT
BRANCH   1  20
ATOM     20  C   UNL     1      -6.413  28.024  48.000  1.00  0.00     0.133 C 
ATOM     21  C   UNL     1      -7.740  27.939  47.307  1.00  0.00     0.088 C 
ATOM     22  O   UNL     1      -5.644  28.921  47.685  1.00  0.00    -0.300 OA
ENDBRANCH   1  20
BRANCH  16  23
ATOM     23  O   UNL     1      -0.612  21.231  45.968  1.00  0.00    -0.393 OA
ATOM     24  H   UNL     1      -1.123  21.643  45.223  1.00  0.00     0.210 HD
ENDBRANCH  16  23
TORSDOF 2
ENDMDL
MODEL 9
REMARK VINA RESULT:    -6.547      1.901      6.896
REMARK INTER + INTRA:          -7.158
REMARK INTER:                  -7.241
REMARK INTRA:                   0.083
REMARK UNBOUND:                -0.037
REMARK SMILES CC(=O)[C@H]1CC[C@H]2[C@@H]3CC=C4C[C@H](O)CC[C@]4(C)[C@@H]3CC[C@@]12C
REMARK SMILES IDX 4 1 5 2 6 3 7 4 22 5 21 6 20 7 19 8 8 9 9 10 10 11 11 12
REMARK SMILES IDX 17 13 16 14 15 15 13 16 12 17 18 18 23 19 2 20 1 21 3 22
REMARK SMILES IDX 14 23
REMARK H PARENT 14 24
REMARK Flexibility Score: inf
ROOT
ATOM      1  C   UNL     1      -2.591  20.391  46.794  1.00  0.00     0.062 C 
ATOM      2  C   UNL     1      -3.554  19.598  47.678  1.00  0.00     0.012 C 
ATOM      3  C   UNL     1      -4.642  20.583  48.104  1.00  0.00     0.005 C 
ATOM      4  C   UNL     1      -4.246  21.967  47.551  1.00  0.00    -0.001 C 
ATOM      5  C   UNL     1      -2.727  21.873  47.234  1.00  0.00    -0.020 C 
ATOM      6  C   UNL     1      -1.869  22.185  48.495  1.00  0.00     0.008 C 
ATOM      7  C   UNL     1      -2.306  23.449  49.245  1.00  0.00     0.005 C 
ATOM      8  C   UNL     1      -3.775  23.332  49.714  1.00  0.00     0.003 C 
ATOM      9  C   UNL     1      -4.704  23.127  48.488  1.00  0.00     0.000 C 
ATOM     10  C   UNL     1      -4.899  24.435  47.703  1.00  0.00     0.031 C 
ATOM     11  C   UNL     1      -5.225  25.605  48.581  1.00  0.00    -0.027 C 
ATOM     12  C   UNL     1      -4.848  25.697  49.871  1.00  0.00    -0.065 C 
ATOM     13  C   UNL     1      -4.306  24.497  50.657  1.00  0.00    -0.008 C 
ATOM     14  C   UNL     1      -3.190  25.007  51.624  1.00  0.00     0.014 C 
ATOM     15  C   UNL     1      -3.605  26.228  52.465  1.00  0.00     0.033 C 
ATOM     16  C   UNL     1      -4.052  27.393  51.571  1.00  0.00     0.118 C 
ATOM     17  C   UNL     1      -5.194  26.965  50.635  1.00  0.00     0.063 C 
ATOM     18  C   UNL     1      -5.472  23.918  51.509  1.00  0.00     0.016 C 
ATOM     19  C   UNL     1      -2.294  22.785  46.058  1.00  0.00     0.012 C 
ENDROOT
BRANCH   1  20
ATOM     20  C   UNL     1      -1.177  19.829  46.794  1.00  0.00     0.133 C 
ATOM     21  C   UNL     1      -0.873  18.502  47.425  1.00  0.00     0.088 C 
ATOM     22  O   UNL     1      -0.261  20.461  46.289  1.00  0.00    -0.300 OA
ENDBRANCH   1  20
BRANCH  16  23
ATOM     23  O   UNL     1      -2.959  27.861  50.823  1.00  0.00    -0.393 OA
ATOM     24  H   UNL     1      -3.155  28.805  50.586  1.00  0.00     0.210 HD
ENDBRANCH  16  23
TORSDOF 2
ENDMDL
