MODEL 1
REMARK VINA RESULT:    -3.592      0.000      0.000
REMARK INTER + INTRA:          -4.330
REMARK INTER:                  -4.327
REMARK INTRA:                  -0.003
REMARK UNBOUND:                -0.003
REMARK SMILES OCC(O)CO
REMARK SMILES IDX 3 1 5 2 6 3 2 5 1 6 4 8
REMARK H PARENT 6 4 1 7 4 9
REMARK Flexibility Score: inf
ROOT
ATOM      1  C   UNL     1      33.419  14.903  45.332  1.00  0.00     0.165 C 
ENDROOT
BRANCH   1   2
ATOM      2  C   UNL     1      32.734  14.069  44.233  1.00  0.00     0.190 C 
BRANCH   2   3
ATOM      3  O   UNL     1      32.273  14.889  43.194  1.00  0.00    -0.394 OA
ATOM      4  H   UNL     1      31.678  14.327  42.632  1.00  0.00     0.210 HD
ENDBRANCH   2   3
ENDBRANCH   1   2
BRANCH   1   5
ATOM      5  C   UNL     1      34.701  14.229  45.848  1.00  0.00     0.190 C 
BRANCH   5   6
ATOM      6  O   UNL     1      34.699  14.139  47.248  1.00  0.00    -0.394 OA
ATOM      7  H   UNL     1      33.811  14.459  47.555  1.00  0.00     0.210 HD
ENDBRANCH   5   6
ENDBRANCH   1   5
BRANCH   1   8
ATOM      8  O   UNL     1      32.534  15.096  46.405  1.00  0.00    -0.388 OA
ATOM      9  H   UNL     1      33.000  15.680  47.060  1.00  0.00     0.211 HD
ENDBRANCH   1   8
TORSDOF 5
ENDMDL
MODEL 2
REMARK VINA RESULT:    -3.352     13.242     14.240
REMARK INTER + INTRA:          -4.041
REMARK INTER:                  -3.837
REMARK INTRA:                  -0.204
REMARK UNBOUND:                -0.003
REMARK SMILES OCC(O)CO
REMARK SMILES IDX 3 1 5 2 6 3 2 5 1 6 4 8
REMARK H PARENT 6 4 1 7 4 9
REMARK Flexibility Score: inf
ROOT
ATOM      1  C   UNL     1      23.695   5.917  42.005  1.00  0.00     0.165 C 
ENDROOT
BRANCH   1   2
ATOM      2  C   UNL     1      23.163   4.838  41.044  1.00  0.00     0.190 C 
BRANCH   2   3
ATOM      3  O   UNL     1      22.314   5.398  40.079  1.00  0.00    -0.394 OA
ATOM      4  H   UNL     1      22.365   4.810  39.280  1.00  0.00     0.210 HD
ENDBRANCH   2   3
ENDBRANCH   1   2
BRANCH   1   5
ATOM      5  C   UNL     1      22.861   5.998  43.294  1.00  0.00     0.190 C 
BRANCH   5   6
ATOM      6  O   UNL     1      21.524   5.642  43.057  1.00  0.00    -0.394 OA
ATOM      7  H   UNL     1      20.965   6.242  43.616  1.00  0.00     0.210 HD
ENDBRANCH   5   6
ENDBRANCH   1   5
BRANCH   1   8
ATOM      8  O   UNL     1      23.686   7.169  41.368  1.00  0.00    -0.388 OA
ATOM      9  H   UNL     1      22.754   7.329  41.063  1.00  0.00     0.211 HD
ENDBRANCH   1   8
TORSDOF 5
ENDMDL
MODEL 3
REMARK VINA RESULT:    -3.334     13.358     14.568
REMARK INTER + INTRA:          -4.019
REMARK INTER:                  -3.797
REMARK INTRA:                  -0.222
REMARK UNBOUND:                -0.003
REMARK SMILES OCC(O)CO
REMARK SMILES IDX 3 1 5 2 6 3 2 5 1 6 4 8
REMARK H PARENT 6 4 1 7 4 9
REMARK Flexibility Score: inf
ROOT
ATOM      1  C   UNL     1      22.866   5.066  42.223  1.00  0.00     0.165 C 
ENDROOT
BRANCH   1   2
ATOM      2  C   UNL     1      23.548   6.398  42.587  1.00  0.00     0.190 C 
BRANCH   2   3
ATOM      3  O   UNL     1      23.787   7.170  41.441  1.00  0.00    -0.394 OA
ATOM      4  H   UNL     1      23.001   7.045  40.846  1.00  0.00     0.210 HD
ENDBRANCH   2   3
ENDBRANCH   1   2
BRANCH   1   5
ATOM      5  C   UNL     1      23.145   4.658  40.767  1.00  0.00     0.190 C 
BRANCH   5   6
ATOM      6  O   UNL     1      22.254   5.288  39.884  1.00  0.00    -0.394 OA
ATOM      7  H   UNL     1      21.735   4.568  39.440  1.00  0.00     0.210 HD
ENDBRANCH   5   6
ENDBRANCH   1   5
BRANCH   1   8
ATOM      8  O   UNL     1      21.479   5.173  42.417  1.00  0.00    -0.388 OA
ATOM      9  H   UNL     1      21.298   6.113  42.682  1.00  0.00     0.211 HD
ENDBRANCH   1   8
TORSDOF 5
ENDMDL
MODEL 4
REMARK VINA RESULT:    -3.309     16.119     17.289
REMARK INTER + INTRA:          -3.988
REMARK INTER:                  -3.764
REMARK INTRA:                  -0.224
REMARK UNBOUND:                -0.003
REMARK SMILES OCC(O)CO
REMARK SMILES IDX 3 1 5 2 6 3 2 5 1 6 4 8
REMARK H PARENT 6 4 1 7 4 9
REMARK Flexibility Score: inf
ROOT
ATOM      1  C   UNL     1      20.965   5.201  36.704  1.00  0.00     0.165 C 
ENDROOT
BRANCH   1   2
ATOM      2  C   UNL     1      22.323   5.026  37.409  1.00  0.00     0.190 C 
BRANCH   2   3
ATOM      3  O   UNL     1      22.840   6.263  37.818  1.00  0.00    -0.394 OA
ATOM      4  H   UNL     1      23.334   6.098  38.664  1.00  0.00     0.210 HD
ENDBRANCH   2   3
ENDBRANCH   1   2
BRANCH   1   5
ATOM      5  C   UNL     1      21.049   6.194  35.534  1.00  0.00     0.190 C 
BRANCH   5   6
ATOM      6  O   UNL     1      20.935   7.518  35.982  1.00  0.00    -0.394 OA
ATOM      7  H   UNL     1      19.982   7.661  36.217  1.00  0.00     0.210 HD
ENDBRANCH   5   6
ENDBRANCH   1   5
BRANCH   1   8
ATOM      8  O   UNL     1      20.005   5.652  37.625  1.00  0.00    -0.388 OA
ATOM      9  H   UNL     1      20.468   5.746  38.499  1.00  0.00     0.211 HD
ENDBRANCH   1   8
TORSDOF 5
ENDMDL
MODEL 5
REMARK VINA RESULT:    -3.299     16.423     17.133
REMARK INTER + INTRA:          -3.977
REMARK INTER:                  -3.952
REMARK INTRA:                  -0.025
REMARK UNBOUND:                -0.003
REMARK SMILES OCC(O)CO
REMARK SMILES IDX 3 1 5 2 6 3 2 5 1 6 4 8
REMARK H PARENT 6 4 1 7 4 9
REMARK Flexibility Score: inf
ROOT
ATOM      1  C   UNL     1      21.771   5.491  36.890  1.00  0.00     0.165 C 
ENDROOT
BRANCH   1   2
ATOM      2  C   UNL     1      20.797   6.189  35.924  1.00  0.00     0.190 C 
BRANCH   2   3
ATOM      3  O   UNL     1      21.020   7.574  35.899  1.00  0.00    -0.394 OA
ATOM      4  H   UNL     1      21.430   7.778  35.018  1.00  0.00     0.210 HD
ENDBRANCH   2   3
ENDBRANCH   1   2
BRANCH   1   5
ATOM      5  C   UNL     1      21.038   4.570  37.878  1.00  0.00     0.190 C 
BRANCH   5   6
ATOM      6  O   UNL     1      20.165   5.299  38.700  1.00  0.00    -0.394 OA
ATOM      7  H   UNL     1      20.252   6.252  38.437  1.00  0.00     0.210 HD
ENDBRANCH   5   6
ENDBRANCH   1   5
BRANCH   1   8
ATOM      8  O   UNL     1      22.502   6.452  37.609  1.00  0.00    -0.388 OA
ATOM      9  H   UNL     1      21.933   7.265  37.659  1.00  0.00     0.211 HD
ENDBRANCH   1   8
TORSDOF 5
ENDMDL
MODEL 6
REMARK VINA RESULT:    -3.295      1.582      3.524
REMARK INTER + INTRA:          -3.972
REMARK INTER:                  -3.967
REMARK INTRA:                  -0.005
REMARK UNBOUND:                -0.003
REMARK SMILES OCC(O)CO
REMARK SMILES IDX 3 1 5 2 6 3 2 5 1 6 4 8
REMARK H PARENT 6 4 1 7 4 9
REMARK Flexibility Score: inf
ROOT
ATOM      1  C   UNL     1      34.857  14.519  46.563  1.00  0.00     0.165 C 
ENDROOT
BRANCH   1   2
ATOM      2  C   UNL     1      35.785  15.723  46.813  1.00  0.00     0.190 C 
BRANCH   2   3
ATOM      3  O   UNL     1      37.130  15.329  46.816  1.00  0.00    -0.394 OA
ATOM      4  H   UNL     1      37.163  14.428  46.400  1.00  0.00     0.210 HD
ENDBRANCH   2   3
ENDBRANCH   1   2
BRANCH   1   5
ATOM      5  C   UNL     1      33.802  14.822  45.487  1.00  0.00     0.190 C 
BRANCH   5   6
ATOM      6  O   UNL     1      33.196  16.069  45.707  1.00  0.00    -0.394 OA
ATOM      7  H   UNL     1      32.608  15.966  46.499  1.00  0.00     0.210 HD
ENDBRANCH   5   6
ENDBRANCH   1   5
BRANCH   1   8
ATOM      8  O   UNL     1      34.211  14.159  47.757  1.00  0.00    -0.388 OA
ATOM      9  H   UNL     1      33.384  13.672  47.500  1.00  0.00     0.211 HD
ENDBRANCH   1   8
TORSDOF 5
ENDMDL
MODEL 7
REMARK VINA RESULT:    -3.262     13.517     14.055
REMARK INTER + INTRA:          -3.932
REMARK INTER:                  -3.737
REMARK INTRA:                  -0.195
REMARK UNBOUND:                -0.003
REMARK SMILES OCC(O)CO
REMARK SMILES IDX 3 1 5 2 6 3 2 5 1 6 4 8
REMARK H PARENT 6 4 1 7 4 9
REMARK Flexibility Score: inf
ROOT
ATOM      1  C   UNL     1      31.930   1.497  42.783  1.00  0.00     0.165 C 
ENDROOT
BRANCH   1   2
ATOM      2  C   UNL     1      32.517   1.083  44.145  1.00  0.00     0.190 C 
BRANCH   2   3
ATOM      3  O   UNL     1      31.498   0.778  45.059  1.00  0.00    -0.394 OA
ATOM      4  H   UNL     1      31.401  -0.210  45.055  1.00  0.00     0.210 HD
ENDBRANCH   2   3
ENDBRANCH   1   2
BRANCH   1   5
ATOM      5  C   UNL     1      30.534   2.125  42.927  1.00  0.00     0.190 C 
BRANCH   5   6
ATOM      6  O   UNL     1      29.526   1.181  42.679  1.00  0.00    -0.394 OA
ATOM      7  H   UNL     1      29.863   0.583  41.962  1.00  0.00     0.210 HD
ENDBRANCH   5   6
ENDBRANCH   1   5
BRANCH   1   8
ATOM      8  O   UNL     1      31.850   0.378  41.938  1.00  0.00    -0.388 OA
ATOM      9  H   UNL     1      32.124   0.682  41.033  1.00  0.00     0.211 HD
ENDBRANCH   1   8
TORSDOF 5
ENDMDL
MODEL 8
REMARK VINA RESULT:    -3.243     12.742     13.579
REMARK INTER + INTRA:          -3.909
REMARK INTER:                  -3.685
REMARK INTRA:                  -0.224
REMARK UNBOUND:                -0.003
REMARK SMILES OCC(O)CO
REMARK SMILES IDX 3 1 5 2 6 3 2 5 1 6 4 8
REMARK H PARENT 6 4 1 7 4 9
REMARK Flexibility Score: inf
ROOT
ATOM      1  C   UNL     1      38.997   1.470  45.429  1.00  0.00     0.165 C 
ENDROOT
BRANCH   1   2
ATOM      2  C   UNL     1      38.470   2.491  44.404  1.00  0.00     0.190 C 
BRANCH   2   3
ATOM      3  O   UNL     1      38.625   3.802  44.875  1.00  0.00    -0.394 OA
ATOM      4  H   UNL     1      37.938   3.933  45.580  1.00  0.00     0.210 HD
ENDBRANCH   2   3
ENDBRANCH   1   2
BRANCH   1   5
ATOM      5  C   UNL     1      37.921   1.081  46.457  1.00  0.00     0.190 C 
BRANCH   5   6
ATOM      6  O   UNL     1      37.088   2.170  46.756  1.00  0.00    -0.394 OA
ATOM      7  H   UNL     1      37.682   2.927  46.998  1.00  0.00     0.210 HD
ENDBRANCH   5   6
ENDBRANCH   1   5
BRANCH   1   8
ATOM      8  O   UNL     1      40.109   2.002  46.102  1.00  0.00    -0.388 OA
ATOM      9  H   UNL     1      40.302   1.392  46.864  1.00  0.00     0.211 HD
ENDBRANCH   1   8
TORSDOF 5
ENDMDL
MODEL 9
REMARK VINA RESULT:    -3.238      7.392      7.968
REMARK INTER + INTRA:          -3.904
REMARK INTER:                  -3.680
REMARK INTRA:                  -0.224
REMARK UNBOUND:                -0.003
REMARK SMILES OCC(O)CO
REMARK SMILES IDX 3 1 5 2 6 3 2 5 1 6 4 8
REMARK H PARENT 6 4 1 7 4 9
REMARK Flexibility Score: inf
ROOT
ATOM      1  C   UNL     1      29.231  15.082  52.282  1.00  0.00     0.165 C 
ENDROOT
BRANCH   1   2
ATOM      2  C   UNL     1      29.250  15.469  50.792  1.00  0.00     0.190 C 
BRANCH   2   3
ATOM      3  O   UNL     1      29.250  14.329  49.976  1.00  0.00    -0.394 OA
ATOM      4  H   UNL     1      29.187  13.546  50.583  1.00  0.00     0.210 HD
ENDBRANCH   2   3
ENDBRANCH   1   2
BRANCH   1   5
ATOM      5  C   UNL     1      28.430  13.793  52.529  1.00  0.00     0.190 C 
BRANCH   5   6
ATOM      6  O   UNL     1      29.238  12.656  52.378  1.00  0.00    -0.394 OA
ATOM      7  H   UNL     1      28.655  11.935  52.023  1.00  0.00     0.210 HD
ENDBRANCH   5   6
ENDBRANCH   1   5
BRANCH   1   8
ATOM      8  O   UNL     1      28.673  16.125  53.039  1.00  0.00    -0.388 OA
ATOM      9  H   UNL     1      28.174  16.704  52.404  1.00  0.00     0.211 HD
ENDBRANCH   1   8
TORSDOF 5
ENDMDL
