MODEL 1
REMARK VINA RESULT:    -4.432      0.000      0.000
REMARK INTER + INTRA:          -5.606
REMARK INTER:                  -6.246
REMARK INTRA:                   0.640
REMARK UNBOUND:                 0.640
REMARK SMILES CC1=CCC(=C(C)C)C(=O)CC(C)=CCC1
REMARK SMILES IDX 12 1 14 2 13 3 15 4 16 5 2 6 1 7 3 8 11 10 9 11 10 12 5 13
REMARK SMILES IDX 6 14 7 15 8 16 4 17
REMARK H PARENT
REMARK Flexibility Score: 60.00
ROOT
ATOM      1  C   UNL     1      16.526  25.190   5.044  1.00  0.00    -0.070 C 
ATOM      2  C   UNL     1      17.529  24.937   4.172  1.00  0.00    -0.027 C 
ATOM      3  C   UNL     1      15.242  25.761   4.499  1.00  0.00     0.039 C 
ENDROOT
BRANCH   2   4
ATOM      4  C   UNL     1      18.910  24.435   4.523  1.00  0.00     0.032 C 
BRANCH   4   5
ATOM      5  C   UNL     1      20.033  25.327   3.964  1.00  0.00     0.034 C 
BRANCH   5   6
ATOM      6  C   UNL     1      20.094  26.682   4.644  1.00  0.00    -0.077 C 
ATOM      7  C   UNL     1      20.232  27.910   3.781  1.00  0.00     0.039 C 
ATOM      8  C   UNL     1      20.011  26.859   5.982  1.00  0.00    -0.023 CG0
ATOM      9  G   UNL     1      19.813  25.768   7.009  1.00  0.00     0.000 G0
ENDBRANCH   5   6
ENDBRANCH   4   5
ENDBRANCH   2   4
BRANCH   1  10
ATOM     10  C   UNL     1      16.628  24.951   6.540  1.00  0.00     0.111 C 
BRANCH  10  11
ATOM     11  C   UNL     1      17.261  26.114   7.265  1.00  0.00     0.163 C 
ATOM     12  O   UNL     1      16.653  27.218   7.261  1.00  0.00    -0.294 OA
BRANCH  11  13
ATOM     13  C   UNL     1      18.607  26.021   7.909  1.00  0.00    -0.002 C 
ATOM     14  C   UNL     1      18.725  26.027   9.268  1.00  0.00    -0.069 C 
ATOM     15  C   UNL     1      20.063  25.826   9.943  1.00  0.00     0.039 C 
ATOM     16  C   UNL     1      17.513  26.184  10.162  1.00  0.00     0.039 C 
BRANCH  13  17
ATOM     17  C   UNL     1      19.818  25.766   7.020  1.00  0.00     0.066 CG0
ATOM     18  G   UNL     1      19.991  26.853   5.985  1.00  0.00     0.000 G0
ENDBRANCH  13  17
ENDBRANCH  11  13
ENDBRANCH  10  11
ENDBRANCH   1  10
TORSDOF 0
ENDMDL
MODEL 2
REMARK VINA RESULT:    -4.306      1.545      4.257
REMARK INTER + INTRA:          -5.428
REMARK INTER:                  -6.077
REMARK INTRA:                   0.649
REMARK UNBOUND:                 0.640
REMARK SMILES CC1=CCC(=C(C)C)C(=O)CC(C)=CCC1
REMARK SMILES IDX 12 1 14 2 13 3 15 4 16 5 2 6 1 7 3 8 11 10 9 11 10 12 5 13
REMARK SMILES IDX 6 14 7 15 8 16 4 17
REMARK H PARENT
REMARK Flexibility Score: 60.00
ROOT
ATOM      1  C   UNL     1      15.767  24.847   6.969  1.00  0.00    -0.070 C 
ATOM      2  C   UNL     1      16.011  25.528   8.113  1.00  0.00    -0.027 C 
ATOM      3  C   UNL     1      15.077  23.512   7.074  1.00  0.00     0.039 C 
ENDROOT
BRANCH   2   4
ATOM      4  C   UNL     1      16.749  26.841   8.229  1.00  0.00     0.032 C 
BRANCH   4   5
ATOM      5  C   UNL     1      17.920  26.785   9.225  1.00  0.00     0.034 C 
BRANCH   5   6
ATOM      6  C   UNL     1      19.088  25.965   8.708  1.00  0.00    -0.077 C 
ATOM      7  C   UNL     1      19.732  24.970   9.640  1.00  0.00     0.039 C 
ATOM      8  C   UNL     1      19.575  26.057   7.450  1.00  0.00    -0.023 CG0
ATOM      9  G   UNL     1      19.034  26.946   6.354  1.00  0.00     0.000 G0
ENDBRANCH   5   6
ENDBRANCH   4   5
ENDBRANCH   2   4
BRANCH   1  10
ATOM     10  C   UNL     1      16.166  25.343   5.590  1.00  0.00     0.111 C 
BRANCH  10  11
ATOM     11  C   UNL     1      17.621  25.082   5.286  1.00  0.00     0.163 C 
ATOM     12  O   UNL     1      18.014  23.885   5.241  1.00  0.00    -0.294 OA
BRANCH  11  13
ATOM     13  C   UNL     1      18.617  26.186   5.121  1.00  0.00    -0.002 C 
ATOM     14  C   UNL     1      19.018  26.574   3.876  1.00  0.00    -0.069 C 
ATOM     15  C   UNL     1      19.939  27.757   3.680  1.00  0.00     0.039 C 
ATOM     16  C   UNL     1      18.517  25.870   2.633  1.00  0.00     0.039 C 
BRANCH  13  17
ATOM     17  C   UNL     1      19.049  26.961   6.360  1.00  0.00     0.066 CG0
ATOM     18  G   UNL     1      19.584  26.044   7.435  1.00  0.00     0.000 G0
ENDBRANCH  13  17
ENDBRANCH  11  13
ENDBRANCH  10  11
ENDBRANCH   1  10
TORSDOF 0
ENDMDL
MODEL 3
REMARK VINA RESULT:    -4.251      1.631      2.229
REMARK INTER + INTRA:          -5.350
REMARK INTER:                  -6.094
REMARK INTRA:                   0.743
REMARK UNBOUND:                 0.640
REMARK SMILES CC1=CCC(=C(C)C)C(=O)CC(C)=CCC1
REMARK SMILES IDX 12 1 14 2 13 3 15 4 16 5 2 6 1 7 3 8 11 10 9 11 10 12 5 13
REMARK SMILES IDX 6 14 7 15 8 16 4 17
REMARK H PARENT
REMARK Flexibility Score: 60.00
ROOT
ATOM      1  C   UNL     1      16.672  26.091   4.295  1.00  0.00    -0.070 C 
ATOM      2  C   UNL     1      17.284  27.113   3.651  1.00  0.00    -0.027 C 
ATOM      3  C   UNL     1      15.369  26.376   4.996  1.00  0.00     0.039 C 
ENDROOT
BRANCH   2   4
ATOM      4  C   UNL     1      18.622  27.053   2.953  1.00  0.00     0.032 C 
BRANCH   4   5
ATOM      5  C   UNL     1      19.780  27.556   3.832  1.00  0.00     0.034 C 
BRANCH   5   6
ATOM      6  C   UNL     1      20.621  26.425   4.395  1.00  0.00    -0.077 C 
ATOM      7  C   UNL     1      21.717  25.852   3.533  1.00  0.00     0.039 C 
ATOM      8  C   UNL     1      20.460  25.912   5.635  1.00  0.00    -0.023 CG0
ATOM      9  G   UNL     1      19.463  26.384   6.667  1.00  0.00     0.000 G0
ENDBRANCH   5   6
ENDBRANCH   4   5
ENDBRANCH   2   4
BRANCH   1  10
ATOM     10  C   UNL     1      17.234  24.683   4.367  1.00  0.00     0.111 C 
BRANCH  10  11
ATOM     11  C   UNL     1      18.058  24.456   5.611  1.00  0.00     0.163 C 
ATOM     12  O   UNL     1      18.580  23.322   5.780  1.00  0.00    -0.294 OA
BRANCH  11  13
ATOM     13  C   UNL     1      18.204  25.495   6.677  1.00  0.00    -0.002 C 
ATOM     14  C   UNL     1      17.312  25.558   7.707  1.00  0.00    -0.069 C 
ATOM     15  C   UNL     1      17.500  26.528   8.852  1.00  0.00     0.039 C 
ATOM     16  C   UNL     1      16.123  24.624   7.777  1.00  0.00     0.039 C 
BRANCH  13  17
ATOM     17  C   UNL     1      19.450  26.373   6.665  1.00  0.00     0.066 CG0
ATOM     18  G   UNL     1      20.455  25.904   5.638  1.00  0.00     0.000 G0
ENDBRANCH  13  17
ENDBRANCH  11  13
ENDBRANCH  10  11
ENDBRANCH   1  10
TORSDOF 0
ENDMDL
MODEL 4
REMARK VINA RESULT:    -3.585      1.638      4.237
REMARK INTER + INTRA:          -4.412
REMARK INTER:                  -5.863
REMARK INTRA:                   1.451
REMARK UNBOUND:                 0.640
REMARK SMILES CC1=CCC(=C(C)C)C(=O)CC(C)=CCC1
REMARK SMILES IDX 12 1 14 2 13 3 15 4 16 5 2 6 1 7 3 8 11 10 9 11 10 12 5 13
REMARK SMILES IDX 6 14 7 15 8 16 4 17
REMARK H PARENT
REMARK Flexibility Score: 60.00
ROOT
ATOM      1  C   UNL     1      17.026  25.469   4.737  1.00  0.00    -0.070 C 
ATOM      2  C   UNL     1      16.299  25.922   5.785  1.00  0.00    -0.027 C 
ATOM      3  C   UNL     1      16.779  26.086   3.385  1.00  0.00     0.039 C 
ENDROOT
BRANCH   2   4
ATOM      4  C   UNL     1      16.344  25.390   7.198  1.00  0.00     0.032 C 
BRANCH   4   5
ATOM      5  C   UNL     1      17.035  26.352   8.180  1.00  0.00     0.034 C 
BRANCH   5   6
ATOM      6  C   UNL     1      18.520  26.073   8.322  1.00  0.00    -0.077 C 
ATOM      7  C   UNL     1      18.997  25.348   9.554  1.00  0.00     0.039 C 
ATOM      8  C   UNL     1      19.444  26.419   7.396  1.00  0.00    -0.023 CG0
ATOM      9  G   UNL     1      19.163  27.095   6.075  1.00  0.00     0.000 G0
ENDBRANCH   5   6
ENDBRANCH   4   5
ENDBRANCH   2   4
BRANCH   1  10
ATOM     10  C   UNL     1      18.059  24.362   4.843  1.00  0.00     0.111 C 
BRANCH  10  11
ATOM     11  C   UNL     1      19.471  24.882   4.732  1.00  0.00     0.163 C 
ATOM     12  O   UNL     1      20.401  24.048   4.562  1.00  0.00    -0.294 OA
BRANCH  11  13
ATOM     13  C   UNL     1      19.808  26.330   4.899  1.00  0.00    -0.002 C 
ATOM     14  C   UNL     1      20.560  26.976   3.962  1.00  0.00    -0.069 C 
ATOM     15  C   UNL     1      20.823  28.463   4.053  1.00  0.00     0.039 C 
ATOM     16  C   UNL     1      21.121  26.245   2.761  1.00  0.00     0.039 C 
BRANCH  13  17
ATOM     17  C   UNL     1      19.167  27.093   6.051  1.00  0.00     0.066 CG0
ATOM     18  G   UNL     1      19.443  26.433   7.382  1.00  0.00     0.000 G0
ENDBRANCH  13  17
ENDBRANCH  11  13
ENDBRANCH  10  11
ENDBRANCH   1  10
TORSDOF 0
ENDMDL
MODEL 5
REMARK VINA RESULT:    -3.114      1.751      3.658
REMARK INTER + INTRA:          -3.748
REMARK INTER:                  -5.289
REMARK INTRA:                   1.541
REMARK UNBOUND:                 0.640
REMARK SMILES CC1=CCC(=C(C)C)C(=O)CC(C)=CCC1
REMARK SMILES IDX 12 1 14 2 13 3 15 4 16 5 2 6 1 7 3 8 11 10 9 11 10 12 5 13
REMARK SMILES IDX 6 14 7 15 8 16 4 17
REMARK H PARENT
REMARK Flexibility Score: 60.00
ROOT
ATOM      1  C   UNL     1      19.621  26.012   4.543  1.00  0.00    -0.070 C 
ATOM      2  C   UNL     1      18.990  24.865   4.198  1.00  0.00    -0.027 C 
ATOM      3  C   UNL     1      20.849  26.406   3.764  1.00  0.00     0.039 C 
ENDROOT
BRANCH   2   4
ATOM      4  C   UNL     1      17.793  24.262   4.895  1.00  0.00     0.032 C 
BRANCH   4   5
ATOM      5  C   UNL     1      16.651  25.270   5.107  1.00  0.00     0.034 C 
BRANCH   5   6
ATOM      6  C   UNL     1      15.853  24.992   6.368  1.00  0.00    -0.077 C 
ATOM      7  C   UNL     1      14.916  23.811   6.375  1.00  0.00     0.039 C 
ATOM      8  C   UNL     1      15.947  25.729   7.497  1.00  0.00    -0.023 CG0
ATOM      9  G   UNL     1      16.866  26.910   7.711  1.00  0.00     0.000 G0
ENDBRANCH   5   6
ENDBRANCH   4   5
ENDBRANCH   2   4
BRANCH   1  10
ATOM     10  C   UNL     1      19.174  26.911   5.682  1.00  0.00     0.111 C 
BRANCH  10  11
ATOM     11  C   UNL     1      19.271  26.228   7.024  1.00  0.00     0.163 C 
ATOM     12  O   UNL     1      20.189  25.382   7.196  1.00  0.00    -0.294 OA
BRANCH  11  13
ATOM     13  C   UNL     1      18.274  26.459   8.116  1.00  0.00    -0.002 C 
ATOM     14  C   UNL     1      18.657  26.402   9.424  1.00  0.00    -0.069 C 
ATOM     15  C   UNL     1      17.694  26.737  10.541  1.00  0.00     0.039 C 
ATOM     16  C   UNL     1      20.077  26.051   9.814  1.00  0.00     0.039 C 
BRANCH  13  17
ATOM     17  C   UNL     1      16.870  26.907   7.729  1.00  0.00     0.066 CG0
ATOM     18  G   UNL     1      15.951  25.731   7.497  1.00  0.00     0.000 G0
ENDBRANCH  13  17
ENDBRANCH  11  13
ENDBRANCH  10  11
ENDBRANCH   1  10
TORSDOF 0
ENDMDL
MODEL 6
REMARK VINA RESULT:    -3.056     18.511     20.875
REMARK INTER + INTRA:          -3.666
REMARK INTER:                  -5.300
REMARK INTRA:                   1.634
REMARK UNBOUND:                 0.640
REMARK SMILES CC1=CCC(=C(C)C)C(=O)CC(C)=CCC1
REMARK SMILES IDX 12 1 14 2 13 3 15 4 16 5 2 6 1 7 3 8 11 10 9 11 10 12 5 13
REMARK SMILES IDX 6 14 7 15 8 16 4 17
REMARK H PARENT
REMARK Flexibility Score: 60.00
ROOT
ATOM      1  C   UNL     1      34.087  15.607  -4.228  1.00  0.00    -0.070 C 
ATOM      2  C   UNL     1      34.381  15.128  -5.458  1.00  0.00    -0.027 C 
ATOM      3  C   UNL     1      35.115  15.439  -3.139  1.00  0.00     0.039 C 
ENDROOT
BRANCH   2   4
ATOM      4  C   UNL     1      33.465  15.132  -6.660  1.00  0.00     0.032 C 
BRANCH   4   5
ATOM      5  C   UNL     1      32.606  13.861  -6.764  1.00  0.00     0.034 C 
BRANCH   5   6
ATOM      6  C   UNL     1      31.122  14.146  -6.633  1.00  0.00    -0.077 C 
ATOM      7  C   UNL     1      30.191  12.990  -6.367  1.00  0.00     0.039 C 
ATOM      8  C   UNL     1      30.581  15.383  -6.720  1.00  0.00    -0.023 CG0
ATOM      9  G   UNL     1      31.345  16.671  -6.923  1.00  0.00     0.000 G0
ENDBRANCH   5   6
ENDBRANCH   4   5
ENDBRANCH   2   4
BRANCH   1  10
ATOM     10  C   UNL     1      32.775  16.286  -3.878  1.00  0.00     0.111 C 
BRANCH  10  11
ATOM     11  C   UNL     1      32.493  17.478  -4.759  1.00  0.00     0.163 C 
ATOM     12  O   UNL     1      33.251  18.481  -4.664  1.00  0.00    -0.294 OA
BRANCH  11  13
ATOM     13  C   UNL     1      31.308  17.540  -5.670  1.00  0.00    -0.002 C 
ATOM     14  C   UNL     1      30.308  18.439  -5.442  1.00  0.00    -0.069 C 
ATOM     15  C   UNL     1      29.155  18.595  -6.408  1.00  0.00     0.039 C 
ATOM     16  C   UNL     1      30.334  19.358  -4.239  1.00  0.00     0.039 C 
BRANCH  13  17
ATOM     17  C   UNL     1      31.323  16.688  -6.934  1.00  0.00     0.066 CG0
ATOM     18  G   UNL     1      30.593  15.381  -6.735  1.00  0.00     0.000 G0
ENDBRANCH  13  17
ENDBRANCH  11  13
ENDBRANCH  10  11
ENDBRANCH   1  10
TORSDOF 0
ENDMDL
MODEL 7
REMARK VINA RESULT:    -2.946      1.587      4.036
REMARK INTER + INTRA:          -3.511
REMARK INTER:                  -5.367
REMARK INTRA:                   1.856
REMARK UNBOUND:                 0.640
REMARK SMILES CC1=CCC(=C(C)C)C(=O)CC(C)=CCC1
REMARK SMILES IDX 12 1 14 2 13 3 15 4 16 5 2 6 1 7 3 8 11 10 9 11 10 12 5 13
REMARK SMILES IDX 6 14 7 15 8 16 4 17
REMARK H PARENT
REMARK Flexibility Score: 60.00
ROOT
ATOM      1  C   UNL     1      18.437  26.257   9.725  1.00  0.00    -0.070 C 
ATOM      2  C   UNL     1      19.470  25.660   9.085  1.00  0.00    -0.027 C 
ATOM      3  C   UNL     1      18.511  26.382  11.225  1.00  0.00     0.039 C 
ENDROOT
BRANCH   2   4
ATOM      4  C   UNL     1      19.556  25.375   7.604  1.00  0.00     0.032 C 
BRANCH   4   5
ATOM      5  C   UNL     1      19.923  26.618   6.775  1.00  0.00     0.034 C 
BRANCH   5   6
ATOM      6  C   UNL     1      19.371  26.561   5.362  1.00  0.00    -0.077 C 
ATOM      7  C   UNL     1      20.303  26.164   4.246  1.00  0.00     0.039 C 
ATOM      8  C   UNL     1      18.083  26.825   5.045  1.00  0.00    -0.023 CG0
ATOM      9  G   UNL     1      16.986  27.180   6.021  1.00  0.00     0.000 G0
ENDBRANCH   5   6
ENDBRANCH   4   5
ENDBRANCH   2   4
BRANCH   1  10
ATOM     10  C   UNL     1      17.201  26.788   9.020  1.00  0.00     0.111 C 
BRANCH  10  11
ATOM     11  C   UNL     1      16.551  25.748   8.140  1.00  0.00     0.163 C 
ATOM     12  O   UNL     1      16.216  24.652   8.663  1.00  0.00    -0.294 OA
BRANCH  11  13
ATOM     13  C   UNL     1      16.371  25.943   6.668  1.00  0.00    -0.002 C 
ATOM     14  C   UNL     1      15.565  25.105   5.954  1.00  0.00    -0.069 C 
ATOM     15  C   UNL     1      15.282  25.346   4.488  1.00  0.00     0.039 C 
ATOM     16  C   UNL     1      14.878  23.927   6.609  1.00  0.00     0.039 C 
BRANCH  13  17
ATOM     17  C   UNL     1      16.981  27.181   6.023  1.00  0.00     0.066 CG0
ATOM     18  G   UNL     1      18.070  26.821   5.039  1.00  0.00     0.000 G0
ENDBRANCH  13  17
ENDBRANCH  11  13
ENDBRANCH  10  11
ENDBRANCH   1  10
TORSDOF 0
ENDMDL
MODEL 8
REMARK VINA RESULT:    -2.591      1.473      4.436
REMARK INTER + INTRA:          -3.010
REMARK INTER:                  -5.037
REMARK INTRA:                   2.027
REMARK UNBOUND:                 0.640
REMARK SMILES CC1=CCC(=C(C)C)C(=O)CC(C)=CCC1
REMARK SMILES IDX 12 1 14 2 13 3 15 4 16 5 2 6 1 7 3 8 11 10 9 11 10 12 5 13
REMARK SMILES IDX 6 14 7 15 8 16 4 17
REMARK H PARENT
REMARK Flexibility Score: 60.00
ROOT
ATOM      1  C   UNL     1      18.134  25.836   8.939  1.00  0.00    -0.070 C 
ATOM      2  C   UNL     1      16.855  25.456   8.715  1.00  0.00    -0.027 C 
ATOM      3  C   UNL     1      18.467  26.438  10.280  1.00  0.00     0.039 C 
ENDROOT
BRANCH   2   4
ATOM      4  C   UNL     1      16.304  24.901   7.422  1.00  0.00     0.032 C 
BRANCH   4   5
ATOM      5  C   UNL     1      16.168  25.967   6.321  1.00  0.00     0.034 C 
BRANCH   5   6
ATOM      6  C   UNL     1      16.155  25.369   4.927  1.00  0.00    -0.077 C 
ATOM      7  C   UNL     1      14.875  25.434   4.132  1.00  0.00     0.039 C 
ATOM      8  C   UNL     1      17.232  24.797   4.342  1.00  0.00    -0.023 CG0
ATOM      9  G   UNL     1      18.613  24.687   4.945  1.00  0.00     0.000 G0
ENDBRANCH   5   6
ENDBRANCH   4   5
ENDBRANCH   2   4
BRANCH   1  10
ATOM     10  C   UNL     1      19.245  25.710   7.913  1.00  0.00     0.111 C 
BRANCH  10  11
ATOM     11  C   UNL     1      18.994  26.557   6.689  1.00  0.00     0.163 C 
ATOM     12  O   UNL     1      18.523  27.714   6.853  1.00  0.00    -0.294 OA
BRANCH  11  13
ATOM     13  C   UNL     1      19.205  26.043   5.300  1.00  0.00    -0.002 C 
ATOM     14  C   UNL     1      20.012  26.715   4.430  1.00  0.00    -0.069 C 
ATOM     15  C   UNL     1      20.327  26.160   3.059  1.00  0.00     0.039 C 
ATOM     16  C   UNL     1      20.670  28.023   4.817  1.00  0.00     0.039 C 
BRANCH  13  17
ATOM     17  C   UNL     1      18.626  24.680   4.938  1.00  0.00     0.066 CG0
ATOM     18  G   UNL     1      17.237  24.800   4.355  1.00  0.00     0.000 G0
ENDBRANCH  13  17
ENDBRANCH  11  13
ENDBRANCH  10  11
ENDBRANCH   1  10
TORSDOF 0
ENDMDL
MODEL 9
REMARK VINA RESULT:    -2.334      1.640      4.278
REMARK INTER + INTRA:          -2.649
REMARK INTER:                  -4.573
REMARK INTRA:                   1.924
REMARK UNBOUND:                 0.640
REMARK SMILES CC1=CCC(=C(C)C)C(=O)CC(C)=CCC1
REMARK SMILES IDX 12 1 14 2 13 3 15 4 16 5 2 6 1 7 3 8 11 10 9 11 10 12 5 13
REMARK SMILES IDX 6 14 7 15 8 16 4 17
REMARK H PARENT
REMARK Flexibility Score: 60.00
ROOT
ATOM      1  C   UNL     1      19.822  27.155   3.960  1.00  0.00    -0.070 C 
ATOM      2  C   UNL     1      20.222  27.632   5.162  1.00  0.00    -0.027 C 
ATOM      3  C   UNL     1      19.951  28.059   2.761  1.00  0.00     0.039 C 
ENDROOT
BRANCH   2   4
ATOM      4  C   UNL     1      20.110  26.916   6.487  1.00  0.00     0.032 C 
BRANCH   4   5
ATOM      5  C   UNL     1      18.704  27.014   7.105  1.00  0.00     0.034 C 
BRANCH   5   6
ATOM      6  C   UNL     1      18.373  25.829   7.993  1.00  0.00    -0.077 C 
ATOM      7  C   UNL     1      18.277  26.054   9.480  1.00  0.00     0.039 C 
ATOM      8  C   UNL     1      18.135  24.581   7.527  1.00  0.00    -0.023 CG0
ATOM      9  G   UNL     1      18.125  24.165   6.075  1.00  0.00     0.000 G0
ENDBRANCH   5   6
ENDBRANCH   4   5
ENDBRANCH   2   4
BRANCH   1  10
ATOM     10  C   UNL     1      19.233  25.771   3.755  1.00  0.00     0.111 C 
BRANCH  10  11
ATOM     11  C   UNL     1      17.752  25.728   4.047  1.00  0.00     0.163 C 
ATOM     12  O   UNL     1      16.980  26.388   3.301  1.00  0.00    -0.294 OA
BRANCH  11  13
ATOM     13  C   UNL     1      17.188  25.004   5.227  1.00  0.00    -0.002 C 
ATOM     14  C   UNL     1      15.843  25.001   5.457  1.00  0.00    -0.069 C 
ATOM     15  C   UNL     1      15.239  24.189   6.581  1.00  0.00     0.039 C 
ATOM     16  C   UNL     1      14.891  25.770   4.567  1.00  0.00     0.039 C 
BRANCH  13  17
ATOM     17  C   UNL     1      18.128  24.150   6.069  1.00  0.00     0.066 CG0
ATOM     18  G   UNL     1      18.127  24.579   7.518  1.00  0.00     0.000 G0
ENDBRANCH  13  17
ENDBRANCH  11  13
ENDBRANCH  10  11
ENDBRANCH   1  10
TORSDOF 0
ENDMDL
