MODEL 1
REMARK VINA RESULT:    -6.196      0.000      0.000
REMARK INTER + INTRA:         -11.328
REMARK INTER:                  -9.455
REMARK INTRA:                  -1.873
REMARK UNBOUND:                -1.873
REMARK SMILES CC(=O)CCC=C(C)CCC=C(C)CCC=C(C)C
REMARK SMILES IDX 10 1 11 2 12 3 13 4 14 5 15 6 16 7 18 8 17 9 19 10 9 11 7 12
REMARK SMILES IDX 6 13 8 14 5 15 4 16 2 17 3 18 1 19
REMARK H PARENT
REMARK Flexibility Score: inf
ROOT
ATOM      1  C   UNL     1      51.946   3.425  17.015  1.00  0.00     0.032 C 
ENDROOT
BRANCH   1   2
ATOM      2  C   UNL     1      51.631   4.528  16.032  1.00  0.00    -0.028 C 
ATOM      3  C   UNL     1      50.686   4.458  15.065  1.00  0.00    -0.077 C 
ATOM      4  C   UNL     1      49.790   3.253  14.907  1.00  0.00     0.039 C 
BRANCH   3   5
ATOM      5  C   UNL     1      50.513   5.630  14.123  1.00  0.00     0.034 C 
BRANCH   5   6
ATOM      6  C   UNL     1      51.841   6.034  13.469  1.00  0.00     0.032 C 
BRANCH   6   7
ATOM      7  C   UNL     1      51.852   5.678  12.000  1.00  0.00    -0.028 C 
ATOM      8  C   UNL     1      52.873   3.418  12.361  1.00  0.00     0.039 C 
ATOM      9  C   UNL     1      52.335   4.525  11.487  1.00  0.00    -0.080 C 
ATOM     10  C   UNL     1      52.329   4.350   9.990  1.00  0.00     0.039 C 
ENDBRANCH   6   7
ENDBRANCH   5   6
ENDBRANCH   3   5
ENDBRANCH   1   2
BRANCH   1  11
ATOM     11  C   UNL     1      51.551   3.830  18.441  1.00  0.00     0.034 C 
BRANCH  11  12
ATOM     12  C   UNL     1      50.185   3.295  18.816  1.00  0.00    -0.077 C 
ATOM     13  C   UNL     1      49.844   2.042  18.434  1.00  0.00    -0.028 C 
ATOM     14  C   UNL     1      49.258   4.161  19.636  1.00  0.00     0.039 C 
BRANCH  13  15
ATOM     15  C   UNL     1      48.516   1.391  18.733  1.00  0.00     0.035 C 
BRANCH  15  16
ATOM     16  C   UNL     1      47.625   1.373  17.488  1.00  0.00     0.079 C 
BRANCH  16  17
ATOM     17  C   UNL     1      46.677   2.544  17.495  1.00  0.00     0.130 C 
ATOM     18  O   UNL     1      46.491   3.172  16.465  1.00  0.00    -0.300 OA
ATOM     19  C   UNL     1      45.945   2.949  18.740  1.00  0.00     0.087 C 
ENDBRANCH  16  17
ENDBRANCH  15  16
ENDBRANCH  13  15
ENDBRANCH  11  12
ENDBRANCH   1  11
TORSDOF 9
ENDMDL
MODEL 2
REMARK VINA RESULT:    -5.777      2.056      3.782
REMARK INTER + INTRA:         -10.690
REMARK INTER:                  -9.340
REMARK INTRA:                  -1.350
REMARK UNBOUND:                -1.873
REMARK SMILES CC(=O)CCC=C(C)CCC=C(C)CCC=C(C)C
REMARK SMILES IDX 10 1 11 2 12 3 13 4 14 5 15 6 16 7 18 8 17 9 19 10 9 11 7 12
REMARK SMILES IDX 6 13 8 14 5 15 4 16 2 17 3 18 1 19
REMARK H PARENT
REMARK Flexibility Score: inf
ROOT
ATOM      1  C   UNL     1      48.942   1.270  18.219  1.00  0.00     0.032 C 
ENDROOT
BRANCH   1   2
ATOM      2  C   UNL     1      48.790   1.717  16.784  1.00  0.00    -0.028 C 
ATOM      3  C   UNL     1      49.482   2.730  16.211  1.00  0.00    -0.077 C 
ATOM      4  C   UNL     1      50.545   3.498  16.958  1.00  0.00     0.039 C 
BRANCH   3   5
ATOM      5  C   UNL     1      49.191   3.092  14.770  1.00  0.00     0.034 C 
BRANCH   5   6
ATOM      6  C   UNL     1      50.096   4.228  14.276  1.00  0.00     0.032 C 
BRANCH   6   7
ATOM      7  C   UNL     1      51.154   3.706  13.331  1.00  0.00    -0.028 C 
ATOM      8  C   UNL     1      51.800   5.979  12.497  1.00  0.00     0.039 C 
ATOM      9  C   UNL     1      51.905   4.474  12.510  1.00  0.00    -0.080 C 
ATOM     10  C   UNL     1      52.875   3.791  11.581  1.00  0.00     0.039 C 
ENDBRANCH   6   7
ENDBRANCH   5   6
ENDBRANCH   3   5
ENDBRANCH   1   2
BRANCH   1  11
ATOM     11  C   UNL     1      47.652   1.517  19.012  1.00  0.00     0.034 C 
BRANCH  11  12
ATOM     12  C   UNL     1      47.356   2.995  19.153  1.00  0.00    -0.077 C 
ATOM     13  C   UNL     1      48.268   3.792  19.756  1.00  0.00    -0.028 C 
ATOM     14  C   UNL     1      46.067   3.543  18.586  1.00  0.00     0.039 C 
BRANCH  13  15
ATOM     15  C   UNL     1      48.097   5.276  19.969  1.00  0.00     0.035 C 
BRANCH  15  16
ATOM     16  C   UNL     1      49.457   5.976  20.044  1.00  0.00     0.079 C 
BRANCH  16  17
ATOM     17  C   UNL     1      49.537   7.090  19.033  1.00  0.00     0.130 C 
ATOM     18  O   UNL     1      49.967   6.856  17.914  1.00  0.00    -0.300 OA
ATOM     19  C   UNL     1      49.089   8.482  19.366  1.00  0.00     0.087 C 
ENDBRANCH  16  17
ENDBRANCH  15  16
ENDBRANCH  13  15
ENDBRANCH  11  12
ENDBRANCH   1  11
TORSDOF 9
ENDMDL
MODEL 3
REMARK VINA RESULT:    -5.732      1.557      2.957
REMARK INTER + INTRA:         -10.621
REMARK INTER:                  -9.504
REMARK INTRA:                  -1.117
REMARK UNBOUND:                -1.873
REMARK SMILES CC(=O)CCC=C(C)CCC=C(C)CCC=C(C)C
REMARK SMILES IDX 10 1 11 2 12 3 13 4 14 5 15 6 16 7 18 8 17 9 19 10 9 11 7 12
REMARK SMILES IDX 6 13 8 14 5 15 4 16 2 17 3 18 1 19
REMARK H PARENT
REMARK Flexibility Score: inf
ROOT
ATOM      1  C   UNL     1      50.285   4.284  14.690  1.00  0.00     0.032 C 
ENDROOT
BRANCH   1   2
ATOM      2  C   UNL     1      50.988   4.132  13.362  1.00  0.00    -0.028 C 
ATOM      3  C   UNL     1      52.295   3.812  13.209  1.00  0.00    -0.077 C 
ATOM      4  C   UNL     1      53.190   3.515  14.388  1.00  0.00     0.039 C 
BRANCH   3   5
ATOM      5  C   UNL     1      52.872   3.738  11.812  1.00  0.00     0.034 C 
BRANCH   5   6
ATOM      6  C   UNL     1      52.161   4.699  10.851  1.00  0.00     0.032 C 
BRANCH   6   7
ATOM      7  C   UNL     1      52.161   4.155   9.441  1.00  0.00    -0.028 C 
ATOM      8  C   UNL     1      53.569   6.013   8.521  1.00  0.00     0.039 C 
ATOM      9  C   UNL     1      52.762   4.745   8.384  1.00  0.00    -0.080 C 
ATOM     10  C   UNL     1      52.615   4.104   7.028  1.00  0.00     0.039 C 
ENDBRANCH   6   7
ENDBRANCH   5   6
ENDBRANCH   3   5
ENDBRANCH   1   2
BRANCH   1  11
ATOM     11  C   UNL     1      49.390   3.073  14.981  1.00  0.00     0.034 C 
BRANCH  11  12
ATOM     12  C   UNL     1      49.405   2.705  16.450  1.00  0.00    -0.077 C 
ATOM     13  C   UNL     1      48.403   1.943  16.946  1.00  0.00    -0.028 C 
ATOM     14  C   UNL     1      50.557   3.168  17.310  1.00  0.00     0.039 C 
BRANCH  13  15
ATOM     15  C   UNL     1      48.291   1.512  18.387  1.00  0.00     0.035 C 
BRANCH  15  16
ATOM     16  C   UNL     1      47.032   2.094  19.034  1.00  0.00     0.079 C 
BRANCH  16  17
ATOM     17  C   UNL     1      47.144   3.591  19.164  1.00  0.00     0.130 C 
ATOM     18  O   UNL     1      46.286   4.303  18.666  1.00  0.00    -0.300 OA
ATOM     19  C   UNL     1      48.282   4.228  19.904  1.00  0.00     0.087 C 
ENDBRANCH  16  17
ENDBRANCH  15  16
ENDBRANCH  13  15
ENDBRANCH  11  12
ENDBRANCH   1  11
TORSDOF 9
ENDMDL
MODEL 4
REMARK VINA RESULT:    -5.699      4.158      6.504
REMARK INTER + INTRA:         -10.570
REMARK INTER:                  -9.252
REMARK INTRA:                  -1.319
REMARK UNBOUND:                -1.873
REMARK SMILES CC(=O)CCC=C(C)CCC=C(C)CCC=C(C)C
REMARK SMILES IDX 10 1 11 2 12 3 13 4 14 5 15 6 16 7 18 8 17 9 19 10 9 11 7 12
REMARK SMILES IDX 6 13 8 14 5 15 4 16 2 17 3 18 1 19
REMARK H PARENT
REMARK Flexibility Score: inf
ROOT
ATOM      1  C   UNL     1      47.561   5.296  19.810  1.00  0.00     0.032 C 
ENDROOT
BRANCH   1   2
ATOM      2  C   UNL     1      48.009   3.858  19.704  1.00  0.00    -0.028 C 
ATOM      3  C   UNL     1      47.270   2.852  19.181  1.00  0.00    -0.077 C 
ATOM      4  C   UNL     1      45.903   3.088  18.585  1.00  0.00     0.039 C 
BRANCH   3   5
ATOM      5  C   UNL     1      47.837   1.448  19.182  1.00  0.00     0.034 C 
BRANCH   5   6
ATOM      6  C   UNL     1      49.103   1.346  18.322  1.00  0.00     0.032 C 
BRANCH   6   7
ATOM      7  C   UNL     1      48.799   1.641  16.872  1.00  0.00    -0.028 C 
ATOM      8  C   UNL     1      50.335   3.617  16.755  1.00  0.00     0.039 C 
ATOM      9  C   UNL     1      49.321   2.668  16.165  1.00  0.00    -0.080 C 
ATOM     10  C   UNL     1      48.867   2.861  14.741  1.00  0.00     0.039 C 
ENDBRANCH   6   7
ENDBRANCH   5   6
ENDBRANCH   3   5
ENDBRANCH   1   2
BRANCH   1  11
ATOM     11  C   UNL     1      48.731   6.257  19.560  1.00  0.00     0.034 C 
BRANCH  11  12
ATOM     12  C   UNL     1      48.258   7.687  19.405  1.00  0.00    -0.077 C 
ATOM     13  C   UNL     1      46.937   7.957  19.525  1.00  0.00    -0.028 C 
ATOM     14  C   UNL     1      49.277   8.773  19.156  1.00  0.00     0.039 C 
BRANCH  13  15
ATOM     15  C   UNL     1      46.332   9.332  19.386  1.00  0.00     0.035 C 
BRANCH  15  16
ATOM     16  C   UNL     1      45.103   9.480  20.287  1.00  0.00     0.079 C 
BRANCH  16  17
ATOM     17  C   UNL     1      43.887   9.840  19.474  1.00  0.00     0.130 C 
ATOM     18  O   UNL     1      44.015  10.115  18.291  1.00  0.00    -0.300 OA
ATOM     19  C   UNL     1      42.516   9.857  20.082  1.00  0.00     0.087 C 
ENDBRANCH  16  17
ENDBRANCH  15  16
ENDBRANCH  13  15
ENDBRANCH  11  12
ENDBRANCH   1  11
TORSDOF 9
ENDMDL
MODEL 5
REMARK VINA RESULT:    -5.694      2.860      6.573
REMARK INTER + INTRA:         -10.563
REMARK INTER:                  -8.520
REMARK INTRA:                  -2.043
REMARK UNBOUND:                -1.873
REMARK SMILES CC(=O)CCC=C(C)CCC=C(C)CCC=C(C)C
REMARK SMILES IDX 10 1 11 2 12 3 13 4 14 5 15 6 16 7 18 8 17 9 19 10 9 11 7 12
REMARK SMILES IDX 6 13 8 14 5 15 4 16 2 17 3 18 1 19
REMARK H PARENT
REMARK Flexibility Score: inf
ROOT
ATOM      1  C   UNL     1      49.153   2.633  14.846  1.00  0.00     0.032 C 
ENDROOT
BRANCH   1   2
ATOM      2  C   UNL     1      47.864   2.870  15.597  1.00  0.00    -0.028 C 
ATOM      3  C   UNL     1      47.499   2.227  16.732  1.00  0.00    -0.077 C 
ATOM      4  C   UNL     1      48.398   1.220  17.406  1.00  0.00     0.039 C 
BRANCH   3   5
ATOM      5  C   UNL     1      46.154   2.540  17.351  1.00  0.00     0.034 C 
BRANCH   5   6
ATOM      6  C   UNL     1      46.282   2.910  18.834  1.00  0.00     0.032 C 
BRANCH   6   7
ATOM      7  C   UNL     1      46.679   4.359  18.998  1.00  0.00    -0.028 C 
ATOM      8  C   UNL     1      48.870   3.831  20.095  1.00  0.00     0.039 C 
ATOM      9  C   UNL     1      47.820   4.787  19.584  1.00  0.00    -0.080 C 
ATOM     10  C   UNL     1      48.038   6.271  19.726  1.00  0.00     0.039 C 
ENDBRANCH   6   7
ENDBRANCH   5   6
ENDBRANCH   3   5
ENDBRANCH   1   2
BRANCH   1  11
ATOM     11  C   UNL     1      49.990   3.916  14.772  1.00  0.00     0.034 C 
BRANCH  11  12
ATOM     12  C   UNL     1      51.192   3.854  15.690  1.00  0.00    -0.077 C 
ATOM     13  C   UNL     1      50.993   3.764  17.025  1.00  0.00    -0.028 C 
ATOM     14  C   UNL     1      52.577   3.859  15.088  1.00  0.00     0.039 C 
BRANCH  13  15
ATOM     15  C   UNL     1      52.097   3.703  18.051  1.00  0.00     0.035 C 
BRANCH  15  16
ATOM     16  C   UNL     1      52.079   2.364  18.794  1.00  0.00     0.079 C 
BRANCH  16  17
ATOM     17  C   UNL     1      53.435   1.711  18.746  1.00  0.00     0.130 C 
ATOM     18  O   UNL     1      53.816   1.047  19.698  1.00  0.00    -0.300 OA
ATOM     19  C   UNL     1      54.327   1.846  17.548  1.00  0.00     0.087 C 
ENDBRANCH  16  17
ENDBRANCH  15  16
ENDBRANCH  13  15
ENDBRANCH  11  12
ENDBRANCH   1  11
TORSDOF 9
ENDMDL
MODEL 6
REMARK VINA RESULT:    -5.565      1.718      3.053
REMARK INTER + INTRA:         -10.365
REMARK INTER:                  -8.830
REMARK INTRA:                  -1.535
REMARK UNBOUND:                -1.873
REMARK SMILES CC(=O)CCC=C(C)CCC=C(C)CCC=C(C)C
REMARK SMILES IDX 10 1 11 2 12 3 13 4 14 5 15 6 16 7 18 8 17 9 19 10 9 11 7 12
REMARK SMILES IDX 6 13 8 14 5 15 4 16 2 17 3 18 1 19
REMARK H PARENT
REMARK Flexibility Score: inf
ROOT
ATOM      1  C   UNL     1      50.479   4.424  14.457  1.00  0.00     0.032 C 
ENDROOT
BRANCH   1   2
ATOM      2  C   UNL     1      51.041   4.255  13.065  1.00  0.00    -0.028 C 
ATOM      3  C   UNL     1      52.265   3.755  12.778  1.00  0.00    -0.077 C 
ATOM      4  C   UNL     1      53.196   3.250  13.854  1.00  0.00     0.039 C 
BRANCH   3   5
ATOM      5  C   UNL     1      52.710   3.686  11.333  1.00  0.00     0.034 C 
BRANCH   5   6
ATOM      6  C   UNL     1      52.488   5.019  10.606  1.00  0.00     0.032 C 
BRANCH   6   7
ATOM      7  C   UNL     1      53.729   5.880  10.662  1.00  0.00    -0.028 C 
ATOM      8  C   UNL     1      52.769   7.483  12.333  1.00  0.00     0.039 C 
ATOM      9  C   UNL     1      53.860   6.999  11.409  1.00  0.00    -0.080 C 
ATOM     10  C   UNL     1      55.144   7.782  11.305  1.00  0.00     0.039 C 
ENDBRANCH   6   7
ENDBRANCH   5   6
ENDBRANCH   3   5
ENDBRANCH   1   2
BRANCH   1  11
ATOM     11  C   UNL     1      49.465   3.318  14.779  1.00  0.00     0.034 C 
BRANCH  11  12
ATOM     12  C   UNL     1      49.529   2.907  16.234  1.00  0.00    -0.077 C 
ATOM     13  C   UNL     1      48.589   2.061  16.718  1.00  0.00    -0.028 C 
ATOM     14  C   UNL     1      50.658   3.423  17.094  1.00  0.00     0.039 C 
BRANCH  13  15
ATOM     15  C   UNL     1      48.530   1.579  18.146  1.00  0.00     0.035 C 
BRANCH  15  16
ATOM     16  C   UNL     1      47.216   2.000  18.810  1.00  0.00     0.079 C 
BRANCH  16  17
ATOM     17  C   UNL     1      47.212   3.482  19.087  1.00  0.00     0.130 C 
ATOM     18  O   UNL     1      46.278   4.163  18.694  1.00  0.00    -0.300 OA
ATOM     19  C   UNL     1      48.326   4.138  19.847  1.00  0.00     0.087 C 
ENDBRANCH  16  17
ENDBRANCH  15  16
ENDBRANCH  13  15
ENDBRANCH  11  12
ENDBRANCH   1  11
TORSDOF 9
ENDMDL
MODEL 7
REMARK VINA RESULT:    -5.427      3.306      8.562
REMARK INTER + INTRA:         -10.155
REMARK INTER:                  -9.170
REMARK INTRA:                  -0.984
REMARK UNBOUND:                -1.873
REMARK SMILES CC(=O)CCC=C(C)CCC=C(C)CCC=C(C)C
REMARK SMILES IDX 10 1 11 2 12 3 13 4 14 5 15 6 16 7 18 8 17 9 19 10 9 11 7 12
REMARK SMILES IDX 6 13 8 14 5 15 4 16 2 17 3 18 1 19
REMARK H PARENT
REMARK Flexibility Score: inf
ROOT
ATOM      1  C   UNL     1      51.167   5.190  13.945  1.00  0.00     0.032 C 
ENDROOT
BRANCH   1   2
ATOM      2  C   UNL     1      50.116   4.117  14.098  1.00  0.00    -0.028 C 
ATOM      3  C   UNL     1      49.894   3.403  15.227  1.00  0.00    -0.077 C 
ATOM      4  C   UNL     1      50.666   3.658  16.499  1.00  0.00     0.039 C 
BRANCH   3   5
ATOM      5  C   UNL     1      48.830   2.327  15.217  1.00  0.00     0.034 C 
BRANCH   5   6
ATOM      6  C   UNL     1      48.626   1.717  16.609  1.00  0.00     0.032 C 
BRANCH   6   7
ATOM      7  C   UNL     1      47.310   2.158  17.207  1.00  0.00    -0.028 C 
ATOM      8  C   UNL     1      48.325   2.886  19.380  1.00  0.00     0.039 C 
ATOM      9  C   UNL     1      47.155   2.658  18.453  1.00  0.00    -0.080 C 
ATOM     10  C   UNL     1      45.763   2.994  18.922  1.00  0.00     0.039 C 
ENDBRANCH   6   7
ENDBRANCH   5   6
ENDBRANCH   3   5
ENDBRANCH   1   2
BRANCH   1  11
ATOM     11  C   UNL     1      52.389   4.660  13.184  1.00  0.00     0.034 C 
BRANCH  11  12
ATOM     12  C   UNL     1      52.366   5.076  11.728  1.00  0.00    -0.077 C 
ATOM     13  C   UNL     1      52.294   4.119  10.774  1.00  0.00    -0.028 C 
ATOM     14  C   UNL     1      52.387   6.546  11.385  1.00  0.00     0.039 C 
BRANCH  13  15
ATOM     15  C   UNL     1      52.272   4.393   9.291  1.00  0.00     0.035 C 
BRANCH  15  16
ATOM     16  C   UNL     1      53.607   4.010   8.646  1.00  0.00     0.079 C 
BRANCH  16  17
ATOM     17  C   UNL     1      53.462   3.896   7.150  1.00  0.00     0.130 C 
ATOM     18  O   UNL     1      54.453   3.979   6.443  1.00  0.00    -0.300 OA
ATOM     19  C   UNL     1      52.125   3.669   6.509  1.00  0.00     0.087 C 
ENDBRANCH  16  17
ENDBRANCH  15  16
ENDBRANCH  13  15
ENDBRANCH  11  12
ENDBRANCH   1  11
TORSDOF 9
ENDMDL
MODEL 8
REMARK VINA RESULT:    -5.420      2.786      7.548
REMARK INTER + INTRA:         -10.144
REMARK INTER:                  -8.942
REMARK INTRA:                  -1.202
REMARK UNBOUND:                -1.873
REMARK SMILES CC(=O)CCC=C(C)CCC=C(C)CCC=C(C)C
REMARK SMILES IDX 10 1 11 2 12 3 13 4 14 5 15 6 16 7 18 8 17 9 19 10 9 11 7 12
REMARK SMILES IDX 6 13 8 14 5 15 4 16 2 17 3 18 1 19
REMARK H PARENT
REMARK Flexibility Score: inf
ROOT
ATOM      1  C   UNL     1      49.449   2.748  14.921  1.00  0.00     0.032 C 
ENDROOT
BRANCH   1   2
ATOM      2  C   UNL     1      48.108   2.882  15.603  1.00  0.00    -0.028 C 
ATOM      3  C   UNL     1      47.734   2.209  16.716  1.00  0.00    -0.077 C 
ATOM      4  C   UNL     1      48.670   1.271  17.437  1.00  0.00     0.039 C 
BRANCH   3   5
ATOM      5  C   UNL     1      46.337   2.416  17.262  1.00  0.00     0.034 C 
BRANCH   5   6
ATOM      6  C   UNL     1      46.359   2.797  18.748  1.00  0.00     0.032 C 
BRANCH   6   7
ATOM      7  C   UNL     1      46.605   4.278  18.924  1.00  0.00    -0.028 C 
ATOM      8  C   UNL     1      48.832   3.969  20.031  1.00  0.00     0.039 C 
ATOM      9  C   UNL     1      47.693   4.816  19.519  1.00  0.00    -0.080 C 
ATOM     10  C   UNL     1      47.758   6.314  19.672  1.00  0.00     0.039 C 
ENDBRANCH   6   7
ENDBRANCH   5   6
ENDBRANCH   3   5
ENDBRANCH   1   2
BRANCH   1  11
ATOM     11  C   UNL     1      50.315   3.992  15.158  1.00  0.00     0.034 C 
BRANCH  11  12
ATOM     12  C   UNL     1      51.565   3.976  14.304  1.00  0.00    -0.077 C 
ATOM     13  C   UNL     1      51.439   3.891  12.960  1.00  0.00    -0.028 C 
ATOM     14  C   UNL     1      52.913   4.091  14.975  1.00  0.00     0.039 C 
BRANCH  13  15
ATOM     15  C   UNL     1      52.598   3.858  11.994  1.00  0.00     0.035 C 
BRANCH  15  16
ATOM     16  C   UNL     1      52.236   4.562  10.684  1.00  0.00     0.079 C 
BRANCH  16  17
ATOM     17  C   UNL     1      52.857   5.934  10.629  1.00  0.00     0.130 C 
ATOM     18  O   UNL     1      53.688   6.183   9.770  1.00  0.00    -0.300 OA
ATOM     19  C   UNL     1      52.466   7.008  11.599  1.00  0.00     0.087 C 
ENDBRANCH  16  17
ENDBRANCH  15  16
ENDBRANCH  13  15
ENDBRANCH  11  12
ENDBRANCH   1  11
TORSDOF 9
ENDMDL
MODEL 9
REMARK VINA RESULT:    -5.399      1.362      2.001
REMARK INTER + INTRA:         -10.113
REMARK INTER:                  -8.758
REMARK INTRA:                  -1.355
REMARK UNBOUND:                -1.873
REMARK SMILES CC(=O)CCC=C(C)CCC=C(C)CCC=C(C)C
REMARK SMILES IDX 10 1 11 2 12 3 13 4 14 5 15 6 16 7 18 8 17 9 19 10 9 11 7 12
REMARK SMILES IDX 6 13 8 14 5 15 4 16 2 17 3 18 1 19
REMARK H PARENT
REMARK Flexibility Score: inf
ROOT
ATOM      1  C   UNL     1      51.020   5.331  16.474  1.00  0.00     0.032 C 
ENDROOT
BRANCH   1   2
ATOM      2  C   UNL     1      51.688   4.680  15.287  1.00  0.00    -0.028 C 
ATOM      3  C   UNL     1      51.081   3.829  14.426  1.00  0.00    -0.077 C 
ATOM      4  C   UNL     1      49.617   3.480  14.543  1.00  0.00     0.039 C 
BRANCH   3   5
ATOM      5  C   UNL     1      51.893   3.219  13.304  1.00  0.00     0.034 C 
BRANCH   5   6
ATOM      6  C   UNL     1      52.621   4.290  12.482  1.00  0.00     0.032 C 
BRANCH   6   7
ATOM      7  C   UNL     1      52.617   3.941  11.011  1.00  0.00    -0.028 C 
ATOM      8  C   UNL     1      52.457   6.324  10.252  1.00  0.00     0.039 C 
ATOM      9  C   UNL     1      52.517   4.837  10.004  1.00  0.00    -0.080 C 
ATOM     10  C   UNL     1      52.466   4.320   8.589  1.00  0.00     0.039 C 
ENDBRANCH   6   7
ENDBRANCH   5   6
ENDBRANCH   3   5
ENDBRANCH   1   2
BRANCH   1  11
ATOM     11  C   UNL     1      51.688   4.901  17.786  1.00  0.00     0.034 C 
BRANCH  11  12
ATOM     12  C   UNL     1      51.351   3.469  18.143  1.00  0.00    -0.077 C 
ATOM     13  C   UNL     1      50.051   3.095  18.195  1.00  0.00    -0.028 C 
ATOM     14  C   UNL     1      52.474   2.492  18.396  1.00  0.00     0.039 C 
BRANCH  13  15
ATOM     15  C   UNL     1      49.577   1.706  18.544  1.00  0.00     0.035 C 
BRANCH  15  16
ATOM     16  C   UNL     1      48.328   1.338  17.738  1.00  0.00     0.079 C 
BRANCH  16  17
ATOM     17  C   UNL     1      47.118   2.058  18.273  1.00  0.00     0.130 C 
ATOM     18  O   UNL     1      46.926   2.098  19.478  1.00  0.00    -0.300 OA
ATOM     19  C   UNL     1      46.146   2.741  17.357  1.00  0.00     0.087 C 
ENDBRANCH  16  17
ENDBRANCH  15  16
ENDBRANCH  13  15
ENDBRANCH  11  12
ENDBRANCH   1  11
TORSDOF 9
ENDMDL
