MODEL 1
REMARK VINA RESULT:    -4.674      0.000      0.000
REMARK INTER + INTRA:         -17.527
REMARK INTER:                 -12.326
REMARK INTRA:                  -5.201
REMARK UNBOUND:                -5.201
REMARK SMILES CCCCCCCCCCCCCCCCCCCCCCCCCCCCCC(=O)[O-]
REMARK SMILES IDX 16 1 17 2 18 3 19 4 20 5 21 6 22 7 23 8 24 9 25 10 26 11
REMARK SMILES IDX 27 12 28 13 29 14 30 15 31 16 32 17 15 18 14 19 13 20 12 21
REMARK SMILES IDX 11 22 10 23 9 24 8 25 7 26 6 27 5 28 4 29 3 30 2 31 1 32
REMARK H PARENT
REMARK Flexibility Score: inf
ROOT
ATOM      1  C   UNL     1     101.372   3.744  24.770  1.00  0.00     0.000 C 
ENDROOT
BRANCH   1   2
ATOM      2  C   UNL     1     100.363   3.280  23.699  1.00  0.00     0.000 C 
BRANCH   2   3
ATOM      3  C   UNL     1      99.326   4.340  23.279  1.00  0.00     0.000 C 
BRANCH   3   4
ATOM      4  C   UNL     1      97.861   3.946  23.537  1.00  0.00     0.000 C 
BRANCH   4   5
ATOM      5  C   UNL     1      97.726   2.630  24.319  1.00  0.00     0.000 C 
BRANCH   5   6
ATOM      6  C   UNL     1      97.101   2.833  25.710  1.00  0.00     0.000 C 
BRANCH   6   7
ATOM      7  C   UNL     1      98.009   3.546  26.735  1.00  0.00     0.000 C 
BRANCH   7   8
ATOM      8  C   UNL     1      97.486   4.904  27.246  1.00  0.00     0.000 C 
BRANCH   8   9
ATOM      9  C   UNL     1      98.111   6.138  26.566  1.00  0.00     0.000 C 
BRANCH   9  10
ATOM     10  C   UNL     1      97.160   6.895  25.619  1.00  0.00     0.000 C 
BRANCH  10  11
ATOM     11  C   UNL     1      95.735   6.302  25.574  1.00  0.00     0.000 C 
BRANCH  11  12
ATOM     12  C   UNL     1      95.170   6.250  24.142  1.00  0.00     0.000 C 
BRANCH  12  13
ATOM     13  C   UNL     1      96.004   7.072  23.140  1.00  0.00     0.006 C 
BRANCH  13  14
ATOM     14  C   UNL     1      95.808   6.661  21.671  1.00  0.00     0.053 C 
BRANCH  14  15
ATOM     15  C   UNL     1      94.649   7.373  21.044  1.00  0.00     0.041 C 
ATOM     16  O   UNL     1      94.157   6.953  19.963  1.00  0.00    -0.550 OA
ATOM     17  O   UNL     1      94.138   8.525  21.631  1.00  0.00    -0.550 OA
ENDBRANCH  14  15
ENDBRANCH  13  14
ENDBRANCH  12  13
ENDBRANCH  11  12
ENDBRANCH  10  11
ENDBRANCH   9  10
ENDBRANCH   8   9
ENDBRANCH   7   8
ENDBRANCH   6   7
ENDBRANCH   5   6
ENDBRANCH   4   5
ENDBRANCH   3   4
ENDBRANCH   2   3
ENDBRANCH   1   2
BRANCH   1  18
ATOM     18  C   UNL     1     101.430   2.862  26.035  1.00  0.00     0.000 C 
BRANCH  18  19
ATOM     19  C   UNL     1     101.692   3.623  27.349  1.00  0.00     0.000 C 
BRANCH  19  20
ATOM     20  C   UNL     1     101.803   5.142  27.146  1.00  0.00     0.000 C 
BRANCH  20  21
ATOM     21  C   UNL     1     102.877   5.791  28.038  1.00  0.00     0.000 C 
BRANCH  21  22
ATOM     22  C   UNL     1     104.257   5.978  27.373  1.00  0.00     0.000 C 
BRANCH  22  23
ATOM     23  C   UNL     1     105.235   4.803  27.552  1.00  0.00     0.000 C 
BRANCH  23  24
ATOM     24  C   UNL     1     105.561   4.085  26.235  1.00  0.00    -0.000 C 
BRANCH  24  25
ATOM     25  C   UNL     1     105.574   2.560  26.430  1.00  0.00    -0.000 C 
BRANCH  25  26
ATOM     26  C   UNL     1     104.551   1.837  25.540  1.00  0.00    -0.000 C 
BRANCH  26  27
ATOM     27  C   UNL     1     105.204   1.101  24.356  1.00  0.00    -0.000 C 
BRANCH  27  28
ATOM     28  C   UNL     1     104.233   0.944  23.172  1.00  0.00    -0.000 C 
BRANCH  28  29
ATOM     29  C   UNL     1     103.353  -0.313  23.295  1.00  0.00    -0.000 C 
BRANCH  29  30
ATOM     30  C   UNL     1     101.851   0.030  23.303  1.00  0.00    -0.000 C 
BRANCH  30  31
ATOM     31  C   UNL     1     101.036  -0.980  24.129  1.00  0.00    -0.003 C 
ATOM     32  C   UNL     1      99.869  -0.295  24.837  1.00  0.00     0.004 C 
ENDBRANCH  30  31
ENDBRANCH  29  30
ENDBRANCH  28  29
ENDBRANCH  27  28
ENDBRANCH  26  27
ENDBRANCH  25  26
ENDBRANCH  24  25
ENDBRANCH  23  24
ENDBRANCH  22  23
ENDBRANCH  21  22
ENDBRANCH  20  21
ENDBRANCH  19  20
ENDBRANCH  18  19
ENDBRANCH   1  18
TORSDOF 28
ENDMDL
MODEL 2
REMARK VINA RESULT:    -4.593      1.532      2.758
REMARK INTER + INTRA:         -17.313
REMARK INTER:                 -12.036
REMARK INTRA:                  -5.277
REMARK UNBOUND:                -5.201
REMARK SMILES CCCCCCCCCCCCCCCCCCCCCCCCCCCCCC(=O)[O-]
REMARK SMILES IDX 16 1 17 2 18 3 19 4 20 5 21 6 22 7 23 8 24 9 25 10 26 11
REMARK SMILES IDX 27 12 28 13 29 14 30 15 31 16 32 17 15 18 14 19 13 20 12 21
REMARK SMILES IDX 11 22 10 23 9 24 8 25 7 26 6 27 5 28 4 29 3 30 2 31 1 32
REMARK H PARENT
REMARK Flexibility Score: inf
ROOT
ATOM      1  C   UNL     1      98.466   4.586  23.730  1.00  0.00     0.000 C 
ENDROOT
BRANCH   1   2
ATOM      2  C   UNL     1      97.021   4.047  23.774  1.00  0.00     0.000 C 
BRANCH   2   3
ATOM      3  C   UNL     1      96.442   3.850  25.189  1.00  0.00     0.000 C 
BRANCH   3   4
ATOM      4  C   UNL     1      97.334   3.036  26.142  1.00  0.00     0.000 C 
BRANCH   4   5
ATOM      5  C   UNL     1      97.795   3.845  27.364  1.00  0.00     0.000 C 
BRANCH   5   6
ATOM      6  C   UNL     1      97.271   5.292  27.345  1.00  0.00     0.000 C 
BRANCH   6   7
ATOM      7  C   UNL     1      98.330   6.364  27.015  1.00  0.00     0.000 C 
BRANCH   7   8
ATOM      8  C   UNL     1      97.769   7.733  26.580  1.00  0.00     0.000 C 
BRANCH   8   9
ATOM      9  C   UNL     1      97.535   7.889  25.064  1.00  0.00     0.000 C 
BRANCH   9  10
ATOM     10  C   UNL     1      96.112   7.531  24.597  1.00  0.00     0.000 C 
BRANCH  10  11
ATOM     11  C   UNL     1      95.525   8.538  23.584  1.00  0.00     0.000 C 
BRANCH  11  12
ATOM     12  C   UNL     1      96.227   8.463  22.215  1.00  0.00     0.000 C 
BRANCH  12  13
ATOM     13  C   UNL     1      96.287   7.031  21.651  1.00  0.00     0.006 C 
BRANCH  13  14
ATOM     14  C   UNL     1      97.606   6.689  20.937  1.00  0.00     0.053 C 
BRANCH  14  15
ATOM     15  C   UNL     1      97.642   7.236  19.543  1.00  0.00     0.041 C 
ATOM     16  O   UNL     1      98.668   7.834  19.124  1.00  0.00    -0.550 OA
ATOM     17  O   UNL     1      96.527   7.123  18.721  1.00  0.00    -0.550 OA
ENDBRANCH  14  15
ENDBRANCH  13  14
ENDBRANCH  12  13
ENDBRANCH  11  12
ENDBRANCH  10  11
ENDBRANCH   9  10
ENDBRANCH   8   9
ENDBRANCH   7   8
ENDBRANCH   6   7
ENDBRANCH   5   6
ENDBRANCH   4   5
ENDBRANCH   3   4
ENDBRANCH   2   3
ENDBRANCH   1   2
BRANCH   1  18
ATOM     18  C   UNL     1      99.526   3.571  23.254  1.00  0.00     0.000 C 
BRANCH  18  19
ATOM     19  C   UNL     1     100.913   3.721  23.908  1.00  0.00     0.000 C 
BRANCH  19  20
ATOM     20  C   UNL     1     100.836   4.202  25.365  1.00  0.00     0.000 C 
BRANCH  20  21
ATOM     21  C   UNL     1     101.264   3.125  26.378  1.00  0.00     0.000 C 
BRANCH  21  22
ATOM     22  C   UNL     1     102.459   3.507  27.277  1.00  0.00     0.000 C 
BRANCH  22  23
ATOM     23  C   UNL     1     103.798   2.850  26.899  1.00  0.00     0.000 C 
BRANCH  23  24
ATOM     24  C   UNL     1     104.593   3.658  25.863  1.00  0.00    -0.000 C 
BRANCH  24  25
ATOM     25  C   UNL     1     104.596   2.947  24.499  1.00  0.00    -0.000 C 
BRANCH  25  26
ATOM     26  C   UNL     1     104.130   1.485  24.589  1.00  0.00    -0.000 C 
BRANCH  26  27
ATOM     27  C   UNL     1     103.120   1.111  23.489  1.00  0.00    -0.000 C 
BRANCH  27  28
ATOM     28  C   UNL     1     103.065  -0.409  23.253  1.00  0.00    -0.000 C 
BRANCH  28  29
ATOM     29  C   UNL     1     101.755  -1.036  23.763  1.00  0.00    -0.000 C 
BRANCH  29  30
ATOM     30  C   UNL     1     100.562  -0.716  22.843  1.00  0.00    -0.000 C 
BRANCH  30  31
ATOM     31  C   UNL     1      99.480   0.102  23.567  1.00  0.00    -0.003 C 
ATOM     32  C   UNL     1      99.729   0.131  25.073  1.00  0.00     0.004 C 
ENDBRANCH  30  31
ENDBRANCH  29  30
ENDBRANCH  28  29
ENDBRANCH  27  28
ENDBRANCH  26  27
ENDBRANCH  25  26
ENDBRANCH  24  25
ENDBRANCH  23  24
ENDBRANCH  22  23
ENDBRANCH  21  22
ENDBRANCH  20  21
ENDBRANCH  19  20
ENDBRANCH  18  19
ENDBRANCH   1  18
TORSDOF 28
ENDMDL
MODEL 3
REMARK VINA RESULT:    -4.569      1.853      3.159
REMARK INTER + INTRA:         -17.249
REMARK INTER:                 -13.065
REMARK INTRA:                  -4.184
REMARK UNBOUND:                -5.201
REMARK SMILES CCCCCCCCCCCCCCCCCCCCCCCCCCCCCC(=O)[O-]
REMARK SMILES IDX 16 1 17 2 18 3 19 4 20 5 21 6 22 7 23 8 24 9 25 10 26 11
REMARK SMILES IDX 27 12 28 13 29 14 30 15 31 16 32 17 15 18 14 19 13 20 12 21
REMARK SMILES IDX 11 22 10 23 9 24 8 25 7 26 6 27 5 28 4 29 3 30 2 31 1 32
REMARK H PARENT
REMARK Flexibility Score: inf
ROOT
ATOM      1  C   UNL     1     100.624   3.280  26.102  1.00  0.00     0.000 C 
ENDROOT
BRANCH   1   2
ATOM      2  C   UNL     1     100.752   4.124  24.817  1.00  0.00     0.000 C 
BRANCH   2   3
ATOM      3  C   UNL     1      99.896   3.638  23.631  1.00  0.00     0.000 C 
BRANCH   3   4
ATOM      4  C   UNL     1      98.401   3.992  23.728  1.00  0.00     0.000 C 
BRANCH   4   5
ATOM      5  C   UNL     1      97.526   2.790  24.116  1.00  0.00     0.000 C 
BRANCH   5   6
ATOM      6  C   UNL     1      96.623   3.087  25.326  1.00  0.00     0.000 C 
BRANCH   6   7
ATOM      7  C   UNL     1      97.263   3.972  26.416  1.00  0.00     0.000 C 
BRANCH   7   8
ATOM      8  C   UNL     1      96.587   5.341  26.633  1.00  0.00     0.000 C 
BRANCH   8   9
ATOM      9  C   UNL     1      95.401   5.637  25.695  1.00  0.00     0.000 C 
BRANCH   9  10
ATOM     10  C   UNL     1      95.719   6.623  24.555  1.00  0.00     0.000 C 
BRANCH  10  11
ATOM     11  C   UNL     1      95.327   6.096  23.157  1.00  0.00     0.000 C 
BRANCH  11  12
ATOM     12  C   UNL     1      94.581   7.155  22.324  1.00  0.00     0.000 C 
BRANCH  12  13
ATOM     13  C   UNL     1      95.012   7.164  20.844  1.00  0.00     0.006 C 
BRANCH  13  14
ATOM     14  C   UNL     1      96.325   7.920  20.575  1.00  0.00     0.053 C 
BRANCH  14  15
ATOM     15  C   UNL     1      97.417   6.997  20.130  1.00  0.00     0.041 C 
ATOM     16  O   UNL     1      97.548   6.713  18.910  1.00  0.00    -0.550 OA
ATOM     17  O   UNL     1      98.264   6.416  21.067  1.00  0.00    -0.550 OA
ENDBRANCH  14  15
ENDBRANCH  13  14
ENDBRANCH  12  13
ENDBRANCH  11  12
ENDBRANCH  10  11
ENDBRANCH   9  10
ENDBRANCH   8   9
ENDBRANCH   7   8
ENDBRANCH   6   7
ENDBRANCH   5   6
ENDBRANCH   4   5
ENDBRANCH   3   4
ENDBRANCH   2   3
ENDBRANCH   1   2
BRANCH   1  18
ATOM     18  C   UNL     1     101.750   3.492  27.135  1.00  0.00     0.000 C 
BRANCH  18  19
ATOM     19  C   UNL     1     102.664   4.702  26.866  1.00  0.00     0.000 C 
BRANCH  19  20
ATOM     20  C   UNL     1     104.080   4.294  26.429  1.00  0.00     0.000 C 
BRANCH  20  21
ATOM     21  C   UNL     1     104.433   2.846  26.811  1.00  0.00     0.000 C 
BRANCH  21  22
ATOM     22  C   UNL     1     104.844   1.937  25.633  1.00  0.00     0.000 C 
BRANCH  22  23
ATOM     23  C   UNL     1     104.433   2.445  24.240  1.00  0.00     0.000 C 
BRANCH  23  24
ATOM     24  C   UNL     1     103.568   1.441  23.465  1.00  0.00    -0.000 C 
BRANCH  24  25
ATOM     25  C   UNL     1     102.472   0.850  24.366  1.00  0.00    -0.000 C 
BRANCH  25  26
ATOM     26  C   UNL     1     101.303   0.252  23.567  1.00  0.00    -0.000 C 
BRANCH  26  27
ATOM     27  C   UNL     1     100.068  -0.035  24.441  1.00  0.00    -0.000 C 
BRANCH  27  28
ATOM     28  C   UNL     1     100.194  -1.373  25.191  1.00  0.00    -0.000 C 
BRANCH  28  29
ATOM     29  C   UNL     1     100.825  -2.477  24.323  1.00  0.00    -0.000 C 
BRANCH  29  30
ATOM     30  C   UNL     1     101.062  -3.775  25.118  1.00  0.00    -0.000 C 
BRANCH  30  31
ATOM     31  C   UNL     1     100.703  -3.612  26.605  1.00  0.00    -0.003 C 
ATOM     32  C   UNL     1     100.083  -4.891  27.163  1.00  0.00     0.004 C 
ENDBRANCH  30  31
ENDBRANCH  29  30
ENDBRANCH  28  29
ENDBRANCH  27  28
ENDBRANCH  26  27
ENDBRANCH  25  26
ENDBRANCH  24  25
ENDBRANCH  23  24
ENDBRANCH  22  23
ENDBRANCH  21  22
ENDBRANCH  20  21
ENDBRANCH  19  20
ENDBRANCH  18  19
ENDBRANCH   1  18
TORSDOF 28
ENDMDL
MODEL 4
REMARK VINA RESULT:    -4.530      3.276      8.837
REMARK INTER + INTRA:         -17.146
REMARK INTER:                 -12.779
REMARK INTRA:                  -4.367
REMARK UNBOUND:                -5.201
REMARK SMILES CCCCCCCCCCCCCCCCCCCCCCCCCCCCCC(=O)[O-]
REMARK SMILES IDX 16 1 17 2 18 3 19 4 20 5 21 6 22 7 23 8 24 9 25 10 26 11
REMARK SMILES IDX 27 12 28 13 29 14 30 15 31 16 32 17 15 18 14 19 13 20 12 21
REMARK SMILES IDX 11 22 10 23 9 24 8 25 7 26 6 27 5 28 4 29 3 30 2 31 1 32
REMARK H PARENT
REMARK Flexibility Score: inf
ROOT
ATOM      1  C   UNL     1      99.477   4.333  22.905  1.00  0.00     0.000 C 
ENDROOT
BRANCH   1   2
ATOM      2  C   UNL     1     100.510   3.532  23.723  1.00  0.00     0.000 C 
BRANCH   2   3
ATOM      3  C   UNL     1     100.342   3.625  25.253  1.00  0.00     0.000 C 
BRANCH   3   4
ATOM      4  C   UNL     1     100.047   2.286  25.951  1.00  0.00     0.000 C 
BRANCH   4   5
ATOM      5  C   UNL     1      99.187   1.343  25.094  1.00  0.00     0.000 C 
BRANCH   5   6
ATOM      6  C   UNL     1      99.836  -0.040  24.909  1.00  0.00     0.000 C 
BRANCH   6   7
ATOM      7  C   UNL     1     100.585  -0.234  23.575  1.00  0.00     0.000 C 
BRANCH   7   8
ATOM      8  C   UNL     1     101.845  -1.121  23.649  1.00  0.00     0.000 C 
BRANCH   8   9
ATOM      9  C   UNL     1     103.159  -0.418  23.258  1.00  0.00     0.000 C 
BRANCH   9  10
ATOM     10  C   UNL     1     103.216   1.078  23.620  1.00  0.00     0.000 C 
BRANCH  10  11
ATOM     11  C   UNL     1     104.537   1.497  24.300  1.00  0.00     0.000 C 
BRANCH  11  12
ATOM     12  C   UNL     1     104.397   2.818  25.081  1.00  0.00     0.000 C 
BRANCH  12  13
ATOM     13  C   UNL     1     103.678   2.640  26.432  1.00  0.00     0.006 C 
BRANCH  13  14
ATOM     14  C   UNL     1     104.122   3.636  27.517  1.00  0.00     0.053 C 
BRANCH  14  15
ATOM     15  C   UNL     1     103.879   5.055  27.102  1.00  0.00     0.041 C 
ATOM     16  O   UNL     1     102.703   5.503  27.039  1.00  0.00    -0.550 OA
ATOM     17  O   UNL     1     104.946   5.869  26.743  1.00  0.00    -0.550 OA
ENDBRANCH  14  15
ENDBRANCH  13  14
ENDBRANCH  12  13
ENDBRANCH  11  12
ENDBRANCH  10  11
ENDBRANCH   9  10
ENDBRANCH   8   9
ENDBRANCH   7   8
ENDBRANCH   6   7
ENDBRANCH   5   6
ENDBRANCH   4   5
ENDBRANCH   3   4
ENDBRANCH   2   3
ENDBRANCH   1   2
BRANCH   1  18
ATOM     18  C   UNL     1      98.263   4.843  23.709  1.00  0.00     0.000 C 
BRANCH  18  19
ATOM     19  C   UNL     1      97.000   3.967  23.609  1.00  0.00     0.000 C 
BRANCH  19  20
ATOM     20  C   UNL     1      96.463   3.537  24.983  1.00  0.00     0.000 C 
BRANCH  20  21
ATOM     21  C   UNL     1      96.422   4.691  26.001  1.00  0.00     0.000 C 
BRANCH  21  22
ATOM     22  C   UNL     1      95.385   5.795  25.702  1.00  0.00     0.000 C 
BRANCH  22  23
ATOM     23  C   UNL     1      95.973   7.192  25.442  1.00  0.00     0.000 C 
BRANCH  23  24
ATOM     24  C   UNL     1      95.675   7.718  24.031  1.00  0.00    -0.000 C 
BRANCH  24  25
ATOM     25  C   UNL     1      94.868   6.689  23.222  1.00  0.00    -0.000 C 
BRANCH  25  26
ATOM     26  C   UNL     1      94.794   7.034  21.726  1.00  0.00    -0.000 C 
BRANCH  26  27
ATOM     27  C   UNL     1      95.088   8.517  21.440  1.00  0.00    -0.000 C 
BRANCH  27  28
ATOM     28  C   UNL     1      96.336   8.694  20.555  1.00  0.00    -0.000 C 
BRANCH  28  29
ATOM     29  C   UNL     1      97.573   7.985  21.135  1.00  0.00    -0.000 C 
BRANCH  29  30
ATOM     30  C   UNL     1      98.117   6.900  20.186  1.00  0.00    -0.000 C 
BRANCH  30  31
ATOM     31  C   UNL     1      97.452   6.963  18.800  1.00  0.00    -0.003 C 
ATOM     32  C   UNL     1      98.498   7.067  17.693  1.00  0.00     0.004 C 
ENDBRANCH  30  31
ENDBRANCH  29  30
ENDBRANCH  28  29
ENDBRANCH  27  28
ENDBRANCH  26  27
ENDBRANCH  25  26
ENDBRANCH  24  25
ENDBRANCH  23  24
ENDBRANCH  22  23
ENDBRANCH  21  22
ENDBRANCH  20  21
ENDBRANCH  19  20
ENDBRANCH  18  19
ENDBRANCH   1  18
TORSDOF 28
ENDMDL
MODEL 5
REMARK VINA RESULT:    -4.514      3.818      8.893
REMARK INTER + INTRA:         -17.105
REMARK INTER:                 -12.255
REMARK INTRA:                  -4.850
REMARK UNBOUND:                -5.201
REMARK SMILES CCCCCCCCCCCCCCCCCCCCCCCCCCCCCC(=O)[O-]
REMARK SMILES IDX 16 1 17 2 18 3 19 4 20 5 21 6 22 7 23 8 24 9 25 10 26 11
REMARK SMILES IDX 27 12 28 13 29 14 30 15 31 16 32 17 15 18 14 19 13 20 12 21
REMARK SMILES IDX 11 22 10 23 9 24 8 25 7 26 6 27 5 28 4 29 3 30 2 31 1 32
REMARK H PARENT
REMARK Flexibility Score: inf
ROOT
ATOM      1  C   UNL     1     100.198   2.788  23.436  1.00  0.00     0.000 C 
ENDROOT
BRANCH   1   2
ATOM      2  C   UNL     1     100.883   3.745  24.434  1.00  0.00     0.000 C 
BRANCH   2   3
ATOM      3  C   UNL     1     101.237   3.118  25.797  1.00  0.00     0.000 C 
BRANCH   3   4
ATOM      4  C   UNL     1     101.927   4.074  26.786  1.00  0.00     0.000 C 
BRANCH   4   5
ATOM      5  C   UNL     1     102.775   3.338  27.835  1.00  0.00     0.000 C 
BRANCH   5   6
ATOM      6  C   UNL     1     104.277   3.642  27.695  1.00  0.00     0.000 C 
BRANCH   6   7
ATOM      7  C   UNL     1     104.659   4.488  26.463  1.00  0.00     0.000 C 
BRANCH   7   8
ATOM      8  C   UNL     1     105.507   3.761  25.400  1.00  0.00     0.000 C 
BRANCH   8   9
ATOM      9  C   UNL     1     104.699   2.967  24.355  1.00  0.00     0.000 C 
BRANCH   9  10
ATOM     10  C   UNL     1     104.588   1.458  24.644  1.00  0.00     0.000 C 
BRANCH  10  11
ATOM     11  C   UNL     1     103.326   0.805  24.039  1.00  0.00     0.000 C 
BRANCH  11  12
ATOM     12  C   UNL     1     103.665  -0.414  23.161  1.00  0.00     0.000 C 
BRANCH  12  13
ATOM     13  C   UNL     1     105.165  -0.508  22.820  1.00  0.00     0.006 C 
BRANCH  13  14
ATOM     14  C   UNL     1     105.479  -0.379  21.320  1.00  0.00     0.053 C 
BRANCH  14  15
ATOM     15  C   UNL     1     106.590   0.593  21.066  1.00  0.00     0.041 C 
ATOM     16  O   UNL     1     106.925   1.419  21.957  1.00  0.00    -0.550 OA
ATOM     17  O   UNL     1     107.228   0.617  19.831  1.00  0.00    -0.550 OA
ENDBRANCH  14  15
ENDBRANCH  13  14
ENDBRANCH  12  13
ENDBRANCH  11  12
ENDBRANCH  10  11
ENDBRANCH   9  10
ENDBRANCH   8   9
ENDBRANCH   7   8
ENDBRANCH   6   7
ENDBRANCH   5   6
ENDBRANCH   4   5
ENDBRANCH   3   4
ENDBRANCH   2   3
ENDBRANCH   1   2
BRANCH   1  18
ATOM     18  C   UNL     1      99.817   1.409  24.012  1.00  0.00     0.000 C 
BRANCH  18  19
ATOM     19  C   UNL     1      98.305   1.163  24.172  1.00  0.00     0.000 C 
BRANCH  19  20
ATOM     20  C   UNL     1      97.485   2.462  24.158  1.00  0.00     0.000 C 
BRANCH  20  21
ATOM     21  C   UNL     1      96.839   2.781  25.518  1.00  0.00     0.000 C 
BRANCH  21  22
ATOM     22  C   UNL     1      97.815   3.260  26.613  1.00  0.00     0.000 C 
BRANCH  22  23
ATOM     23  C   UNL     1      97.744   4.760  26.943  1.00  0.00     0.000 C 
BRANCH  23  24
ATOM     24  C   UNL     1      98.082   5.657  25.744  1.00  0.00    -0.000 C 
BRANCH  24  25
ATOM     25  C   UNL     1      97.255   6.953  25.778  1.00  0.00    -0.000 C 
BRANCH  25  26
ATOM     26  C   UNL     1      95.747   6.701  25.615  1.00  0.00    -0.000 C 
BRANCH  26  27
ATOM     27  C   UNL     1      95.415   5.846  24.379  1.00  0.00    -0.000 C 
BRANCH  27  28
ATOM     28  C   UNL     1      95.077   6.715  23.154  1.00  0.00    -0.000 C 
BRANCH  28  29
ATOM     29  C   UNL     1      95.911   6.338  21.916  1.00  0.00    -0.000 C 
BRANCH  29  30
ATOM     30  C   UNL     1      97.272   5.728  22.299  1.00  0.00    -0.000 C 
BRANCH  30  31
ATOM     31  C   UNL     1      98.429   6.361  21.506  1.00  0.00    -0.003 C 
ATOM     32  C   UNL     1      97.915   7.430  20.545  1.00  0.00     0.004 C 
ENDBRANCH  30  31
ENDBRANCH  29  30
ENDBRANCH  28  29
ENDBRANCH  27  28
ENDBRANCH  26  27
ENDBRANCH  25  26
ENDBRANCH  24  25
ENDBRANCH  23  24
ENDBRANCH  22  23
ENDBRANCH  21  22
ENDBRANCH  20  21
ENDBRANCH  19  20
ENDBRANCH  18  19
ENDBRANCH   1  18
TORSDOF 28
ENDMDL
MODEL 6
REMARK VINA RESULT:    -4.510      1.958      3.934
REMARK INTER + INTRA:         -17.094
REMARK INTER:                 -12.263
REMARK INTRA:                  -4.831
REMARK UNBOUND:                -5.201
REMARK SMILES CCCCCCCCCCCCCCCCCCCCCCCCCCCCCC(=O)[O-]
REMARK SMILES IDX 16 1 17 2 18 3 19 4 20 5 21 6 22 7 23 8 24 9 25 10 26 11
REMARK SMILES IDX 27 12 28 13 29 14 30 15 31 16 32 17 15 18 14 19 13 20 12 21
REMARK SMILES IDX 11 22 10 23 9 24 8 25 7 26 6 27 5 28 4 29 3 30 2 31 1 32
REMARK H PARENT
REMARK Flexibility Score: inf
ROOT
ATOM      1  C   UNL     1      96.963   3.399  23.775  1.00  0.00     0.000 C 
ENDROOT
BRANCH   1   2
ATOM      2  C   UNL     1      96.019   3.481  24.993  1.00  0.00     0.000 C 
BRANCH   2   3
ATOM      3  C   UNL     1      95.763   4.905  25.523  1.00  0.00     0.000 C 
BRANCH   3   4
ATOM      4  C   UNL     1      96.777   5.393  26.574  1.00  0.00     0.000 C 
BRANCH   4   5
ATOM      5  C   UNL     1      97.463   6.710  26.175  1.00  0.00     0.000 C 
BRANCH   5   6
ATOM      6  C   UNL     1      97.396   6.973  24.660  1.00  0.00     0.000 C 
BRANCH   6   7
ATOM      7  C   UNL     1      96.687   8.283  24.257  1.00  0.00     0.000 C 
BRANCH   7   8
ATOM      8  C   UNL     1      96.020   8.270  22.867  1.00  0.00     0.000 C 
BRANCH   8   9
ATOM      9  C   UNL     1      95.572   6.880  22.373  1.00  0.00     0.000 C 
BRANCH   9  10
ATOM     10  C   UNL     1      94.515   6.910  21.252  1.00  0.00     0.000 C 
BRANCH  10  11
ATOM     11  C   UNL     1      94.592   8.174  20.368  1.00  0.00     0.000 C 
BRANCH  11  12
ATOM     12  C   UNL     1      95.484   7.965  19.130  1.00  0.00     0.000 C 
BRANCH  12  13
ATOM     13  C   UNL     1      96.552   9.064  18.970  1.00  0.00     0.006 C 
BRANCH  13  14
ATOM     14  C   UNL     1      97.907   8.724  19.615  1.00  0.00     0.053 C 
BRANCH  14  15
ATOM     15  C   UNL     1      98.271   7.285  19.417  1.00  0.00     0.041 C 
ATOM     16  O   UNL     1      98.334   6.506  20.405  1.00  0.00    -0.550 OA
ATOM     17  O   UNL     1      98.583   6.813  18.148  1.00  0.00    -0.550 OA
ENDBRANCH  14  15
ENDBRANCH  13  14
ENDBRANCH  12  13
ENDBRANCH  11  12
ENDBRANCH  10  11
ENDBRANCH   9  10
ENDBRANCH   8   9
ENDBRANCH   7   8
ENDBRANCH   6   7
ENDBRANCH   5   6
ENDBRANCH   4   5
ENDBRANCH   3   4
ENDBRANCH   2   3
ENDBRANCH   1   2
BRANCH   1  18
ATOM     18  C   UNL     1      98.431   3.062  24.110  1.00  0.00     0.000 C 
BRANCH  18  19
ATOM     19  C   UNL     1      98.643   2.322  25.445  1.00  0.00     0.000 C 
BRANCH  19  20
ATOM     20  C   UNL     1      99.644   3.033  26.368  1.00  0.00     0.000 C 
BRANCH  20  21
ATOM     21  C   UNL     1     100.280   4.277  25.722  1.00  0.00     0.000 C 
BRANCH  21  22
ATOM     22  C   UNL     1     101.665   4.670  26.276  1.00  0.00     0.000 C 
BRANCH  22  23
ATOM     23  C   UNL     1     102.066   3.976  27.590  1.00  0.00     0.000 C 
BRANCH  23  24
ATOM     24  C   UNL     1     103.331   3.117  27.455  1.00  0.00    -0.000 C 
BRANCH  24  25
ATOM     25  C   UNL     1     104.039   3.389  26.117  1.00  0.00    -0.000 C 
BRANCH  25  26
ATOM     26  C   UNL     1     104.263   2.111  25.293  1.00  0.00    -0.000 C 
BRANCH  26  27
ATOM     27  C   UNL     1     103.248   1.955  24.146  1.00  0.00    -0.000 C 
BRANCH  27  28
ATOM     28  C   UNL     1     102.078   1.034  24.537  1.00  0.00    -0.000 C 
BRANCH  28  29
ATOM     29  C   UNL     1     101.208   0.642  23.328  1.00  0.00    -0.000 C 
BRANCH  29  30
ATOM     30  C   UNL     1     100.529  -0.726  23.523  1.00  0.00    -0.000 C 
BRANCH  30  31
ATOM     31  C   UNL     1     100.214  -1.006  25.002  1.00  0.00    -0.003 C 
ATOM     32  C   UNL     1     100.344  -2.494  25.319  1.00  0.00     0.004 C 
ENDBRANCH  30  31
ENDBRANCH  29  30
ENDBRANCH  28  29
ENDBRANCH  27  28
ENDBRANCH  26  27
ENDBRANCH  25  26
ENDBRANCH  24  25
ENDBRANCH  23  24
ENDBRANCH  22  23
ENDBRANCH  21  22
ENDBRANCH  20  21
ENDBRANCH  19  20
ENDBRANCH  18  19
ENDBRANCH   1  18
TORSDOF 28
ENDMDL
MODEL 7
REMARK VINA RESULT:    -4.409      3.057      8.563
REMARK INTER + INTRA:         -16.828
REMARK INTER:                 -11.953
REMARK INTRA:                  -4.875
REMARK UNBOUND:                -5.201
REMARK SMILES CCCCCCCCCCCCCCCCCCCCCCCCCCCCCC(=O)[O-]
REMARK SMILES IDX 16 1 17 2 18 3 19 4 20 5 21 6 22 7 23 8 24 9 25 10 26 11
REMARK SMILES IDX 27 12 28 13 29 14 30 15 31 16 32 17 15 18 14 19 13 20 12 21
REMARK SMILES IDX 11 22 10 23 9 24 8 25 7 26 6 27 5 28 4 29 3 30 2 31 1 32
REMARK H PARENT
REMARK Flexibility Score: inf
ROOT
ATOM      1  C   UNL     1     100.076   3.233  23.392  1.00  0.00     0.000 C 
ENDROOT
BRANCH   1   2
ATOM      2  C   UNL     1     101.254   3.385  24.376  1.00  0.00     0.000 C 
BRANCH   2   3
ATOM      3  C   UNL     1     101.097   2.619  25.704  1.00  0.00     0.000 C 
BRANCH   3   4
ATOM      4  C   UNL     1     101.540   3.399  26.954  1.00  0.00     0.000 C 
BRANCH   4   5
ATOM      5  C   UNL     1     102.191   4.749  26.616  1.00  0.00     0.000 C 
BRANCH   5   6
ATOM      6  C   UNL     1     103.728   4.682  26.629  1.00  0.00     0.000 C 
BRANCH   6   7
ATOM      7  C   UNL     1     104.326   3.644  27.601  1.00  0.00     0.000 C 
BRANCH   7   8
ATOM      8  C   UNL     1     105.228   2.574  26.951  1.00  0.00     0.000 C 
BRANCH   8   9
ATOM      9  C   UNL     1     104.778   2.108  25.552  1.00  0.00     0.000 C 
BRANCH   9  10
ATOM     10  C   UNL     1     105.861   1.361  24.749  1.00  0.00     0.000 C 
BRANCH  10  11
ATOM     11  C   UNL     1     105.300   0.572  23.547  1.00  0.00     0.000 C 
BRANCH  11  12
ATOM     12  C   UNL     1     103.799   0.840  23.322  1.00  0.00     0.000 C 
BRANCH  12  13
ATOM     13  C   UNL     1     102.954  -0.448  23.326  1.00  0.00     0.006 C 
BRANCH  13  14
ATOM     14  C   UNL     1     101.436  -0.205  23.265  1.00  0.00     0.053 C 
BRANCH  14  15
ATOM     15  C   UNL     1     100.683  -1.169  24.129  1.00  0.00     0.041 C 
ATOM     16  O   UNL     1     100.822  -2.411  23.962  1.00  0.00    -0.550 OA
ATOM     17  O   UNL     1      99.797  -0.699  25.091  1.00  0.00    -0.550 OA
ENDBRANCH  14  15
ENDBRANCH  13  14
ENDBRANCH  12  13
ENDBRANCH  11  12
ENDBRANCH  10  11
ENDBRANCH   9  10
ENDBRANCH   8   9
ENDBRANCH   7   8
ENDBRANCH   6   7
ENDBRANCH   5   6
ENDBRANCH   4   5
ENDBRANCH   3   4
ENDBRANCH   2   3
ENDBRANCH   1   2
BRANCH   1  18
ATOM     18  C   UNL     1      98.816   2.567  23.984  1.00  0.00     0.000 C 
BRANCH  18  19
ATOM     19  C   UNL     1      97.708   3.543  24.424  1.00  0.00     0.000 C 
BRANCH  19  20
ATOM     20  C   UNL     1      97.252   3.312  25.873  1.00  0.00     0.000 C 
BRANCH  20  21
ATOM     21  C   UNL     1      97.916   4.276  26.873  1.00  0.00     0.000 C 
BRANCH  21  22
ATOM     22  C   UNL     1      98.567   5.527  26.246  1.00  0.00     0.000 C 
BRANCH  22  23
ATOM     23  C   UNL     1      98.999   6.612  27.248  1.00  0.00     0.000 C 
BRANCH  23  24
ATOM     24  C   UNL     1      98.060   7.827  27.262  1.00  0.00    -0.000 C 
BRANCH  24  25
ATOM     25  C   UNL     1      97.827   8.355  25.836  1.00  0.00    -0.000 C 
BRANCH  25  26
ATOM     26  C   UNL     1      96.336   8.454  25.475  1.00  0.00    -0.000 C 
BRANCH  26  27
ATOM     27  C   UNL     1      95.822   7.217  24.718  1.00  0.00    -0.000 C 
BRANCH  27  28
ATOM     28  C   UNL     1      96.624   6.959  23.429  1.00  0.00    -0.000 C 
BRANCH  28  29
ATOM     29  C   UNL     1      95.797   6.224  22.358  1.00  0.00    -0.000 C 
BRANCH  29  30
ATOM     30  C   UNL     1      94.631   7.084  21.836  1.00  0.00    -0.000 C 
BRANCH  30  31
ATOM     31  C   UNL     1      95.099   8.484  21.402  1.00  0.00    -0.003 C 
ATOM     32  C   UNL     1      94.221   9.572  22.016  1.00  0.00     0.004 C 
ENDBRANCH  30  31
ENDBRANCH  29  30
ENDBRANCH  28  29
ENDBRANCH  27  28
ENDBRANCH  26  27
ENDBRANCH  25  26
ENDBRANCH  24  25
ENDBRANCH  23  24
ENDBRANCH  22  23
ENDBRANCH  21  22
ENDBRANCH  20  21
ENDBRANCH  19  20
ENDBRANCH  18  19
ENDBRANCH   1  18
TORSDOF 28
ENDMDL
MODEL 8
REMARK VINA RESULT:    -4.398      2.211      3.272
REMARK INTER + INTRA:         -16.798
REMARK INTER:                 -12.341
REMARK INTRA:                  -4.457
REMARK UNBOUND:                -5.201
REMARK SMILES CCCCCCCCCCCCCCCCCCCCCCCCCCCCCC(=O)[O-]
REMARK SMILES IDX 16 1 17 2 18 3 19 4 20 5 21 6 22 7 23 8 24 9 25 10 26 11
REMARK SMILES IDX 27 12 28 13 29 14 30 15 31 16 32 17 15 18 14 19 13 20 12 21
REMARK SMILES IDX 11 22 10 23 9 24 8 25 7 26 6 27 5 28 4 29 3 30 2 31 1 32
REMARK H PARENT
REMARK Flexibility Score: inf
ROOT
ATOM      1  C   UNL     1     100.013   4.172  24.327  1.00  0.00     0.000 C 
ENDROOT
BRANCH   1   2
ATOM      2  C   UNL     1      98.846   3.442  23.631  1.00  0.00     0.000 C 
BRANCH   2   3
ATOM      3  C   UNL     1      98.173   2.340  24.473  1.00  0.00     0.000 C 
BRANCH   3   4
ATOM      4  C   UNL     1      96.652   2.499  24.644  1.00  0.00     0.000 C 
BRANCH   4   5
ATOM      5  C   UNL     1      96.131   3.849  24.126  1.00  0.00     0.000 C 
BRANCH   5   6
ATOM      6  C   UNL     1      95.651   4.770  25.261  1.00  0.00     0.000 C 
BRANCH   6   7
ATOM      7  C   UNL     1      96.776   5.432  26.083  1.00  0.00     0.000 C 
BRANCH   7   8
ATOM      8  C   UNL     1      97.245   6.809  25.570  1.00  0.00     0.000 C 
BRANCH   8   9
ATOM      9  C   UNL     1      96.223   7.559  24.693  1.00  0.00     0.000 C 
BRANCH   9  10
ATOM     10  C   UNL     1      96.793   8.099  23.368  1.00  0.00     0.000 C 
BRANCH  10  11
ATOM     11  C   UNL     1      97.903   7.210  22.767  1.00  0.00     0.000 C 
BRANCH  11  12
ATOM     12  C   UNL     1      97.379   6.310  21.632  1.00  0.00     0.000 C 
BRANCH  12  13
ATOM     13  C   UNL     1      96.425   7.050  20.675  1.00  0.00     0.006 C 
BRANCH  13  14
ATOM     14  C   UNL     1      96.895   7.072  19.210  1.00  0.00     0.053 C 
BRANCH  14  15
ATOM     15  C   UNL     1      98.308   7.552  19.087  1.00  0.00     0.041 C 
ATOM     16  O   UNL     1      99.208   6.774  18.672  1.00  0.00    -0.550 OA
ATOM     17  O   UNL     1      98.641   8.846  19.471  1.00  0.00    -0.550 OA
ENDBRANCH  14  15
ENDBRANCH  13  14
ENDBRANCH  12  13
ENDBRANCH  11  12
ENDBRANCH  10  11
ENDBRANCH   9  10
ENDBRANCH   8   9
ENDBRANCH   7   8
ENDBRANCH   6   7
ENDBRANCH   5   6
ENDBRANCH   4   5
ENDBRANCH   3   4
ENDBRANCH   2   3
ENDBRANCH   1   2
BRANCH   1  18
ATOM     18  C   UNL     1     100.198   3.829  25.819  1.00  0.00     0.000 C 
BRANCH  18  19
ATOM     19  C   UNL     1     100.891   4.920  26.659  1.00  0.00     0.000 C 
BRANCH  19  20
ATOM     20  C   UNL     1     102.034   4.368  27.526  1.00  0.00     0.000 C 
BRANCH  20  21
ATOM     21  C   UNL     1     102.601   3.038  26.998  1.00  0.00     0.000 C 
BRANCH  21  22
ATOM     22  C   UNL     1     104.080   3.082  26.561  1.00  0.00     0.000 C 
BRANCH  22  23
ATOM     23  C   UNL     1     104.496   2.000  25.549  1.00  0.00     0.000 C 
BRANCH  23  24
ATOM     24  C   UNL     1     103.967   2.265  24.133  1.00  0.00    -0.000 C 
BRANCH  24  25
ATOM     25  C   UNL     1     103.371   0.986  23.522  1.00  0.00    -0.000 C 
BRANCH  25  26
ATOM     26  C   UNL     1     101.835   1.016  23.460  1.00  0.00    -0.000 C 
BRANCH  26  27
ATOM     27  C   UNL     1     101.176   0.462  24.736  1.00  0.00    -0.000 C 
BRANCH  27  28
ATOM     28  C   UNL     1     100.234  -0.716  24.430  1.00  0.00    -0.000 C 
BRANCH  28  29
ATOM     29  C   UNL     1     100.965  -2.072  24.442  1.00  0.00    -0.000 C 
BRANCH  29  30
ATOM     30  C   UNL     1     100.383  -3.033  25.495  1.00  0.00    -0.000 C 
BRANCH  30  31
ATOM     31  C   UNL     1     100.260  -4.469  24.957  1.00  0.00    -0.003 C 
ATOM     32  C   UNL     1     100.761  -5.485  25.981  1.00  0.00     0.004 C 
ENDBRANCH  30  31
ENDBRANCH  29  30
ENDBRANCH  28  29
ENDBRANCH  27  28
ENDBRANCH  26  27
ENDBRANCH  25  26
ENDBRANCH  24  25
ENDBRANCH  23  24
ENDBRANCH  22  23
ENDBRANCH  21  22
ENDBRANCH  20  21
ENDBRANCH  19  20
ENDBRANCH  18  19
ENDBRANCH   1  18
TORSDOF 28
ENDMDL
MODEL 9
REMARK VINA RESULT:    -4.380      2.341      3.462
REMARK INTER + INTRA:         -16.749
REMARK INTER:                 -12.272
REMARK INTRA:                  -4.477
REMARK UNBOUND:                -5.201
REMARK SMILES CCCCCCCCCCCCCCCCCCCCCCCCCCCCCC(=O)[O-]
REMARK SMILES IDX 16 1 17 2 18 3 19 4 20 5 21 6 22 7 23 8 24 9 25 10 26 11
REMARK SMILES IDX 27 12 28 13 29 14 30 15 31 16 32 17 15 18 14 19 13 20 12 21
REMARK SMILES IDX 11 22 10 23 9 24 8 25 7 26 6 27 5 28 4 29 3 30 2 31 1 32
REMARK H PARENT
REMARK Flexibility Score: inf
ROOT
ATOM      1  C   UNL     1      99.355   3.906  23.807  1.00  0.00     0.000 C 
ENDROOT
BRANCH   1   2
ATOM      2  C   UNL     1      98.168   2.936  23.988  1.00  0.00     0.000 C 
BRANCH   2   3
ATOM      3  C   UNL     1      96.777   3.600  23.976  1.00  0.00     0.000 C 
BRANCH   3   4
ATOM      4  C   UNL     1      96.128   3.759  25.361  1.00  0.00     0.000 C 
BRANCH   4   5
ATOM      5  C   UNL     1      95.620   5.186  25.622  1.00  0.00     0.000 C 
BRANCH   5   6
ATOM      6  C   UNL     1      96.731   6.241  25.478  1.00  0.00     0.000 C 
BRANCH   6   7
ATOM      7  C   UNL     1      96.435   7.364  24.462  1.00  0.00     0.000 C 
BRANCH   7   8
ATOM      8  C   UNL     1      95.396   7.014  23.377  1.00  0.00     0.000 C 
BRANCH   8   9
ATOM      9  C   UNL     1      95.979   6.377  22.100  1.00  0.00     0.000 C 
BRANCH   9  10
ATOM     10  C   UNL     1      97.486   6.623  21.894  1.00  0.00     0.000 C 
BRANCH  10  11
ATOM     11  C   UNL     1      97.795   7.874  21.044  1.00  0.00     0.000 C 
BRANCH  11  12
ATOM     12  C   UNL     1      96.795   8.053  19.886  1.00  0.00     0.000 C 
BRANCH  12  13
ATOM     13  C   UNL     1      97.076   7.110  18.702  1.00  0.00     0.006 C 
BRANCH  13  14
ATOM     14  C   UNL     1      98.453   7.317  18.045  1.00  0.00     0.053 C 
BRANCH  14  15
ATOM     15  C   UNL     1      98.436   8.450  17.065  1.00  0.00     0.041 C 
ATOM     16  O   UNL     1      99.371   9.295  17.059  1.00  0.00    -0.550 OA
ATOM     17  O   UNL     1      97.368   8.598  16.188  1.00  0.00    -0.550 OA
ENDBRANCH  14  15
ENDBRANCH  13  14
ENDBRANCH  12  13
ENDBRANCH  11  12
ENDBRANCH  10  11
ENDBRANCH   9  10
ENDBRANCH   8   9
ENDBRANCH   7   8
ENDBRANCH   6   7
ENDBRANCH   5   6
ENDBRANCH   4   5
ENDBRANCH   3   4
ENDBRANCH   2   3
ENDBRANCH   1   2
BRANCH   1  18
ATOM     18  C   UNL     1      99.942   4.468  25.118  1.00  0.00     0.000 C 
BRANCH  18  19
ATOM     19  C   UNL     1      99.956   3.483  26.302  1.00  0.00     0.000 C 
BRANCH  19  20
ATOM     20  C   UNL     1     101.331   3.385  26.980  1.00  0.00     0.000 C 
BRANCH  20  21
ATOM     21  C   UNL     1     102.287   4.519  26.567  1.00  0.00     0.000 C 
BRANCH  21  22
ATOM     22  C   UNL     1     103.686   4.062  26.101  1.00  0.00     0.000 C 
BRANCH  22  23
ATOM     23  C   UNL     1     104.290   2.890  26.894  1.00  0.00     0.000 C 
BRANCH  23  24
ATOM     24  C   UNL     1     105.695   2.499  26.414  1.00  0.00    -0.000 C 
BRANCH  24  25
ATOM     25  C   UNL     1     105.727   2.338  24.885  1.00  0.00    -0.000 C 
BRANCH  25  26
ATOM     26  C   UNL     1     105.864   0.872  24.444  1.00  0.00    -0.000 C 
BRANCH  26  27
ATOM     27  C   UNL     1     104.663   0.384  23.614  1.00  0.00    -0.000 C 
BRANCH  27  28
ATOM     28  C   UNL     1     103.590   1.477  23.459  1.00  0.00    -0.000 C 
BRANCH  28  29
ATOM     29  C   UNL     1     102.278   1.120  24.182  1.00  0.00    -0.000 C 
BRANCH  29  30
ATOM     30  C   UNL     1     101.127   0.854  23.194  1.00  0.00    -0.000 C 
BRANCH  30  31
ATOM     31  C   UNL     1     100.301  -0.381  23.593  1.00  0.00    -0.003 C 
ATOM     32  C   UNL     1      99.825  -0.279  25.040  1.00  0.00     0.004 C 
ENDBRANCH  30  31
ENDBRANCH  29  30
ENDBRANCH  28  29
ENDBRANCH  27  28
ENDBRANCH  26  27
ENDBRANCH  25  26
ENDBRANCH  24  25
ENDBRANCH  23  24
ENDBRANCH  22  23
ENDBRANCH  21  22
ENDBRANCH  20  21
ENDBRANCH  19  20
ENDBRANCH  18  19
ENDBRANCH   1  18
TORSDOF 28
ENDMDL
