MODEL 1
REMARK VINA RESULT:    -4.219      0.000      0.000
REMARK INTER + INTRA:          -5.981
REMARK INTER:                  -5.452
REMARK INTRA:                  -0.529
REMARK UNBOUND:                -0.529
REMARK SMILES C=CC(=O)CCCCC
REMARK SMILES IDX 6 1 7 2 8 3 9 4 5 5 3 6 4 7 2 8 1 9
REMARK H PARENT
REMARK Flexibility Score: inf
ROOT
ATOM      1  C   UNL     1     -11.637 -16.397  29.305  1.00  0.00     0.008 C 
ENDROOT
BRANCH   1   2
ATOM      2  C   UNL     1     -12.536 -15.757  28.241  1.00  0.00     0.000 C 
BRANCH   2   3
ATOM      3  C   UNL     1     -12.683 -16.674  27.021  1.00  0.00    -0.003 C 
ATOM      4  C   UNL     1     -11.326 -17.189  26.551  1.00  0.00     0.004 C 
ENDBRANCH   2   3
ENDBRANCH   1   2
BRANCH   1   5
ATOM      5  C   UNL     1     -12.419 -17.410  30.148  1.00  0.00     0.080 C 
BRANCH   5   6
ATOM      6  C   UNL     1     -11.832 -18.782  30.002  1.00  0.00     0.155 C 
ATOM      7  O   UNL     1     -10.588 -18.940  30.141  1.00  0.00    -0.295 OA
BRANCH   6   8
ATOM      8  C   UNL     1     -12.711 -19.939  29.742  1.00  0.00     0.039 C 
ATOM      9  C   UNL     1     -13.461 -20.036  28.646  1.00  0.00     0.012 C 
ENDBRANCH   6   8
ENDBRANCH   5   6
ENDBRANCH   1   5
TORSDOF 5
ENDMDL
MODEL 2
REMARK VINA RESULT:    -4.086      1.427      1.852
REMARK INTER + INTRA:          -5.810
REMARK INTER:                  -5.507
REMARK INTRA:                  -0.303
REMARK UNBOUND:                -0.529
REMARK SMILES C=CC(=O)CCCCC
REMARK SMILES IDX 6 1 7 2 8 3 9 4 5 5 3 6 4 7 2 8 1 9
REMARK H PARENT
REMARK Flexibility Score: inf
ROOT
ATOM      1  C   UNL     1     -11.673 -16.597  30.116  1.00  0.00     0.008 C 
ENDROOT
BRANCH   1   2
ATOM      2  C   UNL     1     -11.481 -15.847  28.794  1.00  0.00     0.000 C 
BRANCH   2   3
ATOM      3  C   UNL     1     -12.830 -15.441  28.190  1.00  0.00    -0.003 C 
ATOM      4  C   UNL     1     -13.123 -16.227  26.915  1.00  0.00     0.004 C 
ENDBRANCH   2   3
ENDBRANCH   1   2
BRANCH   1   5
ATOM      5  C   UNL     1     -11.077 -18.007  30.042  1.00  0.00     0.080 C 
BRANCH   5   6
ATOM      6  C   UNL     1     -12.150 -19.020  29.779  1.00  0.00     0.155 C 
ATOM      7  O   UNL     1     -12.529 -19.227  28.594  1.00  0.00    -0.295 OA
BRANCH   6   8
ATOM      8  C   UNL     1     -12.723 -19.797  30.896  1.00  0.00     0.039 C 
ATOM      9  C   UNL     1     -11.987 -20.606  31.657  1.00  0.00     0.012 C 
ENDBRANCH   6   8
ENDBRANCH   5   6
ENDBRANCH   1   5
TORSDOF 5
ENDMDL
MODEL 3
REMARK VINA RESULT:    -4.078      1.714      3.793
REMARK INTER + INTRA:          -5.800
REMARK INTER:                  -5.337
REMARK INTRA:                  -0.463
REMARK UNBOUND:                -0.529
REMARK SMILES C=CC(=O)CCCCC
REMARK SMILES IDX 6 1 7 2 8 3 9 4 5 5 3 6 4 7 2 8 1 9
REMARK H PARENT
REMARK Flexibility Score: inf
ROOT
ATOM      1  C   UNL     1     -12.401 -17.611  30.067  1.00  0.00     0.008 C 
ENDROOT
BRANCH   1   2
ATOM      2  C   UNL     1     -11.740 -18.963  29.777  1.00  0.00     0.000 C 
BRANCH   2   3
ATOM      3  C   UNL     1     -12.766 -20.101  29.835  1.00  0.00    -0.003 C 
ATOM      4  C   UNL     1     -13.613 -20.145  28.567  1.00  0.00     0.004 C 
ENDBRANCH   2   3
ENDBRANCH   1   2
BRANCH   1   5
ATOM      5  C   UNL     1     -11.654 -16.471  29.365  1.00  0.00     0.080 C 
BRANCH   5   6
ATOM      6  C   UNL     1     -12.450 -15.958  28.202  1.00  0.00     0.155 C 
ATOM      7  O   UNL     1     -13.112 -14.892  28.329  1.00  0.00    -0.295 OA
BRANCH   6   8
ATOM      8  C   UNL     1     -12.418 -16.673  26.911  1.00  0.00     0.039 C 
ATOM      9  C   UNL     1     -11.310 -17.237  26.432  1.00  0.00     0.012 C 
ENDBRANCH   6   8
ENDBRANCH   5   6
ENDBRANCH   1   5
TORSDOF 5
ENDMDL
MODEL 4
REMARK VINA RESULT:    -4.047      2.766      4.362
REMARK INTER + INTRA:          -5.759
REMARK INTER:                  -5.548
REMARK INTRA:                  -0.211
REMARK UNBOUND:                -0.529
REMARK SMILES C=CC(=O)CCCCC
REMARK SMILES IDX 6 1 7 2 8 3 9 4 5 5 3 6 4 7 2 8 1 9
REMARK H PARENT
REMARK Flexibility Score: inf
ROOT
ATOM      1  C   UNL     1     -12.237 -16.246  30.032  1.00  0.00     0.008 C 
ENDROOT
BRANCH   1   2
ATOM      2  C   UNL     1     -13.287 -16.492  31.121  1.00  0.00     0.000 C 
BRANCH   2   3
ATOM      3  C   UNL     1     -14.086 -15.216  31.413  1.00  0.00    -0.003 C 
ATOM      4  C   UNL     1     -14.219 -14.980  32.915  1.00  0.00     0.004 C 
ENDBRANCH   2   3
ENDBRANCH   1   2
BRANCH   1   5
ATOM      5  C   UNL     1     -12.829 -15.445  28.867  1.00  0.00     0.080 C 
BRANCH   5   6
ATOM      6  C   UNL     1     -12.599 -16.158  27.568  1.00  0.00     0.155 C 
ATOM      7  O   UNL     1     -13.462 -16.068  26.652  1.00  0.00    -0.295 OA
BRANCH   6   8
ATOM      8  C   UNL     1     -11.353 -16.919  27.352  1.00  0.00     0.039 C 
ATOM      9  C   UNL     1     -10.991 -17.375  26.154  1.00  0.00     0.012 C 
ENDBRANCH   6   8
ENDBRANCH   5   6
ENDBRANCH   1   5
TORSDOF 5
ENDMDL
MODEL 5
REMARK VINA RESULT:    -4.041      1.855      4.337
REMARK INTER + INTRA:          -5.752
REMARK INTER:                  -5.524
REMARK INTRA:                  -0.227
REMARK UNBOUND:                -0.529
REMARK SMILES C=CC(=O)CCCCC
REMARK SMILES IDX 6 1 7 2 8 3 9 4 5 5 3 6 4 7 2 8 1 9
REMARK H PARENT
REMARK Flexibility Score: inf
ROOT
ATOM      1  C   UNL     1     -13.087 -19.022  28.484  1.00  0.00     0.008 C 
ENDROOT
BRANCH   1   2
ATOM      2  C   UNL     1     -12.967 -20.203  29.454  1.00  0.00     0.000 C 
BRANCH   2   3
ATOM      3  C   UNL     1     -12.839 -19.715  30.902  1.00  0.00    -0.003 C 
ATOM      4  C   UNL     1     -11.906 -20.614  31.707  1.00  0.00     0.004 C 
ENDBRANCH   2   3
ENDBRANCH   1   2
BRANCH   1   5
ATOM      5  C   UNL     1     -11.759 -18.268  28.366  1.00  0.00     0.080 C 
BRANCH   5   6
ATOM      6  C   UNL     1     -11.840 -17.221  27.295  1.00  0.00     0.155 C 
ATOM      7  O   UNL     1     -11.121 -17.334  26.265  1.00  0.00    -0.295 OA
BRANCH   6   8
ATOM      8  C   UNL     1     -12.787 -16.097  27.431  1.00  0.00     0.039 C 
ATOM      9  C   UNL     1     -12.785 -15.283  28.485  1.00  0.00     0.012 C 
ENDBRANCH   6   8
ENDBRANCH   5   6
ENDBRANCH   1   5
TORSDOF 5
ENDMDL
MODEL 6
REMARK VINA RESULT:    -3.973      2.234      3.454
REMARK INTER + INTRA:          -5.663
REMARK INTER:                  -5.400
REMARK INTRA:                  -0.263
REMARK UNBOUND:                -0.529
REMARK SMILES C=CC(=O)CCCCC
REMARK SMILES IDX 6 1 7 2 8 3 9 4 5 5 3 6 4 7 2 8 1 9
REMARK H PARENT
REMARK Flexibility Score: inf
ROOT
ATOM      1  C   UNL     1     -12.647 -15.977  29.531  1.00  0.00     0.008 C 
ENDROOT
BRANCH   1   2
ATOM      2  C   UNL     1     -13.098 -16.115  30.989  1.00  0.00     0.000 C 
BRANCH   2   3
ATOM      3  C   UNL     1     -14.121 -15.034  31.355  1.00  0.00    -0.003 C 
ATOM      4  C   UNL     1     -14.442 -15.059  32.846  1.00  0.00     0.004 C 
ENDBRANCH   2   3
ENDBRANCH   1   2
BRANCH   1   5
ATOM      5  C   UNL     1     -11.652 -17.079  29.155  1.00  0.00     0.080 C 
BRANCH   5   6
ATOM      6  C   UNL     1     -12.312 -18.425  29.204  1.00  0.00     0.155 C 
ATOM      7  O   UNL     1     -13.276 -18.669  28.428  1.00  0.00    -0.295 OA
BRANCH   6   8
ATOM      8  C   UNL     1     -11.806 -19.463  30.123  1.00  0.00     0.039 C 
ATOM      9  C   UNL     1     -12.572 -20.028  31.055  1.00  0.00     0.012 C 
ENDBRANCH   6   8
ENDBRANCH   5   6
ENDBRANCH   1   5
TORSDOF 5
ENDMDL
MODEL 7
REMARK VINA RESULT:    -3.942      1.764      2.585
REMARK INTER + INTRA:          -5.624
REMARK INTER:                  -5.221
REMARK INTRA:                  -0.403
REMARK UNBOUND:                -0.529
REMARK SMILES C=CC(=O)CCCCC
REMARK SMILES IDX 6 1 7 2 8 3 9 4 5 5 3 6 4 7 2 8 1 9
REMARK H PARENT
REMARK Flexibility Score: inf
ROOT
ATOM      1  C   UNL     1     -12.551 -16.920  29.273  1.00  0.00     0.008 C 
ENDROOT
BRANCH   1   2
ATOM      2  C   UNL     1     -11.706 -15.775  28.702  1.00  0.00     0.000 C 
BRANCH   2   3
ATOM      3  C   UNL     1     -10.252 -15.873  29.179  1.00  0.00    -0.003 C 
ATOM      4  C   UNL     1     -10.181 -16.241  30.659  1.00  0.00     0.004 C 
ENDBRANCH   2   3
ENDBRANCH   1   2
BRANCH   1   5
ATOM      5  C   UNL     1     -12.655 -18.078  28.275  1.00  0.00     0.080 C 
BRANCH   5   6
ATOM      6  C   UNL     1     -12.675 -19.393  28.996  1.00  0.00     0.155 C 
ATOM      7  O   UNL     1     -13.393 -20.331  28.552  1.00  0.00    -0.295 OA
BRANCH   6   8
ATOM      8  C   UNL     1     -11.824 -19.598  30.185  1.00  0.00     0.039 C 
ATOM      9  C   UNL     1     -12.227 -20.305  31.240  1.00  0.00     0.012 C 
ENDBRANCH   6   8
ENDBRANCH   5   6
ENDBRANCH   1   5
TORSDOF 5
ENDMDL
MODEL 8
REMARK VINA RESULT:    -3.839      1.615      3.904
REMARK INTER + INTRA:          -5.491
REMARK INTER:                  -5.115
REMARK INTRA:                  -0.376
REMARK UNBOUND:                -0.529
REMARK SMILES C=CC(=O)CCCCC
REMARK SMILES IDX 6 1 7 2 8 3 9 4 5 5 3 6 4 7 2 8 1 9
REMARK H PARENT
REMARK Flexibility Score: inf
ROOT
ATOM      1  C   UNL     1     -10.994 -18.301  30.140  1.00  0.00     0.008 C 
ENDROOT
BRANCH   1   2
ATOM      2  C   UNL     1     -11.947 -19.218  29.367  1.00  0.00     0.000 C 
BRANCH   2   3
ATOM      3  C   UNL     1     -12.820 -20.037  30.325  1.00  0.00    -0.003 C 
ATOM      4  C   UNL     1     -12.018 -20.511  31.533  1.00  0.00     0.004 C 
ENDBRANCH   2   3
ENDBRANCH   1   2
BRANCH   1   5
ATOM      5  C   UNL     1     -10.877 -16.931  29.462  1.00  0.00     0.080 C 
BRANCH   5   6
ATOM      6  C   UNL     1     -12.196 -16.218  29.484  1.00  0.00     0.155 C 
ATOM      7  O   UNL     1     -12.809 -16.086  30.579  1.00  0.00    -0.295 OA
BRANCH   6   8
ATOM      8  C   UNL     1     -12.745 -15.640  28.242  1.00  0.00     0.039 C 
ATOM      9  C   UNL     1     -12.896 -16.352  27.127  1.00  0.00     0.012 C 
ENDBRANCH   6   8
ENDBRANCH   5   6
ENDBRANCH   1   5
TORSDOF 5
ENDMDL
MODEL 9
REMARK VINA RESULT:    -3.794      1.723      3.976
REMARK INTER + INTRA:          -5.432
REMARK INTER:                  -5.048
REMARK INTRA:                  -0.384
REMARK UNBOUND:                -0.529
REMARK SMILES C=CC(=O)CCCCC
REMARK SMILES IDX 6 1 7 2 8 3 9 4 5 5 3 6 4 7 2 8 1 9
REMARK H PARENT
REMARK Flexibility Score: inf
ROOT
ATOM      1  C   UNL     1     -12.859 -18.417  28.607  1.00  0.00     0.008 C 
ENDROOT
BRANCH   1   2
ATOM      2  C   UNL     1     -12.151 -19.548  29.360  1.00  0.00     0.000 C 
BRANCH   2   3
ATOM      3  C   UNL     1     -12.860 -19.857  30.684  1.00  0.00    -0.003 C 
ATOM      4  C   UNL     1     -11.944 -20.620  31.636  1.00  0.00     0.004 C 
ENDBRANCH   2   3
ENDBRANCH   1   2
BRANCH   1   5
ATOM      5  C   UNL     1     -11.993 -17.153  28.571  1.00  0.00     0.080 C 
BRANCH   5   6
ATOM      6  C   UNL     1     -11.986 -16.481  29.912  1.00  0.00     0.155 C 
ATOM      7  O   UNL     1     -10.913 -16.432  30.573  1.00  0.00    -0.295 OA
BRANCH   6   8
ATOM      8  C   UNL     1     -13.215 -15.844  30.426  1.00  0.00     0.039 C 
ATOM      9  C   UNL     1     -13.553 -15.878  31.714  1.00  0.00     0.012 C 
ENDBRANCH   6   8
ENDBRANCH   5   6
ENDBRANCH   1   5
TORSDOF 5
ENDMDL
