MODEL 1
REMARK VINA RESULT:    -3.380      0.000      0.000
REMARK INTER + INTRA:          -5.488
REMARK INTER:                  -4.960
REMARK INTRA:                  -0.528
REMARK UNBOUND:                -0.528
REMARK SMILES O=C([O-])CCCCCCCC(=O)[O-]
REMARK SMILES IDX 7 1 6 2 5 3 4 4 2 5 1 6 3 7 8 8 9 9 10 10 11 11 12 12 13 13
REMARK H PARENT
REMARK Flexibility Score: inf
ROOT
ATOM      1  C   UNL     1      -4.519  -1.305  -4.745  1.00  0.00     0.000 C 
ENDROOT
BRANCH   1   2
ATOM      2  C   UNL     1      -5.673  -1.712  -3.815  1.00  0.00     0.000 C 
BRANCH   2   3
ATOM      3  C   UNL     1      -5.568  -3.170  -3.345  1.00  0.00     0.006 C 
BRANCH   3   4
ATOM      4  C   UNL     1      -4.227  -3.816  -3.717  1.00  0.00     0.053 C 
BRANCH   4   5
ATOM      5  C   UNL     1      -3.722  -4.657  -2.587  1.00  0.00     0.041 C 
ATOM      6  O   UNL     1      -2.486  -4.846  -2.441  1.00  0.00    -0.550 OA
ATOM      7  O   UNL     1      -4.619  -5.274  -1.724  1.00  0.00    -0.550 OA
ENDBRANCH   4   5
ENDBRANCH   3   4
ENDBRANCH   2   3
ENDBRANCH   1   2
BRANCH   1   8
ATOM      8  C   UNL     1      -5.046  -0.897  -6.126  1.00  0.00     0.000 C 
BRANCH   8   9
ATOM      9  C   UNL     1      -4.064  -1.300  -7.233  1.00  0.00     0.006 C 
BRANCH   9  10
ATOM     10  C   UNL     1      -2.741  -1.795  -6.641  1.00  0.00     0.053 C 
BRANCH  10  11
ATOM     11  C   UNL     1      -1.619  -0.886  -7.033  1.00  0.00     0.041 C 
ATOM     12  O   UNL     1      -0.703  -0.619  -6.212  1.00  0.00    -0.550 OA
ATOM     13  O   UNL     1      -1.611  -0.294  -8.290  1.00  0.00    -0.550 OA
ENDBRANCH  10  11
ENDBRANCH   9  10
ENDBRANCH   8   9
ENDBRANCH   1   8
TORSDOF 8
ENDMDL
MODEL 2
REMARK VINA RESULT:    -3.301      1.180      4.966
REMARK INTER + INTRA:          -5.373
REMARK INTER:                  -4.756
REMARK INTRA:                  -0.617
REMARK UNBOUND:                -0.528
REMARK SMILES O=C([O-])CCCCCCCC(=O)[O-]
REMARK SMILES IDX 7 1 6 2 5 3 4 4 2 5 1 6 3 7 8 8 9 9 10 10 11 11 12 12 13 13
REMARK H PARENT
REMARK Flexibility Score: inf
ROOT
ATOM      1  C   UNL     1      -6.408  -2.638  -4.749  1.00  0.00     0.000 C 
ENDROOT
BRANCH   1   2
ATOM      2  C   UNL     1      -6.263  -1.695  -5.953  1.00  0.00     0.000 C 
BRANCH   2   3
ATOM      3  C   UNL     1      -5.010  -0.812  -5.865  1.00  0.00     0.006 C 
BRANCH   3   4
ATOM      4  C   UNL     1      -3.991  -1.120  -6.970  1.00  0.00     0.053 C 
BRANCH   4   5
ATOM      5  C   UNL     1      -2.715  -1.629  -6.377  1.00  0.00     0.041 C 
ATOM      6  O   UNL     1      -1.698  -0.888  -6.328  1.00  0.00    -0.550 OA
ATOM      7  O   UNL     1      -2.633  -2.939  -5.922  1.00  0.00    -0.550 OA
ENDBRANCH   4   5
ENDBRANCH   3   4
ENDBRANCH   2   3
ENDBRANCH   1   2
BRANCH   1   8
ATOM      8  C   UNL     1      -5.964  -1.949  -3.454  1.00  0.00     0.000 C 
BRANCH   8   9
ATOM      9  C   UNL     1      -4.808  -2.707  -2.793  1.00  0.00     0.006 C 
BRANCH   9  10
ATOM     10  C   UNL     1      -4.663  -4.113  -3.383  1.00  0.00     0.053 C 
BRANCH  10  11
ATOM     11  C   UNL     1      -3.556  -4.855  -2.702  1.00  0.00     0.041 C 
ATOM     12  O   UNL     1      -2.374  -4.753  -3.120  1.00  0.00    -0.550 OA
ATOM     13  O   UNL     1      -3.839  -5.697  -1.634  1.00  0.00    -0.550 OA
ENDBRANCH  10  11
ENDBRANCH   9  10
ENDBRANCH   8   9
ENDBRANCH   1   8
TORSDOF 8
ENDMDL
MODEL 3
REMARK VINA RESULT:    -3.271      1.524      4.954
REMARK INTER + INTRA:          -5.328
REMARK INTER:                  -4.670
REMARK INTRA:                  -0.658
REMARK UNBOUND:                -0.528
REMARK SMILES O=C([O-])CCCCCCCC(=O)[O-]
REMARK SMILES IDX 7 1 6 2 5 3 4 4 2 5 1 6 3 7 8 8 9 9 10 10 11 11 12 12 13 13
REMARK H PARENT
REMARK Flexibility Score: inf
ROOT
ATOM      1  C   UNL     1      -6.479  -3.431  -3.458  1.00  0.00     0.000 C 
ENDROOT
BRANCH   1   2
ATOM      2  C   UNL     1      -6.317  -2.013  -4.027  1.00  0.00     0.000 C 
BRANCH   2   3
ATOM      3  C   UNL     1      -4.850  -1.654  -4.309  1.00  0.00     0.006 C 
BRANCH   3   4
ATOM      4  C   UNL     1      -4.328  -2.279  -5.609  1.00  0.00     0.053 C 
BRANCH   4   5
ATOM      5  C   UNL     1      -3.454  -1.309  -6.341  1.00  0.00     0.041 C 
ATOM      6  O   UNL     1      -2.221  -1.255  -6.093  1.00  0.00    -0.550 OA
ATOM      7  O   UNL     1      -4.009  -0.428  -7.261  1.00  0.00    -0.550 OA
ENDBRANCH   4   5
ENDBRANCH   3   4
ENDBRANCH   2   3
ENDBRANCH   1   2
BRANCH   1   8
ATOM      8  C   UNL     1      -5.423  -3.716  -2.384  1.00  0.00     0.000 C 
BRANCH   8   9
ATOM      9  C   UNL     1      -5.017  -5.195  -2.388  1.00  0.00     0.006 C 
BRANCH   9  10
ATOM     10  C   UNL     1      -4.137  -5.521  -3.598  1.00  0.00     0.053 C 
BRANCH  10  11
ATOM     11  C   UNL     1      -2.723  -5.106  -3.345  1.00  0.00     0.041 C 
ATOM     12  O   UNL     1      -2.249  -5.146  -2.180  1.00  0.00    -0.550 OA
ATOM     13  O   UNL     1      -1.941  -4.630  -4.390  1.00  0.00    -0.550 OA
ENDBRANCH  10  11
ENDBRANCH   9  10
ENDBRANCH   8   9
ENDBRANCH   1   8
TORSDOF 8
ENDMDL
MODEL 4
REMARK VINA RESULT:    -3.130      1.609      2.238
REMARK INTER + INTRA:          -5.122
REMARK INTER:                  -4.455
REMARK INTRA:                  -0.667
REMARK UNBOUND:                -0.528
REMARK SMILES O=C([O-])CCCCCCCC(=O)[O-]
REMARK SMILES IDX 7 1 6 2 5 3 4 4 2 5 1 6 3 7 8 8 9 9 10 10 11 11 12 12 13 13
REMARK H PARENT
REMARK Flexibility Score: inf
ROOT
ATOM      1  C   UNL     1      -6.493  -1.937  -3.261  1.00  0.00     0.000 C 
ENDROOT
BRANCH   1   2
ATOM      2  C   UNL     1      -5.466  -2.791  -2.503  1.00  0.00     0.000 C 
BRANCH   2   3
ATOM      3  C   UNL     1      -5.228  -4.157  -3.164  1.00  0.00     0.006 C 
BRANCH   3   4
ATOM      4  C   UNL     1      -3.768  -4.616  -3.065  1.00  0.00     0.053 C 
BRANCH   4   5
ATOM      5  C   UNL     1      -3.103  -4.536  -4.403  1.00  0.00     0.041 C 
ATOM      6  O   UNL     1      -3.793  -4.393  -5.446  1.00  0.00    -0.550 OA
ATOM      7  O   UNL     1      -1.724  -4.669  -4.504  1.00  0.00    -0.550 OA
ENDBRANCH   4   5
ENDBRANCH   3   4
ENDBRANCH   2   3
ENDBRANCH   1   2
BRANCH   1   8
ATOM      8  C   UNL     1      -6.154  -1.868  -4.755  1.00  0.00     0.000 C 
BRANCH   8   9
ATOM      9  C   UNL     1      -4.875  -1.058  -4.994  1.00  0.00     0.006 C 
BRANCH   9  10
ATOM     10  C   UNL     1      -4.647  -0.818  -6.489  1.00  0.00     0.053 C 
BRANCH  10  11
ATOM     11  C   UNL     1      -3.212  -1.049  -6.844  1.00  0.00     0.041 C 
ATOM     12  O   UNL     1      -2.368  -1.293  -5.943  1.00  0.00    -0.550 OA
ATOM     13  O   UNL     1      -2.798  -0.948  -8.166  1.00  0.00    -0.550 OA
ENDBRANCH  10  11
ENDBRANCH   9  10
ENDBRANCH   8   9
ENDBRANCH   1   8
TORSDOF 8
ENDMDL
MODEL 5
REMARK VINA RESULT:    -3.129      1.295      1.817
REMARK INTER + INTRA:          -5.121
REMARK INTER:                  -4.407
REMARK INTRA:                  -0.714
REMARK UNBOUND:                -0.528
REMARK SMILES O=C([O-])CCCCCCCC(=O)[O-]
REMARK SMILES IDX 7 1 6 2 5 3 4 4 2 5 1 6 3 7 8 8 9 9 10 10 11 11 12 12 13 13
REMARK H PARENT
REMARK Flexibility Score: inf
ROOT
ATOM      1  C   UNL     1      -6.505  -2.570  -5.224  1.00  0.00     0.000 C 
ENDROOT
BRANCH   1   2
ATOM      2  C   UNL     1      -6.284  -1.980  -3.823  1.00  0.00     0.000 C 
BRANCH   2   3
ATOM      3  C   UNL     1      -4.928  -2.375  -3.221  1.00  0.00     0.006 C 
BRANCH   3   4
ATOM      4  C   UNL     1      -4.413  -3.718  -3.756  1.00  0.00     0.053 C 
BRANCH   4   5
ATOM      5  C   UNL     1      -3.885  -4.558  -2.636  1.00  0.00     0.041 C 
ATOM      6  O   UNL     1      -4.659  -4.965  -1.730  1.00  0.00    -0.550 OA
ATOM      7  O   UNL     1      -2.529  -4.851  -2.564  1.00  0.00    -0.550 OA
ENDBRANCH   4   5
ENDBRANCH   3   4
ENDBRANCH   2   3
ENDBRANCH   1   2
BRANCH   1   8
ATOM      8  C   UNL     1      -6.593  -1.462  -6.279  1.00  0.00     0.000 C 
BRANCH   8   9
ATOM      9  C   UNL     1      -5.358  -1.464  -7.187  1.00  0.00     0.006 C 
BRANCH   9  10
ATOM     10  C   UNL     1      -4.195  -0.708  -6.536  1.00  0.00     0.053 C 
BRANCH  10  11
ATOM     11  C   UNL     1      -2.951  -1.537  -6.563  1.00  0.00     0.041 C 
ATOM     12  O   UNL     1      -3.014  -2.768  -6.814  1.00  0.00    -0.550 OA
ATOM     13  O   UNL     1      -1.724  -0.958  -6.263  1.00  0.00    -0.550 OA
ENDBRANCH  10  11
ENDBRANCH   9  10
ENDBRANCH   8   9
ENDBRANCH   1   8
TORSDOF 8
ENDMDL
MODEL 6
REMARK VINA RESULT:    -3.113      6.295      8.562
REMARK INTER + INTRA:          -5.097
REMARK INTER:                  -4.386
REMARK INTRA:                  -0.711
REMARK UNBOUND:                -0.528
REMARK SMILES O=C([O-])CCCCCCCC(=O)[O-]
REMARK SMILES IDX 7 1 6 2 5 3 4 4 2 5 1 6 3 7 8 8 9 9 10 10 11 11 12 12 13 13
REMARK H PARENT
REMARK Flexibility Score: inf
ROOT
ATOM      1  C   UNL     1       5.438  -0.858  -6.538  1.00  0.00     0.000 C 
ENDROOT
BRANCH   1   2
ATOM      2  C   UNL     1       5.645   0.351  -5.612  1.00  0.00     0.000 C 
BRANCH   2   3
ATOM      3  C   UNL     1       5.488  -0.008  -4.127  1.00  0.00     0.006 C 
BRANCH   3   4
ATOM      4  C   UNL     1       5.865  -1.465  -3.828  1.00  0.00     0.053 C 
BRANCH   4   5
ATOM      5  C   UNL     1       4.899  -2.064  -2.854  1.00  0.00     0.041 C 
ATOM      6  O   UNL     1       3.701  -1.679  -2.830  1.00  0.00    -0.550 OA
ATOM      7  O   UNL     1       5.335  -3.013  -1.937  1.00  0.00    -0.550 OA
ENDBRANCH   4   5
ENDBRANCH   3   4
ENDBRANCH   2   3
ENDBRANCH   1   2
BRANCH   1   8
ATOM      8  C   UNL     1       4.474  -0.516  -7.680  1.00  0.00     0.000 C 
BRANCH   8   9
ATOM      9  C   UNL     1       3.287  -1.486  -7.710  1.00  0.00     0.006 C 
BRANCH   9  10
ATOM     10  C   UNL     1       3.353  -2.473  -6.541  1.00  0.00     0.053 C 
BRANCH  10  11
ATOM     11  C   UNL     1       2.031  -2.549  -5.845  1.00  0.00     0.041 C 
ATOM     12  O   UNL     1       1.134  -1.701  -6.093  1.00  0.00    -0.550 OA
ATOM     13  O   UNL     1       1.806  -3.529  -4.886  1.00  0.00    -0.550 OA
ENDBRANCH  10  11
ENDBRANCH   9  10
ENDBRANCH   8   9
ENDBRANCH   1   8
TORSDOF 8
ENDMDL
MODEL 7
REMARK VINA RESULT:    -3.101      8.662     11.571
REMARK INTER + INTRA:          -5.079
REMARK INTER:                  -4.820
REMARK INTRA:                  -0.258
REMARK UNBOUND:                -0.528
REMARK SMILES O=C([O-])CCCCCCCC(=O)[O-]
REMARK SMILES IDX 7 1 6 2 5 3 4 4 2 5 1 6 3 7 8 8 9 9 10 10 11 11 12 12 13 13
REMARK H PARENT
REMARK Flexibility Score: inf
ROOT
ATOM      1  C   UNL     1       6.801   1.263  -5.234  1.00  0.00     0.000 C 
ENDROOT
BRANCH   1   2
ATOM      2  C   UNL     1       6.497   2.306  -4.148  1.00  0.00     0.000 C 
BRANCH   2   3
ATOM      3  C   UNL     1       7.547   3.425  -4.092  1.00  0.00     0.006 C 
BRANCH   3   4
ATOM      4  C   UNL     1       6.924   4.825  -4.176  1.00  0.00     0.053 C 
BRANCH   4   5
ATOM      5  C   UNL     1       6.551   5.313  -2.812  1.00  0.00     0.041 C 
ATOM      6  O   UNL     1       5.364   5.209  -2.404  1.00  0.00    -0.550 OA
ATOM      7  O   UNL     1       7.503   5.930  -2.009  1.00  0.00    -0.550 OA
ENDBRANCH   4   5
ENDBRANCH   3   4
ENDBRANCH   2   3
ENDBRANCH   1   2
BRANCH   1   8
ATOM      8  C   UNL     1       5.628   0.291  -5.408  1.00  0.00     0.000 C 
BRANCH   8   9
ATOM      9  C   UNL     1       5.336  -0.460  -4.104  1.00  0.00     0.006 C 
BRANCH   9  10
ATOM     10  C   UNL     1       4.575  -1.761  -4.376  1.00  0.00     0.053 C 
BRANCH  10  11
ATOM     11  C   UNL     1       3.419  -1.898  -3.436  1.00  0.00     0.041 C 
ATOM     12  O   UNL     1       3.576  -1.693  -2.204  1.00  0.00    -0.550 OA
ATOM     13  O   UNL     1       2.179  -2.301  -3.915  1.00  0.00    -0.550 OA
ENDBRANCH  10  11
ENDBRANCH   9  10
ENDBRANCH   8   9
ENDBRANCH   1   8
TORSDOF 8
ENDMDL
MODEL 8
REMARK VINA RESULT:    -3.071      1.286      5.148
REMARK INTER + INTRA:          -5.035
REMARK INTER:                  -4.355
REMARK INTRA:                  -0.679
REMARK UNBOUND:                -0.528
REMARK SMILES O=C([O-])CCCCCCCC(=O)[O-]
REMARK SMILES IDX 7 1 6 2 5 3 4 4 2 5 1 6 3 7 8 8 9 9 10 10 11 11 12 12 13 13
REMARK H PARENT
REMARK Flexibility Score: inf
ROOT
ATOM      1  C   UNL     1      -6.043  -1.688  -5.533  1.00  0.00     0.000 C 
ENDROOT
BRANCH   1   2
ATOM      2  C   UNL     1      -5.611  -2.701  -6.604  1.00  0.00     0.000 C 
BRANCH   2   3
ATOM      3  C   UNL     1      -4.094  -2.702  -6.839  1.00  0.00     0.006 C 
BRANCH   3   4
ATOM      4  C   UNL     1      -3.402  -1.467  -6.246  1.00  0.00     0.053 C 
BRANCH   4   5
ATOM      5  C   UNL     1      -2.049  -1.282  -6.858  1.00  0.00     0.041 C 
ATOM      6  O   UNL     1      -1.127  -0.730  -6.202  1.00  0.00    -0.550 OA
ATOM      7  O   UNL     1      -1.819  -1.674  -8.171  1.00  0.00    -0.550 OA
ENDBRANCH   4   5
ENDBRANCH   3   4
ENDBRANCH   2   3
ENDBRANCH   1   2
BRANCH   1   8
ATOM      8  C   UNL     1      -6.988  -2.335  -4.514  1.00  0.00     0.000 C 
BRANCH   8   9
ATOM      9  C   UNL     1      -6.484  -2.125  -3.082  1.00  0.00     0.006 C 
BRANCH   9  10
ATOM     10  C   UNL     1      -4.958  -2.237  -3.014  1.00  0.00     0.053 C 
BRANCH  10  11
ATOM     11  C   UNL     1      -4.546  -3.657  -2.789  1.00  0.00     0.041 C 
ATOM     12  O   UNL     1      -5.027  -4.312  -1.828  1.00  0.00    -0.550 OA
ATOM     13  O   UNL     1      -3.593  -4.243  -3.613  1.00  0.00    -0.550 OA
ENDBRANCH  10  11
ENDBRANCH   9  10
ENDBRANCH   8   9
ENDBRANCH   1   8
TORSDOF 8
ENDMDL
MODEL 9
REMARK VINA RESULT:    -2.940      8.485     10.575
REMARK INTER + INTRA:          -4.843
REMARK INTER:                  -4.087
REMARK INTRA:                  -0.756
REMARK UNBOUND:                -0.528
REMARK SMILES O=C([O-])CCCCCCCC(=O)[O-]
REMARK SMILES IDX 7 1 6 2 5 3 4 4 2 5 1 6 3 7 8 8 9 9 10 10 11 11 12 12 13 13
REMARK H PARENT
REMARK Flexibility Score: inf
ROOT
ATOM      1  C   UNL     1       7.383  -1.795  -4.390  1.00  0.00     0.000 C 
ENDROOT
BRANCH   1   2
ATOM      2  C   UNL     1       6.799  -0.378  -4.500  1.00  0.00     0.000 C 
BRANCH   2   3
ATOM      3  C   UNL     1       5.313  -0.319  -4.115  1.00  0.00     0.006 C 
BRANCH   3   4
ATOM      4  C   UNL     1       4.575  -1.634  -4.401  1.00  0.00     0.053 C 
BRANCH   4   5
ATOM      5  C   UNL     1       3.523  -1.877  -3.365  1.00  0.00     0.041 C 
ATOM      6  O   UNL     1       3.799  -1.765  -2.142  1.00  0.00    -0.550 OA
ATOM      7  O   UNL     1       2.249  -2.277  -3.749  1.00  0.00    -0.550 OA
ENDBRANCH   4   5
ENDBRANCH   3   4
ENDBRANCH   2   3
ENDBRANCH   1   2
BRANCH   1   8
ATOM      8  C   UNL     1       8.312  -1.912  -3.176  1.00  0.00     0.000 C 
BRANCH   8   9
ATOM      9  C   UNL     1       7.613  -2.622  -2.012  1.00  0.00     0.006 C 
BRANCH   9  10
ATOM     10  C   UNL     1       7.483  -4.125  -2.280  1.00  0.00     0.053 C 
BRANCH  10  11
ATOM     11  C   UNL     1       6.084  -4.585  -2.019  1.00  0.00     0.041 C 
ATOM     12  O   UNL     1       5.307  -4.829  -2.978  1.00  0.00    -0.550 OA
ATOM     13  O   UNL     1       5.623  -4.698  -0.713  1.00  0.00    -0.550 OA
ENDBRANCH  10  11
ENDBRANCH   9  10
ENDBRANCH   8   9
ENDBRANCH   1   8
TORSDOF 8
ENDMDL
