MODEL 1
REMARK VINA RESULT:    -3.998      0.000      0.000
REMARK INTER + INTRA:          -6.285
REMARK INTER:                  -6.101
REMARK INTRA:                  -0.185
REMARK UNBOUND:                -0.185
REMARK SMILES CC1=CCC[C@H](C)C(=O)C[C@H](C(C)C)C(=O)C1
REMARK SMILES IDX 8 1 9 2 6 3 7 4 5 5 4 6 3 7 2 8 1 9 10 11 11 12 15 13 16 14
REMARK SMILES IDX 17 15 12 17 13 18 14 19
REMARK H PARENT
REMARK Flexibility Score: 70.00
ROOT
ATOM      1  C   UNL     1     -10.179  -4.364 -15.531  1.00  0.00     0.136 C 
ATOM      2  O   UNL     1     -10.379  -4.388 -16.738  1.00  0.00    -0.299 OA
ENDROOT
BRANCH   1   3
ATOM      3  C   UNL     1     -11.176  -5.056 -14.597  1.00  0.00     0.053 C 
ATOM      4  C   UNL     1     -12.623  -4.609 -14.868  1.00  0.00     0.016 C 
BRANCH   3   5
ATOM      5  C   UNL     1     -11.082  -6.607 -14.672  1.00  0.00     0.015 C 
BRANCH   5   6
ATOM      6  C   UNL     1      -9.875  -7.250 -13.957  1.00  0.00     0.028 C 
BRANCH   6   7
ATOM      7  C   UNL     1      -8.844  -7.980 -14.796  1.00  0.00    -0.028 C 
ATOM      8  C   UNL     1      -7.546  -7.640 -14.995  1.00  0.00    -0.070 CG0
ATOM      9  C   UNL     1      -6.769  -8.432 -16.019  1.00  0.00     0.039 C 
ATOM     10  G   UNL     1      -6.794  -6.594 -14.188  1.00  0.00     0.000 G0
ENDBRANCH   6   7
ENDBRANCH   5   6
ENDBRANCH   3   5
ENDBRANCH   1   3
BRANCH   1  11
ATOM     11  C   UNL     1      -8.986  -3.554 -15.031  1.00  0.00     0.087 C 
BRANCH  11  12
ATOM     12  C   UNL     1      -8.082  -4.291 -14.008  1.00  0.00     0.066 C 
BRANCH  12  13
ATOM     13  C   UNL     1      -7.064  -5.197 -14.681  1.00  0.00     0.140 C 
ATOM     14  O   UNL     1      -6.525  -4.794 -15.703  1.00  0.00    -0.299 OA
BRANCH  13  15
ATOM     15  C   UNL     1      -6.776  -6.609 -14.196  1.00  0.00     0.106 CG0
ATOM     16  G   UNL     1      -7.554  -7.638 -15.001  1.00  0.00     0.000 G0
ENDBRANCH  13  15
ENDBRANCH  12  13
BRANCH  12  17
ATOM     17  C   UNL     1      -7.367  -3.306 -13.026  1.00  0.00    -0.006 C 
ATOM     18  C   UNL     1      -7.036  -3.993 -11.687  1.00  0.00     0.008 C 
ATOM     19  C   UNL     1      -8.205  -2.046 -12.741  1.00  0.00     0.008 C 
ENDBRANCH  12  17
ENDBRANCH  11  12
ENDBRANCH   1  11
TORSDOF 1
ENDMDL
MODEL 2
REMARK VINA RESULT:    -3.870      0.967      1.164
REMARK INTER + INTRA:          -6.091
REMARK INTER:                  -6.026
REMARK INTRA:                  -0.064
REMARK UNBOUND:                -0.185
REMARK SMILES CC1=CCC[C@H](C)C(=O)C[C@H](C(C)C)C(=O)C1
REMARK SMILES IDX 8 1 9 2 6 3 7 4 5 5 4 6 3 7 2 8 1 9 10 11 11 12 15 13 16 14
REMARK SMILES IDX 17 15 12 17 13 18 14 19
REMARK H PARENT
REMARK Flexibility Score: 70.00
ROOT
ATOM      1  C   UNL     1      -9.982  -4.074 -15.443  1.00  0.00     0.136 C 
ATOM      2  O   UNL     1     -10.520  -3.378 -16.293  1.00  0.00    -0.299 OA
ENDROOT
BRANCH   1   3
ATOM      3  C   UNL     1     -10.841  -5.017 -14.597  1.00  0.00     0.053 C 
ATOM      4  C   UNL     1     -12.329  -4.625 -14.630  1.00  0.00     0.016 C 
BRANCH   3   5
ATOM      5  C   UNL     1     -10.682  -6.505 -15.020  1.00  0.00     0.015 C 
BRANCH   5   6
ATOM      6  C   UNL     1     -10.302  -7.494 -13.897  1.00  0.00     0.028 C 
BRANCH   6   7
ATOM      7  C   UNL     1      -9.115  -8.414 -14.115  1.00  0.00    -0.028 C 
ATOM      8  C   UNL     1      -7.804  -8.138 -13.904  1.00  0.00    -0.070 CG0
ATOM      9  C   UNL     1      -6.796  -9.163 -14.366  1.00  0.00     0.039 C 
ATOM     10  G   UNL     1      -7.287  -6.928 -13.143  1.00  0.00     0.000 G0
ENDBRANCH   6   7
ENDBRANCH   5   6
ENDBRANCH   3   5
ENDBRANCH   1   3
BRANCH   1  11
ATOM     11  C   UNL     1      -8.485  -3.877 -15.218  1.00  0.00     0.087 C 
BRANCH  11  12
ATOM     12  C   UNL     1      -7.950  -4.441 -13.876  1.00  0.00     0.066 C 
BRANCH  12  13
ATOM     13  C   UNL     1      -7.138  -5.713 -14.065  1.00  0.00     0.140 C 
ATOM     14  O   UNL     1      -6.416  -5.792 -15.049  1.00  0.00    -0.299 OA
BRANCH  13  15
ATOM     15  C   UNL     1      -7.273  -6.916 -13.144  1.00  0.00     0.106 CG0
ATOM     16  G   UNL     1      -7.800  -8.128 -13.894  1.00  0.00     0.000 G0
ENDBRANCH  13  15
ENDBRANCH  12  13
BRANCH  12  17
ATOM     17  C   UNL     1      -7.123  -3.385 -13.072  1.00  0.00    -0.006 C 
ATOM     18  C   UNL     1      -8.035  -2.292 -12.483  1.00  0.00     0.008 C 
ATOM     19  C   UNL     1      -6.035  -2.712 -13.928  1.00  0.00     0.008 C 
ENDBRANCH  12  17
ENDBRANCH  11  12
ENDBRANCH   1  11
TORSDOF 1
ENDMDL
MODEL 3
REMARK VINA RESULT:    -3.669      5.680      8.571
REMARK INTER + INTRA:          -5.783
REMARK INTER:                  -5.537
REMARK INTRA:                  -0.246
REMARK UNBOUND:                -0.185
REMARK SMILES CC1=CCC[C@H](C)C(=O)C[C@H](C(C)C)C(=O)C1
REMARK SMILES IDX 8 1 9 2 6 3 7 4 5 5 4 6 3 7 2 8 1 9 10 11 11 12 15 13 16 14
REMARK SMILES IDX 17 15 12 17 13 18 14 19
REMARK H PARENT
REMARK Flexibility Score: 70.00
ROOT
ATOM      1  C   UNL     1      -6.599   0.494  -9.787  1.00  0.00     0.136 C 
ATOM      2  O   UNL     1      -7.401   0.865  -8.941  1.00  0.00    -0.299 OA
ENDROOT
BRANCH   1   3
ATOM      3  C   UNL     1      -5.771   1.540 -10.539  1.00  0.00     0.053 C 
ATOM      4  C   UNL     1      -6.626   2.738 -10.986  1.00  0.00     0.016 C 
BRANCH   3   5
ATOM      5  C   UNL     1      -4.555   2.044  -9.709  1.00  0.00     0.015 C 
BRANCH   5   6
ATOM      6  C   UNL     1      -3.160   1.657 -10.243  1.00  0.00     0.028 C 
BRANCH   6   7
ATOM      7  C   UNL     1      -2.323   0.681  -9.439  1.00  0.00    -0.028 C 
ATOM      8  C   UNL     1      -2.265  -0.667  -9.573  1.00  0.00    -0.070 CG0
ATOM      9  C   UNL     1      -1.489  -1.437  -8.531  1.00  0.00     0.039 C 
ATOM     10  G   UNL     1      -2.833  -1.443 -10.750  1.00  0.00     0.000 G0
ENDBRANCH   6   7
ENDBRANCH   5   6
ENDBRANCH   3   5
ENDBRANCH   1   3
BRANCH   1  11
ATOM     11  C   UNL     1      -6.550  -0.998 -10.105  1.00  0.00     0.087 C 
BRANCH  11  12
ATOM     12  C   UNL     1      -5.463  -1.409 -11.133  1.00  0.00     0.066 C 
BRANCH  12  13
ATOM     13  C   UNL     1      -4.220  -1.976 -10.465  1.00  0.00     0.140 C 
ATOM     14  O   UNL     1      -4.371  -2.827  -9.600  1.00  0.00    -0.299 OA
BRANCH  13  15
ATOM     15  C   UNL     1      -2.823  -1.450 -10.755  1.00  0.00     0.106 CG0
ATOM     16  G   UNL     1      -2.274  -0.664  -9.575  1.00  0.00     0.000 G0
ENDBRANCH  13  15
ENDBRANCH  12  13
BRANCH  12  17
ATOM     17  C   UNL     1      -6.005  -2.408 -12.207  1.00  0.00    -0.006 C 
ATOM     18  C   UNL     1      -5.231  -2.278 -13.532  1.00  0.00     0.008 C 
ATOM     19  C   UNL     1      -7.506  -2.212 -12.490  1.00  0.00     0.008 C 
ENDBRANCH  12  17
ENDBRANCH  11  12
ENDBRANCH   1  11
TORSDOF 1
ENDMDL
MODEL 4
REMARK VINA RESULT:    -3.604      5.873      8.571
REMARK INTER + INTRA:          -5.684
REMARK INTER:                  -5.328
REMARK INTRA:                  -0.356
REMARK UNBOUND:                -0.185
REMARK SMILES CC1=CCC[C@H](C)C(=O)C[C@H](C(C)C)C(=O)C1
REMARK SMILES IDX 8 1 9 2 6 3 7 4 5 5 4 6 3 7 2 8 1 9 10 11 11 12 15 13 16 14
REMARK SMILES IDX 17 15 12 17 13 18 14 19
REMARK H PARENT
REMARK Flexibility Score: 70.00
ROOT
ATOM      1  C   UNL     1      -6.647  -0.807 -10.823  1.00  0.00     0.136 C 
ATOM      2  O   UNL     1      -7.499  -1.320 -11.537  1.00  0.00    -0.299 OA
ENDROOT
BRANCH   1   3
ATOM      3  C   UNL     1      -6.951   0.532 -10.146  1.00  0.00     0.053 C 
ATOM      4  C   UNL     1      -6.974   0.408  -8.612  1.00  0.00     0.016 C 
BRANCH   3   5
ATOM      5  C   UNL     1      -5.955   1.650 -10.568  1.00  0.00     0.015 C 
BRANCH   5   6
ATOM      6  C   UNL     1      -4.777   1.910  -9.606  1.00  0.00     0.028 C 
BRANCH   6   7
ATOM      7  C   UNL     1      -3.397   2.130 -10.195  1.00  0.00    -0.028 C 
ATOM      8  C   UNL     1      -2.419   1.210 -10.379  1.00  0.00    -0.070 CG0
ATOM      9  C   UNL     1      -1.065   1.714 -10.821  1.00  0.00     0.039 C 
ATOM     10  G   UNL     1      -2.616  -0.294 -10.277  1.00  0.00     0.000 G0
ENDBRANCH   6   7
ENDBRANCH   5   6
ENDBRANCH   3   5
ENDBRANCH   1   3
BRANCH   1  11
ATOM     11  C   UNL     1      -5.290  -1.500 -10.737  1.00  0.00     0.087 C 
BRANCH  11  12
ATOM     12  C   UNL     1      -4.394  -1.334 -11.993  1.00  0.00     0.066 C 
BRANCH  12  13
ATOM     13  C   UNL     1      -2.979  -0.904 -11.641  1.00  0.00     0.140 C 
ATOM     14  O   UNL     1      -2.093  -1.131 -12.453  1.00  0.00    -0.299 OA
BRANCH  13  15
ATOM     15  C   UNL     1      -2.614  -0.311 -10.289  1.00  0.00     0.106 CG0
ATOM     16  G   UNL     1      -2.423   1.194 -10.382  1.00  0.00     0.000 G0
ENDBRANCH  13  15
ENDBRANCH  12  13
BRANCH  12  17
ATOM     17  C   UNL     1      -4.366  -2.621 -12.880  1.00  0.00    -0.006 C 
ATOM     18  C   UNL     1      -4.985  -2.359 -14.266  1.00  0.00     0.008 C 
ATOM     19  C   UNL     1      -5.101  -3.805 -12.225  1.00  0.00     0.008 C 
ENDBRANCH  12  17
ENDBRANCH  11  12
ENDBRANCH   1  11
TORSDOF 1
ENDMDL
MODEL 5
REMARK VINA RESULT:    -3.571      7.090      8.647
REMARK INTER + INTRA:          -5.635
REMARK INTER:                  -5.345
REMARK INTRA:                  -0.290
REMARK UNBOUND:                -0.185
REMARK SMILES CC1=CCC[C@H](C)C(=O)C[C@H](C(C)C)C(=O)C1
REMARK SMILES IDX 8 1 9 2 6 3 7 4 5 5 4 6 3 7 2 8 1 9 10 11 11 12 15 13 16 14
REMARK SMILES IDX 17 15 12 17 13 18 14 19
REMARK H PARENT
REMARK Flexibility Score: 70.00
ROOT
ATOM      1  C   UNL     1      -5.334   1.874 -10.630  1.00  0.00     0.136 C 
ATOM      2  O   UNL     1      -6.234   2.494 -11.179  1.00  0.00    -0.299 OA
ENDROOT
BRANCH   1   3
ATOM      3  C   UNL     1      -5.625   1.143  -9.317  1.00  0.00     0.053 C 
ATOM      4  C   UNL     1      -5.984   2.119  -8.183  1.00  0.00     0.016 C 
BRANCH   3   5
ATOM      5  C   UNL     1      -6.747   0.077  -9.467  1.00  0.00     0.015 C 
BRANCH   5   6
ATOM      6  C   UNL     1      -6.410  -1.146 -10.345  1.00  0.00     0.028 C 
BRANCH   6   7
ATOM      7  C   UNL     1      -5.203  -1.989  -9.978  1.00  0.00    -0.028 C 
ATOM      8  C   UNL     1      -4.021  -2.074 -10.636  1.00  0.00    -0.070 CG0
ATOM      9  C   UNL     1      -3.039  -3.122 -10.170  1.00  0.00     0.039 C 
ATOM     10  G   UNL     1      -3.573  -1.122 -11.734  1.00  0.00     0.000 G0
ENDBRANCH   6   7
ENDBRANCH   5   6
ENDBRANCH   3   5
ENDBRANCH   1   3
BRANCH   1  11
ATOM     11  C   UNL     1      -3.942   1.956 -11.252  1.00  0.00     0.087 C 
BRANCH  11  12
ATOM     12  C   UNL     1      -2.853   1.131 -10.519  1.00  0.00     0.066 C 
BRANCH  12  13
ATOM     13  C   UNL     1      -2.507  -0.155 -11.254  1.00  0.00     0.140 C 
ATOM     14  O   UNL     1      -1.334  -0.358 -11.534  1.00  0.00    -0.299 OA
BRANCH  13  15
ATOM     15  C   UNL     1      -3.567  -1.129 -11.743  1.00  0.00     0.106 CG0
ATOM     16  G   UNL     1      -4.016  -2.061 -10.629  1.00  0.00     0.000 G0
ENDBRANCH  13  15
ENDBRANCH  12  13
BRANCH  12  17
ATOM     17  C   UNL     1      -1.558   1.963 -10.244  1.00  0.00    -0.006 C 
ATOM     18  C   UNL     1      -1.784   2.996  -9.124  1.00  0.00     0.008 C 
ATOM     19  C   UNL     1      -1.051   2.697 -11.499  1.00  0.00     0.008 C 
ENDBRANCH  12  17
ENDBRANCH  11  12
ENDBRANCH   1  11
TORSDOF 1
ENDMDL
MODEL 6
REMARK VINA RESULT:    -3.397      2.127      4.660
REMARK INTER + INTRA:          -5.368
REMARK INTER:                  -4.984
REMARK INTRA:                  -0.384
REMARK UNBOUND:                -0.185
REMARK SMILES CC1=CCC[C@H](C)C(=O)C[C@H](C(C)C)C(=O)C1
REMARK SMILES IDX 8 1 9 2 6 3 7 4 5 5 4 6 3 7 2 8 1 9 10 11 11 12 15 13 16 14
REMARK SMILES IDX 17 15 12 17 13 18 14 19
REMARK H PARENT
REMARK Flexibility Score: 70.00
ROOT
ATOM      1  C   UNL     1      -7.552  -6.573 -15.659  1.00  0.00     0.136 C 
ATOM      2  O   UNL     1      -8.505  -7.173 -16.136  1.00  0.00    -0.299 OA
ENDROOT
BRANCH   1   3
ATOM      3  C   UNL     1      -6.380  -7.373 -15.084  1.00  0.00     0.053 C 
ATOM      4  C   UNL     1      -5.091  -7.173 -15.899  1.00  0.00     0.016 C 
BRANCH   3   5
ATOM      5  C   UNL     1      -6.112  -7.042 -13.588  1.00  0.00     0.015 C 
BRANCH   5   6
ATOM      6  C   UNL     1      -5.039  -5.968 -13.311  1.00  0.00     0.028 C 
BRANCH   6   7
ATOM      7  C   UNL     1      -5.305  -4.942 -12.226  1.00  0.00    -0.028 C 
ATOM      8  C   UNL     1      -5.797  -3.687 -12.374  1.00  0.00    -0.070 CG0
ATOM      9  C   UNL     1      -5.803  -2.794 -11.157  1.00  0.00     0.039 C 
ATOM     10  G   UNL     1      -6.438  -3.156 -13.646  1.00  0.00     0.000 G0
ENDBRANCH   6   7
ENDBRANCH   5   6
ENDBRANCH   3   5
ENDBRANCH   1   3
BRANCH   1  11
ATOM     11  C   UNL     1      -7.645  -5.052 -15.581  1.00  0.00     0.087 C 
BRANCH  11  12
ATOM     12  C   UNL     1      -8.570  -4.513 -14.459  1.00  0.00     0.066 C 
BRANCH  12  13
ATOM     13  C   UNL     1      -7.931  -3.376 -13.677  1.00  0.00     0.140 C 
ATOM     14  O   UNL     1      -8.670  -2.574 -13.124  1.00  0.00    -0.299 OA
BRANCH  13  15
ATOM     15  C   UNL     1      -6.429  -3.143 -13.650  1.00  0.00     0.106 CG0
ATOM     16  G   UNL     1      -5.807  -3.694 -12.377  1.00  0.00     0.000 G0
ENDBRANCH  13  15
ENDBRANCH  12  13
BRANCH  12  17
ATOM     17  C   UNL     1      -9.972  -4.078 -14.999  1.00  0.00    -0.006 C 
ATOM     18  C   UNL     1     -11.031  -5.169 -14.747  1.00  0.00     0.008 C 
ATOM     19  C   UNL     1      -9.948  -3.750 -16.503  1.00  0.00     0.008 C 
ENDBRANCH  12  17
ENDBRANCH  11  12
ENDBRANCH   1  11
TORSDOF 1
ENDMDL
MODEL 7
REMARK VINA RESULT:    -3.387      1.854      2.969
REMARK INTER + INTRA:          -5.354
REMARK INTER:                  -5.157
REMARK INTRA:                  -0.197
REMARK UNBOUND:                -0.185
REMARK SMILES CC1=CCC[C@H](C)C(=O)C[C@H](C(C)C)C(=O)C1
REMARK SMILES IDX 8 1 9 2 6 3 7 4 5 5 4 6 3 7 2 8 1 9 10 11 11 12 15 13 16 14
REMARK SMILES IDX 17 15 12 17 13 18 14 19
REMARK H PARENT
REMARK Flexibility Score: 70.00
ROOT
ATOM      1  C   UNL     1     -10.747  -7.210 -14.249  1.00  0.00     0.136 C 
ATOM      2  O   UNL     1     -11.412  -6.478 -13.529  1.00  0.00    -0.299 OA
ENDROOT
BRANCH   1   3
ATOM      3  C   UNL     1     -10.612  -8.691 -13.885  1.00  0.00     0.053 C 
ATOM      4  C   UNL     1     -11.109  -9.609 -15.016  1.00  0.00     0.016 C 
BRANCH   3   5
ATOM      5  C   UNL     1      -9.156  -9.077 -13.498  1.00  0.00     0.015 C 
BRANCH   5   6
ATOM      6  C   UNL     1      -8.394  -9.958 -14.510  1.00  0.00     0.028 C 
BRANCH   6   7
ATOM      7  C   UNL     1      -6.970  -9.579 -14.871  1.00  0.00    -0.028 C 
ATOM      8  C   UNL     1      -6.563  -8.663 -15.784  1.00  0.00    -0.070 CG0
ATOM      9  C   UNL     1      -5.086  -8.596 -16.090  1.00  0.00     0.039 C 
ATOM     10  G   UNL     1      -7.470  -7.633 -16.438  1.00  0.00     0.000 G0
ENDBRANCH   6   7
ENDBRANCH   5   6
ENDBRANCH   3   5
ENDBRANCH   1   3
BRANCH   1  11
ATOM     11  C   UNL     1     -10.011  -6.565 -15.420  1.00  0.00     0.087 C 
BRANCH  11  12
ATOM     12  C   UNL     1      -8.744  -5.760 -15.028  1.00  0.00     0.066 C 
BRANCH  12  13
ATOM     13  C   UNL     1      -7.481  -6.322 -15.662  1.00  0.00     0.140 C 
ATOM     14  O   UNL     1      -6.464  -5.645 -15.609  1.00  0.00    -0.299 OA
BRANCH  13  15
ATOM     15  C   UNL     1      -7.467  -7.626 -16.443  1.00  0.00     0.106 CG0
ATOM     16  G   UNL     1      -6.551  -8.649 -15.791  1.00  0.00     0.000 G0
ENDBRANCH  13  15
ENDBRANCH  12  13
BRANCH  12  17
ATOM     17  C   UNL     1      -8.882  -4.236 -15.352  1.00  0.00    -0.006 C 
ATOM     18  C   UNL     1      -8.599  -3.372 -14.108  1.00  0.00     0.008 C 
ATOM     19  C   UNL     1     -10.274  -3.873 -15.900  1.00  0.00     0.008 C 
ENDBRANCH  12  17
ENDBRANCH  11  12
ENDBRANCH   1  11
TORSDOF 1
ENDMDL
MODEL 8
REMARK VINA RESULT:    -3.320      2.048      2.514
REMARK INTER + INTRA:          -5.251
REMARK INTER:                  -4.916
REMARK INTRA:                  -0.334
REMARK UNBOUND:                -0.185
REMARK SMILES CC1=CCC[C@H](C)C(=O)C[C@H](C(C)C)C(=O)C1
REMARK SMILES IDX 8 1 9 2 6 3 7 4 5 5 4 6 3 7 2 8 1 9 10 11 11 12 15 13 16 14
REMARK SMILES IDX 17 15 12 17 13 18 14 19
REMARK H PARENT
REMARK Flexibility Score: 70.00
ROOT
ATOM      1  C   UNL     1      -8.263  -3.721 -14.319  1.00  0.00     0.136 C 
ATOM      2  O   UNL     1      -8.254  -3.039 -13.304  1.00  0.00    -0.299 OA
ENDROOT
BRANCH   1   3
ATOM      3  C   UNL     1      -9.576  -4.363 -14.774  1.00  0.00     0.053 C 
ATOM      4  C   UNL     1      -9.702  -4.394 -16.307  1.00  0.00     0.016 C 
BRANCH   3   5
ATOM      5  C   UNL     1      -9.765  -5.798 -14.204  1.00  0.00     0.015 C 
BRANCH   5   6
ATOM      6  C   UNL     1      -8.990  -6.923 -14.922  1.00  0.00     0.028 C 
BRANCH   6   7
ATOM      7  C   UNL     1      -7.958  -7.707 -14.135  1.00  0.00    -0.028 C 
ATOM      8  C   UNL     1      -6.613  -7.717 -14.311  1.00  0.00    -0.070 CG0
ATOM      9  C   UNL     1      -5.815  -8.721 -13.514  1.00  0.00     0.039 C 
ATOM     10  G   UNL     1      -5.847  -6.723 -15.169  1.00  0.00     0.000 G0
ENDBRANCH   6   7
ENDBRANCH   5   6
ENDBRANCH   3   5
ENDBRANCH   1   3
BRANCH   1  11
ATOM     11  C   UNL     1      -6.927  -3.966 -15.015  1.00  0.00     0.087 C 
BRANCH  11  12
ATOM     12  C   UNL     1      -5.748  -4.296 -14.062  1.00  0.00     0.066 C 
BRANCH  12  13
ATOM     13  C   UNL     1      -5.142  -5.662 -14.342  1.00  0.00     0.140 C 
ATOM     14  O   UNL     1      -4.005  -5.877 -13.945  1.00  0.00    -0.299 OA
BRANCH  13  15
ATOM     15  C   UNL     1      -5.848  -6.715 -15.182  1.00  0.00     0.106 CG0
ATOM     16  G   UNL     1      -6.591  -7.711 -14.306  1.00  0.00     0.000 G0
ENDBRANCH  13  15
ENDBRANCH  12  13
BRANCH  12  17
ATOM     17  C   UNL     1      -4.637  -3.196 -14.084  1.00  0.00    -0.006 C 
ATOM     18  C   UNL     1      -4.834  -2.180 -12.942  1.00  0.00     0.008 C 
ATOM     19  C   UNL     1      -4.589  -2.433 -15.420  1.00  0.00     0.008 C 
ENDBRANCH  12  17
ENDBRANCH  11  12
ENDBRANCH   1  11
TORSDOF 1
ENDMDL
MODEL 9
REMARK VINA RESULT:    -3.301      8.020     11.102
REMARK INTER + INTRA:          -5.222
REMARK INTER:                  -4.758
REMARK INTRA:                  -0.464
REMARK UNBOUND:                -0.185
REMARK SMILES CC1=CCC[C@H](C)C(=O)C[C@H](C(C)C)C(=O)C1
REMARK SMILES IDX 8 1 9 2 6 3 7 4 5 5 4 6 3 7 2 8 1 9 10 11 11 12 15 13 16 14
REMARK SMILES IDX 17 15 12 17 13 18 14 19
REMARK H PARENT
REMARK Flexibility Score: 70.00
ROOT
ATOM      1  C   UNL     1      -4.030   1.454  -7.356  1.00  0.00     0.136 C 
ATOM      2  O   UNL     1      -5.089   2.067  -7.351  1.00  0.00    -0.299 OA
ENDROOT
BRANCH   1   3
ATOM      3  C   UNL     1      -2.862   1.979  -6.516  1.00  0.00     0.053 C 
ATOM      4  C   UNL     1      -1.804   0.892  -6.259  1.00  0.00     0.016 C 
BRANCH   3   5
ATOM      5  C   UNL     1      -2.187   3.228  -7.153  1.00  0.00     0.015 C 
BRANCH   5   6
ATOM      6  C   UNL     1      -1.026   2.949  -8.131  1.00  0.00     0.028 C 
BRANCH   6   7
ATOM      7  C   UNL     1      -1.265   3.155  -9.615  1.00  0.00    -0.028 C 
ATOM      8  C   UNL     1      -1.375   2.205 -10.576  1.00  0.00    -0.070 CG0
ATOM      9  C   UNL     1      -1.433   2.673 -12.011  1.00  0.00     0.039 C 
ATOM     10  G   UNL     1      -1.550   0.720 -10.307  1.00  0.00     0.000 G0
ENDBRANCH   6   7
ENDBRANCH   5   6
ENDBRANCH   3   5
ENDBRANCH   1   3
BRANCH   1  11
ATOM     11  C   UNL     1      -3.918   0.249  -8.285  1.00  0.00     0.087 C 
BRANCH  11  12
ATOM     12  C   UNL     1      -4.160   0.561  -9.786  1.00  0.00     0.066 C 
BRANCH  12  13
ATOM     13  C   UNL     1      -2.950   0.236 -10.647  1.00  0.00     0.140 C 
ATOM     14  O   UNL     1      -3.111  -0.512 -11.602  1.00  0.00    -0.299 OA
BRANCH  13  15
ATOM     15  C   UNL     1      -1.548   0.713 -10.305  1.00  0.00     0.106 CG0
ATOM     16  G   UNL     1      -1.391   2.201 -10.573  1.00  0.00     0.000 G0
ENDBRANCH  13  15
ENDBRANCH  12  13
BRANCH  12  17
ATOM     17  C   UNL     1      -5.432  -0.155 -10.345  1.00  0.00    -0.006 C 
ATOM     18  C   UNL     1      -6.601   0.834 -10.515  1.00  0.00     0.008 C 
ATOM     19  C   UNL     1      -5.896  -1.319  -9.450  1.00  0.00     0.008 C 
ENDBRANCH  12  17
ENDBRANCH  11  12
ENDBRANCH   1  11
TORSDOF 1
ENDMDL
