MODEL 1
REMARK VINA RESULT:    -3.248      0.000      0.000
REMARK INTER + INTRA:          -4.181
REMARK INTER:                  -3.913
REMARK INTRA:                  -0.268
REMARK UNBOUND:                -0.268
REMARK SMILES O=c1ccn([C@@H]2O[C@H](CO)[C@@H](O)[C@@H]2O)c(=O)[nH]1
REMARK SMILES IDX 6 1 13 2 11 3 8 4 7 5 5 6 3 7 4 8 2 9 17 10 1 11 15 12 16 14
REMARK SMILES IDX 14 15 12 17 9 19 10 20
REMARK H PARENT 17 13 14 16 12 18 10 21
REMARK Flexibility Score: inf
ROOT
ATOM      1  C   UNL     1      -8.267 -20.405  -1.708  1.00  0.00     0.255 C 
ATOM      2  C   UNL     1      -9.624 -20.867  -1.183  1.00  0.00     0.196 C 
ATOM      3  C   UNL     1      -9.643 -22.338  -1.553  1.00  0.00     0.179 C 
ATOM      4  C   UNL     1      -8.567 -22.450  -2.648  1.00  0.00     0.178 C 
ATOM      5  O   UNL     1      -7.942 -21.196  -2.828  1.00  0.00    -0.347 OA
ENDROOT
BRANCH   1   6
ATOM      6  N   UNL     1      -8.265 -18.963  -2.042  1.00  0.00    -0.271 N 
ATOM      7  C   UNL     1      -8.530 -17.191  -3.639  1.00  0.00     0.090 A 
ATOM      8  C   UNL     1      -8.508 -18.546  -3.325  1.00  0.00     0.099 A 
ATOM      9  C   UNL     1      -8.313 -16.267  -2.624  1.00  0.00     0.253 A 
ATOM     10  N   UNL     1      -8.090 -16.697  -1.355  1.00  0.00    -0.274 N 
ATOM     11  O   UNL     1      -8.327 -15.033  -2.881  1.00  0.00    -0.269 OA
ATOM     12  C   UNL     1      -8.072 -18.026  -1.056  1.00  0.00     0.330 A 
ATOM     13  H   UNL     1      -7.936 -15.996  -0.595  1.00  0.00     0.175 HD
ATOM     14  O   UNL     1      -7.877 -18.384   0.140  1.00  0.00    -0.248 OA
ENDBRANCH   1   6
BRANCH   2  15
ATOM     15  O   UNL     1     -10.695 -20.175  -1.783  1.00  0.00    -0.386 OA
ATOM     16  H   UNL     1     -10.336 -19.352  -2.206  1.00  0.00     0.211 HD
ENDBRANCH   2  15
BRANCH   3  17
ATOM     17  O   UNL     1      -9.277 -23.125  -0.447  1.00  0.00    -0.387 OA
ATOM     18  H   UNL     1     -10.120 -23.387   0.007  1.00  0.00     0.211 HD
ENDBRANCH   3  17
BRANCH   4  19
ATOM     19  C   UNL     1      -9.162 -22.913  -3.982  1.00  0.00     0.191 C 
BRANCH  19  20
ATOM     20  O   UNL     1     -10.458 -22.401  -4.125  1.00  0.00    -0.394 OA
ATOM     21  H   UNL     1     -11.028 -22.920  -3.500  1.00  0.00     0.210 HD
ENDBRANCH  19  20
ENDBRANCH   4  19
TORSDOF 5
ENDMDL
MODEL 2
REMARK VINA RESULT:    -2.709     13.945     15.814
REMARK INTER + INTRA:          -3.532
REMARK INTER:                  -3.602
REMARK INTRA:                   0.069
REMARK UNBOUND:                -0.268
REMARK SMILES O=c1ccn([C@@H]2O[C@H](CO)[C@@H](O)[C@@H]2O)c(=O)[nH]1
REMARK SMILES IDX 6 1 13 2 11 3 8 4 7 5 5 6 3 7 4 8 2 9 17 10 1 11 15 12 16 14
REMARK SMILES IDX 14 15 12 17 9 19 10 20
REMARK H PARENT 17 13 14 16 12 18 10 21
REMARK Flexibility Score: inf
ROOT
ATOM      1  C   UNL     1      -9.909 -17.066  13.130  1.00  0.00     0.255 C 
ATOM      2  C   UNL     1     -10.766 -17.940  14.041  1.00  0.00     0.196 C 
ATOM      3  C   UNL     1     -10.519 -17.339  15.412  1.00  0.00     0.179 C 
ATOM      4  C   UNL     1      -9.215 -16.542  15.228  1.00  0.00     0.178 C 
ATOM      5  O   UNL     1      -8.805 -16.610  13.878  1.00  0.00    -0.347 OA
ENDROOT
BRANCH   1   6
ATOM      6  N   UNL     1      -9.479 -17.789  11.912  1.00  0.00    -0.271 N 
ATOM      7  C   UNL     1      -9.649 -18.181   9.550  1.00  0.00     0.090 A 
ATOM      8  C   UNL     1     -10.065 -17.521  10.702  1.00  0.00     0.099 A 
ATOM      9  C   UNL     1      -8.619 -19.109   9.648  1.00  0.00     0.253 A 
ATOM     10  N   UNL     1      -8.039 -19.350  10.852  1.00  0.00    -0.274 N 
ATOM     11  O   UNL     1      -8.223 -19.722   8.620  1.00  0.00    -0.269 OA
ATOM     12  C   UNL     1      -8.451 -18.698  11.975  1.00  0.00     0.330 A 
ATOM     13  H   UNL     1      -7.259 -20.044  10.917  1.00  0.00     0.175 HD
ATOM     14  O   UNL     1      -7.875 -18.940  13.072  1.00  0.00    -0.248 OA
ENDBRANCH   1   6
BRANCH   2  15
ATOM     15  O   UNL     1     -10.382 -19.295  14.000  1.00  0.00    -0.386 OA
ATOM     16  H   UNL     1      -9.800 -19.430  13.207  1.00  0.00     0.211 HD
ENDBRANCH   2  15
BRANCH   3  17
ATOM     17  O   UNL     1     -11.563 -16.465  15.758  1.00  0.00    -0.387 OA
ATOM     18  H   UNL     1     -11.189 -15.818  16.411  1.00  0.00     0.211 HD
ENDBRANCH   3  17
BRANCH   4  19
ATOM     19  C   UNL     1      -8.093 -17.074  16.124  1.00  0.00     0.191 C 
BRANCH  19  20
ATOM     20  O   UNL     1      -7.944 -18.453  15.925  1.00  0.00    -0.394 OA
ATOM     21  H   UNL     1      -8.271 -18.634  15.006  1.00  0.00     0.210 HD
ENDBRANCH  19  20
ENDBRANCH   4  19
TORSDOF 5
ENDMDL
MODEL 3
REMARK VINA RESULT:    -2.670      1.570      2.218
REMARK INTER + INTRA:          -3.484
REMARK INTER:                  -3.793
REMARK INTRA:                   0.308
REMARK UNBOUND:                -0.268
REMARK SMILES O=c1ccn([C@@H]2O[C@H](CO)[C@@H](O)[C@@H]2O)c(=O)[nH]1
REMARK SMILES IDX 6 1 13 2 11 3 8 4 7 5 5 6 3 7 4 8 2 9 17 10 1 11 15 12 16 14
REMARK SMILES IDX 14 15 12 17 9 19 10 20
REMARK H PARENT 17 13 14 16 12 18 10 21
REMARK Flexibility Score: inf
ROOT
ATOM      1  C   UNL     1      -8.972 -19.979  -3.781  1.00  0.00     0.255 C 
ATOM      2  C   UNL     1      -8.052 -20.870  -2.949  1.00  0.00     0.196 C 
ATOM      3  C   UNL     1      -8.784 -22.198  -2.948  1.00  0.00     0.179 C 
ATOM      4  C   UNL     1     -10.225 -21.819  -3.331  1.00  0.00     0.178 C 
ATOM      5  O   UNL     1     -10.293 -20.435  -3.604  1.00  0.00    -0.347 OA
ENDROOT
BRANCH   1   6
ATOM      6  N   UNL     1      -8.835 -18.551  -3.420  1.00  0.00    -0.271 N 
ATOM      7  C   UNL     1      -7.875 -16.385  -3.803  1.00  0.00     0.090 A 
ATOM      8  C   UNL     1      -7.989 -17.734  -4.123  1.00  0.00     0.099 A 
ATOM      9  C   UNL     1      -8.645 -15.878  -2.763  1.00  0.00     0.253 A 
ATOM     10  N   UNL     1      -9.491 -16.699  -2.087  1.00  0.00    -0.274 N 
ATOM     11  O   UNL     1      -8.562 -14.660  -2.451  1.00  0.00    -0.269 OA
ATOM     12  C   UNL     1      -9.598 -18.018  -2.409  1.00  0.00     0.330 A 
ATOM     13  H   UNL     1     -10.074 -16.309  -1.311  1.00  0.00     0.175 HD
ATOM     14  O   UNL     1     -10.408 -18.744  -1.766  1.00  0.00    -0.248 OA
ENDBRANCH   1   6
BRANCH   2  15
ATOM     15  O   UNL     1      -7.875 -20.381  -1.639  1.00  0.00    -0.386 OA
ATOM     16  H   UNL     1      -8.513 -20.853  -1.043  1.00  0.00     0.211 HD
ENDBRANCH   2  15
BRANCH   3  17
ATOM     17  O   UNL     1      -8.244 -23.055  -3.922  1.00  0.00    -0.387 OA
ATOM     18  H   UNL     1      -7.287 -22.808  -4.020  1.00  0.00     0.211 HD
ENDBRANCH   3  17
BRANCH   4  19
ATOM     19  C   UNL     1     -11.219 -22.163  -2.217  1.00  0.00     0.191 C 
BRANCH  19  20
ATOM     20  O   UNL     1     -10.620 -23.044  -1.306  1.00  0.00    -0.394 OA
ATOM     21  H   UNL     1     -10.723 -22.626  -0.412  1.00  0.00     0.210 HD
ENDBRANCH  19  20
ENDBRANCH   4  19
TORSDOF 5
ENDMDL
MODEL 4
REMARK VINA RESULT:    -2.440     13.657     15.592
REMARK INTER + INTRA:          -3.207
REMARK INTER:                  -3.244
REMARK INTRA:                   0.037
REMARK UNBOUND:                -0.268
REMARK SMILES O=c1ccn([C@@H]2O[C@H](CO)[C@@H](O)[C@@H]2O)c(=O)[nH]1
REMARK SMILES IDX 6 1 13 2 11 3 8 4 7 5 5 6 3 7 4 8 2 9 17 10 1 11 15 12 16 14
REMARK SMILES IDX 14 15 12 17 9 19 10 20
REMARK H PARENT 17 13 14 16 12 18 10 21
REMARK Flexibility Score: inf
ROOT
ATOM      1  C   UNL     1      -9.410 -17.119  12.918  1.00  0.00     0.255 C 
ATOM      2  C   UNL     1     -10.470 -17.832  13.753  1.00  0.00     0.196 C 
ATOM      3  C   UNL     1     -10.250 -17.254  15.138  1.00  0.00     0.179 C 
ATOM      4  C   UNL     1      -8.826 -16.674  15.066  1.00  0.00     0.178 C 
ATOM      5  O   UNL     1      -8.317 -16.829  13.758  1.00  0.00    -0.347 OA
ENDROOT
BRANCH   1   6
ATOM      6  N   UNL     1      -8.997 -17.922  11.745  1.00  0.00    -0.271 N 
ATOM      7  C   UNL     1      -7.875 -19.828  10.812  1.00  0.00     0.090 A 
ATOM      8  C   UNL     1      -8.247 -19.057  11.909  1.00  0.00     0.099 A 
ATOM      9  C   UNL     1      -8.290 -19.431   9.546  1.00  0.00     0.253 A 
ATOM     10  N   UNL     1      -9.047 -18.312   9.404  1.00  0.00    -0.274 N 
ATOM     11  O   UNL     1      -7.968 -20.110   8.535  1.00  0.00    -0.269 OA
ATOM     12  C   UNL     1      -9.408 -17.564  10.483  1.00  0.00     0.330 A 
ATOM     13  H   UNL     1      -9.363 -18.024   8.449  1.00  0.00     0.175 HD
ATOM     14  O   UNL     1     -10.125 -16.540  10.309  1.00  0.00    -0.248 OA
ENDBRANCH   1   6
BRANCH   2  15
ATOM     15  O   UNL     1     -10.302 -19.232  13.751  1.00  0.00    -0.386 OA
ATOM     16  H   UNL     1     -10.738 -19.599  14.563  1.00  0.00     0.211 HD
ENDBRANCH   2  15
BRANCH   3  17
ATOM     17  O   UNL     1     -11.170 -16.222  15.388  1.00  0.00    -0.387 OA
ATOM     18  H   UNL     1     -12.066 -16.573  15.142  1.00  0.00     0.211 HD
ENDBRANCH   3  17
BRANCH   4  19
ATOM     19  C   UNL     1      -7.883 -17.359  16.060  1.00  0.00     0.191 C 
BRANCH  19  20
ATOM     20  O   UNL     1      -8.166 -18.731  16.109  1.00  0.00    -0.394 OA
ATOM     21  H   UNL     1      -7.778 -19.121  15.283  1.00  0.00     0.210 HD
ENDBRANCH  19  20
ENDBRANCH   4  19
TORSDOF 5
ENDMDL
MODEL 5
REMARK VINA RESULT:    -2.438     15.075     17.108
REMARK INTER + INTRA:          -3.205
REMARK INTER:                  -3.450
REMARK INTRA:                   0.245
REMARK UNBOUND:                -0.268
REMARK SMILES O=c1ccn([C@@H]2O[C@H](CO)[C@@H](O)[C@@H]2O)c(=O)[nH]1
REMARK SMILES IDX 6 1 13 2 11 3 8 4 7 5 5 6 3 7 4 8 2 9 17 10 1 11 15 12 16 14
REMARK SMILES IDX 14 15 12 17 9 19 10 20
REMARK H PARENT 17 13 14 16 12 18 10 21
REMARK Flexibility Score: inf
ROOT
ATOM      1  C   UNL     1      -9.351 -18.729  14.797  1.00  0.00     0.255 C 
ATOM      2  C   UNL     1      -9.226 -17.470  13.943  1.00  0.00     0.196 C 
ATOM      3  C   UNL     1      -9.619 -16.369  14.910  1.00  0.00     0.179 C 
ATOM      4  C   UNL     1     -10.381 -17.116  16.019  1.00  0.00     0.178 C 
ATOM      5  O   UNL     1     -10.355 -18.504  15.758  1.00  0.00    -0.347 OA
ENDROOT
BRANCH   1   6
ATOM      6  N   UNL     1      -9.640 -19.927  13.978  1.00  0.00    -0.271 N 
ATOM      7  C   UNL     1     -11.009 -21.835  13.484  1.00  0.00     0.090 A 
ATOM      8  C   UNL     1     -10.719 -20.721  14.265  1.00  0.00     0.099 A 
ATOM      9  C   UNL     1     -10.189 -22.122  12.399  1.00  0.00     0.253 A 
ATOM     10  N   UNL     1      -9.133 -21.315  12.119  1.00  0.00    -0.274 N 
ATOM     11  O   UNL     1     -10.428 -23.125  11.675  1.00  0.00    -0.269 OA
ATOM     12  C   UNL     1      -8.857 -20.225  12.888  1.00  0.00     0.330 A 
ATOM     13  H   UNL     1      -8.525 -21.531  11.296  1.00  0.00     0.175 HD
ATOM     14  O   UNL     1      -7.875 -19.491  12.585  1.00  0.00    -0.248 OA
ENDBRANCH   1   6
BRANCH   2  15
ATOM     15  O   UNL     1     -10.081 -17.495  12.823  1.00  0.00    -0.386 OA
ATOM     16  H   UNL     1     -11.016 -17.401  13.142  1.00  0.00     0.211 HD
ENDBRANCH   2  15
BRANCH   3  17
ATOM     17  O   UNL     1      -8.473 -15.761  15.449  1.00  0.00    -0.387 OA
ATOM     18  H   UNL     1      -7.702 -16.334  15.201  1.00  0.00     0.211 HD
ENDBRANCH   3  17
BRANCH   4  19
ATOM     19  C   UNL     1     -11.836 -16.649  16.123  1.00  0.00     0.191 C 
BRANCH  19  20
ATOM     20  O   UNL     1     -12.016 -15.491  15.354  1.00  0.00    -0.394 OA
ATOM     21  H   UNL     1     -12.316 -14.787  15.985  1.00  0.00     0.210 HD
ENDBRANCH  19  20
ENDBRANCH   4  19
TORSDOF 5
ENDMDL
MODEL 6
REMARK VINA RESULT:    -2.420     13.954     15.257
REMARK INTER + INTRA:          -3.184
REMARK INTER:                  -3.267
REMARK INTRA:                   0.083
REMARK UNBOUND:                -0.268
REMARK SMILES O=c1ccn([C@@H]2O[C@H](CO)[C@@H](O)[C@@H]2O)c(=O)[nH]1
REMARK SMILES IDX 6 1 13 2 11 3 8 4 7 5 5 6 3 7 4 8 2 9 17 10 1 11 15 12 16 14
REMARK SMILES IDX 14 15 12 17 9 19 10 20
REMARK H PARENT 17 13 14 16 12 18 10 21
REMARK Flexibility Score: inf
ROOT
ATOM      1  C   UNL     1      -9.564 -20.673  13.155  1.00  0.00     0.255 C 
ATOM      2  C   UNL     1     -10.053 -20.168  14.511  1.00  0.00     0.196 C 
ATOM      3  C   UNL     1     -10.819 -21.358  15.055  1.00  0.00     0.179 C 
ATOM      4  C   UNL     1     -11.108 -22.206  13.805  1.00  0.00     0.178 C 
ATOM      5  O   UNL     1     -10.502 -21.609  12.677  1.00  0.00    -0.347 OA
ENDROOT
BRANCH   1   6
ATOM      6  N   UNL     1      -9.360 -19.568  12.193  1.00  0.00    -0.271 N 
ATOM      7  C   UNL     1      -9.884 -18.487  10.115  1.00  0.00     0.090 A 
ATOM      8  C   UNL     1     -10.055 -19.536  11.013  1.00  0.00     0.099 A 
ATOM      9  C   UNL     1      -9.002 -17.464  10.444  1.00  0.00     0.253 A 
ATOM     10  N   UNL     1      -8.333 -17.503  11.626  1.00  0.00    -0.274 N 
ATOM     11  O   UNL     1      -8.828 -16.502   9.649  1.00  0.00    -0.269 OA
ATOM     12  C   UNL     1      -8.508 -18.534  12.499  1.00  0.00     0.330 A 
ATOM     13  H   UNL     1      -7.678 -16.727  11.870  1.00  0.00     0.175 HD
ATOM     14  O   UNL     1      -7.879 -18.524  13.595  1.00  0.00    -0.248 OA
ENDBRANCH   1   6
BRANCH   2  15
ATOM     15  O   UNL     1     -10.883 -19.036  14.393  1.00  0.00    -0.386 OA
ATOM     16  H   UNL     1     -11.545 -19.057  15.132  1.00  0.00     0.211 HD
ENDBRANCH   2  15
BRANCH   3  17
ATOM     17  O   UNL     1     -10.016 -22.089  15.948  1.00  0.00    -0.387 OA
ATOM     18  H   UNL     1     -10.602 -22.776  16.361  1.00  0.00     0.211 HD
ENDBRANCH   3  17
BRANCH   4  19
ATOM     19  C   UNL     1     -12.613 -22.351  13.552  1.00  0.00     0.191 C 
BRANCH  19  20
ATOM     20  O   UNL     1     -13.327 -21.761  14.604  1.00  0.00    -0.394 OA
ATOM     21  H   UNL     1     -13.107 -20.794  14.576  1.00  0.00     0.210 HD
ENDBRANCH  19  20
ENDBRANCH   4  19
TORSDOF 5
ENDMDL
MODEL 7
REMARK VINA RESULT:    -2.400     13.880     15.624
REMARK INTER + INTRA:          -3.159
REMARK INTER:                  -3.719
REMARK INTRA:                   0.560
REMARK UNBOUND:                -0.268
REMARK SMILES O=c1ccn([C@@H]2O[C@H](CO)[C@@H](O)[C@@H]2O)c(=O)[nH]1
REMARK SMILES IDX 6 1 13 2 11 3 8 4 7 5 5 6 3 7 4 8 2 9 17 10 1 11 15 12 16 14
REMARK SMILES IDX 14 15 12 17 9 19 10 20
REMARK H PARENT 17 13 14 16 12 18 10 21
REMARK Flexibility Score: inf
ROOT
ATOM      1  C   UNL     1      -8.808 -18.087  13.514  1.00  0.00     0.255 C 
ATOM      2  C   UNL     1      -9.745 -16.915  13.796  1.00  0.00     0.196 C 
ATOM      3  C   UNL     1     -10.192 -17.179  15.221  1.00  0.00     0.179 C 
ATOM      4  C   UNL     1      -9.882 -18.672  15.428  1.00  0.00     0.178 C 
ATOM      5  O   UNL     1      -9.248 -19.188  14.276  1.00  0.00    -0.347 OA
ENDROOT
BRANCH   1   6
ATOM      6  N   UNL     1      -8.746 -18.413  12.072  1.00  0.00    -0.271 N 
ATOM      7  C   UNL     1      -7.965 -17.927   9.856  1.00  0.00     0.090 A 
ATOM      8  C   UNL     1      -8.046 -17.613  11.208  1.00  0.00     0.099 A 
ATOM      9  C   UNL     1      -8.598 -19.077   9.398  1.00  0.00     0.253 A 
ATOM     10  N   UNL     1      -9.274 -19.868  10.272  1.00  0.00    -0.274 N 
ATOM     11  O   UNL     1      -8.541 -19.385   8.178  1.00  0.00    -0.269 OA
ATOM     12  C   UNL     1      -9.347 -19.553  11.595  1.00  0.00     0.330 A 
ATOM     13  H   UNL     1      -9.742 -20.735   9.922  1.00  0.00     0.175 HD
ATOM     14  O   UNL     1      -9.973 -20.323  12.376  1.00  0.00    -0.248 OA
ENDBRANCH   1   6
BRANCH   2  15
ATOM     15  O   UNL     1     -10.843 -16.883  12.913  1.00  0.00    -0.386 OA
ATOM     16  H   UNL     1     -10.502 -16.707  11.998  1.00  0.00     0.211 HD
ENDBRANCH   2  15
BRANCH   3  17
ATOM     17  O   UNL     1      -9.437 -16.408  16.121  1.00  0.00    -0.387 OA
ATOM     18  H   UNL     1      -8.843 -15.832  15.573  1.00  0.00     0.211 HD
ENDBRANCH   3  17
BRANCH   4  19
ATOM     19  C   UNL     1     -11.150 -19.482  15.713  1.00  0.00     0.191 C 
BRANCH  19  20
ATOM     20  O   UNL     1     -12.245 -18.617  15.836  1.00  0.00    -0.394 OA
ATOM     21  H   UNL     1     -12.667 -18.578  14.938  1.00  0.00     0.210 HD
ENDBRANCH  19  20
ENDBRANCH   4  19
TORSDOF 5
ENDMDL
MODEL 8
REMARK VINA RESULT:    -2.355     14.105     15.504
REMARK INTER + INTRA:          -3.105
REMARK INTER:                  -2.901
REMARK INTRA:                  -0.204
REMARK UNBOUND:                -0.268
REMARK SMILES O=c1ccn([C@@H]2O[C@H](CO)[C@@H](O)[C@@H]2O)c(=O)[nH]1
REMARK SMILES IDX 6 1 13 2 11 3 8 4 7 5 5 6 3 7 4 8 2 9 17 10 1 11 15 12 16 14
REMARK SMILES IDX 14 15 12 17 9 19 10 20
REMARK H PARENT 17 13 14 16 12 18 10 21
REMARK Flexibility Score: inf
ROOT
ATOM      1  C   UNL     1      -8.769 -19.596  13.049  1.00  0.00     0.255 C 
ATOM      2  C   UNL     1      -9.546 -20.782  12.484  1.00  0.00     0.196 C 
ATOM      3  C   UNL     1      -8.721 -21.176  11.273  1.00  0.00     0.179 C 
ATOM      4  C   UNL     1      -7.876 -19.922  10.987  1.00  0.00     0.178 C 
ATOM      5  O   UNL     1      -8.128 -18.946  11.976  1.00  0.00    -0.347 OA
ENDROOT
BRANCH   1   6
ATOM      6  N   UNL     1      -9.644 -18.669  13.802  1.00  0.00    -0.271 N 
ATOM      7  C   UNL     1     -10.931 -16.647  13.918  1.00  0.00     0.090 A 
ATOM      8  C   UNL     1     -10.090 -17.510  13.223  1.00  0.00     0.099 A 
ATOM      9  C   UNL     1     -11.321 -16.989  15.207  1.00  0.00     0.253 A 
ATOM     10  N   UNL     1     -10.883 -18.151  15.759  1.00  0.00    -0.274 N 
ATOM     11  O   UNL     1     -12.082 -16.226  15.860  1.00  0.00    -0.269 OA
ATOM     12  C   UNL     1     -10.061 -18.990  15.071  1.00  0.00     0.330 A 
ATOM     13  H   UNL     1     -11.187 -18.406  16.726  1.00  0.00     0.175 HD
ATOM     14  O   UNL     1      -9.688 -20.068  15.614  1.00  0.00    -0.248 OA
ENDBRANCH   1   6
BRANCH   2  15
ATOM     15  O   UNL     1     -10.861 -20.436  12.116  1.00  0.00    -0.386 OA
ATOM     16  H   UNL     1     -10.841 -20.072  11.193  1.00  0.00     0.211 HD
ENDBRANCH   2  15
BRANCH   3  17
ATOM     17  O   UNL     1      -7.878 -22.255  11.586  1.00  0.00    -0.387 OA
ATOM     18  H   UNL     1      -8.386 -22.844  12.202  1.00  0.00     0.211 HD
ENDBRANCH   3  17
BRANCH   4  19
ATOM     19  C   UNL     1      -8.183 -19.333   9.606  1.00  0.00     0.191 C 
BRANCH  19  20
ATOM     20  O   UNL     1      -9.369 -18.587   9.665  1.00  0.00    -0.394 OA
ATOM     21  H   UNL     1      -9.192 -17.751   9.160  1.00  0.00     0.210 HD
ENDBRANCH  19  20
ENDBRANCH   4  19
TORSDOF 5
ENDMDL
MODEL 9
REMARK VINA RESULT:    -2.226     13.488     14.953
REMARK INTER + INTRA:          -2.950
REMARK INTER:                  -2.703
REMARK INTRA:                  -0.247
REMARK UNBOUND:                -0.268
REMARK SMILES O=c1ccn([C@@H]2O[C@H](CO)[C@@H](O)[C@@H]2O)c(=O)[nH]1
REMARK SMILES IDX 6 1 13 2 11 3 8 4 7 5 5 6 3 7 4 8 2 9 17 10 1 11 15 12 16 14
REMARK SMILES IDX 14 15 12 17 9 19 10 20
REMARK H PARENT 17 13 14 16 12 18 10 21
REMARK Flexibility Score: inf
ROOT
ATOM      1  C   UNL     1      -9.259 -20.968  12.372  1.00  0.00     0.255 C 
ATOM      2  C   UNL     1      -8.133 -20.937  13.402  1.00  0.00     0.196 C 
ATOM      3  C   UNL     1      -8.662 -21.834  14.504  1.00  0.00     0.179 C 
ATOM      4  C   UNL     1     -10.177 -21.880  14.238  1.00  0.00     0.178 C 
ATOM      5  O   UNL     1     -10.473 -21.156  13.062  1.00  0.00    -0.347 OA
ENDROOT
BRANCH   1   6
ATOM      6  N   UNL     1      -9.289 -19.740  11.545  1.00  0.00    -0.271 N 
ATOM      7  C   UNL     1     -10.007 -17.477  11.196  1.00  0.00     0.090 A 
ATOM      8  C   UNL     1      -9.996 -18.642  11.957  1.00  0.00     0.099 A 
ATOM      9  C   UNL     1      -9.277 -17.446  10.014  1.00  0.00     0.253 A 
ATOM     10  N   UNL     1      -8.568 -18.539   9.629  1.00  0.00    -0.274 N 
ATOM     11  O   UNL     1      -9.270 -16.405   9.304  1.00  0.00    -0.269 OA
ATOM     12  C   UNL     1      -8.561 -19.674  10.382  1.00  0.00     0.330 A 
ATOM     13  H   UNL     1      -8.014 -18.505   8.743  1.00  0.00     0.175 HD
ATOM     14  O   UNL     1      -7.876 -20.663   9.996  1.00  0.00    -0.248 OA
ENDBRANCH   1   6
BRANCH   2  15
ATOM     15  O   UNL     1      -7.879 -19.635  13.879  1.00  0.00    -0.386 OA
ATOM     16  H   UNL     1      -8.405 -18.995  13.333  1.00  0.00     0.211 HD
ENDBRANCH   2  15
BRANCH   3  17
ATOM     17  O   UNL     1      -8.120 -23.125  14.386  1.00  0.00    -0.387 OA
ATOM     18  H   UNL     1      -8.301 -23.590  15.244  1.00  0.00     0.211 HD
ENDBRANCH   3  17
BRANCH   4  19
ATOM     19  C   UNL     1     -10.977 -21.295  15.406  1.00  0.00     0.191 C 
BRANCH  19  20
ATOM     20  O   UNL     1     -10.331 -20.152  15.895  1.00  0.00    -0.394 OA
ATOM     21  H   UNL     1      -9.583 -20.479  16.459  1.00  0.00     0.210 HD
ENDBRANCH  19  20
ENDBRANCH   4  19
TORSDOF 5
ENDMDL
