MODEL 1
REMARK VINA RESULT:    -4.838      0.000      0.000
REMARK INTER + INTRA:          -6.105
REMARK INTER:                  -5.686
REMARK INTRA:                  -0.418
REMARK UNBOUND:                -0.418
REMARK SMILES C=C[C@]1(C)CC[C@H](C(=C)C)C[C@H]1C(=C)C
REMARK SMILES IDX 7 1 6 2 5 3 3 4 12 5 11 6 4 7 8 8 10 9 9 10 13 11 14 12
REMARK SMILES IDX 15 13 2 14 1 15
REMARK H PARENT
REMARK Flexibility Score: inf
ROOT
ATOM      1  C   UNL     1       0.918  13.098  14.621  1.00  0.00     0.015 C 
ATOM      2  C   UNL     1      -0.387  12.510  15.181  1.00  0.00     0.009 C 
ATOM      3  C   UNL     1      -1.054  13.462  16.185  1.00  0.00     0.012 C 
ATOM      4  C   UNL     1      -0.120  13.866  17.363  1.00  0.00    -0.008 C 
ATOM      5  C   UNL     1       1.274  14.390  16.839  1.00  0.00     0.024 C 
ATOM      6  C   UNL     1       1.894  13.478  15.752  1.00  0.00     0.017 C 
ATOM      7  C   UNL     1      -0.846  14.946  18.205  1.00  0.00     0.016 C 
ENDROOT
BRANCH   1   8
ATOM      8  C   UNL     1       1.575  12.133  13.639  1.00  0.00    -0.077 C 
ATOM      9  C   UNL     1       2.634  12.594  12.668  1.00  0.00     0.039 C 
ATOM     10  C   UNL     1       1.210  10.840  13.618  1.00  0.00     0.008 C 
ENDBRANCH   1   8
BRANCH   5  11
ATOM     11  C   UNL     1       1.347  15.883  16.471  1.00  0.00    -0.077 C 
ATOM     12  C   UNL     1       0.953  16.369  15.281  1.00  0.00     0.008 C 
ATOM     13  C   UNL     1       1.880  16.875  17.478  1.00  0.00     0.039 C 
ENDBRANCH   5  11
BRANCH   4  14
ATOM     14  C   UNL     1       0.086  12.636  18.256  1.00  0.00    -0.028 C 
ATOM     15  C   UNL     1      -0.665  12.370  19.334  1.00  0.00     0.004 C 
ENDBRANCH   4  14
TORSDOF 3
ENDMDL
MODEL 2
REMARK VINA RESULT:    -4.784      1.488      4.467
REMARK INTER + INTRA:          -6.041
REMARK INTER:                  -5.588
REMARK INTRA:                  -0.454
REMARK UNBOUND:                -0.418
REMARK SMILES C=C[C@]1(C)CC[C@H](C(=C)C)C[C@H]1C(=C)C
REMARK SMILES IDX 7 1 6 2 5 3 3 4 12 5 11 6 4 7 8 8 10 9 9 10 13 11 14 12
REMARK SMILES IDX 15 13 2 14 1 15
REMARK H PARENT
REMARK Flexibility Score: inf
ROOT
ATOM      1  C   UNL     1       0.110  13.890  17.611  1.00  0.00     0.015 C 
ATOM      2  C   UNL     1      -0.553  15.246  17.901  1.00  0.00     0.009 C 
ATOM      3  C   UNL     1      -0.373  16.228  16.733  1.00  0.00     0.012 C 
ATOM      4  C   UNL     1       1.118  16.452  16.342  1.00  0.00    -0.008 C 
ATOM      5  C   UNL     1       1.868  15.080  16.126  1.00  0.00     0.024 C 
ATOM      6  C   UNL     1       1.600  14.058  17.257  1.00  0.00     0.017 C 
ATOM      7  C   UNL     1       1.155  17.322  15.061  1.00  0.00     0.016 C 
ENDROOT
BRANCH   1   8
ATOM      8  C   UNL     1      -0.065  12.934  18.787  1.00  0.00    -0.077 C 
ATOM      9  C   UNL     1      -1.125  13.162  19.837  1.00  0.00     0.039 C 
ATOM     10  C   UNL     1       0.737  11.864  18.912  1.00  0.00     0.008 C 
ENDBRANCH   1   8
BRANCH   5  11
ATOM     11  C   UNL     1       1.755  14.455  14.723  1.00  0.00    -0.077 C 
ATOM     12  C   UNL     1       0.628  13.888  14.258  1.00  0.00     0.008 C 
ATOM     13  C   UNL     1       2.951  14.467  13.801  1.00  0.00     0.039 C 
ENDBRANCH   5  11
BRANCH   4  14
ATOM     14  C   UNL     1       1.794  17.246  17.467  1.00  0.00    -0.028 C 
ATOM     15  C   UNL     1       2.253  18.497  17.318  1.00  0.00     0.004 C 
ENDBRANCH   4  14
TORSDOF 3
ENDMDL
MODEL 3
REMARK VINA RESULT:    -4.680      1.098      3.379
REMARK INTER + INTRA:          -5.919
REMARK INTER:                  -5.430
REMARK INTRA:                  -0.489
REMARK UNBOUND:                -0.418
REMARK SMILES C=C[C@]1(C)CC[C@H](C(=C)C)C[C@H]1C(=C)C
REMARK SMILES IDX 7 1 6 2 5 3 3 4 12 5 11 6 4 7 8 8 10 9 9 10 13 11 14 12
REMARK SMILES IDX 15 13 2 14 1 15
REMARK H PARENT
REMARK Flexibility Score: inf
ROOT
ATOM      1  C   UNL     1       0.923  12.307  14.995  1.00  0.00     0.015 C 
ATOM      2  C   UNL     1       2.125  13.213  14.683  1.00  0.00     0.009 C 
ATOM      3  C   UNL     1       2.505  14.086  15.888  1.00  0.00     0.012 C 
ATOM      4  C   UNL     1       1.325  14.954  16.416  1.00  0.00    -0.008 C 
ATOM      5  C   UNL     1       0.034  14.080  16.662  1.00  0.00     0.024 C 
ATOM      6  C   UNL     1      -0.286  13.127  15.485  1.00  0.00     0.017 C 
ATOM      7  C   UNL     1       1.786  15.655  17.718  1.00  0.00     0.016 C 
ENDROOT
BRANCH   1   8
ATOM      8  C   UNL     1       0.550  11.459  13.783  1.00  0.00    -0.077 C 
ATOM      9  C   UNL     1      -0.889  11.251  13.378  1.00  0.00     0.039 C 
ATOM     10  C   UNL     1       1.510  10.871  13.050  1.00  0.00     0.008 C 
ENDBRANCH   1   8
BRANCH   5  11
ATOM     11  C   UNL     1      -0.068  13.384  18.031  1.00  0.00    -0.077 C 
ATOM     12  C   UNL     1       0.748  12.386  18.413  1.00  0.00     0.008 C 
ATOM     13  C   UNL     1      -1.125  13.824  19.017  1.00  0.00     0.039 C 
ENDBRANCH   5  11
BRANCH   4  14
ATOM     14  C   UNL     1       1.029  16.044  15.377  1.00  0.00    -0.028 C 
ATOM     15  C   UNL     1       0.302  17.139  15.640  1.00  0.00     0.004 C 
ENDBRANCH   4  14
TORSDOF 3
ENDMDL
MODEL 4
REMARK VINA RESULT:    -4.555      1.390      4.458
REMARK INTER + INTRA:          -5.773
REMARK INTER:                  -5.299
REMARK INTRA:                  -0.474
REMARK UNBOUND:                -0.418
REMARK SMILES C=C[C@]1(C)CC[C@H](C(=C)C)C[C@H]1C(=C)C
REMARK SMILES IDX 7 1 6 2 5 3 3 4 12 5 11 6 4 7 8 8 10 9 9 10 13 11 14 12
REMARK SMILES IDX 15 13 2 14 1 15
REMARK H PARENT
REMARK Flexibility Score: inf
ROOT
ATOM      1  C   UNL     1       0.463  13.455  16.556  1.00  0.00     0.015 C 
ATOM      2  C   UNL     1      -0.577  14.518  16.169  1.00  0.00     0.009 C 
ATOM      3  C   UNL     1      -0.285  15.121  14.786  1.00  0.00     0.012 C 
ATOM      4  C   UNL     1       1.144  15.727  14.669  1.00  0.00    -0.008 C 
ATOM      5  C   UNL     1       2.245  14.701  15.147  1.00  0.00     0.024 C 
ATOM      6  C   UNL     1       1.895  14.020  16.493  1.00  0.00     0.017 C 
ATOM      7  C   UNL     1       1.371  16.147  13.195  1.00  0.00     0.016 C 
ENDROOT
BRANCH   1   8
ATOM      8  C   UNL     1       0.166  12.879  17.938  1.00  0.00    -0.077 C 
ATOM      9  C   UNL     1      -1.123  12.150  18.228  1.00  0.00     0.039 C 
ATOM     10  C   UNL     1       1.057  13.021  18.933  1.00  0.00     0.008 C 
ENDBRANCH   1   8
BRANCH   5  11
ATOM     11  C   UNL     1       2.749  13.700  14.092  1.00  0.00    -0.077 C 
ATOM     12  C   UNL     1       2.013  12.668  13.643  1.00  0.00     0.008 C 
ATOM     13  C   UNL     1       4.135  13.862  13.511  1.00  0.00     0.039 C 
ENDBRANCH   5  11
BRANCH   4  14
ATOM     14  C   UNL     1       1.200  16.994  15.532  1.00  0.00    -0.028 C 
ATOM     15  C   UNL     1       0.350  18.021  15.394  1.00  0.00     0.004 C 
ENDBRANCH   4  14
TORSDOF 3
ENDMDL
MODEL 5
REMARK VINA RESULT:    -4.535      1.388      4.816
REMARK INTER + INTRA:          -5.748
REMARK INTER:                  -5.352
REMARK INTRA:                  -0.396
REMARK UNBOUND:                -0.418
REMARK SMILES C=C[C@]1(C)CC[C@H](C(=C)C)C[C@H]1C(=C)C
REMARK SMILES IDX 7 1 6 2 5 3 3 4 12 5 11 6 4 7 8 8 10 9 9 10 13 11 14 12
REMARK SMILES IDX 15 13 2 14 1 15
REMARK H PARENT
REMARK Flexibility Score: inf
ROOT
ATOM      1  C   UNL     1       0.224  16.141  15.451  1.00  0.00     0.015 C 
ATOM      2  C   UNL     1       0.701  15.688  14.062  1.00  0.00     0.009 C 
ATOM      3  C   UNL     1       0.770  14.157  13.957  1.00  0.00     0.012 C 
ATOM      4  C   UNL     1       1.666  13.505  15.051  1.00  0.00    -0.008 C 
ATOM      5  C   UNL     1       1.274  14.014  16.493  1.00  0.00     0.024 C 
ATOM      6  C   UNL     1       1.106  15.551  16.568  1.00  0.00     0.017 C 
ATOM      7  C   UNL     1       1.521  11.967  14.939  1.00  0.00     0.016 C 
ENDROOT
BRANCH   1   8
ATOM      8  C   UNL     1       0.177  17.663  15.542  1.00  0.00    -0.077 C 
ATOM      9  C   UNL     1      -1.044  18.441  15.117  1.00  0.00     0.039 C 
ATOM     10  C   UNL     1       1.239  18.344  16.003  1.00  0.00     0.008 C 
ENDBRANCH   1   8
BRANCH   5  11
ATOM     11  C   UNL     1       0.131  13.259  17.196  1.00  0.00    -0.077 C 
ATOM     12  C   UNL     1      -1.114  13.173  16.695  1.00  0.00     0.008 C 
ATOM     13  C   UNL     1       0.392  12.567  18.513  1.00  0.00     0.039 C 
ENDBRANCH   5  11
BRANCH   4  14
ATOM     14  C   UNL     1       3.127  13.861  14.750  1.00  0.00    -0.028 C 
ATOM     15  C   UNL     1       3.683  13.741  13.536  1.00  0.00     0.004 C 
ENDBRANCH   4  14
TORSDOF 3
ENDMDL
MODEL 6
REMARK VINA RESULT:    -4.448      1.736      5.314
REMARK INTER + INTRA:          -5.647
REMARK INTER:                  -5.190
REMARK INTRA:                  -0.456
REMARK UNBOUND:                -0.418
REMARK SMILES C=C[C@]1(C)CC[C@H](C(=C)C)C[C@H]1C(=C)C
REMARK SMILES IDX 7 1 6 2 5 3 3 4 12 5 11 6 4 7 8 8 10 9 9 10 13 11 14 12
REMARK SMILES IDX 15 13 2 14 1 15
REMARK H PARENT
REMARK Flexibility Score: inf
ROOT
ATOM      1  C   UNL     1       1.386  14.783  16.143  1.00  0.00     0.015 C 
ATOM      2  C   UNL     1       1.450  15.901  15.090  1.00  0.00     0.009 C 
ATOM      3  C   UNL     1       1.050  15.392  13.697  1.00  0.00     0.012 C 
ATOM      4  C   UNL     1       1.899  14.179  13.217  1.00  0.00    -0.008 C 
ATOM      5  C   UNL     1       1.942  13.039  14.309  1.00  0.00     0.024 C 
ATOM      6  C   UNL     1       2.246  13.572  15.730  1.00  0.00     0.017 C 
ATOM      7  C   UNL     1       1.294  13.662  11.888  1.00  0.00     0.016 C 
ENDROOT
BRANCH   1   8
ATOM      8  C   UNL     1       1.802  15.302  17.516  1.00  0.00    -0.077 C 
ATOM      9  C   UNL     1       2.293  14.370  18.596  1.00  0.00     0.039 C 
ATOM     10  C   UNL     1       1.731  16.615  17.790  1.00  0.00     0.008 C 
ENDBRANCH   1   8
BRANCH   5  11
ATOM     11  C   UNL     1       0.776  12.034  14.291  1.00  0.00    -0.077 C 
ATOM     12  C   UNL     1       0.880  10.792  13.786  1.00  0.00     0.008 C 
ATOM     13  C   UNL     1      -0.564  12.433  14.865  1.00  0.00     0.039 C 
ENDBRANCH   5  11
BRANCH   4  14
ATOM     14  C   UNL     1       3.321  14.675  12.924  1.00  0.00    -0.028 C 
ATOM     15  C   UNL     1       4.394  13.872  12.900  1.00  0.00     0.004 C 
ENDBRANCH   4  14
TORSDOF 3
ENDMDL
MODEL 7
REMARK VINA RESULT:    -4.337      1.928      3.472
REMARK INTER + INTRA:          -5.516
REMARK INTER:                  -5.117
REMARK INTRA:                  -0.398
REMARK UNBOUND:                -0.418
REMARK SMILES C=C[C@]1(C)CC[C@H](C(=C)C)C[C@H]1C(=C)C
REMARK SMILES IDX 7 1 6 2 5 3 3 4 12 5 11 6 4 7 8 8 10 9 9 10 13 11 14 12
REMARK SMILES IDX 15 13 2 14 1 15
REMARK H PARENT
REMARK Flexibility Score: inf
ROOT
ATOM      1  C   UNL     1       2.287  15.120  13.494  1.00  0.00     0.015 C 
ATOM      2  C   UNL     1       1.105  14.370  12.859  1.00  0.00     0.009 C 
ATOM      3  C   UNL     1       0.106  13.884  13.919  1.00  0.00     0.012 C 
ATOM      4  C   UNL     1       0.757  12.991  15.015  1.00  0.00    -0.008 C 
ATOM      5  C   UNL     1       2.035  13.681  15.634  1.00  0.00     0.024 C 
ATOM      6  C   UNL     1       2.990  14.259  14.561  1.00  0.00     0.017 C 
ATOM      7  C   UNL     1      -0.310  12.707  16.102  1.00  0.00     0.016 C 
ENDROOT
BRANCH   1   8
ATOM      8  C   UNL     1       3.277  15.581  12.429  1.00  0.00    -0.077 C 
ATOM      9  C   UNL     1       3.256  16.990  11.889  1.00  0.00     0.039 C 
ATOM     10  C   UNL     1       4.192  14.726  11.943  1.00  0.00     0.008 C 
ENDBRANCH   1   8
BRANCH   5  11
ATOM     11  C   UNL     1       1.787  14.660  16.795  1.00  0.00    -0.077 C 
ATOM     12  C   UNL     1       2.010  14.347  18.084  1.00  0.00     0.008 C 
ATOM     13  C   UNL     1       1.271  16.050  16.504  1.00  0.00     0.039 C 
ENDBRANCH   5  11
BRANCH   4  14
ATOM     14  C   UNL     1       1.143  11.651  14.376  1.00  0.00    -0.028 C 
ATOM     15  C   UNL     1       0.318  10.939  13.596  1.00  0.00     0.004 C 
ENDBRANCH   4  14
TORSDOF 3
ENDMDL
MODEL 8
REMARK VINA RESULT:    -4.268      1.956      4.067
REMARK INTER + INTRA:          -5.435
REMARK INTER:                  -4.996
REMARK INTRA:                  -0.439
REMARK UNBOUND:                -0.418
REMARK SMILES C=C[C@]1(C)CC[C@H](C(=C)C)C[C@H]1C(=C)C
REMARK SMILES IDX 7 1 6 2 5 3 3 4 12 5 11 6 4 7 8 8 10 9 9 10 13 11 14 12
REMARK SMILES IDX 15 13 2 14 1 15
REMARK H PARENT
REMARK Flexibility Score: inf
ROOT
ATOM      1  C   UNL     1       2.084  14.917  14.284  1.00  0.00     0.015 C 
ATOM      2  C   UNL     1       2.016  16.148  13.366  1.00  0.00     0.009 C 
ATOM      3  C   UNL     1       1.266  17.312  14.030  1.00  0.00     0.012 C 
ATOM      4  C   UNL     1      -0.171  16.932  14.493  1.00  0.00    -0.008 C 
ATOM      5  C   UNL     1      -0.165  15.615  15.365  1.00  0.00     0.024 C 
ATOM      6  C   UNL     1       0.678  14.478  14.738  1.00  0.00     0.017 C 
ATOM      7  C   UNL     1      -0.754  18.128  15.287  1.00  0.00     0.016 C 
ENDROOT
BRANCH   1   8
ATOM      8  C   UNL     1       2.818  13.767  13.602  1.00  0.00    -0.077 C 
ATOM      9  C   UNL     1       4.278  13.871  13.233  1.00  0.00     0.039 C 
ATOM     10  C   UNL     1       2.166  12.630  13.309  1.00  0.00     0.008 C 
ENDBRANCH   1   8
BRANCH   5  11
ATOM     11  C   UNL     1       0.107  15.795  16.869  1.00  0.00    -0.077 C 
ATOM     12  C   UNL     1       1.272  16.257  17.358  1.00  0.00     0.008 C 
ATOM     13  C   UNL     1      -0.969  15.444  17.870  1.00  0.00     0.039 C 
ENDBRANCH   5  11
BRANCH   4  14
ATOM     14  C   UNL     1      -1.040  16.729  13.246  1.00  0.00    -0.028 C 
ATOM     15  C   UNL     1      -1.125  17.622  12.250  1.00  0.00     0.004 C 
ENDBRANCH   4  14
TORSDOF 3
ENDMDL
MODEL 9
REMARK VINA RESULT:    -4.176      1.467      2.133
REMARK INTER + INTRA:          -5.327
REMARK INTER:                  -4.847
REMARK INTRA:                  -0.479
REMARK UNBOUND:                -0.418
REMARK SMILES C=C[C@]1(C)CC[C@H](C(=C)C)C[C@H]1C(=C)C
REMARK SMILES IDX 7 1 6 2 5 3 3 4 12 5 11 6 4 7 8 8 10 9 9 10 13 11 14 12
REMARK SMILES IDX 15 13 2 14 1 15
REMARK H PARENT
REMARK Flexibility Score: inf
ROOT
ATOM      1  C   UNL     1       1.809  13.784  14.076  1.00  0.00     0.015 C 
ATOM      2  C   UNL     1       1.393  12.740  15.126  1.00  0.00     0.009 C 
ATOM      3  C   UNL     1       0.240  13.247  16.005  1.00  0.00     0.012 C 
ATOM      4  C   UNL     1       0.554  14.598  16.713  1.00  0.00    -0.008 C 
ATOM      5  C   UNL     1       1.076  15.677  15.687  1.00  0.00     0.024 C 
ATOM      6  C   UNL     1       2.168  15.130  14.735  1.00  0.00     0.017 C 
ATOM      7  C   UNL     1      -0.734  15.079  17.427  1.00  0.00     0.016 C 
ENDROOT
BRANCH   1   8
ATOM      8  C   UNL     1       2.965  13.270  13.224  1.00  0.00    -0.077 C 
ATOM      9  C   UNL     1       2.787  12.119  12.264  1.00  0.00     0.039 C 
ATOM     10  C   UNL     1       4.179  13.837  13.321  1.00  0.00     0.008 C 
ENDBRANCH   1   8
BRANCH   5  11
ATOM     11  C   UNL     1       0.000  16.492  14.946  1.00  0.00    -0.077 C 
ATOM     12  C   UNL     1      -0.803  15.968  14.004  1.00  0.00     0.008 C 
ATOM     13  C   UNL     1      -0.188  17.954  15.276  1.00  0.00     0.039 C 
ENDBRANCH   5  11
BRANCH   4  14
ATOM     14  C   UNL     1       1.618  14.340  17.788  1.00  0.00    -0.028 C 
ATOM     15  C   UNL     1       1.441  13.499  18.816  1.00  0.00     0.004 C 
ENDBRANCH   4  14
TORSDOF 3
ENDMDL
