MODEL 1
REMARK VINA RESULT:    -4.884      0.000      0.000
REMARK INTER + INTRA:          -5.383
REMARK INTER:                  -5.312
REMARK INTRA:                  -0.071
REMARK UNBOUND:                -0.071
REMARK SMILES C=C(C)[C@@H]1CC[C@H](C)C[C@H]1O
REMARK SMILES IDX 8 1 7 2 6 3 5 4 4 5 10 6 9 7 11 8 2 10 1 11 3 12
REMARK H PARENT 11 9
REMARK Flexibility Score: inf
ROOT
ATOM      1  C   UNL     1      -2.936  19.636  48.854  1.00  0.00     0.008 C 
ATOM      2  C   UNL     1      -1.645  18.982  49.369  1.00  0.00    -0.012 C 
ATOM      3  C   UNL     1      -1.772  17.448  49.476  1.00  0.00     0.004 C 
ATOM      4  C   UNL     1      -1.750  16.762  48.103  1.00  0.00     0.011 C 
ATOM      5  C   UNL     1      -0.492  17.156  47.304  1.00  0.00     0.043 C 
ATOM      6  C   UNL     1      -0.387  18.692  47.148  1.00  0.00     0.121 C 
ATOM      7  C   UNL     1      -0.415  19.378  48.525  1.00  0.00     0.035 C 
ENDROOT
BRANCH   6   8
ATOM      8  O   UNL     1       0.819  19.027  46.509  1.00  0.00    -0.392 OA
ATOM      9  H   UNL     1       0.583  19.510  45.675  1.00  0.00     0.210 HD
ENDBRANCH   6   8
BRANCH   5  10
ATOM     10  C   UNL     1      -0.475  16.449  45.954  1.00  0.00    -0.075 C 
ATOM     11  C   UNL     1       0.671  15.938  45.474  1.00  0.00     0.008 C 
ATOM     12  C   UNL     1      -1.730  16.303  45.129  1.00  0.00     0.039 C 
ENDBRANCH   5  10
TORSDOF 2
ENDMDL
MODEL 2
REMARK VINA RESULT:    -4.828      2.151      4.404
REMARK INTER + INTRA:          -5.322
REMARK INTER:                  -5.117
REMARK INTRA:                  -0.205
REMARK UNBOUND:                -0.071
REMARK SMILES C=C(C)[C@@H]1CC[C@H](C)C[C@H]1O
REMARK SMILES IDX 8 1 7 2 6 3 5 4 4 5 10 6 9 7 11 8 2 10 1 11 3 12
REMARK H PARENT 11 9
REMARK Flexibility Score: inf
ROOT
ATOM      1  C   UNL     1      -0.875  16.333  47.469  1.00  0.00     0.008 C 
ATOM      2  C   UNL     1      -1.893  16.522  48.605  1.00  0.00    -0.012 C 
ATOM      3  C   UNL     1      -1.235  17.059  49.893  1.00  0.00     0.004 C 
ATOM      4  C   UNL     1      -0.859  18.543  49.782  1.00  0.00     0.011 C 
ATOM      5  C   UNL     1      -2.079  19.400  49.387  1.00  0.00     0.043 C 
ATOM      6  C   UNL     1      -2.711  18.897  48.067  1.00  0.00     0.121 C 
ATOM      7  C   UNL     1      -3.083  17.408  48.179  1.00  0.00     0.035 C 
ENDROOT
BRANCH   6   8
ATOM      8  O   UNL     1      -3.879  19.626  47.788  1.00  0.00    -0.392 OA
ATOM      9  H   UNL     1      -4.219  19.309  46.911  1.00  0.00     0.210 HD
ENDBRANCH   6   8
BRANCH   5  10
ATOM     10  C   UNL     1      -1.693  20.871  49.304  1.00  0.00    -0.075 C 
ATOM     11  C   UNL     1      -0.740  21.272  48.446  1.00  0.00     0.008 C 
ATOM     12  C   UNL     1      -2.364  21.909  50.170  1.00  0.00     0.039 C 
ENDBRANCH   5  10
TORSDOF 2
ENDMDL
MODEL 3
REMARK VINA RESULT:    -4.659      1.643      3.385
REMARK INTER + INTRA:          -5.139
REMARK INTER:                  -4.945
REMARK INTRA:                  -0.194
REMARK UNBOUND:                -0.071
REMARK SMILES C=C(C)[C@@H]1CC[C@H](C)C[C@H]1O
REMARK SMILES IDX 8 1 7 2 6 3 5 4 4 5 10 6 9 7 11 8 2 10 1 11 3 12
REMARK H PARENT 11 9
REMARK Flexibility Score: inf
ROOT
ATOM      1  C   UNL     1      -1.219  16.631  49.709  1.00  0.00     0.008 C 
ATOM      2  C   UNL     1      -2.324  17.260  48.847  1.00  0.00    -0.012 C 
ATOM      3  C   UNL     1      -2.573  18.739  49.209  1.00  0.00     0.004 C 
ATOM      4  C   UNL     1      -1.452  19.660  48.709  1.00  0.00     0.011 C 
ATOM      5  C   UNL     1      -1.229  19.494  47.192  1.00  0.00     0.043 C 
ATOM      6  C   UNL     1      -0.927  18.020  46.831  1.00  0.00     0.121 C 
ATOM      7  C   UNL     1      -2.050  17.098  47.337  1.00  0.00     0.035 C 
ENDROOT
BRANCH   6   8
ATOM      8  O   UNL     1      -0.833  17.880  45.435  1.00  0.00    -0.392 OA
ATOM      9  H   UNL     1      -0.836  18.794  45.049  1.00  0.00     0.210 HD
ENDBRANCH   6   8
BRANCH   5  10
ATOM     10  C   UNL     1      -0.129  20.431  46.709  1.00  0.00    -0.075 C 
ATOM     11  C   UNL     1      -0.433  21.486  45.934  1.00  0.00     0.008 C 
ATOM     12  C   UNL     1       1.315  20.205  47.084  1.00  0.00     0.039 C 
ENDBRANCH   5  10
TORSDOF 2
ENDMDL
MODEL 4
REMARK VINA RESULT:    -4.655      1.660      2.272
REMARK INTER + INTRA:          -5.134
REMARK INTER:                  -4.977
REMARK INTRA:                  -0.157
REMARK UNBOUND:                -0.071
REMARK SMILES C=C(C)[C@@H]1CC[C@H](C)C[C@H]1O
REMARK SMILES IDX 8 1 7 2 6 3 5 4 4 5 10 6 9 7 11 8 2 10 1 11 3 12
REMARK H PARENT 11 9
REMARK Flexibility Score: inf
ROOT
ATOM      1  C   UNL     1      -0.848  20.178  49.863  1.00  0.00     0.008 C 
ATOM      2  C   UNL     1      -2.030  19.488  49.163  1.00  0.00    -0.012 C 
ATOM      3  C   UNL     1      -2.118  19.860  47.668  1.00  0.00     0.004 C 
ATOM      4  C   UNL     1      -1.029  19.175  46.830  1.00  0.00     0.011 C 
ATOM      5  C   UNL     1      -1.059  17.645  47.021  1.00  0.00     0.043 C 
ATOM      6  C   UNL     1      -0.918  17.266  48.515  1.00  0.00     0.121 C 
ATOM      7  C   UNL     1      -2.008  17.957  49.353  1.00  0.00     0.035 C 
ENDROOT
BRANCH   6   8
ATOM      8  O   UNL     1      -1.054  15.875  48.670  1.00  0.00    -0.392 OA
ATOM      9  H   UNL     1      -1.353  15.512  47.797  1.00  0.00     0.210 HD
ENDBRANCH   6   8
BRANCH   5  10
ATOM     10  C   UNL     1       0.013  16.980  46.166  1.00  0.00    -0.075 C 
ATOM     11  C   UNL     1       1.305  17.050  46.528  1.00  0.00     0.008 C 
ATOM     12  C   UNL     1      -0.342  16.232  44.905  1.00  0.00     0.039 C 
ENDBRANCH   5  10
TORSDOF 2
ENDMDL
MODEL 5
REMARK VINA RESULT:    -4.641      1.622      3.254
REMARK INTER + INTRA:          -5.119
REMARK INTER:                  -4.919
REMARK INTRA:                  -0.200
REMARK UNBOUND:                -0.071
REMARK SMILES C=C(C)[C@@H]1CC[C@H](C)C[C@H]1O
REMARK SMILES IDX 8 1 7 2 6 3 5 4 4 5 10 6 9 7 11 8 2 10 1 11 3 12
REMARK H PARENT 11 9
REMARK Flexibility Score: inf
ROOT
ATOM      1  C   UNL     1      -1.248  16.445  49.651  1.00  0.00     0.008 C 
ATOM      2  C   UNL     1      -2.334  17.145  48.819  1.00  0.00    -0.012 C 
ATOM      3  C   UNL     1      -2.542  18.612  49.249  1.00  0.00     0.004 C 
ATOM      4  C   UNL     1      -1.395  19.524  48.793  1.00  0.00     0.011 C 
ATOM      5  C   UNL     1      -1.175  19.422  47.270  1.00  0.00     0.043 C 
ATOM      6  C   UNL     1      -0.913  17.958  46.840  1.00  0.00     0.121 C 
ATOM      7  C   UNL     1      -2.062  17.045  47.303  1.00  0.00     0.035 C 
ENDROOT
BRANCH   6   8
ATOM      8  O   UNL     1      -0.821  17.880  45.440  1.00  0.00    -0.392 OA
ATOM      9  H   UNL     1      -0.612  18.792  45.110  1.00  0.00     0.210 HD
ENDBRANCH   6   8
BRANCH   5  10
ATOM     10  C   UNL     1      -0.048  20.349  46.831  1.00  0.00    -0.075 C 
ATOM     11  C   UNL     1       1.207  20.137  47.261  1.00  0.00     0.008 C 
ATOM     12  C   UNL     1      -0.306  21.516  45.911  1.00  0.00     0.039 C 
ENDBRANCH   5  10
TORSDOF 2
ENDMDL
MODEL 6
REMARK VINA RESULT:    -4.589      1.196      3.889
REMARK INTER + INTRA:          -5.063
REMARK INTER:                  -4.869
REMARK INTRA:                  -0.193
REMARK UNBOUND:                -0.071
REMARK SMILES C=C(C)[C@@H]1CC[C@H](C)C[C@H]1O
REMARK SMILES IDX 8 1 7 2 6 3 5 4 4 5 10 6 9 7 11 8 2 10 1 11 3 12
REMARK H PARENT 11 9
REMARK Flexibility Score: inf
ROOT
ATOM      1  C   UNL     1       1.132  15.981  46.529  1.00  0.00     0.008 C 
ATOM      2  C   UNL     1      -0.384  16.080  46.303  1.00  0.00    -0.012 C 
ATOM      3  C   UNL     1      -1.181  15.880  47.609  1.00  0.00     0.004 C 
ATOM      4  C   UNL     1      -1.090  17.096  48.541  1.00  0.00     0.011 C 
ATOM      5  C   UNL     1      -1.529  18.386  47.819  1.00  0.00     0.043 C 
ATOM      6  C   UNL     1      -0.696  18.618  46.536  1.00  0.00     0.121 C 
ATOM      7  C   UNL     1      -0.785  17.396  45.605  1.00  0.00     0.035 C 
ENDROOT
BRANCH   6   8
ATOM      8  O   UNL     1      -1.186  19.740  45.844  1.00  0.00    -0.392 OA
ATOM      9  H   UNL     1      -0.401  20.289  45.586  1.00  0.00     0.210 HD
ENDBRANCH   6   8
BRANCH   5  10
ATOM     10  C   UNL     1      -1.454  19.578  48.765  1.00  0.00    -0.075 C 
ATOM     11  C   UNL     1      -0.264  20.009  49.215  1.00  0.00     0.008 C 
ATOM     12  C   UNL     1      -2.699  20.302  49.216  1.00  0.00     0.039 C 
ENDBRANCH   5  10
TORSDOF 2
ENDMDL
MODEL 7
REMARK VINA RESULT:    -4.500      9.405     10.768
REMARK INTER + INTRA:          -4.966
REMARK INTER:                  -4.765
REMARK INTRA:                  -0.201
REMARK UNBOUND:                -0.071
REMARK SMILES C=C(C)[C@@H]1CC[C@H](C)C[C@H]1O
REMARK SMILES IDX 8 1 7 2 6 3 5 4 4 5 10 6 9 7 11 8 2 10 1 11 3 12
REMARK H PARENT 11 9
REMARK Flexibility Score: inf
ROOT
ATOM      1  C   UNL     1       7.379  21.471  40.630  1.00  0.00     0.008 C 
ATOM      2  C   UNL     1       6.104  20.620  40.525  1.00  0.00    -0.012 C 
ATOM      3  C   UNL     1       5.130  20.886  41.691  1.00  0.00     0.004 C 
ATOM      4  C   UNL     1       4.416  22.239  41.560  1.00  0.00     0.011 C 
ATOM      5  C   UNL     1       3.697  22.360  40.201  1.00  0.00     0.043 C 
ATOM      6  C   UNL     1       4.682  22.146  39.026  1.00  0.00     0.121 C 
ATOM      7  C   UNL     1       5.399  20.791  39.163  1.00  0.00     0.035 C 
ENDROOT
BRANCH   6   8
ATOM      8  O   UNL     1       3.983  22.157  37.807  1.00  0.00    -0.392 OA
ATOM      9  H   UNL     1       3.830  21.211  37.550  1.00  0.00     0.210 HD
ENDBRANCH   6   8
BRANCH   5  10
ATOM     10  C   UNL     1       2.977  23.699  40.097  1.00  0.00    -0.075 C 
ATOM     11  C   UNL     1       3.678  24.845  40.099  1.00  0.00     0.008 C 
ATOM     12  C   UNL     1       1.474  23.775  39.987  1.00  0.00     0.039 C 
ENDBRANCH   5  10
TORSDOF 2
ENDMDL
MODEL 8
REMARK VINA RESULT:    -4.339      1.972      3.104
REMARK INTER + INTRA:          -4.790
REMARK INTER:                  -4.595
REMARK INTRA:                  -0.196
REMARK UNBOUND:                -0.071
REMARK SMILES C=C(C)[C@@H]1CC[C@H](C)C[C@H]1O
REMARK SMILES IDX 8 1 7 2 6 3 5 4 4 5 10 6 9 7 11 8 2 10 1 11 3 12
REMARK H PARENT 11 9
REMARK Flexibility Score: inf
ROOT
ATOM      1  C   UNL     1      -0.153  21.212  50.290  1.00  0.00     0.008 C 
ATOM      2  C   UNL     1      -0.280  21.341  48.764  1.00  0.00    -0.012 C 
ATOM      3  C   UNL     1       0.698  20.410  48.018  1.00  0.00     0.004 C 
ATOM      4  C   UNL     1       0.266  18.938  48.079  1.00  0.00     0.011 C 
ATOM      5  C   UNL     1      -1.174  18.758  47.557  1.00  0.00     0.043 C 
ATOM      6  C   UNL     1      -2.167  19.652  48.339  1.00  0.00     0.121 C 
ATOM      7  C   UNL     1      -1.729  21.126  48.280  1.00  0.00     0.035 C 
ENDROOT
BRANCH   6   8
ATOM      8  O   UNL     1      -3.450  19.548  47.774  1.00  0.00    -0.392 OA
ATOM      9  H   UNL     1      -3.528  20.263  47.091  1.00  0.00     0.210 HD
ENDBRANCH   6   8
BRANCH   5  10
ATOM     10  C   UNL     1      -1.578  17.290  47.604  1.00  0.00    -0.075 C 
ATOM     11  C   UNL     1      -1.787  16.610  46.465  1.00  0.00     0.008 C 
ATOM     12  C   UNL     1      -1.752  16.566  48.916  1.00  0.00     0.039 C 
ENDBRANCH   5  10
TORSDOF 2
ENDMDL
