MODEL 1
REMARK VINA RESULT:    -7.193      0.000      0.000
REMARK INTER + INTRA:         -11.558
REMARK INTER:                  -9.716
REMARK INTRA:                  -1.842
REMARK UNBOUND:                -1.842
REMARK SMILES CC[C@@H](CC[C@@H](C)[C@@H]1CC[C@H]2[C@@H]3CC(=O)C4=CC(=O)CC[C@]4(C)[C@@H]3CC[C@@]21C)C(C)C
REMARK SMILES IDX 4 1 3 2 2 3 1 4 29 5 30 6 31 7 5 8 6 9 7 10 8 11 9 12 27 13
REMARK SMILES IDX 10 14 11 15 26 16 28 17 12 18 25 19 24 20 13 21 22 22 14 23
REMARK SMILES IDX 16 24 21 25 23 26 15 27 17 28 20 29 18 30 19 31
REMARK H PARENT
REMARK Flexibility Score: inf
ROOT
ATOM      1  C   UNL     1      18.783  15.510  53.819  1.00  0.00     0.004 C 
ENDROOT
BRANCH   1   2
ATOM      2  C   UNL     1      19.088  15.898  55.293  1.00  0.00    -0.009 C 
BRANCH   2   3
ATOM      3  C   UNL     1      20.630  15.976  55.496  1.00  0.00     0.000 C 
ATOM      4  C   UNL     1      21.166  17.394  55.694  1.00  0.00     0.004 C 
ENDBRANCH   2   3
BRANCH   2   5
ATOM      5  C   UNL     1      18.333  14.941  56.285  1.00  0.00    -0.014 C 
ATOM      6  C   UNL     1      18.610  15.223  57.771  1.00  0.00     0.007 C 
ATOM      7  C   UNL     1      16.823  14.877  56.014  1.00  0.00     0.007 C 
ENDBRANCH   2   5
ENDBRANCH   1   2
BRANCH   1   8
ATOM      8  C   UNL     1      18.691  16.740  52.889  1.00  0.00     0.004 C 
BRANCH   8   9
ATOM      9  C   UNL     1      18.182  18.012  53.627  1.00  0.00    -0.011 C 
ATOM     10  C   UNL     1      19.119  19.204  53.336  1.00  0.00     0.008 C 
BRANCH   9  11
ATOM     11  C   UNL     1      16.669  18.281  53.295  1.00  0.00    -0.002 C 
ATOM     12  C   UNL     1      16.465  19.449  52.294  1.00  0.00     0.005 C 
ATOM     13  C   UNL     1      15.672  18.598  54.465  1.00  0.00    -0.026 C 
ATOM     14  C   UNL     1      15.694  20.556  53.023  1.00  0.00     0.005 C 
ATOM     15  C   UNL     1      15.666  20.133  54.491  1.00  0.00    -0.001 C 
ATOM     16  C   UNL     1      16.008  18.057  55.890  1.00  0.00     0.007 C 
ATOM     17  C   UNL     1      14.279  18.022  54.041  1.00  0.00     0.012 C 
ATOM     18  C   UNL     1      14.544  20.733  55.385  1.00  0.00     0.004 C 
ATOM     19  C   UNL     1      15.674  19.052  57.035  1.00  0.00     0.005 C 
ATOM     20  C   UNL     1      14.424  19.954  56.773  1.00  0.00     0.003 C 
ATOM     21  C   UNL     1      14.746  22.270  55.513  1.00  0.00     0.085 C 
ATOM     22  C   UNL     1      14.035  20.884  58.001  1.00  0.00    -0.000 C 
ATOM     23  C   UNL     1      15.448  22.648  56.773  1.00  0.00     0.159 C 
ATOM     24  C   UNL     1      14.949  22.106  58.047  1.00  0.00     0.005 C 
ATOM     25  C   UNL     1      14.141  20.126  59.367  1.00  0.00     0.020 C 
ATOM     26  C   UNL     1      12.563  21.349  57.823  1.00  0.00     0.017 C 
ATOM     27  O   UNL     1      16.414  23.458  56.740  1.00  0.00    -0.295 OA
ATOM     28  C   UNL     1      15.202  22.754  59.201  1.00  0.00     0.055 C 
ATOM     29  C   UNL     1      13.839  21.033  60.566  1.00  0.00     0.081 C 
ATOM     30  C   UNL     1      14.665  22.282  60.490  1.00  0.00     0.156 C 
ATOM     31  O   UNL     1      14.877  22.954  61.534  1.00  0.00    -0.295 OA
ENDBRANCH   9  11
ENDBRANCH   8   9
ENDBRANCH   1   8
TORSDOF 6
ENDMDL
MODEL 2
REMARK VINA RESULT:    -7.045      4.387      7.791
REMARK INTER + INTRA:         -11.358
REMARK INTER:                  -9.469
REMARK INTRA:                  -1.889
REMARK UNBOUND:                -1.842
REMARK SMILES CC[C@@H](CC[C@@H](C)[C@@H]1CC[C@H]2[C@@H]3CC(=O)C4=CC(=O)CC[C@]4(C)[C@@H]3CC[C@@]21C)C(C)C
REMARK SMILES IDX 4 1 3 2 2 3 1 4 29 5 30 6 31 7 5 8 6 9 7 10 8 11 9 12 27 13
REMARK SMILES IDX 10 14 11 15 26 16 28 17 12 18 25 19 24 20 13 21 22 22 14 23
REMARK SMILES IDX 16 24 21 25 23 26 15 27 17 28 20 29 18 30 19 31
REMARK H PARENT
REMARK Flexibility Score: inf
ROOT
ATOM      1  C   UNL     1      15.596  27.122  51.521  1.00  0.00     0.004 C 
ENDROOT
BRANCH   1   2
ATOM      2  C   UNL     1      16.710  28.197  51.665  1.00  0.00    -0.009 C 
BRANCH   2   3
ATOM      3  C   UNL     1      17.249  28.571  50.254  1.00  0.00     0.000 C 
ATOM      4  C   UNL     1      18.670  29.136  50.254  1.00  0.00     0.004 C 
ENDBRANCH   2   3
BRANCH   2   5
ATOM      5  C   UNL     1      17.803  27.727  52.693  1.00  0.00    -0.014 C 
ATOM      6  C   UNL     1      17.474  28.053  54.159  1.00  0.00     0.007 C 
ATOM      7  C   UNL     1      18.169  26.244  52.533  1.00  0.00     0.007 C 
ENDBRANCH   2   5
ENDBRANCH   1   2
BRANCH   1   8
ATOM      8  C   UNL     1      14.235  27.601  52.074  1.00  0.00     0.004 C 
BRANCH   8   9
ATOM      9  C   UNL     1      13.547  26.535  52.974  1.00  0.00    -0.011 C 
ATOM     10  C   UNL     1      12.012  26.690  52.899  1.00  0.00     0.008 C 
BRANCH   9  11
ATOM     11  C   UNL     1      14.070  25.093  52.630  1.00  0.00    -0.002 C 
ATOM     12  C   UNL     1      12.941  24.128  52.178  1.00  0.00     0.005 C 
ATOM     13  C   UNL     1      14.854  24.281  53.720  1.00  0.00    -0.026 C 
ATOM     14  C   UNL     1      12.850  23.001  53.214  1.00  0.00     0.005 C 
ATOM     15  C   UNL     1      13.748  23.439  54.371  1.00  0.00    -0.001 C 
ATOM     16  C   UNL     1      15.617  25.076  54.827  1.00  0.00     0.007 C 
ATOM     17  C   UNL     1      15.891  23.387  52.960  1.00  0.00     0.012 C 
ATOM     18  C   UNL     1      14.289  22.327  55.313  1.00  0.00     0.004 C 
ATOM     19  C   UNL     1      15.526  24.434  56.238  1.00  0.00     0.005 C 
ATOM     20  C   UNL     1      15.468  22.871  56.243  1.00  0.00     0.003 C 
ATOM     21  C   UNL     1      13.104  21.670  56.078  1.00  0.00     0.085 C 
ATOM     22  C   UNL     1      15.486  22.233  57.697  1.00  0.00    -0.000 C 
ATOM     23  C   UNL     1      12.926  22.234  57.445  1.00  0.00     0.159 C 
ATOM     24  C   UNL     1      14.099  22.320  58.329  1.00  0.00     0.005 C 
ATOM     25  C   UNL     1      16.514  22.948  58.638  1.00  0.00     0.020 C 
ATOM     26  C   UNL     1      15.903  20.741  57.577  1.00  0.00     0.017 C 
ATOM     27  O   UNL     1      11.781  22.579  57.843  1.00  0.00    -0.295 OA
ATOM     28  C   UNL     1      13.935  22.352  59.666  1.00  0.00     0.055 C 
ATOM     29  C   UNL     1      16.490  22.389  60.066  1.00  0.00     0.081 C 
ATOM     30  C   UNL     1      15.084  22.370  60.590  1.00  0.00     0.156 C 
ATOM     31  O   UNL     1      14.883  22.338  61.833  1.00  0.00    -0.295 OA
ENDBRANCH   9  11
ENDBRANCH   8   9
ENDBRANCH   1   8
TORSDOF 6
ENDMDL
MODEL 3
REMARK VINA RESULT:    -6.943      3.820      7.345
REMARK INTER + INTRA:         -11.220
REMARK INTER:                  -9.315
REMARK INTRA:                  -1.905
REMARK UNBOUND:                -1.842
REMARK SMILES CC[C@@H](CC[C@@H](C)[C@@H]1CC[C@H]2[C@@H]3CC(=O)C4=CC(=O)CC[C@]4(C)[C@@H]3CC[C@@]21C)C(C)C
REMARK SMILES IDX 4 1 3 2 2 3 1 4 29 5 30 6 31 7 5 8 6 9 7 10 8 11 9 12 27 13
REMARK SMILES IDX 10 14 11 15 26 16 28 17 12 18 25 19 24 20 13 21 22 22 14 23
REMARK SMILES IDX 16 24 21 25 23 26 15 27 17 28 20 29 18 30 19 31
REMARK H PARENT
REMARK Flexibility Score: inf
ROOT
ATOM      1  C   UNL     1      13.265  20.157  58.929  1.00  0.00     0.004 C 
ENDROOT
BRANCH   1   2
ATOM      2  C   UNL     1      13.148  21.225  60.054  1.00  0.00    -0.009 C 
BRANCH   2   3
ATOM      3  C   UNL     1      12.450  22.495  59.487  1.00  0.00     0.000 C 
ATOM      4  C   UNL     1      11.060  22.760  60.065  1.00  0.00     0.004 C 
ENDBRANCH   2   3
BRANCH   2   5
ATOM      5  C   UNL     1      14.547  21.476  60.726  1.00  0.00    -0.014 C 
ATOM      6  C   UNL     1      15.200  22.814  60.343  1.00  0.00     0.007 C 
ATOM      7  C   UNL     1      14.512  21.301  62.251  1.00  0.00     0.007 C 
ENDBRANCH   2   5
ENDBRANCH   1   2
BRANCH   1   8
ATOM      8  C   UNL     1      14.728  19.898  58.508  1.00  0.00     0.004 C 
BRANCH   8   9
ATOM      9  C   UNL     1      14.986  20.226  57.009  1.00  0.00    -0.011 C 
ATOM     10  C   UNL     1      15.440  18.954  56.259  1.00  0.00     0.008 C 
BRANCH   9  11
ATOM     11  C   UNL     1      13.740  20.943  56.372  1.00  0.00    -0.002 C 
ATOM     12  C   UNL     1      13.216  20.232  55.096  1.00  0.00     0.005 C 
ATOM     13  C   UNL     1      13.855  22.451  55.952  1.00  0.00    -0.026 C 
ATOM     14  C   UNL     1      13.393  21.200  53.919  1.00  0.00     0.005 C 
ATOM     15  C   UNL     1      14.228  22.357  54.466  1.00  0.00    -0.001 C 
ATOM     16  C   UNL     1      14.898  23.348  56.692  1.00  0.00     0.007 C 
ATOM     17  C   UNL     1      12.438  23.086  56.154  1.00  0.00     0.012 C 
ATOM     18  C   UNL     1      14.140  23.717  53.718  1.00  0.00     0.004 C 
ATOM     19  C   UNL     1      15.635  24.351  55.764  1.00  0.00     0.005 C 
ATOM     20  C   UNL     1      14.773  24.901  54.581  1.00  0.00     0.003 C 
ATOM     21  C   UNL     1      14.730  23.563  52.286  1.00  0.00     0.085 C 
ATOM     22  C   UNL     1      15.509  26.008  53.711  1.00  0.00    -0.000 C 
ATOM     23  C   UNL     1      16.145  24.025  52.202  1.00  0.00     0.159 C 
ATOM     24  C   UNL     1      16.486  25.351  52.739  1.00  0.00     0.005 C 
ATOM     25  C   UNL     1      16.296  27.027  54.603  1.00  0.00     0.020 C 
ATOM     26  C   UNL     1      14.439  26.799  52.909  1.00  0.00     0.017 C 
ATOM     27  O   UNL     1      17.012  23.306  51.634  1.00  0.00    -0.295 OA
ATOM     28  C   UNL     1      17.571  26.006  52.281  1.00  0.00     0.055 C 
ATOM     29  C   UNL     1      17.070  28.058  53.773  1.00  0.00     0.081 C 
ATOM     30  C   UNL     1      17.911  27.364  52.742  1.00  0.00     0.156 C 
ATOM     31  O   UNL     1      18.901  27.960  52.241  1.00  0.00    -0.295 OA
ENDBRANCH   9  11
ENDBRANCH   8   9
ENDBRANCH   1   8
TORSDOF 6
ENDMDL
MODEL 4
REMARK VINA RESULT:    -6.914      3.372      5.977
REMARK INTER + INTRA:         -11.182
REMARK INTER:                 -10.058
REMARK INTRA:                  -1.123
REMARK UNBOUND:                -1.842
REMARK SMILES CC[C@@H](CC[C@@H](C)[C@@H]1CC[C@H]2[C@@H]3CC(=O)C4=CC(=O)CC[C@]4(C)[C@@H]3CC[C@@]21C)C(C)C
REMARK SMILES IDX 4 1 3 2 2 3 1 4 29 5 30 6 31 7 5 8 6 9 7 10 8 11 9 12 27 13
REMARK SMILES IDX 10 14 11 15 26 16 28 17 12 18 25 19 24 20 13 21 22 22 14 23
REMARK SMILES IDX 16 24 21 25 23 26 15 27 17 28 20 29 18 30 19 31
REMARK H PARENT
REMARK Flexibility Score: inf
ROOT
ATOM      1  C   UNL     1      15.370  17.219  55.274  1.00  0.00     0.004 C 
ENDROOT
BRANCH   1   2
ATOM      2  C   UNL     1      16.665  16.373  55.435  1.00  0.00    -0.009 C 
BRANCH   2   3
ATOM      3  C   UNL     1      17.012  16.248  56.947  1.00  0.00     0.000 C 
ATOM      4  C   UNL     1      17.638  14.909  57.339  1.00  0.00     0.004 C 
ENDBRANCH   2   3
BRANCH   2   5
ATOM      5  C   UNL     1      17.816  16.948  54.532  1.00  0.00    -0.014 C 
ATOM      6  C   UNL     1      18.698  15.875  53.873  1.00  0.00     0.007 C 
ATOM      7  C   UNL     1      17.306  17.952  53.488  1.00  0.00     0.007 C 
ENDBRANCH   2   5
ENDBRANCH   1   2
BRANCH   1   8
ATOM      8  C   UNL     1      15.226  18.297  56.372  1.00  0.00     0.004 C 
BRANCH   8   9
ATOM      9  C   UNL     1      14.912  19.705  55.789  1.00  0.00    -0.011 C 
ATOM     10  C   UNL     1      13.686  19.630  54.853  1.00  0.00     0.008 C 
BRANCH   9  11
ATOM     11  C   UNL     1      14.784  20.768  56.941  1.00  0.00    -0.002 C 
ATOM     12  C   UNL     1      13.318  21.000  57.394  1.00  0.00     0.005 C 
ATOM     13  C   UNL     1      15.350  22.215  56.715  1.00  0.00    -0.026 C 
ATOM     14  C   UNL     1      12.956  22.455  57.071  1.00  0.00     0.005 C 
ATOM     15  C   UNL     1      14.114  22.984  56.226  1.00  0.00    -0.001 C 
ATOM     16  C   UNL     1      16.514  22.403  55.692  1.00  0.00     0.007 C 
ATOM     17  C   UNL     1      15.839  22.732  58.110  1.00  0.00     0.012 C 
ATOM     18  C   UNL     1      14.321  24.524  56.183  1.00  0.00     0.004 C 
ATOM     19  C   UNL     1      16.394  23.689  54.831  1.00  0.00     0.005 C 
ATOM     20  C   UNL     1      15.742  24.907  55.564  1.00  0.00     0.003 C 
ATOM     21  C   UNL     1      13.102  25.194  55.486  1.00  0.00     0.085 C 
ATOM     22  C   UNL     1      15.729  26.242  54.703  1.00  0.00    -0.000 C 
ATOM     23  C   UNL     1      13.360  25.487  54.047  1.00  0.00     0.159 C 
ATOM     24  C   UNL     1      14.593  26.203  53.684  1.00  0.00     0.005 C 
ATOM     25  C   UNL     1      17.080  26.461  53.942  1.00  0.00     0.020 C 
ATOM     26  C   UNL     1      15.519  27.447  55.662  1.00  0.00     0.017 C 
ATOM     27  O   UNL     1      12.507  25.169  53.174  1.00  0.00    -0.295 OA
ATOM     28  C   UNL     1      14.654  26.900  52.533  1.00  0.00     0.055 C 
ATOM     29  C   UNL     1      17.056  27.708  53.050  1.00  0.00     0.081 C 
ATOM     30  C   UNL     1      15.845  27.686  52.164  1.00  0.00     0.156 C 
ATOM     31  O   UNL     1      15.834  28.371  51.107  1.00  0.00    -0.295 OA
ENDBRANCH   9  11
ENDBRANCH   8   9
ENDBRANCH   1   8
TORSDOF 6
ENDMDL
MODEL 5
REMARK VINA RESULT:    -6.779      3.423      6.436
REMARK INTER + INTRA:         -10.998
REMARK INTER:                  -9.008
REMARK INTRA:                  -1.991
REMARK UNBOUND:                -1.842
REMARK SMILES CC[C@@H](CC[C@@H](C)[C@@H]1CC[C@H]2[C@@H]3CC(=O)C4=CC(=O)CC[C@]4(C)[C@@H]3CC[C@@]21C)C(C)C
REMARK SMILES IDX 4 1 3 2 2 3 1 4 29 5 30 6 31 7 5 8 6 9 7 10 8 11 9 12 27 13
REMARK SMILES IDX 10 14 11 15 26 16 28 17 12 18 25 19 24 20 13 21 22 22 14 23
REMARK SMILES IDX 16 24 21 25 23 26 15 27 17 28 20 29 18 30 19 31
REMARK H PARENT
REMARK Flexibility Score: inf
ROOT
ATOM      1  C   UNL     1      15.320  25.962  52.894  1.00  0.00     0.004 C 
ENDROOT
BRANCH   1   2
ATOM      2  C   UNL     1      14.525  26.330  54.179  1.00  0.00    -0.009 C 
BRANCH   2   3
ATOM      3  C   UNL     1      15.510  26.441  55.379  1.00  0.00     0.000 C 
ATOM      4  C   UNL     1      15.803  27.876  55.820  1.00  0.00     0.004 C 
ENDBRANCH   2   3
BRANCH   2   5
ATOM      5  C   UNL     1      13.326  25.335  54.392  1.00  0.00    -0.014 C 
ATOM      6  C   UNL     1      13.027  25.010  55.864  1.00  0.00     0.007 C 
ATOM      7  C   UNL     1      12.051  25.778  53.660  1.00  0.00     0.007 C 
ENDBRANCH   2   5
ENDBRANCH   1   2
BRANCH   1   8
ATOM      8  C   UNL     1      15.348  24.441  52.630  1.00  0.00     0.004 C 
BRANCH   8   9
ATOM      9  C   UNL     1      16.763  23.929  52.231  1.00  0.00    -0.011 C 
ATOM     10  C   UNL     1      17.848  24.843  52.840  1.00  0.00     0.008 C 
BRANCH   9  11
ATOM     11  C   UNL     1      16.925  22.406  52.586  1.00  0.00    -0.002 C 
ATOM     12  C   UNL     1      16.073  21.476  51.681  1.00  0.00     0.005 C 
ATOM     13  C   UNL     1      16.605  21.921  54.045  1.00  0.00    -0.026 C 
ATOM     14  C   UNL     1      15.044  20.773  52.575  1.00  0.00     0.005 C 
ATOM     15  C   UNL     1      15.143  21.468  53.933  1.00  0.00    -0.001 C 
ATOM     16  C   UNL     1      16.741  22.948  55.212  1.00  0.00     0.007 C 
ATOM     17  C   UNL     1      17.563  20.717  54.341  1.00  0.00     0.012 C 
ATOM     18  C   UNL     1      14.642  20.680  55.176  1.00  0.00     0.004 C 
ATOM     19  C   UNL     1      15.631  22.825  56.291  1.00  0.00     0.005 C 
ATOM     20  C   UNL     1      15.117  21.368  56.536  1.00  0.00     0.003 C 
ATOM     21  C   UNL     1      13.108  20.447  55.062  1.00  0.00     0.085 C 
ATOM     22  C   UNL     1      14.063  21.250  57.718  1.00  0.00    -0.000 C 
ATOM     23  C   UNL     1      12.321  21.448  55.836  1.00  0.00     0.159 C 
ATOM     24  C   UNL     1      12.682  21.694  57.241  1.00  0.00     0.005 C 
ATOM     25  C   UNL     1      14.470  22.119  58.955  1.00  0.00     0.020 C 
ATOM     26  C   UNL     1      13.997  19.766  58.175  1.00  0.00     0.017 C 
ATOM     27  O   UNL     1      11.337  22.029  55.302  1.00  0.00    -0.295 OA
ATOM     28  C   UNL     1      11.765  22.185  58.097  1.00  0.00     0.055 C 
ATOM     29  C   UNL     1      13.425  22.071  60.076  1.00  0.00     0.081 C 
ATOM     30  C   UNL     1      12.064  22.382  59.527  1.00  0.00     0.156 C 
ATOM     31  O   UNL     1      11.156  22.786  60.301  1.00  0.00    -0.295 OA
ENDBRANCH   9  11
ENDBRANCH   8   9
ENDBRANCH   1   8
TORSDOF 6
ENDMDL
MODEL 6
REMARK VINA RESULT:    -6.724      1.917      3.434
REMARK INTER + INTRA:         -10.925
REMARK INTER:                  -9.518
REMARK INTRA:                  -1.407
REMARK UNBOUND:                -1.842
REMARK SMILES CC[C@@H](CC[C@@H](C)[C@@H]1CC[C@H]2[C@@H]3CC(=O)C4=CC(=O)CC[C@]4(C)[C@@H]3CC[C@@]21C)C(C)C
REMARK SMILES IDX 4 1 3 2 2 3 1 4 29 5 30 6 31 7 5 8 6 9 7 10 8 11 9 12 27 13
REMARK SMILES IDX 10 14 11 15 26 16 28 17 12 18 25 19 24 20 13 21 22 22 14 23
REMARK SMILES IDX 16 24 21 25 23 26 15 27 17 28 20 29 18 30 19 31
REMARK H PARENT
REMARK Flexibility Score: inf
ROOT
ATOM      1  C   UNL     1      15.387  17.151  55.117  1.00  0.00     0.004 C 
ENDROOT
BRANCH   1   2
ATOM      2  C   UNL     1      16.605  16.909  56.052  1.00  0.00    -0.009 C 
BRANCH   2   3
ATOM      3  C   UNL     1      16.699  15.393  56.392  1.00  0.00     0.000 C 
ATOM      4  C   UNL     1      17.817  15.037  57.373  1.00  0.00     0.004 C 
ENDBRANCH   2   3
BRANCH   2   5
ATOM      5  C   UNL     1      16.547  17.869  57.296  1.00  0.00    -0.014 C 
ATOM      6  C   UNL     1      17.732  18.843  57.399  1.00  0.00     0.007 C 
ATOM      7  C   UNL     1      15.212  18.620  57.404  1.00  0.00     0.007 C 
ENDBRANCH   2   5
ENDBRANCH   1   2
BRANCH   1   8
ATOM      8  C   UNL     1      15.778  17.871  53.808  1.00  0.00     0.004 C 
BRANCH   8   9
ATOM      9  C   UNL     1      17.225  18.443  53.849  1.00  0.00    -0.011 C 
ATOM     10  C   UNL     1      18.158  17.586  52.965  1.00  0.00     0.008 C 
BRANCH   9  11
ATOM     11  C   UNL     1      17.229  19.975  53.499  1.00  0.00    -0.002 C 
ATOM     12  C   UNL     1      18.341  20.765  54.239  1.00  0.00     0.005 C 
ATOM     13  C   UNL     1      15.930  20.821  53.743  1.00  0.00    -0.026 C 
ATOM     14  C   UNL     1      17.655  21.776  55.167  1.00  0.00     0.005 C 
ATOM     15  C   UNL     1      16.171  21.409  55.141  1.00  0.00    -0.001 C 
ATOM     16  C   UNL     1      14.553  20.084  53.723  1.00  0.00     0.007 C 
ATOM     17  C   UNL     1      15.902  21.936  52.644  1.00  0.00     0.012 C 
ATOM     18  C   UNL     1      15.155  22.519  55.530  1.00  0.00     0.004 C 
ATOM     19  C   UNL     1      13.554  20.588  54.800  1.00  0.00     0.005 C 
ATOM     20  C   UNL     1      13.664  22.113  55.130  1.00  0.00     0.003 C 
ATOM     21  C   UNL     1      15.350  22.902  57.026  1.00  0.00     0.085 C 
ATOM     22  C   UNL     1      12.562  22.629  56.151  1.00  0.00    -0.000 C 
ATOM     23  C   UNL     1      14.380  22.210  57.921  1.00  0.00     0.159 C 
ATOM     24  C   UNL     1      12.950  22.257  57.580  1.00  0.00     0.005 C 
ATOM     25  C   UNL     1      11.149  22.029  55.841  1.00  0.00     0.020 C 
ATOM     26  C   UNL     1      12.462  24.175  56.031  1.00  0.00     0.017 C 
ATOM     27  O   UNL     1      14.783  21.644  58.973  1.00  0.00    -0.295 OA
ATOM     28  C   UNL     1      12.021  22.093  58.542  1.00  0.00     0.055 C 
ATOM     29  C   UNL     1      10.090  22.462  56.862  1.00  0.00     0.081 C 
ATOM     30  C   UNL     1      10.579  22.199  58.256  1.00  0.00     0.156 C 
ATOM     31  O   UNL     1       9.749  22.098  59.198  1.00  0.00    -0.295 OA
ENDBRANCH   9  11
ENDBRANCH   8   9
ENDBRANCH   1   8
TORSDOF 6
ENDMDL
MODEL 7
REMARK VINA RESULT:    -6.689      3.172      7.938
REMARK INTER + INTRA:         -10.877
REMARK INTER:                  -9.461
REMARK INTRA:                  -1.416
REMARK UNBOUND:                -1.842
REMARK SMILES CC[C@@H](CC[C@@H](C)[C@@H]1CC[C@H]2[C@@H]3CC(=O)C4=CC(=O)CC[C@]4(C)[C@@H]3CC[C@@]21C)C(C)C
REMARK SMILES IDX 4 1 3 2 2 3 1 4 29 5 30 6 31 7 5 8 6 9 7 10 8 11 9 12 27 13
REMARK SMILES IDX 10 14 11 15 26 16 28 17 12 18 25 19 24 20 13 21 22 22 14 23
REMARK SMILES IDX 16 24 21 25 23 26 15 27 17 28 20 29 18 30 19 31
REMARK H PARENT
REMARK Flexibility Score: inf
ROOT
ATOM      1  C   UNL     1      10.103  21.819  56.206  1.00  0.00     0.004 C 
ENDROOT
BRANCH   1   2
ATOM      2  C   UNL     1       8.908  21.989  57.187  1.00  0.00    -0.009 C 
BRANCH   2   3
ATOM      3  C   UNL     1       9.352  21.561  58.616  1.00  0.00     0.000 C 
ATOM      4  C   UNL     1      10.653  22.210  59.091  1.00  0.00     0.004 C 
ENDBRANCH   2   3
BRANCH   2   5
ATOM      5  C   UNL     1       7.632  21.255  56.637  1.00  0.00    -0.014 C 
ATOM      6  C   UNL     1       6.363  22.122  56.618  1.00  0.00     0.007 C 
ATOM      7  C   UNL     1       7.868  20.601  55.268  1.00  0.00     0.007 C 
ENDBRANCH   2   5
ENDBRANCH   1   2
BRANCH   1   8
ATOM      8  C   UNL     1      10.569  23.162  55.602  1.00  0.00     0.004 C 
BRANCH   8   9
ATOM      9  C   UNL     1      12.021  23.097  55.047  1.00  0.00    -0.011 C 
ATOM     10  C   UNL     1      12.173  24.055  53.845  1.00  0.00     0.008 C 
BRANCH   9  11
ATOM     11  C   UNL     1      13.068  23.330  56.196  1.00  0.00    -0.002 C 
ATOM     12  C   UNL     1      14.101  24.440  55.863  1.00  0.00     0.005 C 
ATOM     13  C   UNL     1      13.945  22.126  56.691  1.00  0.00    -0.026 C 
ATOM     14  C   UNL     1      15.485  23.782  55.798  1.00  0.00     0.005 C 
ATOM     15  C   UNL     1      15.224  22.278  55.855  1.00  0.00    -0.001 C 
ATOM     16  C   UNL     1      13.382  20.680  56.516  1.00  0.00     0.007 C 
ATOM     17  C   UNL     1      14.219  22.361  58.215  1.00  0.00     0.012 C 
ATOM     18  C   UNL     1      16.389  21.369  56.335  1.00  0.00     0.004 C 
ATOM     19  C   UNL     1      14.451  19.635  56.095  1.00  0.00     0.005 C 
ATOM     20  C   UNL     1      15.881  19.894  56.673  1.00  0.00     0.003 C 
ATOM     21  C   UNL     1      17.560  21.438  55.312  1.00  0.00     0.085 C 
ATOM     22  C   UNL     1      16.931  18.755  56.321  1.00  0.00    -0.000 C 
ATOM     23  C   UNL     1      17.548  20.295  54.356  1.00  0.00     0.159 C 
ATOM     24  C   UNL     1      17.440  18.929  54.893  1.00  0.00     0.005 C 
ATOM     25  C   UNL     1      16.312  17.324  56.464  1.00  0.00     0.020 C 
ATOM     26  C   UNL     1      18.125  18.862  57.310  1.00  0.00     0.017 C 
ATOM     27  O   UNL     1      17.681  20.503  53.119  1.00  0.00    -0.295 OA
ATOM     28  C   UNL     1      17.895  17.884  54.175  1.00  0.00     0.055 C 
ATOM     29  C   UNL     1      17.293  16.217  56.058  1.00  0.00     0.081 C 
ATOM     30  C   UNL     1      17.867  16.508  54.702  1.00  0.00     0.156 C 
ATOM     31  O   UNL     1      18.360  15.571  54.020  1.00  0.00    -0.295 OA
ENDBRANCH   9  11
ENDBRANCH   8   9
ENDBRANCH   1   8
TORSDOF 6
ENDMDL
MODEL 8
REMARK VINA RESULT:    -6.514      3.164      6.815
REMARK INTER + INTRA:         -10.641
REMARK INTER:                  -8.558
REMARK INTRA:                  -2.083
REMARK UNBOUND:                -1.842
REMARK SMILES CC[C@@H](CC[C@@H](C)[C@@H]1CC[C@H]2[C@@H]3CC(=O)C4=CC(=O)CC[C@]4(C)[C@@H]3CC[C@@]21C)C(C)C
REMARK SMILES IDX 4 1 3 2 2 3 1 4 29 5 30 6 31 7 5 8 6 9 7 10 8 11 9 12 27 13
REMARK SMILES IDX 10 14 11 15 26 16 28 17 12 18 25 19 24 20 13 21 22 22 14 23
REMARK SMILES IDX 16 24 21 25 23 26 15 27 17 28 20 29 18 30 19 31
REMARK H PARENT
REMARK Flexibility Score: inf
ROOT
ATOM      1  C   UNL     1      15.500  25.099  52.144  1.00  0.00     0.004 C 
ENDROOT
BRANCH   1   2
ATOM      2  C   UNL     1      16.508  25.206  53.323  1.00  0.00    -0.009 C 
BRANCH   2   3
ATOM      3  C   UNL     1      16.550  23.851  54.088  1.00  0.00     0.000 C 
ATOM      4  C   UNL     1      17.606  22.873  53.575  1.00  0.00     0.004 C 
ENDBRANCH   2   3
BRANCH   2   5
ATOM      5  C   UNL     1      16.188  26.464  54.212  1.00  0.00    -0.014 C 
ATOM      6  C   UNL     1      15.123  27.401  53.620  1.00  0.00     0.007 C 
ATOM      7  C   UNL     1      15.844  26.093  55.662  1.00  0.00     0.007 C 
ENDBRANCH   2   5
ENDBRANCH   1   2
BRANCH   1   8
ATOM      8  C   UNL     1      14.387  24.061  52.408  1.00  0.00     0.004 C 
BRANCH   8   9
ATOM      9  C   UNL     1      12.960  24.649  52.205  1.00  0.00    -0.011 C 
ATOM     10  C   UNL     1      12.419  24.257  50.813  1.00  0.00     0.008 C 
BRANCH   9  11
ATOM     11  C   UNL     1      12.019  24.254  53.401  1.00  0.00    -0.002 C 
ATOM     12  C   UNL     1      11.967  25.332  54.516  1.00  0.00     0.005 C 
ATOM     13  C   UNL     1      12.285  22.914  54.175  1.00  0.00    -0.026 C 
ATOM     14  C   UNL     1      12.551  24.711  55.791  1.00  0.00     0.005 C 
ATOM     15  C   UNL     1      13.152  23.375  55.355  1.00  0.00    -0.001 C 
ATOM     16  C   UNL     1      13.011  21.756  53.421  1.00  0.00     0.007 C 
ATOM     17  C   UNL     1      10.891  22.384  54.654  1.00  0.00     0.012 C 
ATOM     18  C   UNL     1      13.340  22.286  56.448  1.00  0.00     0.004 C 
ATOM     19  C   UNL     1      14.033  20.979  54.295  1.00  0.00     0.005 C 
ATOM     20  C   UNL     1      13.641  20.857  55.804  1.00  0.00     0.003 C 
ATOM     21  C   UNL     1      14.391  22.769  57.489  1.00  0.00     0.085 C 
ATOM     22  C   UNL     1      14.643  19.966  56.656  1.00  0.00    -0.000 C 
ATOM     23  C   UNL     1      15.750  22.217  57.223  1.00  0.00     0.159 C 
ATOM     24  C   UNL     1      15.892  20.769  57.011  1.00  0.00     0.005 C 
ATOM     25  C   UNL     1      15.077  18.673  55.887  1.00  0.00     0.020 C 
ATOM     26  C   UNL     1      13.925  19.528  57.963  1.00  0.00     0.017 C 
ATOM     27  O   UNL     1      16.755  22.979  57.234  1.00  0.00    -0.295 OA
ATOM     28  C   UNL     1      17.074  20.165  57.246  1.00  0.00     0.055 C 
ATOM     29  C   UNL     1      16.100  17.840  56.669  1.00  0.00     0.081 C 
ATOM     30  C   UNL     1      17.242  18.707  57.111  1.00  0.00     0.156 C 
ATOM     31  O   UNL     1      18.349  18.180  57.400  1.00  0.00    -0.295 OA
ENDBRANCH   9  11
ENDBRANCH   8   9
ENDBRANCH   1   8
TORSDOF 6
ENDMDL
MODEL 9
REMARK VINA RESULT:    -6.394      4.741      7.750
REMARK INTER + INTRA:         -10.479
REMARK INTER:                  -8.737
REMARK INTRA:                  -1.742
REMARK UNBOUND:                -1.842
REMARK SMILES CC[C@@H](CC[C@@H](C)[C@@H]1CC[C@H]2[C@@H]3CC(=O)C4=CC(=O)CC[C@]4(C)[C@@H]3CC[C@@]21C)C(C)C
REMARK SMILES IDX 4 1 3 2 2 3 1 4 29 5 30 6 31 7 5 8 6 9 7 10 8 11 9 12 27 13
REMARK SMILES IDX 10 14 11 15 26 16 28 17 12 18 25 19 24 20 13 21 22 22 14 23
REMARK SMILES IDX 16 24 21 25 23 26 15 27 17 28 20 29 18 30 19 31
REMARK H PARENT
REMARK Flexibility Score: inf
ROOT
ATOM      1  C   UNL     1      13.202  20.991  57.859  1.00  0.00     0.004 C 
ENDROOT
BRANCH   1   2
ATOM      2  C   UNL     1      14.121  21.954  58.662  1.00  0.00    -0.009 C 
BRANCH   2   3
ATOM      3  C   UNL     1      15.594  21.459  58.566  1.00  0.00     0.000 C 
ATOM      4  C   UNL     1      16.602  22.553  58.211  1.00  0.00     0.004 C 
ENDBRANCH   2   3
BRANCH   2   5
ATOM      5  C   UNL     1      13.577  22.146  60.125  1.00  0.00    -0.014 C 
ATOM      6  C   UNL     1      14.580  22.794  61.093  1.00  0.00     0.007 C 
ATOM      7  C   UNL     1      12.228  22.881  60.164  1.00  0.00     0.007 C 
ENDBRANCH   2   5
ENDBRANCH   1   2
BRANCH   1   8
ATOM      8  C   UNL     1      13.980  20.171  56.806  1.00  0.00     0.004 C 
BRANCH   8   9
ATOM      9  C   UNL     1      13.778  20.709  55.360  1.00  0.00    -0.011 C 
ATOM     10  C   UNL     1      13.393  19.551  54.413  1.00  0.00     0.008 C 
BRANCH   9  11
ATOM     11  C   UNL     1      12.771  21.916  55.350  1.00  0.00    -0.002 C 
ATOM     12  C   UNL     1      11.650  21.764  54.287  1.00  0.00     0.005 C 
ATOM     13  C   UNL     1      13.318  23.369  55.125  1.00  0.00    -0.026 C 
ATOM     14  C   UNL     1      11.813  22.903  53.273  1.00  0.00     0.005 C 
ATOM     15  C   UNL     1      13.151  23.559  53.611  1.00  0.00    -0.001 C 
ATOM     16  C   UNL     1      14.797  23.673  55.524  1.00  0.00     0.007 C 
ATOM     17  C   UNL     1      12.388  24.334  55.935  1.00  0.00     0.012 C 
ATOM     18  C   UNL     1      13.364  25.027  53.143  1.00  0.00     0.004 C 
ATOM     19  C   UNL     1      15.538  24.607  54.530  1.00  0.00     0.005 C 
ATOM     20  C   UNL     1      14.634  25.687  53.851  1.00  0.00     0.003 C 
ATOM     21  C   UNL     1      13.380  25.081  51.588  1.00  0.00     0.085 C 
ATOM     22  C   UNL     1      15.431  26.701  52.924  1.00  0.00    -0.000 C 
ATOM     23  C   UNL     1      14.764  25.089  51.034  1.00  0.00     0.159 C 
ATOM     24  C   UNL     1      15.733  26.056  51.573  1.00  0.00     0.005 C 
ATOM     25  C   UNL     1      16.780  27.155  53.576  1.00  0.00     0.020 C 
ATOM     26  C   UNL     1      14.555  27.966  52.705  1.00  0.00     0.017 C 
ATOM     27  O   UNL     1      15.070  24.315  50.087  1.00  0.00    -0.295 OA
ATOM     28  C   UNL     1      16.788  26.440  50.829  1.00  0.00     0.055 C 
ATOM     29  C   UNL     1      17.594  28.078  52.661  1.00  0.00     0.081 C 
ATOM     30  C   UNL     1      17.745  27.456  51.304  1.00  0.00     0.156 C 
ATOM     31  O   UNL     1      18.682  27.828  50.549  1.00  0.00    -0.295 OA
ENDBRANCH   9  11
ENDBRANCH   8   9
ENDBRANCH   1   8
TORSDOF 6
ENDMDL
