MODEL 1
REMARK VINA RESULT:    -4.233      0.000      0.000
REMARK INTER + INTRA:          -5.456
REMARK INTER:                  -5.222
REMARK INTRA:                  -0.234
REMARK UNBOUND:                -0.234
REMARK SMILES CCCCC=CC(C)=O
REMARK SMILES IDX 4 1 3 2 2 3 1 4 5 5 6 6 7 7 9 8 8 9
REMARK H PARENT
REMARK Flexibility Score: inf
ROOT
ATOM      1  C   UNL     1      11.054 -29.461  21.963  1.00  0.00     0.027 C 
ENDROOT
BRANCH   1   2
ATOM      2  C   UNL     1      11.106 -28.402  23.070  1.00  0.00     0.004 C 
BRANCH   2   3
ATOM      3  C   UNL     1      12.339 -28.598  23.959  1.00  0.00    -0.003 C 
ATOM      4  C   UNL     1      12.617 -27.356  24.800  1.00  0.00     0.004 C 
ENDBRANCH   2   3
ENDBRANCH   1   2
BRANCH   1   5
ATOM      5  C   UNL     1      12.116 -30.505  22.159  1.00  0.00    -0.023 C 
ATOM      6  C   UNL     1      12.769 -31.041  21.120  1.00  0.00     0.042 C 
BRANCH   6   7
ATOM      7  C   UNL     1      13.810 -32.078  21.264  1.00  0.00     0.152 C 
ATOM      8  O   UNL     1      13.974 -32.903  20.326  1.00  0.00    -0.295 OA
ATOM      9  C   UNL     1      14.678 -32.183  22.483  1.00  0.00     0.093 C 
ENDBRANCH   6   7
ENDBRANCH   1   5
TORSDOF 4
ENDMDL
MODEL 2
REMARK VINA RESULT:    -4.006      9.993     10.853
REMARK INTER + INTRA:          -5.176
REMARK INTER:                  -5.048
REMARK INTRA:                  -0.128
REMARK UNBOUND:                -0.234
REMARK SMILES CCCCC=CC(C)=O
REMARK SMILES IDX 4 1 3 2 2 3 1 4 5 5 6 6 7 7 9 8 8 9
REMARK H PARENT
REMARK Flexibility Score: inf
ROOT
ATOM      1  C   UNL     1      19.911 -25.935  20.767  1.00  0.00     0.027 C 
ENDROOT
BRANCH   1   2
ATOM      2  C   UNL     1      19.618 -27.428  20.576  1.00  0.00     0.004 C 
BRANCH   2   3
ATOM      3  C   UNL     1      20.914 -28.247  20.589  1.00  0.00    -0.003 C 
ATOM      4  C   UNL     1      20.638 -29.712  20.912  1.00  0.00     0.004 C 
ENDBRANCH   2   3
ENDBRANCH   1   2
BRANCH   1   5
ATOM      5  C   UNL     1      21.041 -25.486  19.883  1.00  0.00    -0.023 C 
ATOM      6  C   UNL     1      22.127 -24.888  20.389  1.00  0.00     0.042 C 
BRANCH   6   7
ATOM      7  C   UNL     1      23.255 -24.419  19.560  1.00  0.00     0.152 C 
ATOM      8  O   UNL     1      23.462 -24.980  18.451  1.00  0.00    -0.295 OA
ATOM      9  C   UNL     1      24.161 -23.303  19.989  1.00  0.00     0.093 C 
ENDBRANCH   6   7
ENDBRANCH   1   5
TORSDOF 4
ENDMDL
MODEL 3
REMARK VINA RESULT:    -3.988      1.888      2.584
REMARK INTER + INTRA:          -5.154
REMARK INTER:                  -4.982
REMARK INTRA:                  -0.172
REMARK UNBOUND:                -0.234
REMARK SMILES CCCCC=CC(C)=O
REMARK SMILES IDX 4 1 3 2 2 3 1 4 5 5 6 6 7 7 9 8 8 9
REMARK H PARENT
REMARK Flexibility Score: inf
ROOT
ATOM      1  C   UNL     1      12.812 -31.053  20.951  1.00  0.00     0.027 C 
ENDROOT
BRANCH   1   2
ATOM      2  C   UNL     1      12.118 -30.354  22.126  1.00  0.00     0.004 C 
BRANCH   2   3
ATOM      3  C   UNL     1      13.068 -30.217  23.321  1.00  0.00    -0.003 C 
ATOM      4  C   UNL     1      12.860 -28.888  24.042  1.00  0.00     0.004 C 
ENDBRANCH   2   3
ENDBRANCH   1   2
BRANCH   1   5
ATOM      5  C   UNL     1      13.870 -32.004  21.433  1.00  0.00    -0.023 C 
ATOM      6  C   UNL     1      14.270 -33.041  20.685  1.00  0.00     0.042 C 
BRANCH   6   7
ATOM      7  C   UNL     1      15.296 -34.008  21.121  1.00  0.00     0.152 C 
ATOM      8  O   UNL     1      15.825 -33.857  22.255  1.00  0.00    -0.295 OA
ATOM      9  C   UNL     1      15.731 -35.161  20.266  1.00  0.00     0.093 C 
ENDBRANCH   6   7
ENDBRANCH   1   5
TORSDOF 4
ENDMDL
MODEL 4
REMARK VINA RESULT:    -3.898      1.430      1.853
REMARK INTER + INTRA:          -5.043
REMARK INTER:                  -4.891
REMARK INTRA:                  -0.153
REMARK UNBOUND:                -0.234
REMARK SMILES CCCCC=CC(C)=O
REMARK SMILES IDX 4 1 3 2 2 3 1 4 5 5 6 6 7 7 9 8 8 9
REMARK H PARENT
REMARK Flexibility Score: inf
ROOT
ATOM      1  C   UNL     1      13.066 -29.595  23.634  1.00  0.00     0.027 C 
ENDROOT
BRANCH   1   2
ATOM      2  C   UNL     1      11.895 -28.756  23.109  1.00  0.00     0.004 C 
BRANCH   2   3
ATOM      3  C   UNL     1      11.561 -27.615  24.077  1.00  0.00    -0.003 C 
ATOM      4  C   UNL     1      12.789 -27.192  24.877  1.00  0.00     0.004 C 
ENDBRANCH   2   3
ENDBRANCH   1   2
BRANCH   1   5
ATOM      5  C   UNL     1      13.338 -30.770  22.738  1.00  0.00    -0.023 C 
ATOM      6  C   UNL     1      14.370 -31.593  22.960  1.00  0.00     0.042 C 
BRANCH   6   7
ATOM      7  C   UNL     1      14.683 -32.752  22.100  1.00  0.00     0.152 C 
ATOM      8  O   UNL     1      15.406 -33.672  22.567  1.00  0.00    -0.295 OA
ATOM      9  C   UNL     1      14.173 -32.872  20.695  1.00  0.00     0.093 C 
ENDBRANCH   6   7
ENDBRANCH   1   5
TORSDOF 4
ENDMDL
MODEL 5
REMARK VINA RESULT:    -3.826      2.352      5.148
REMARK INTER + INTRA:          -4.955
REMARK INTER:                  -4.760
REMARK INTRA:                  -0.195
REMARK UNBOUND:                -0.234
REMARK SMILES CCCCC=CC(C)=O
REMARK SMILES IDX 4 1 3 2 2 3 1 4 5 5 6 6 7 7 9 8 8 9
REMARK H PARENT
REMARK Flexibility Score: inf
ROOT
ATOM      1  C   UNL     1      13.468 -31.911  20.777  1.00  0.00     0.027 C 
ENDROOT
BRANCH   1   2
ATOM      2  C   UNL     1      14.594 -32.353  21.719  1.00  0.00     0.004 C 
BRANCH   2   3
ATOM      3  C   UNL     1      15.004 -33.804  21.441  1.00  0.00    -0.003 C 
ATOM      4  C   UNL     1      15.048 -34.088  19.942  1.00  0.00     0.004 C 
ENDBRANCH   2   3
ENDBRANCH   1   2
BRANCH   1   5
ATOM      5  C   UNL     1      12.592 -30.877  21.425  1.00  0.00    -0.023 C 
ATOM      6  C   UNL     1      12.995 -30.199  22.507  1.00  0.00     0.042 C 
BRANCH   6   7
ATOM      7  C   UNL     1      12.164 -29.183  23.184  1.00  0.00     0.152 C 
ATOM      8  O   UNL     1      12.546 -28.736  24.298  1.00  0.00    -0.295 OA
ATOM      9  C   UNL     1      10.886 -28.666  22.594  1.00  0.00     0.093 C 
ENDBRANCH   6   7
ENDBRANCH   1   5
TORSDOF 4
ENDMDL
MODEL 6
REMARK VINA RESULT:    -3.823     10.871     11.809
REMARK INTER + INTRA:          -4.951
REMARK INTER:                  -4.789
REMARK INTRA:                  -0.163
REMARK UNBOUND:                -0.234
REMARK SMILES CCCCC=CC(C)=O
REMARK SMILES IDX 4 1 3 2 2 3 1 4 5 5 6 6 7 7 9 8 8 9
REMARK H PARENT
REMARK Flexibility Score: inf
ROOT
ATOM      1  C   UNL     1      21.778 -26.106  20.119  1.00  0.00     0.027 C 
ENDROOT
BRANCH   1   2
ATOM      2  C   UNL     1      20.277 -25.795  20.122  1.00  0.00     0.004 C 
BRANCH   2   3
ATOM      3  C   UNL     1      19.456 -27.053  20.431  1.00  0.00    -0.003 C 
ATOM      4  C   UNL     1      20.362 -28.239  20.744  1.00  0.00     0.004 C 
ENDBRANCH   2   3
ENDBRANCH   1   2
BRANCH   1   5
ATOM      5  C   UNL     1      22.594 -24.847  20.044  1.00  0.00    -0.023 C 
ATOM      6  C   UNL     1      23.041 -24.237  21.149  1.00  0.00     0.042 C 
BRANCH   6   7
ATOM      7  C   UNL     1      23.836 -22.994  21.124  1.00  0.00     0.152 C 
ATOM      8  O   UNL     1      24.475 -22.707  20.077  1.00  0.00    -0.295 OA
ATOM      9  C   UNL     1      23.909 -22.062  22.297  1.00  0.00     0.093 C 
ENDBRANCH   6   7
ENDBRANCH   1   5
TORSDOF 4
ENDMDL
MODEL 7
REMARK VINA RESULT:    -3.757      2.441      4.927
REMARK INTER + INTRA:          -4.869
REMARK INTER:                  -4.588
REMARK INTRA:                  -0.281
REMARK UNBOUND:                -0.234
REMARK SMILES CCCCC=CC(C)=O
REMARK SMILES IDX 4 1 3 2 2 3 1 4 5 5 6 6 7 7 9 8 8 9
REMARK H PARENT
REMARK Flexibility Score: inf
ROOT
ATOM      1  C   UNL     1      15.079 -30.446  22.692  1.00  0.00     0.027 C 
ENDROOT
BRANCH   1   2
ATOM      2  C   UNL     1      14.449 -31.816  22.967  1.00  0.00     0.004 C 
BRANCH   2   3
ATOM      3  C   UNL     1      14.351 -32.643  21.679  1.00  0.00    -0.003 C 
ATOM      4  C   UNL     1      13.484 -31.941  20.638  1.00  0.00     0.004 C 
ENDBRANCH   2   3
ENDBRANCH   1   2
BRANCH   1   5
ATOM      5  C   UNL     1      14.258 -29.340  23.291  1.00  0.00    -0.023 C 
ATOM      6  C   UNL     1      12.921 -29.342  23.214  1.00  0.00     0.042 C 
BRANCH   6   7
ATOM      7  C   UNL     1      12.074 -28.272  23.777  1.00  0.00     0.152 C 
ATOM      8  O   UNL     1      10.875 -28.189  23.399  1.00  0.00    -0.295 OA
ATOM      9  C   UNL     1      12.588 -27.282  24.780  1.00  0.00     0.093 C 
ENDBRANCH   6   7
ENDBRANCH   1   5
TORSDOF 4
ENDMDL
MODEL 8
REMARK VINA RESULT:    -3.755      3.511      6.794
REMARK INTER + INTRA:          -4.867
REMARK INTER:                  -4.702
REMARK INTRA:                  -0.165
REMARK UNBOUND:                -0.234
REMARK SMILES CCCCC=CC(C)=O
REMARK SMILES IDX 4 1 3 2 2 3 1 4 5 5 6 6 7 7 9 8 8 9
REMARK H PARENT
REMARK Flexibility Score: inf
ROOT
ATOM      1  C   UNL     1      15.417 -35.073  20.239  1.00  0.00     0.027 C 
ENDROOT
BRANCH   1   2
ATOM      2  C   UNL     1      16.550 -34.693  19.278  1.00  0.00     0.004 C 
BRANCH   2   3
ATOM      3  C   UNL     1      17.645 -35.767  19.270  1.00  0.00    -0.003 C 
ATOM      4  C   UNL     1      17.269 -36.945  20.163  1.00  0.00     0.004 C 
ENDBRANCH   2   3
ENDBRANCH   1   2
BRANCH   1   5
ATOM      5  C   UNL     1      15.027 -33.910  21.106  1.00  0.00    -0.023 C 
ATOM      6  C   UNL     1      14.262 -32.915  20.637  1.00  0.00     0.042 C 
BRANCH   6   7
ATOM      7  C   UNL     1      13.863 -31.748  21.447  1.00  0.00     0.152 C 
ATOM      8  O   UNL     1      14.612 -31.385  22.394  1.00  0.00    -0.295 OA
ATOM      9  C   UNL     1      12.602 -30.979  21.185  1.00  0.00     0.093 C 
ENDBRANCH   6   7
ENDBRANCH   1   5
TORSDOF 4
ENDMDL
MODEL 9
REMARK VINA RESULT:    -3.742      7.055      9.261
REMARK INTER + INTRA:          -4.851
REMARK INTER:                  -4.602
REMARK INTRA:                  -0.249
REMARK UNBOUND:                -0.234
REMARK SMILES CCCCC=CC(C)=O
REMARK SMILES IDX 4 1 3 2 2 3 1 4 5 5 6 6 7 7 9 8 8 9
REMARK H PARENT
REMARK Flexibility Score: inf
ROOT
ATOM      1  C   UNL     1      17.817 -37.746  26.832  1.00  0.00     0.027 C 
ENDROOT
BRANCH   1   2
ATOM      2  C   UNL     1      16.309 -37.912  27.053  1.00  0.00     0.004 C 
BRANCH   2   3
ATOM      3  C   UNL     1      15.992 -38.124  28.538  1.00  0.00    -0.003 C 
ATOM      4  C   UNL     1      17.211 -37.838  29.409  1.00  0.00     0.004 C 
ENDBRANCH   2   3
ENDBRANCH   1   2
BRANCH   1   5
ATOM      5  C   UNL     1      18.122 -36.471  26.098  1.00  0.00    -0.023 C 
ATOM      6  C   UNL     1      17.150 -35.735  25.543  1.00  0.00     0.042 C 
BRANCH   6   7
ATOM      7  C   UNL     1      17.403 -34.484  24.802  1.00  0.00     0.152 C 
ATOM      8  O   UNL     1      16.951 -34.373  23.632  1.00  0.00    -0.295 OA
ATOM      9  C   UNL     1      18.177 -33.342  25.392  1.00  0.00     0.093 C 
ENDBRANCH   6   7
ENDBRANCH   1   5
TORSDOF 4
ENDMDL
