MODEL 1
REMARK VINA RESULT:    -4.413      0.000      0.000
REMARK INTER + INTRA:          -4.693
REMARK INTER:                  -4.671
REMARK INTRA:                  -0.022
REMARK UNBOUND:                -0.022
REMARK SMILES O=C([O-])c1cccnc1
REMARK SMILES IDX 4 1 5 2 9 3 6 4 8 5 7 6 2 7 1 8 3 9
REMARK H PARENT
REMARK Flexibility Score: inf
ROOT
ATOM      1  C   UNL     1       5.188 -37.291  23.207  1.00  0.00     0.016 A 
ATOM      2  C   UNL     1       5.297 -36.195  22.334  1.00  0.00     0.013 A 
ATOM      3  C   UNL     1       4.915 -38.556  22.659  1.00  0.00     0.120 A 
ATOM      4  C   UNL     1       5.135 -36.375  20.959  1.00  0.00     0.021 A 
ATOM      5  N   UNL     1       4.761 -38.704  21.316  1.00  0.00    -0.264 NA
ATOM      6  C   UNL     1       4.865 -37.651  20.463  1.00  0.00     0.111 A 
ENDROOT
BRANCH   1   7
ATOM      7  C   UNL     1       5.357 -37.122  24.666  1.00  0.00     0.073 C 
ATOM      8  O   UNL     1       6.125 -36.234  25.124  1.00  0.00    -0.545 OA
ATOM      9  O   UNL     1       4.669 -37.940  25.553  1.00  0.00    -0.545 OA
ENDBRANCH   1   7
TORSDOF 1
ENDMDL
MODEL 2
REMARK VINA RESULT:    -4.400      2.831      3.623
REMARK INTER + INTRA:          -4.679
REMARK INTER:                  -4.655
REMARK INTRA:                  -0.024
REMARK UNBOUND:                -0.022
REMARK SMILES O=C([O-])c1cccnc1
REMARK SMILES IDX 4 1 5 2 9 3 6 4 8 5 7 6 2 7 1 8 3 9
REMARK H PARENT
REMARK Flexibility Score: inf
ROOT
ATOM      1  C   UNL     1       5.044 -37.799  21.917  1.00  0.00     0.016 A 
ATOM      2  C   UNL     1       5.273 -36.862  22.939  1.00  0.00     0.013 A 
ATOM      3  C   UNL     1       4.786 -39.132  22.279  1.00  0.00     0.120 A 
ATOM      4  C   UNL     1       5.242 -37.262  24.277  1.00  0.00     0.021 A 
ATOM      5  N   UNL     1       4.762 -39.496  23.590  1.00  0.00    -0.264 NA
ATOM      6  C   UNL     1       4.982 -38.598  24.585  1.00  0.00     0.111 A 
ENDROOT
BRANCH   1   7
ATOM      7  C   UNL     1       5.073 -37.397  20.494  1.00  0.00     0.073 C 
ATOM      8  O   UNL     1       5.445 -36.239  20.164  1.00  0.00    -0.545 OA
ATOM      9  O   UNL     1       4.690 -38.290  19.502  1.00  0.00    -0.545 OA
ENDBRANCH   1   7
TORSDOF 1
ENDMDL
MODEL 3
REMARK VINA RESULT:    -4.367      0.923      1.602
REMARK INTER + INTRA:          -4.644
REMARK INTER:                  -4.623
REMARK INTRA:                  -0.021
REMARK UNBOUND:                -0.022
REMARK SMILES O=C([O-])c1cccnc1
REMARK SMILES IDX 4 1 5 2 9 3 6 4 8 5 7 6 2 7 1 8 3 9
REMARK H PARENT
REMARK Flexibility Score: inf
ROOT
ATOM      1  C   UNL     1       5.232 -37.266  23.176  1.00  0.00     0.016 A 
ATOM      2  C   UNL     1       5.001 -38.541  22.632  1.00  0.00     0.013 A 
ATOM      3  C   UNL     1       5.335 -36.173  22.298  1.00  0.00     0.120 A 
ATOM      4  C   UNL     1       4.879 -38.701  21.250  1.00  0.00     0.021 A 
ATOM      5  N   UNL     1       5.213 -36.357  20.956  1.00  0.00    -0.264 NA
ATOM      6  C   UNL     1       4.989 -37.585  20.419  1.00  0.00     0.111 A 
ENDROOT
BRANCH   1   7
ATOM      7  C   UNL     1       5.365 -37.075  24.637  1.00  0.00     0.073 C 
ATOM      8  O   UNL     1       6.125 -36.182  25.099  1.00  0.00    -0.545 OA
ATOM      9  O   UNL     1       4.653 -37.878  25.519  1.00  0.00    -0.545 OA
ENDBRANCH   1   7
TORSDOF 1
ENDMDL
MODEL 4
REMARK VINA RESULT:    -4.342      2.834      3.834
REMARK INTER + INTRA:          -4.618
REMARK INTER:                  -4.597
REMARK INTRA:                  -0.021
REMARK UNBOUND:                -0.022
REMARK SMILES O=C([O-])c1cccnc1
REMARK SMILES IDX 4 1 5 2 9 3 6 4 8 5 7 6 2 7 1 8 3 9
REMARK H PARENT
REMARK Flexibility Score: inf
ROOT
ATOM      1  C   UNL     1       5.242 -37.230  22.435  1.00  0.00     0.016 A 
ATOM      2  C   UNL     1       5.000 -38.553  22.841  1.00  0.00     0.013 A 
ATOM      3  C   UNL     1       5.415 -36.249  23.425  1.00  0.00     0.120 A 
ATOM      4  C   UNL     1       4.935 -38.869  24.199  1.00  0.00     0.021 A 
ATOM      5  N   UNL     1       5.347 -36.583  24.742  1.00  0.00    -0.264 NA
ATOM      6  C   UNL     1       5.114 -37.859  25.145  1.00  0.00     0.111 A 
ENDROOT
BRANCH   1   7
ATOM      7  C   UNL     1       5.313 -36.874  21.001  1.00  0.00     0.073 C 
ATOM      8  O   UNL     1       6.103 -35.977  20.602  1.00  0.00    -0.545 OA
ATOM      9  O   UNL     1       4.510 -37.526  20.074  1.00  0.00    -0.545 OA
ENDBRANCH   1   7
TORSDOF 1
ENDMDL
MODEL 5
REMARK VINA RESULT:    -4.283      1.441      2.138
REMARK INTER + INTRA:          -4.555
REMARK INTER:                  -4.533
REMARK INTRA:                  -0.022
REMARK UNBOUND:                -0.022
REMARK SMILES O=C([O-])c1cccnc1
REMARK SMILES IDX 4 1 5 2 9 3 6 4 8 5 7 6 2 7 1 8 3 9
REMARK H PARENT
REMARK Flexibility Score: inf
ROOT
ATOM      1  C   UNL     1       5.115 -37.952  23.028  1.00  0.00     0.016 A 
ATOM      2  C   UNL     1       4.659 -38.541  21.836  1.00  0.00     0.013 A 
ATOM      3  C   UNL     1       5.704 -36.678  22.961  1.00  0.00     0.120 A 
ATOM      4  C   UNL     1       4.797 -37.863  20.623  1.00  0.00     0.021 A 
ATOM      5  N   UNL     1       5.826 -36.040  21.766  1.00  0.00    -0.264 NA
ATOM      6  C   UNL     1       5.389 -36.600  20.608  1.00  0.00     0.111 A 
ENDROOT
BRANCH   1   7
ATOM      7  C   UNL     1       4.980 -38.653  24.324  1.00  0.00     0.073 C 
ATOM      8  O   UNL     1       5.000 -39.912  24.376  1.00  0.00    -0.545 OA
ATOM      9  O   UNL     1       4.828 -37.932  25.501  1.00  0.00    -0.545 OA
ENDBRANCH   1   7
TORSDOF 1
ENDMDL
MODEL 6
REMARK VINA RESULT:    -4.247      3.308      4.211
REMARK INTER + INTRA:          -4.517
REMARK INTER:                  -4.494
REMARK INTRA:                  -0.023
REMARK UNBOUND:                -0.022
REMARK SMILES O=C([O-])c1cccnc1
REMARK SMILES IDX 4 1 5 2 9 3 6 4 8 5 7 6 2 7 1 8 3 9
REMARK H PARENT
REMARK Flexibility Score: inf
ROOT
ATOM      1  C   UNL     1       4.702 -37.322  20.985  1.00  0.00     0.016 A 
ATOM      2  C   UNL     1       4.713 -38.641  21.469  1.00  0.00     0.013 A 
ATOM      3  C   UNL     1       4.935 -36.275  21.893  1.00  0.00     0.120 A 
ATOM      4  C   UNL     1       4.950 -38.889  22.823  1.00  0.00     0.021 A 
ATOM      5  N   UNL     1       5.163 -36.544  23.207  1.00  0.00    -0.264 NA
ATOM      6  C   UNL     1       5.176 -37.816  23.685  1.00  0.00     0.111 A 
ENDROOT
BRANCH   1   7
ATOM      7  C   UNL     1       4.452 -37.037  19.555  1.00  0.00     0.073 C 
ATOM      8  O   UNL     1       4.720 -35.905  19.071  1.00  0.00    -0.545 OA
ATOM      9  O   UNL     1       3.918 -38.015  18.726  1.00  0.00    -0.545 OA
ENDBRANCH   1   7
TORSDOF 1
ENDMDL
MODEL 7
REMARK VINA RESULT:    -4.243      2.653      3.380
REMARK INTER + INTRA:          -4.513
REMARK INTER:                  -4.490
REMARK INTRA:                  -0.023
REMARK UNBOUND:                -0.022
REMARK SMILES O=C([O-])c1cccnc1
REMARK SMILES IDX 4 1 5 2 9 3 6 4 8 5 7 6 2 7 1 8 3 9
REMARK H PARENT
REMARK Flexibility Score: inf
ROOT
ATOM      1  C   UNL     1       5.236 -37.599  22.866  1.00  0.00     0.016 A 
ATOM      2  C   UNL     1       5.615 -36.324  22.412  1.00  0.00     0.013 A 
ATOM      3  C   UNL     1       5.317 -37.868  24.243  1.00  0.00     0.120 A 
ATOM      4  C   UNL     1       6.061 -35.361  23.319  1.00  0.00     0.021 A 
ATOM      5  N   UNL     1       5.756 -36.912  25.105  1.00  0.00    -0.264 NA
ATOM      6  C   UNL     1       6.124 -35.677  24.676  1.00  0.00     0.111 A 
ENDROOT
BRANCH   1   7
ATOM      7  C   UNL     1       4.761 -38.633  21.922  1.00  0.00     0.073 C 
ATOM      8  O   UNL     1       4.958 -38.509  20.684  1.00  0.00    -0.545 OA
ATOM      9  O   UNL     1       4.092 -39.757  22.388  1.00  0.00    -0.545 OA
ENDBRANCH   1   7
TORSDOF 1
ENDMDL
MODEL 8
REMARK VINA RESULT:    -4.186      2.239      3.214
REMARK INTER + INTRA:          -4.453
REMARK INTER:                  -4.431
REMARK INTRA:                  -0.022
REMARK UNBOUND:                -0.022
REMARK SMILES O=C([O-])c1cccnc1
REMARK SMILES IDX 4 1 5 2 9 3 6 4 8 5 7 6 2 7 1 8 3 9
REMARK H PARENT
REMARK Flexibility Score: inf
ROOT
ATOM      1  C   UNL     1       5.235 -37.989  23.412  1.00  0.00     0.016 A 
ATOM      2  C   UNL     1       5.572 -37.459  24.669  1.00  0.00     0.013 A 
ATOM      3  C   UNL     1       5.338 -37.155  22.285  1.00  0.00     0.120 A 
ATOM      4  C   UNL     1       5.996 -36.133  24.779  1.00  0.00     0.021 A 
ATOM      5  N   UNL     1       5.754 -35.867  22.421  1.00  0.00    -0.264 NA
ATOM      6  C   UNL     1       6.082 -35.344  23.631  1.00  0.00     0.111 A 
ENDROOT
BRANCH   1   7
ATOM      7  C   UNL     1       4.783 -39.391  23.273  1.00  0.00     0.073 C 
ATOM      8  O   UNL     1       5.158 -40.269  24.096  1.00  0.00    -0.545 OA
ATOM      9  O   UNL     1       3.939 -39.758  22.233  1.00  0.00    -0.545 OA
ENDBRANCH   1   7
TORSDOF 1
ENDMDL
MODEL 9
REMARK VINA RESULT:    -4.157      4.061      5.004
REMARK INTER + INTRA:          -4.421
REMARK INTER:                  -4.401
REMARK INTRA:                  -0.021
REMARK UNBOUND:                -0.022
REMARK SMILES O=C([O-])c1cccnc1
REMARK SMILES IDX 4 1 5 2 9 3 6 4 8 5 7 6 2 7 1 8 3 9
REMARK H PARENT
REMARK Flexibility Score: inf
ROOT
ATOM      1  C   UNL     1       3.857 -37.521  19.497  1.00  0.00     0.016 A 
ATOM      2  C   UNL     1       4.100 -38.137  20.736  1.00  0.00     0.013 A 
ATOM      3  C   UNL     1       4.598 -36.375  19.163  1.00  0.00     0.120 A 
ATOM      4  C   UNL     1       5.057 -37.609  21.605  1.00  0.00     0.021 A 
ATOM      5  N   UNL     1       5.525 -35.882  20.028  1.00  0.00    -0.264 NA
ATOM      6  C   UNL     1       5.768 -36.469  21.229  1.00  0.00     0.111 A 
ENDROOT
BRANCH   1   7
ATOM      7  C   UNL     1       2.846 -38.064  18.563  1.00  0.00     0.073 C 
ATOM      8  O   UNL     1       3.050 -38.047  17.319  1.00  0.00    -0.545 OA
ATOM      9  O   UNL     1       1.658 -38.599  19.044  1.00  0.00    -0.545 OA
ENDBRANCH   1   7
TORSDOF 1
ENDMDL
