MODEL 1
REMARK VINA RESULT:    -4.931      0.000      0.000
REMARK INTER + INTRA:          -5.400
REMARK INTER:                  -5.364
REMARK INTRA:                  -0.036
REMARK UNBOUND:                -0.036
REMARK SMILES O=C([O-])c1ccc(O)cc1
REMARK SMILES IDX 7 1 6 2 9 3 5 4 10 5 4 6 8 7 2 9 1 10 3 11
REMARK H PARENT 8 8
REMARK Flexibility Score: inf
ROOT
ATOM      1  C   UNL     1     157.021 136.654 158.489  1.00  0.00     0.115 A 
ATOM      2  C   UNL     1     156.783 136.131 159.763  1.00  0.00     0.047 A 
ATOM      3  C   UNL     1     157.322 138.014 158.342  1.00  0.00     0.047 A 
ATOM      4  C   UNL     1     156.843 136.959 160.888  1.00  0.00     0.014 A 
ATOM      5  C   UNL     1     157.382 138.846 159.464  1.00  0.00     0.014 A 
ATOM      6  C   UNL     1     157.144 138.326 160.750  1.00  0.00    -0.003 A 
ENDROOT
BRANCH   1   7
ATOM      7  O   UNL     1     156.958 135.816 157.378  1.00  0.00    -0.508 OA
ATOM      8  H   UNL     1     157.611 135.906 156.609  1.00  0.00     0.293 HD
ENDBRANCH   1   7
BRANCH   6   9
ATOM      9  C   UNL     1     157.208 139.201 161.941  1.00  0.00     0.071 C 
ATOM     10  O   UNL     1     157.081 138.720 163.099  1.00  0.00    -0.545 OA
ATOM     11  O   UNL     1     157.408 140.570 161.799  1.00  0.00    -0.545 OA
ENDBRANCH   6   9
TORSDOF 2
ENDMDL
MODEL 2
REMARK VINA RESULT:    -4.619      1.230      4.407
REMARK INTER + INTRA:          -5.060
REMARK INTER:                  -5.028
REMARK INTRA:                  -0.032
REMARK UNBOUND:                -0.036
REMARK SMILES O=C([O-])c1ccc(O)cc1
REMARK SMILES IDX 7 1 6 2 9 3 5 4 10 5 4 6 8 7 2 9 1 10 3 11
REMARK H PARENT 8 8
REMARK Flexibility Score: inf
ROOT
ATOM      1  C   UNL     1     157.736 140.072 161.338  1.00  0.00     0.115 A 
ATOM      2  C   UNL     1     157.959 140.004 159.961  1.00  0.00     0.047 A 
ATOM      3  C   UNL     1     157.262 138.944 162.021  1.00  0.00     0.047 A 
ATOM      4  C   UNL     1     157.711 138.818 159.263  1.00  0.00     0.014 A 
ATOM      5  C   UNL     1     157.012 137.756 161.327  1.00  0.00     0.014 A 
ATOM      6  C   UNL     1     157.235 137.681 159.940  1.00  0.00    -0.003 A 
ENDROOT
BRANCH   1   7
ATOM      7  O   UNL     1     157.988 141.261 162.020  1.00  0.00    -0.508 OA
ATOM      8  H   UNL     1     157.525 142.125 161.766  1.00  0.00     0.293 HD
ENDBRANCH   1   7
BRANCH   6   9
ATOM      9  C   UNL     1     156.973 136.426 159.201  1.00  0.00     0.071 C 
ATOM     10  O   UNL     1     157.724 136.071 158.253  1.00  0.00    -0.545 OA
ATOM     11  O   UNL     1     155.893 135.620 159.542  1.00  0.00    -0.545 OA
ENDBRANCH   6   9
TORSDOF 2
ENDMDL
MODEL 3
REMARK VINA RESULT:    -4.518     19.736     20.949
REMARK INTER + INTRA:          -4.951
REMARK INTER:                  -4.923
REMARK INTRA:                  -0.028
REMARK UNBOUND:                -0.036
REMARK SMILES O=C([O-])c1ccc(O)cc1
REMARK SMILES IDX 7 1 6 2 9 3 5 4 10 5 4 6 8 7 2 9 1 10 3 11
REMARK H PARENT 8 8
REMARK Flexibility Score: inf
ROOT
ATOM      1  C   UNL     1     148.331 145.350 143.676  1.00  0.00     0.115 A 
ATOM      2  C   UNL     1     148.362 146.019 144.902  1.00  0.00     0.047 A 
ATOM      3  C   UNL     1     147.174 145.400 142.886  1.00  0.00     0.047 A 
ATOM      4  C   UNL     1     147.245 146.735 145.344  1.00  0.00     0.014 A 
ATOM      5  C   UNL     1     146.055 146.115 143.325  1.00  0.00     0.014 A 
ATOM      6  C   UNL     1     146.080 146.791 144.559  1.00  0.00    -0.003 A 
ENDROOT
BRANCH   1   7
ATOM      7  O   UNL     1     149.451 144.640 143.249  1.00  0.00    -0.508 OA
ATOM      8  H   UNL     1     149.439 144.096 142.394  1.00  0.00     0.293 HD
ENDBRANCH   1   7
BRANCH   6   9
ATOM      9  C   UNL     1     144.899 147.550 145.027  1.00  0.00     0.071 C 
ATOM     10  O   UNL     1     144.186 147.110 145.968  1.00  0.00    -0.545 OA
ATOM     11  O   UNL     1     144.560 148.761 144.435  1.00  0.00    -0.545 OA
ENDBRANCH   6   9
TORSDOF 2
ENDMDL
MODEL 4
REMARK VINA RESULT:    -3.548     10.852     12.642
REMARK INTER + INTRA:          -3.895
REMARK INTER:                  -3.861
REMARK INTRA:                  -0.035
REMARK UNBOUND:                -0.036
REMARK SMILES O=C([O-])c1ccc(O)cc1
REMARK SMILES IDX 7 1 6 2 9 3 5 4 10 5 4 6 8 7 2 9 1 10 3 11
REMARK H PARENT 8 8
REMARK Flexibility Score: inf
ROOT
ATOM      1  C   UNL     1     151.690 141.616 151.475  1.00  0.00     0.115 A 
ATOM      2  C   UNL     1     152.878 142.344 151.375  1.00  0.00     0.047 A 
ATOM      3  C   UNL     1     151.214 140.906 150.364  1.00  0.00     0.047 A 
ATOM      4  C   UNL     1     153.591 142.368 150.172  1.00  0.00     0.014 A 
ATOM      5  C   UNL     1     151.924 140.928 149.160  1.00  0.00     0.014 A 
ATOM      6  C   UNL     1     153.121 141.660 149.052  1.00  0.00    -0.003 A 
ENDROOT
BRANCH   1   7
ATOM      7  O   UNL     1     150.990 141.601 152.680  1.00  0.00    -0.508 OA
ATOM      8  H   UNL     1     149.978 141.552 152.704  1.00  0.00     0.293 HD
ENDBRANCH   1   7
BRANCH   6   9
ATOM      9  C   UNL     1     153.877 141.686 147.781  1.00  0.00     0.071 C 
ATOM     10  O   UNL     1     153.307 141.418 146.689  1.00  0.00    -0.545 OA
ATOM     11  O   UNL     1     155.230 142.006 147.772  1.00  0.00    -0.545 OA
ENDBRANCH   6   9
TORSDOF 2
ENDMDL
MODEL 5
REMARK VINA RESULT:    -3.533     10.843     12.613
REMARK INTER + INTRA:          -3.879
REMARK INTER:                  -3.844
REMARK INTRA:                  -0.035
REMARK UNBOUND:                -0.036
REMARK SMILES O=C([O-])c1ccc(O)cc1
REMARK SMILES IDX 7 1 6 2 9 3 5 4 10 5 4 6 8 7 2 9 1 10 3 11
REMARK H PARENT 8 8
REMARK Flexibility Score: inf
ROOT
ATOM      1  C   UNL     1     151.691 141.632 151.477  1.00  0.00     0.115 A 
ATOM      2  C   UNL     1     151.200 140.948 150.361  1.00  0.00     0.047 A 
ATOM      3  C   UNL     1     152.900 142.335 151.383  1.00  0.00     0.047 A 
ATOM      4  C   UNL     1     151.908 140.963 149.156  1.00  0.00     0.014 A 
ATOM      5  C   UNL     1     153.612 142.351 150.180  1.00  0.00     0.014 A 
ATOM      6  C   UNL     1     153.122 141.666 149.053  1.00  0.00    -0.003 A 
ENDROOT
BRANCH   1   7
ATOM      7  O   UNL     1     150.974 141.608 152.671  1.00  0.00    -0.508 OA
ATOM      8  H   UNL     1     150.561 140.753 153.024  1.00  0.00     0.293 HD
ENDBRANCH   1   7
BRANCH   6   9
ATOM      9  C   UNL     1     153.870 141.680 147.777  1.00  0.00     0.071 C 
ATOM     10  O   UNL     1     153.288 141.426 146.689  1.00  0.00    -0.545 OA
ATOM     11  O   UNL     1     155.229 141.976 147.761  1.00  0.00    -0.545 OA
ENDBRANCH   6   9
TORSDOF 2
ENDMDL
MODEL 6
REMARK VINA RESULT:    -3.503     20.840     21.658
REMARK INTER + INTRA:          -3.847
REMARK INTER:                  -3.812
REMARK INTRA:                  -0.035
REMARK UNBOUND:                -0.036
REMARK SMILES O=C([O-])c1ccc(O)cc1
REMARK SMILES IDX 7 1 6 2 9 3 5 4 10 5 4 6 8 7 2 9 1 10 3 11
REMARK H PARENT 8 8
REMARK Flexibility Score: inf
ROOT
ATOM      1  C   UNL     1     144.257 147.367 145.499  1.00  0.00     0.115 A 
ATOM      2  C   UNL     1     144.933 148.343 144.763  1.00  0.00     0.047 A 
ATOM      3  C   UNL     1     144.726 146.046 145.495  1.00  0.00     0.047 A 
ATOM      4  C   UNL     1     146.072 148.008 144.023  1.00  0.00     0.014 A 
ATOM      5  C   UNL     1     145.863 145.706 144.757  1.00  0.00     0.014 A 
ATOM      6  C   UNL     1     146.549 146.685 144.013  1.00  0.00    -0.003 A 
ENDROOT
BRANCH   1   7
ATOM      7  O   UNL     1     143.124 147.716 146.231  1.00  0.00    -0.508 OA
ATOM      8  H   UNL     1     143.069 147.558 147.230  1.00  0.00     0.293 HD
ENDBRANCH   1   7
BRANCH   6   9
ATOM      9  C   UNL     1     147.754 146.332 143.231  1.00  0.00     0.071 C 
ATOM     10  O   UNL     1     147.961 145.141 142.875  1.00  0.00    -0.545 OA
ATOM     11  O   UNL     1     148.675 147.311 142.877  1.00  0.00    -0.545 OA
ENDBRANCH   6   9
TORSDOF 2
ENDMDL
MODEL 7
REMARK VINA RESULT:    -3.355     19.758     20.982
REMARK INTER + INTRA:          -3.685
REMARK INTER:                  -3.658
REMARK INTRA:                  -0.028
REMARK UNBOUND:                -0.036
REMARK SMILES O=C([O-])c1ccc(O)cc1
REMARK SMILES IDX 7 1 6 2 9 3 5 4 10 5 4 6 8 7 2 9 1 10 3 11
REMARK H PARENT 8 8
REMARK Flexibility Score: inf
ROOT
ATOM      1  C   UNL     1     148.345 145.362 143.682  1.00  0.00     0.115 A 
ATOM      2  C   UNL     1     147.206 145.441 142.875  1.00  0.00     0.047 A 
ATOM      3  C   UNL     1     148.367 146.023 144.917  1.00  0.00     0.047 A 
ATOM      4  C   UNL     1     146.093 146.176 143.295  1.00  0.00     0.014 A 
ATOM      5  C   UNL     1     147.257 146.759 145.341  1.00  0.00     0.014 A 
ATOM      6  C   UNL     1     146.107 146.842 144.534  1.00  0.00    -0.003 A 
ENDROOT
BRANCH   1   7
ATOM      7  O   UNL     1     149.447 144.627 143.250  1.00  0.00    -0.508 OA
ATOM      8  H   UNL     1     149.981 144.050 143.888  1.00  0.00     0.293 HD
ENDBRANCH   1   7
BRANCH   6   9
ATOM      9  C   UNL     1     144.928 147.618 144.977  1.00  0.00     0.071 C 
ATOM     10  O   UNL     1     144.200 147.199 145.917  1.00  0.00    -0.545 OA
ATOM     11  O   UNL     1     144.607 148.823 144.363  1.00  0.00    -0.545 OA
ENDBRANCH   6   9
TORSDOF 2
ENDMDL
MODEL 8
REMARK VINA RESULT:    -3.059     11.608     12.539
REMARK INTER + INTRA:          -3.364
REMARK INTER:                  -3.328
REMARK INTRA:                  -0.036
REMARK UNBOUND:                -0.036
REMARK SMILES O=C([O-])c1ccc(O)cc1
REMARK SMILES IDX 7 1 6 2 9 3 5 4 10 5 4 6 8 7 2 9 1 10 3 11
REMARK H PARENT 8 8
REMARK Flexibility Score: inf
ROOT
ATOM      1  C   UNL     1     151.017 141.035 149.858  1.00  0.00     0.115 A 
ATOM      2  C   UNL     1     151.565 140.841 148.587  1.00  0.00     0.047 A 
ATOM      3  C   UNL     1     151.773 141.674 150.850  1.00  0.00     0.047 A 
ATOM      4  C   UNL     1     152.861 141.281 148.303  1.00  0.00     0.014 A 
ATOM      5  C   UNL     1     153.070 142.115 150.570  1.00  0.00     0.014 A 
ATOM      6  C   UNL     1     153.628 141.923 149.292  1.00  0.00    -0.003 A 
ENDROOT
BRANCH   1   7
ATOM      7  O   UNL     1     149.724 140.591 150.127  1.00  0.00    -0.508 OA
ATOM      8  H   UNL     1     148.973 141.240 150.332  1.00  0.00     0.293 HD
ENDBRANCH   1   7
BRANCH   6   9
ATOM      9  C   UNL     1     154.999 142.389 148.989  1.00  0.00     0.071 C 
ATOM     10  O   UNL     1     155.620 143.125 149.801  1.00  0.00    -0.545 OA
ATOM     11  O   UNL     1     155.621 142.020 147.802  1.00  0.00    -0.545 OA
ENDBRANCH   6   9
TORSDOF 2
ENDMDL
MODEL 9
REMARK VINA RESULT:    -2.864     11.353     12.345
REMARK INTER + INTRA:          -3.151
REMARK INTER:                  -3.115
REMARK INTRA:                  -0.036
REMARK UNBOUND:                -0.036
REMARK SMILES O=C([O-])c1ccc(O)cc1
REMARK SMILES IDX 7 1 6 2 9 3 5 4 10 5 4 6 8 7 2 9 1 10 3 11
REMARK H PARENT 8 8
REMARK Flexibility Score: inf
ROOT
ATOM      1  C   UNL     1     154.765 142.135 148.253  1.00  0.00     0.115 A 
ATOM      2  C   UNL     1     153.690 141.371 147.792  1.00  0.00     0.047 A 
ATOM      3  C   UNL     1     154.730 142.674 149.546  1.00  0.00     0.047 A 
ATOM      4  C   UNL     1     152.582 141.144 148.613  1.00  0.00     0.014 A 
ATOM      5  C   UNL     1     153.623 142.450 150.371  1.00  0.00     0.014 A 
ATOM      6  C   UNL     1     152.537 141.681 149.912  1.00  0.00    -0.003 A 
ENDROOT
BRANCH   1   7
ATOM      7  O   UNL     1     155.863 142.353 147.424  1.00  0.00    -0.508 OA
ATOM      8  H   UNL     1     156.772 141.956 147.632  1.00  0.00     0.293 HD
ENDBRANCH   1   7
BRANCH   6   9
ATOM      9  C   UNL     1     151.364 141.439 150.780  1.00  0.00     0.071 C 
ATOM     10  O   UNL     1     150.317 140.915 150.313  1.00  0.00    -0.545 OA
ATOM     11  O   UNL     1     151.399 141.787 152.126  1.00  0.00    -0.545 OA
ENDBRANCH   6   9
TORSDOF 2
ENDMDL
