MODEL 1
REMARK VINA RESULT:    12.411      0.000      0.000
REMARK INTER + INTRA:          23.036
REMARK INTER:                  24.020
REMARK INTRA:                  -0.984
REMARK UNBOUND:                -0.984
REMARK SMILES CCCCCCCCCCCCCCCCCC(=O)[O-]
REMARK SMILES IDX 10 1 11 2 12 3 13 4 14 5 15 6 16 7 17 8 18 9 19 10 20 11
REMARK SMILES IDX 9 12 8 13 7 14 6 15 5 16 4 17 3 18 2 19 1 20
REMARK H PARENT
REMARK Flexibility Score: inf
ROOT
ATOM      1  C   UNL     1      14.833  16.433  18.245  1.00  0.00     0.000 C 
ENDROOT
BRANCH   1   2
ATOM      2  C   UNL     1      13.915  15.896  17.133  1.00  0.00     0.000 C 
BRANCH   2   3
ATOM      3  C   UNL     1      14.301  14.484  16.647  1.00  0.00     0.000 C 
BRANCH   3   4
ATOM      4  C   UNL     1      14.018  13.410  17.713  1.00  0.00     0.000 C 
BRANCH   4   5
ATOM      5  C   UNL     1      13.520  12.090  17.102  1.00  0.00     0.000 C 
BRANCH   5   6
ATOM      6  C   UNL     1      12.106  11.720  17.584  1.00  0.00     0.000 C 
BRANCH   6   7
ATOM      7  C   UNL     1      11.001  12.446  16.792  1.00  0.00     0.006 C 
BRANCH   7   8
ATOM      8  C   UNL     1       9.907  11.509  16.255  1.00  0.00     0.053 C 
BRANCH   8   9
ATOM      9  C   UNL     1       8.842  12.243  15.503  1.00  0.00     0.041 C 
ATOM     10  O   UNL     1       8.085  13.052  16.103  1.00  0.00    -0.550 OA
ATOM     11  O   UNL     1       8.673  12.023  14.141  1.00  0.00    -0.550 OA
ENDBRANCH   8   9
ENDBRANCH   7   8
ENDBRANCH   6   7
ENDBRANCH   5   6
ENDBRANCH   4   5
ENDBRANCH   3   4
ENDBRANCH   2   3
ENDBRANCH   1   2
BRANCH   1  12
ATOM     12  C   UNL     1      15.711  17.606  17.781  1.00  0.00     0.000 C 
BRANCH  12  13
ATOM     13  C   UNL     1      16.720  18.059  18.861  1.00  0.00    -0.000 C 
BRANCH  13  14
ATOM     14  C   UNL     1      16.207  19.218  19.736  1.00  0.00    -0.000 C 
BRANCH  14  15
ATOM     15  C   UNL     1      17.165  20.418  19.834  1.00  0.00    -0.000 C 
BRANCH  15  16
ATOM     16  C   UNL     1      16.947  21.477  18.729  1.00  0.00    -0.000 C 
BRANCH  16  17
ATOM     17  C   UNL     1      15.464  21.655  18.362  1.00  0.00    -0.000 C 
BRANCH  17  18
ATOM     18  C   UNL     1      15.231  21.776  16.845  1.00  0.00    -0.000 C 
BRANCH  18  19
ATOM     19  C   UNL     1      16.481  22.152  16.028  1.00  0.00    -0.003 C 
ATOM     20  C   UNL     1      16.393  21.719  14.565  1.00  0.00     0.004 C 
ENDBRANCH  18  19
ENDBRANCH  17  18
ENDBRANCH  16  17
ENDBRANCH  15  16
ENDBRANCH  14  15
ENDBRANCH  13  14
ENDBRANCH  12  13
ENDBRANCH   1  12
TORSDOF 16
ENDMDL
MODEL 2
REMARK VINA RESULT:    12.439      3.598      9.429
REMARK INTER + INTRA:          23.090
REMARK INTER:                  23.868
REMARK INTRA:                  -0.777
REMARK UNBOUND:                -0.984
REMARK SMILES CCCCCCCCCCCCCCCCCC(=O)[O-]
REMARK SMILES IDX 10 1 11 2 12 3 13 4 14 5 15 6 16 7 17 8 18 9 19 10 20 11
REMARK SMILES IDX 9 12 8 13 7 14 6 15 5 16 4 17 3 18 2 19 1 20
REMARK H PARENT
REMARK Flexibility Score: inf
ROOT
ATOM      1  C   UNL     1      15.184  15.758  17.666  1.00  0.00     0.000 C 
ENDROOT
BRANCH   1   2
ATOM      2  C   UNL     1      15.149  17.271  17.948  1.00  0.00     0.000 C 
BRANCH   2   3
ATOM      3  C   UNL     1      16.446  17.804  18.591  1.00  0.00     0.000 C 
BRANCH   3   4
ATOM      4  C   UNL     1      16.158  18.772  19.753  1.00  0.00     0.000 C 
BRANCH   4   5
ATOM      5  C   UNL     1      17.103  19.984  19.758  1.00  0.00     0.000 C 
BRANCH   5   6
ATOM      6  C   UNL     1      16.383  21.287  19.366  1.00  0.00     0.000 C 
BRANCH   6   7
ATOM      7  C   UNL     1      16.597  21.660  17.885  1.00  0.00     0.006 C 
BRANCH   7   8
ATOM      8  C   UNL     1      15.291  21.785  17.083  1.00  0.00     0.053 C 
BRANCH   8   9
ATOM      9  C   UNL     1      15.439  21.314  15.671  1.00  0.00     0.041 C 
ATOM     10  O   UNL     1      14.669  20.429  15.214  1.00  0.00    -0.550 OA
ATOM     11  O   UNL     1      16.438  21.842  14.862  1.00  0.00    -0.550 OA
ENDBRANCH   8   9
ENDBRANCH   7   8
ENDBRANCH   6   7
ENDBRANCH   5   6
ENDBRANCH   4   5
ENDBRANCH   3   4
ENDBRANCH   2   3
ENDBRANCH   1   2
BRANCH   1  12
ATOM     12  C   UNL     1      13.840  15.216  17.153  1.00  0.00     0.000 C 
BRANCH  12  13
ATOM     13  C   UNL     1      13.938  13.756  16.652  1.00  0.00    -0.000 C 
BRANCH  13  14
ATOM     14  C   UNL     1      13.735  12.710  17.763  1.00  0.00    -0.000 C 
BRANCH  14  15
ATOM     15  C   UNL     1      12.395  11.955  17.694  1.00  0.00    -0.000 C 
BRANCH  15  16
ATOM     16  C   UNL     1      11.436  12.493  16.607  1.00  0.00    -0.000 C 
BRANCH  16  17
ATOM     17  C   UNL     1      10.117  11.705  16.536  1.00  0.00    -0.000 C 
BRANCH  17  18
ATOM     18  C   UNL     1       8.880  12.614  16.431  1.00  0.00    -0.000 C 
BRANCH  18  19
ATOM     19  C   UNL     1       8.117  12.516  15.097  1.00  0.00    -0.003 C 
ATOM     20  C   UNL     1       8.809  11.612  14.076  1.00  0.00     0.004 C 
ENDBRANCH  18  19
ENDBRANCH  17  18
ENDBRANCH  16  17
ENDBRANCH  15  16
ENDBRANCH  14  15
ENDBRANCH  13  14
ENDBRANCH  12  13
ENDBRANCH   1  12
TORSDOF 16
ENDMDL
MODEL 3
REMARK VINA RESULT:    12.467      1.202      2.644
REMARK INTER + INTRA:          23.144
REMARK INTER:                  23.890
REMARK INTRA:                  -0.747
REMARK UNBOUND:                -0.984
REMARK SMILES CCCCCCCCCCCCCCCCCC(=O)[O-]
REMARK SMILES IDX 10 1 11 2 12 3 13 4 14 5 15 6 16 7 17 8 18 9 19 10 20 11
REMARK SMILES IDX 9 12 8 13 7 14 6 15 5 16 4 17 3 18 2 19 1 20
REMARK H PARENT
REMARK Flexibility Score: inf
ROOT
ATOM      1  C   UNL     1      14.421  16.802  17.385  1.00  0.00     0.000 C 
ENDROOT
BRANCH   1   2
ATOM      2  C   UNL     1      14.606  15.312  17.720  1.00  0.00     0.000 C 
BRANCH   2   3
ATOM      3  C   UNL     1      13.823  14.370  16.783  1.00  0.00     0.000 C 
BRANCH   3   4
ATOM      4  C   UNL     1      14.486  12.986  16.669  1.00  0.00     0.000 C 
BRANCH   4   5
ATOM      5  C   UNL     1      13.602  11.861  17.233  1.00  0.00     0.000 C 
BRANCH   5   6
ATOM      6  C   UNL     1      12.195  12.359  17.610  1.00  0.00     0.000 C 
BRANCH   6   7
ATOM      7  C   UNL     1      11.277  12.527  16.383  1.00  0.00     0.006 C 
BRANCH   7   8
ATOM      8  C   UNL     1      10.001  11.671  16.443  1.00  0.00     0.053 C 
BRANCH   8   9
ATOM      9  C   UNL     1       8.873  12.271  15.664  1.00  0.00     0.041 C 
ATOM     10  O   UNL     1       8.053  13.043  16.228  1.00  0.00    -0.550 OA
ATOM     11  O   UNL     1       8.716  11.965  14.318  1.00  0.00    -0.550 OA
ENDBRANCH   8   9
ENDBRANCH   7   8
ENDBRANCH   6   7
ENDBRANCH   5   6
ENDBRANCH   4   5
ENDBRANCH   3   4
ENDBRANCH   2   3
ENDBRANCH   1   2
BRANCH   1  12
ATOM     12  C   UNL     1      13.539  17.030  16.146  1.00  0.00     0.000 C 
BRANCH  12  13
ATOM     13  C   UNL     1      13.299  18.529  15.853  1.00  0.00    -0.000 C 
BRANCH  13  14
ATOM     14  C   UNL     1      14.588  19.307  15.529  1.00  0.00    -0.000 C 
BRANCH  14  15
ATOM     15  C   UNL     1      14.462  20.835  15.656  1.00  0.00    -0.000 C 
BRANCH  15  16
ATOM     16  C   UNL     1      15.688  21.505  16.316  1.00  0.00    -0.000 C 
BRANCH  16  17
ATOM     17  C   UNL     1      15.482  21.774  17.817  1.00  0.00    -0.000 C 
BRANCH  17  18
ATOM     18  C   UNL     1      16.763  21.566  18.645  1.00  0.00    -0.000 C 
BRANCH  18  19
ATOM     19  C   UNL     1      16.608  20.615  19.846  1.00  0.00    -0.003 C 
ATOM     20  C   UNL     1      16.677  19.139  19.455  1.00  0.00     0.004 C 
ENDBRANCH  18  19
ENDBRANCH  17  18
ENDBRANCH  16  17
ENDBRANCH  15  16
ENDBRANCH  14  15
ENDBRANCH  13  14
ENDBRANCH  12  13
ENDBRANCH   1  12
TORSDOF 16
ENDMDL
MODEL 4
REMARK VINA RESULT:    12.710      0.728      1.136
REMARK INTER + INTRA:          23.615
REMARK INTER:                  24.539
REMARK INTRA:                  -0.924
REMARK UNBOUND:                -0.984
REMARK SMILES CCCCCCCCCCCCCCCCCC(=O)[O-]
REMARK SMILES IDX 10 1 11 2 12 3 13 4 14 5 15 6 16 7 17 8 18 9 19 10 20 11
REMARK SMILES IDX 9 12 8 13 7 14 6 15 5 16 4 17 3 18 2 19 1 20
REMARK H PARENT
REMARK Flexibility Score: inf
ROOT
ATOM      1  C   UNL     1      15.510  16.427  18.177  1.00  0.00     0.000 C 
ENDROOT
BRANCH   1   2
ATOM      2  C   UNL     1      14.180  15.935  17.578  1.00  0.00     0.000 C 
BRANCH   2   3
ATOM      3  C   UNL     1      14.323  14.641  16.750  1.00  0.00     0.000 C 
BRANCH   3   4
ATOM      4  C   UNL     1      14.354  13.386  17.641  1.00  0.00     0.000 C 
BRANCH   4   5
ATOM      5  C   UNL     1      13.659  12.181  16.985  1.00  0.00     0.000 C 
BRANCH   5   6
ATOM      6  C   UNL     1      12.239  11.955  17.536  1.00  0.00     0.000 C 
BRANCH   6   7
ATOM      7  C   UNL     1      11.148  12.535  16.615  1.00  0.00     0.006 C 
BRANCH   7   8
ATOM      8  C   UNL     1       9.906  11.638  16.487  1.00  0.00     0.053 C 
BRANCH   8   9
ATOM      9  C   UNL     1       8.861  12.230  15.594  1.00  0.00     0.041 C 
ATOM     10  O   UNL     1       8.879  11.997  14.356  1.00  0.00    -0.550 OA
ATOM     11  O   UNL     1       7.875  13.052  16.125  1.00  0.00    -0.550 OA
ENDBRANCH   8   9
ENDBRANCH   7   8
ENDBRANCH   6   7
ENDBRANCH   5   6
ENDBRANCH   4   5
ENDBRANCH   3   4
ENDBRANCH   2   3
ENDBRANCH   1   2
BRANCH   1  12
ATOM     12  C   UNL     1      15.442  17.884  18.666  1.00  0.00     0.000 C 
BRANCH  12  13
ATOM     13  C   UNL     1      16.838  18.481  18.954  1.00  0.00    -0.000 C 
BRANCH  13  14
ATOM     14  C   UNL     1      16.851  19.476  20.130  1.00  0.00    -0.000 C 
BRANCH  14  15
ATOM     15  C   UNL     1      16.399  20.902  19.766  1.00  0.00    -0.000 C 
BRANCH  15  16
ATOM     16  C   UNL     1      16.868  21.363  18.368  1.00  0.00    -0.000 C 
BRANCH  16  17
ATOM     17  C   UNL     1      15.699  21.752  17.447  1.00  0.00    -0.000 C 
BRANCH  17  18
ATOM     18  C   UNL     1      16.154  22.139  16.029  1.00  0.00    -0.000 C 
BRANCH  18  19
ATOM     19  C   UNL     1      15.698  21.175  14.919  1.00  0.00    -0.003 C 
ATOM     20  C   UNL     1      14.526  20.288  15.339  1.00  0.00     0.004 C 
ENDBRANCH  18  19
ENDBRANCH  17  18
ENDBRANCH  16  17
ENDBRANCH  15  16
ENDBRANCH  14  15
ENDBRANCH  13  14
ENDBRANCH  12  13
ENDBRANCH   1  12
TORSDOF 16
ENDMDL
MODEL 5
REMARK VINA RESULT:    12.997      4.346      9.594
REMARK INTER + INTRA:          24.170
REMARK INTER:                  24.707
REMARK INTRA:                  -0.537
REMARK UNBOUND:                -0.984
REMARK SMILES CCCCCCCCCCCCCCCCCC(=O)[O-]
REMARK SMILES IDX 10 1 11 2 12 3 13 4 14 5 15 6 16 7 17 8 18 9 19 10 20 11
REMARK SMILES IDX 9 12 8 13 7 14 6 15 5 16 4 17 3 18 2 19 1 20
REMARK H PARENT
REMARK Flexibility Score: inf
ROOT
ATOM      1  C   UNL     1      13.981  12.491  16.683  1.00  0.00     0.000 C 
ENDROOT
BRANCH   1   2
ATOM      2  C   UNL     1      14.610  13.881  16.483  1.00  0.00     0.000 C 
BRANCH   2   3
ATOM      3  C   UNL     1      13.701  15.037  16.948  1.00  0.00     0.000 C 
BRANCH   3   4
ATOM      4  C   UNL     1      14.454  16.379  17.002  1.00  0.00     0.000 C 
BRANCH   4   5
ATOM      5  C   UNL     1      14.835  16.784  18.434  1.00  0.00     0.000 C 
BRANCH   5   6
ATOM      6  C   UNL     1      15.976  17.817  18.465  1.00  0.00     0.000 C 
BRANCH   6   7
ATOM      7  C   UNL     1      15.934  18.709  19.721  1.00  0.00     0.006 C 
BRANCH   7   8
ATOM      8  C   UNL     1      17.152  19.637  19.863  1.00  0.00     0.053 C 
BRANCH   8   9
ATOM      9  C   UNL     1      16.865  21.033  19.406  1.00  0.00     0.041 C 
ATOM     10  O   UNL     1      15.803  21.610  19.761  1.00  0.00    -0.550 OA
ATOM     11  O   UNL     1      17.762  21.693  18.577  1.00  0.00    -0.550 OA
ENDBRANCH   8   9
ENDBRANCH   7   8
ENDBRANCH   6   7
ENDBRANCH   5   6
ENDBRANCH   4   5
ENDBRANCH   3   4
ENDBRANCH   2   3
ENDBRANCH   1   2
BRANCH   1  12
ATOM     12  C   UNL     1      13.280  12.341  18.043  1.00  0.00     0.000 C 
BRANCH  12  13
ATOM     13  C   UNL     1      11.869  11.722  17.921  1.00  0.00    -0.000 C 
BRANCH  13  14
ATOM     14  C   UNL     1      11.072  12.240  16.710  1.00  0.00    -0.000 C 
BRANCH  14  15
ATOM     15  C   UNL     1       9.984  11.277  16.201  1.00  0.00    -0.000 C 
BRANCH  15  16
ATOM     16  C   UNL     1       9.126  11.861  15.057  1.00  0.00    -0.000 C 
BRANCH  16  17
ATOM     17  C   UNL     1       8.007  12.786  15.566  1.00  0.00    -0.000 C 
BRANCH  17  18
ATOM     18  C   UNL     1       8.190  13.195  17.039  1.00  0.00    -0.000 C 
BRANCH  18  19
ATOM     19  C   UNL     1       8.085  14.707  17.307  1.00  0.00    -0.003 C 
ATOM     20  C   UNL     1       7.875  15.041  18.784  1.00  0.00     0.004 C 
ENDBRANCH  18  19
ENDBRANCH  17  18
ENDBRANCH  16  17
ENDBRANCH  15  16
ENDBRANCH  14  15
ENDBRANCH  13  14
ENDBRANCH  12  13
ENDBRANCH   1  12
TORSDOF 16
ENDMDL
MODEL 6
REMARK VINA RESULT:    12.997      1.613      3.618
REMARK INTER + INTRA:          24.171
REMARK INTER:                  24.833
REMARK INTRA:                  -0.663
REMARK UNBOUND:                -0.984
REMARK SMILES CCCCCCCCCCCCCCCCCC(=O)[O-]
REMARK SMILES IDX 10 1 11 2 12 3 13 4 14 5 15 6 16 7 17 8 18 9 19 10 20 11
REMARK SMILES IDX 9 12 8 13 7 14 6 15 5 16 4 17 3 18 2 19 1 20
REMARK H PARENT
REMARK Flexibility Score: inf
ROOT
ATOM      1  C   UNL     1      14.563  12.712  16.417  1.00  0.00     0.000 C 
ENDROOT
BRANCH   1   2
ATOM      2  C   UNL     1      13.837  11.614  17.213  1.00  0.00     0.000 C 
BRANCH   2   3
ATOM      3  C   UNL     1      12.506  12.084  17.834  1.00  0.00     0.000 C 
BRANCH   3   4
ATOM      4  C   UNL     1      11.437  12.367  16.763  1.00  0.00     0.000 C 
BRANCH   4   5
ATOM      5  C   UNL     1      10.080  11.729  17.102  1.00  0.00     0.000 C 
BRANCH   5   6
ATOM      6  C   UNL     1       9.031  12.776  17.520  1.00  0.00     0.000 C 
BRANCH   6   7
ATOM      7  C   UNL     1       8.129  13.211  16.348  1.00  0.00     0.006 C 
BRANCH   7   8
ATOM      8  C   UNL     1       7.876  12.100  15.315  1.00  0.00     0.053 C 
BRANCH   8   9
ATOM      9  C   UNL     1       8.824  12.166  14.160  1.00  0.00     0.041 C 
ATOM     10  O   UNL     1       9.509  13.203  13.960  1.00  0.00    -0.550 OA
ATOM     11  O   UNL     1       8.942  11.086  13.293  1.00  0.00    -0.550 OA
ENDBRANCH   8   9
ENDBRANCH   7   8
ENDBRANCH   6   7
ENDBRANCH   5   6
ENDBRANCH   4   5
ENDBRANCH   3   4
ENDBRANCH   2   3
ENDBRANCH   1   2
BRANCH   1  12
ATOM     12  C   UNL     1      14.604  14.059  17.159  1.00  0.00     0.000 C 
BRANCH  12  13
ATOM     13  C   UNL     1      13.771  15.153  16.453  1.00  0.00    -0.000 C 
BRANCH  13  14
ATOM     14  C   UNL     1      13.961  16.557  17.057  1.00  0.00    -0.000 C 
BRANCH  14  15
ATOM     15  C   UNL     1      15.116  16.667  18.069  1.00  0.00    -0.000 C 
BRANCH  15  16
ATOM     16  C   UNL     1      15.305  18.090  18.641  1.00  0.00    -0.000 C 
BRANCH  16  17
ATOM     17  C   UNL     1      16.771  18.400  18.991  1.00  0.00    -0.000 C 
BRANCH  17  18
ATOM     18  C   UNL     1      16.914  19.317  20.218  1.00  0.00    -0.000 C 
BRANCH  18  19
ATOM     19  C   UNL     1      16.533  20.788  19.972  1.00  0.00    -0.003 C 
ATOM     20  C   UNL     1      17.146  21.361  18.695  1.00  0.00     0.004 C 
ENDBRANCH  18  19
ENDBRANCH  17  18
ENDBRANCH  16  17
ENDBRANCH  15  16
ENDBRANCH  14  15
ENDBRANCH  13  14
ENDBRANCH  12  13
ENDBRANCH   1  12
TORSDOF 16
ENDMDL
MODEL 7
REMARK VINA RESULT:    13.012      4.341      9.610
REMARK INTER + INTRA:          24.200
REMARK INTER:                  25.207
REMARK INTRA:                  -1.007
REMARK UNBOUND:                -0.984
REMARK SMILES CCCCCCCCCCCCCCCCCC(=O)[O-]
REMARK SMILES IDX 10 1 11 2 12 3 13 4 14 5 15 6 16 7 17 8 18 9 19 10 20 11
REMARK SMILES IDX 9 12 8 13 7 14 6 15 5 16 4 17 3 18 2 19 1 20
REMARK H PARENT
REMARK Flexibility Score: inf
ROOT
ATOM      1  C   UNL     1      14.746  13.927  16.752  1.00  0.00     0.000 C 
ENDROOT
BRANCH   1   2
ATOM      2  C   UNL     1      13.613  14.943  16.527  1.00  0.00     0.000 C 
BRANCH   2   3
ATOM      3  C   UNL     1      13.944  16.357  17.048  1.00  0.00     0.000 C 
BRANCH   3   4
ATOM      4  C   UNL     1      14.872  16.318  18.276  1.00  0.00     0.000 C 
BRANCH   4   5
ATOM      5  C   UNL     1      16.263  16.901  17.981  1.00  0.00     0.000 C 
BRANCH   5   6
ATOM      6  C   UNL     1      16.358  18.395  18.342  1.00  0.00     0.000 C 
BRANCH   6   7
ATOM      7  C   UNL     1      16.125  18.658  19.843  1.00  0.00     0.006 C 
BRANCH   7   8
ATOM      8  C   UNL     1      16.910  19.861  20.391  1.00  0.00     0.053 C 
BRANCH   8   9
ATOM      9  C   UNL     1      16.730  21.090  19.557  1.00  0.00     0.041 C 
ATOM     10  O   UNL     1      15.634  21.711  19.571  1.00  0.00    -0.550 OA
ATOM     11  O   UNL     1      17.767  21.543  18.751  1.00  0.00    -0.550 OA
ENDBRANCH   8   9
ENDBRANCH   7   8
ENDBRANCH   6   7
ENDBRANCH   5   6
ENDBRANCH   4   5
ENDBRANCH   3   4
ENDBRANCH   2   3
ENDBRANCH   1   2
BRANCH   1  12
ATOM     12  C   UNL     1      14.237  12.481  16.869  1.00  0.00     0.000 C 
BRANCH  12  13
ATOM     13  C   UNL     1      13.133  12.323  17.939  1.00  0.00    -0.000 C 
BRANCH  13  14
ATOM     14  C   UNL     1      11.872  11.606  17.421  1.00  0.00    -0.000 C 
BRANCH  14  15
ATOM     15  C   UNL     1      10.821  12.536  16.789  1.00  0.00    -0.000 C 
BRANCH  15  16
ATOM     16  C   UNL     1       9.364  12.100  17.061  1.00  0.00    -0.000 C 
BRANCH  16  17
ATOM     17  C   UNL     1       8.347  12.843  16.178  1.00  0.00    -0.000 C 
BRANCH  17  18
ATOM     18  C   UNL     1       8.669  12.741  14.676  1.00  0.00    -0.000 C 
BRANCH  18  19
ATOM     19  C   UNL     1       8.731  11.305  14.125  1.00  0.00    -0.003 C 
ATOM     20  C   UNL     1       9.453  11.208  12.781  1.00  0.00     0.004 C 
ENDBRANCH  18  19
ENDBRANCH  17  18
ENDBRANCH  16  17
ENDBRANCH  15  16
ENDBRANCH  14  15
ENDBRANCH  13  14
ENDBRANCH  12  13
ENDBRANCH   1  12
TORSDOF 16
ENDMDL
MODEL 8
REMARK VINA RESULT:    13.206      6.286      9.290
REMARK INTER + INTRA:          24.574
REMARK INTER:                  25.177
REMARK INTRA:                  -0.602
REMARK UNBOUND:                -0.984
REMARK SMILES CCCCCCCCCCCCCCCCCC(=O)[O-]
REMARK SMILES IDX 10 1 11 2 12 3 13 4 14 5 15 6 16 7 17 8 18 9 19 10 20 11
REMARK SMILES IDX 9 12 8 13 7 14 6 15 5 16 4 17 3 18 2 19 1 20
REMARK H PARENT
REMARK Flexibility Score: inf
ROOT
ATOM      1  C   UNL     1      16.198  10.662  15.259  1.00  0.00     0.000 C 
ENDROOT
BRANCH   1   2
ATOM      2  C   UNL     1      16.012   9.189  14.852  1.00  0.00     0.000 C 
BRANCH   2   3
ATOM      3  C   UNL     1      15.760   8.997  13.342  1.00  0.00     0.000 C 
BRANCH   3   4
ATOM      4  C   UNL     1      16.771   9.779  12.484  1.00  0.00     0.000 C 
BRANCH   4   5
ATOM      5  C   UNL     1      16.859   9.245  11.045  1.00  0.00     0.000 C 
BRANCH   5   6
ATOM      6  C   UNL     1      16.377  10.277  10.009  1.00  0.00     0.000 C 
BRANCH   6   7
ATOM      7  C   UNL     1      17.192  11.584  10.051  1.00  0.00     0.006 C 
BRANCH   7   8
ATOM      8  C   UNL     1      16.388  12.829   9.641  1.00  0.00     0.053 C 
BRANCH   8   9
ATOM      9  C   UNL     1      17.025  14.101  10.105  1.00  0.00     0.041 C 
ATOM     10  O   UNL     1      16.882  14.484  11.296  1.00  0.00    -0.550 OA
ATOM     11  O   UNL     1      17.765  14.873   9.218  1.00  0.00    -0.550 OA
ENDBRANCH   8   9
ENDBRANCH   7   8
ENDBRANCH   6   7
ENDBRANCH   5   6
ENDBRANCH   4   5
ENDBRANCH   3   4
ENDBRANCH   2   3
ENDBRANCH   1   2
BRANCH   1  12
ATOM     12  C   UNL     1      15.137  11.143  16.261  1.00  0.00     0.000 C 
BRANCH  12  13
ATOM     13  C   UNL     1      14.861  12.660  16.154  1.00  0.00    -0.000 C 
BRANCH  13  14
ATOM     14  C   UNL     1      13.801  13.165  17.151  1.00  0.00    -0.000 C 
BRANCH  14  15
ATOM     15  C   UNL     1      12.608  12.214  17.352  1.00  0.00    -0.000 C 
BRANCH  15  16
ATOM     16  C   UNL     1      11.321  12.673  16.630  1.00  0.00    -0.000 C 
BRANCH  16  17
ATOM     17  C   UNL     1      10.258  11.564  16.549  1.00  0.00    -0.000 C 
BRANCH  17  18
ATOM     18  C   UNL     1       9.276  11.758  15.379  1.00  0.00    -0.000 C 
BRANCH  18  19
ATOM     19  C   UNL     1       8.242  12.880  15.584  1.00  0.00    -0.003 C 
ATOM     20  C   UNL     1       8.035  13.244  17.054  1.00  0.00     0.004 C 
ENDBRANCH  18  19
ENDBRANCH  17  18
ENDBRANCH  16  17
ENDBRANCH  15  16
ENDBRANCH  14  15
ENDBRANCH  13  14
ENDBRANCH  12  13
ENDBRANCH   1  12
TORSDOF 16
ENDMDL
