MODEL 1
REMARK VINA RESULT:    -3.995      0.000      0.000
REMARK INTER + INTRA:          -9.069
REMARK INTER:                  -7.031
REMARK INTRA:                  -2.038
REMARK UNBOUND:                -2.038
REMARK SMILES CCCCCCC=CCCCCCCCC(=O)[O-]
REMARK SMILES IDX 10 1 11 2 12 3 13 4 14 5 15 6 16 7 17 8 18 9 9 10 8 11 7 12
REMARK SMILES IDX 6 13 5 14 4 15 3 16 2 17 1 18
REMARK H PARENT
REMARK Flexibility Score: inf
ROOT
ATOM      1  C   UNL     1      16.694  20.712  16.327  1.00  0.00     0.004 C 
ENDROOT
BRANCH   1   2
ATOM      2  C   UNL     1      17.003  22.182  16.661  1.00  0.00     0.000 C 
BRANCH   2   3
ATOM      3  C   UNL     1      18.512  22.466  16.733  1.00  0.00     0.000 C 
BRANCH   3   4
ATOM      4  C   UNL     1      19.306  21.296  17.332  1.00  0.00     0.000 C 
BRANCH   4   5
ATOM      5  C   UNL     1      20.602  21.055  16.549  1.00  0.00     0.006 C 
BRANCH   5   6
ATOM      6  C   UNL     1      20.490  19.805  15.671  1.00  0.00     0.053 C 
BRANCH   6   7
ATOM      7  C   UNL     1      20.262  20.187  14.242  1.00  0.00     0.041 C 
ATOM      8  O   UNL     1      21.175  20.753  13.585  1.00  0.00    -0.550 OA
ATOM      9  O   UNL     1      19.026  19.961  13.651  1.00  0.00    -0.550 OA
ENDBRANCH   6   7
ENDBRANCH   5   6
ENDBRANCH   4   5
ENDBRANCH   3   4
ENDBRANCH   2   3
ENDBRANCH   1   2
BRANCH   1  10
ATOM     10  C   UNL     1      15.201  20.386  16.481  1.00  0.00     0.027 C 
BRANCH  10  11
ATOM     11  C   UNL     1      14.524  21.282  17.491  1.00  0.00    -0.031 C 
ATOM     12  C   UNL     1      13.627  20.860  18.401  1.00  0.00    -0.031 C 
BRANCH  12  13
ATOM     13  C   UNL     1      13.210  19.419  18.558  1.00  0.00     0.027 C 
BRANCH  13  14
ATOM     14  C   UNL     1      13.407  18.940  20.003  1.00  0.00     0.004 C 
BRANCH  14  15
ATOM     15  C   UNL     1      14.866  19.058  20.483  1.00  0.00     0.000 C 
BRANCH  15  16
ATOM     16  C   UNL     1      15.879  18.206  19.700  1.00  0.00    -0.000 C 
BRANCH  16  17
ATOM     17  C   UNL     1      17.237  18.902  19.523  1.00  0.00    -0.003 C 
ATOM     18  C   UNL     1      18.185  18.050  18.684  1.00  0.00     0.004 C 
ENDBRANCH  16  17
ENDBRANCH  15  16
ENDBRANCH  14  15
ENDBRANCH  13  14
ENDBRANCH  12  13
ENDBRANCH  10  11
ENDBRANCH   1  10
TORSDOF 13
ENDMDL
MODEL 2
REMARK VINA RESULT:    -3.937      2.031      3.839
REMARK INTER + INTRA:          -8.967
REMARK INTER:                  -6.836
REMARK INTRA:                  -2.131
REMARK UNBOUND:                -2.038
REMARK SMILES CCCCCCC=CCCCCCCCC(=O)[O-]
REMARK SMILES IDX 10 1 11 2 12 3 13 4 14 5 15 6 16 7 17 8 18 9 9 10 8 11 7 12
REMARK SMILES IDX 6 13 5 14 4 15 3 16 2 17 1 18
REMARK H PARENT
REMARK Flexibility Score: inf
ROOT
ATOM      1  C   UNL     1      18.686  18.004  15.665  1.00  0.00     0.004 C 
ENDROOT
BRANCH   1   2
ATOM      2  C   UNL     1      18.298  18.730  14.364  1.00  0.00     0.000 C 
BRANCH   2   3
ATOM      3  C   UNL     1      19.465  19.530  13.764  1.00  0.00     0.000 C 
BRANCH   3   4
ATOM      4  C   UNL     1      19.975  20.630  14.706  1.00  0.00     0.000 C 
BRANCH   4   5
ATOM      5  C   UNL     1      21.384  20.304  15.218  1.00  0.00     0.006 C 
BRANCH   5   6
ATOM      6  C   UNL     1      21.470  20.476  16.738  1.00  0.00     0.053 C 
BRANCH   6   7
ATOM      7  C   UNL     1      22.642  21.331  17.103  1.00  0.00     0.041 C 
ATOM      8  O   UNL     1      23.379  21.813  16.203  1.00  0.00    -0.550 OA
ATOM      9  O   UNL     1      22.950  21.555  18.439  1.00  0.00    -0.550 OA
ENDBRANCH   6   7
ENDBRANCH   5   6
ENDBRANCH   4   5
ENDBRANCH   3   4
ENDBRANCH   2   3
ENDBRANCH   1   2
BRANCH   1  10
ATOM     10  C   UNL     1      17.679  18.265  16.794  1.00  0.00     0.027 C 
BRANCH  10  11
ATOM     11  C   UNL     1      18.100  19.413  17.679  1.00  0.00    -0.031 C 
ATOM     12  C   UNL     1      17.670  20.680  17.538  1.00  0.00    -0.031 C 
BRANCH  12  13
ATOM     13  C   UNL     1      16.670  21.111  16.493  1.00  0.00     0.027 C 
BRANCH  13  14
ATOM     14  C   UNL     1      15.515  21.901  17.125  1.00  0.00     0.004 C 
BRANCH  14  15
ATOM     15  C   UNL     1      14.178  21.137  17.100  1.00  0.00     0.000 C 
BRANCH  15  16
ATOM     16  C   UNL     1      13.722  20.579  18.459  1.00  0.00    -0.000 C 
BRANCH  16  17
ATOM     17  C   UNL     1      14.254  19.164  18.735  1.00  0.00    -0.003 C 
ATOM     18  C   UNL     1      15.195  19.158  19.937  1.00  0.00     0.004 C 
ENDBRANCH  16  17
ENDBRANCH  15  16
ENDBRANCH  14  15
ENDBRANCH  13  14
ENDBRANCH  12  13
ENDBRANCH  10  11
ENDBRANCH   1  10
TORSDOF 13
ENDMDL
MODEL 3
REMARK VINA RESULT:    -3.813      3.170      6.612
REMARK INTER + INTRA:          -8.749
REMARK INTER:                  -6.587
REMARK INTRA:                  -2.162
REMARK UNBOUND:                -2.038
REMARK SMILES CCCCCCC=CCCCCCCCC(=O)[O-]
REMARK SMILES IDX 10 1 11 2 12 3 13 4 14 5 15 6 16 7 17 8 18 9 9 10 8 11 7 12
REMARK SMILES IDX 6 13 5 14 4 15 3 16 2 17 1 18
REMARK H PARENT
REMARK Flexibility Score: inf
ROOT
ATOM      1  C   UNL     1      17.482  21.654  16.388  1.00  0.00     0.004 C 
ENDROOT
BRANCH   1   2
ATOM      2  C   UNL     1      16.904  20.440  17.138  1.00  0.00     0.000 C 
BRANCH   2   3
ATOM      3  C   UNL     1      15.413  20.217  16.839  1.00  0.00     0.000 C 
BRANCH   3   4
ATOM      4  C   UNL     1      14.517  21.302  17.456  1.00  0.00     0.000 C 
BRANCH   4   5
ATOM      5  C   UNL     1      13.499  20.688  18.424  1.00  0.00     0.006 C 
BRANCH   5   6
ATOM      6  C   UNL     1      13.855  19.232  18.746  1.00  0.00     0.053 C 
BRANCH   6   7
ATOM      7  C   UNL     1      14.350  19.113  20.153  1.00  0.00     0.041 C 
ATOM      8  O   UNL     1      15.582  19.195  20.399  1.00  0.00    -0.550 OA
ATOM      9  O   UNL     1      13.456  18.861  21.186  1.00  0.00    -0.550 OA
ENDBRANCH   6   7
ENDBRANCH   5   6
ENDBRANCH   4   5
ENDBRANCH   3   4
ENDBRANCH   2   3
ENDBRANCH   1   2
BRANCH   1  10
ATOM     10  C   UNL     1      18.959  21.894  16.731  1.00  0.00     0.027 C 
BRANCH  10  11
ATOM     11  C   UNL     1      19.650  20.633  17.191  1.00  0.00    -0.031 C 
ATOM     12  C   UNL     1      20.555  19.953  16.465  1.00  0.00    -0.031 C 
BRANCH  12  13
ATOM     13  C   UNL     1      21.031  20.390  15.101  1.00  0.00     0.027 C 
BRANCH  13  14
ATOM     14  C   UNL     1      20.484  19.468  14.002  1.00  0.00     0.004 C 
BRANCH  14  15
ATOM     15  C   UNL     1      19.034  19.800  13.604  1.00  0.00     0.000 C 
BRANCH  15  16
ATOM     16  C   UNL     1      17.991  18.742  14.003  1.00  0.00    -0.000 C 
BRANCH  16  17
ATOM     17  C   UNL     1      18.624  17.435  14.503  1.00  0.00    -0.003 C 
ATOM     18  C   UNL     1      18.205  17.137  15.939  1.00  0.00     0.004 C 
ENDBRANCH  16  17
ENDBRANCH  15  16
ENDBRANCH  14  15
ENDBRANCH  13  14
ENDBRANCH  12  13
ENDBRANCH  10  11
ENDBRANCH   1  10
TORSDOF 13
ENDMDL
MODEL 4
REMARK VINA RESULT:    -3.802      2.427      5.123
REMARK INTER + INTRA:          -8.730
REMARK INTER:                  -7.014
REMARK INTRA:                  -1.716
REMARK UNBOUND:                -2.038
REMARK SMILES CCCCCCC=CCCCCCCCC(=O)[O-]
REMARK SMILES IDX 10 1 11 2 12 3 13 4 14 5 15 6 16 7 17 8 18 9 9 10 8 11 7 12
REMARK SMILES IDX 6 13 5 14 4 15 3 16 2 17 1 18
REMARK H PARENT
REMARK Flexibility Score: inf
ROOT
ATOM      1  C   UNL     1      20.671  17.563  14.078  1.00  0.00     0.004 C 
ENDROOT
BRANCH   1   2
ATOM      2  C   UNL     1      21.353  17.279  15.429  1.00  0.00     0.000 C 
BRANCH   2   3
ATOM      3  C   UNL     1      22.502  18.255  15.726  1.00  0.00     0.000 C 
BRANCH   3   4
ATOM      4  C   UNL     1      22.240  19.117  16.970  1.00  0.00     0.000 C 
BRANCH   4   5
ATOM      5  C   UNL     1      22.875  20.505  16.820  1.00  0.00     0.006 C 
BRANCH   5   6
ATOM      6  C   UNL     1      22.942  20.922  15.348  1.00  0.00     0.053 C 
BRANCH   6   7
ATOM      7  C   UNL     1      24.311  21.420  15.007  1.00  0.00     0.041 C 
ATOM      8  O   UNL     1      25.311  20.667  15.139  1.00  0.00    -0.550 OA
ATOM      9  O   UNL     1      24.489  22.733  14.588  1.00  0.00    -0.550 OA
ENDBRANCH   6   7
ENDBRANCH   5   6
ENDBRANCH   4   5
ENDBRANCH   3   4
ENDBRANCH   2   3
ENDBRANCH   1   2
BRANCH   1  10
ATOM     10  C   UNL     1      19.352  18.331  14.248  1.00  0.00     0.027 C 
BRANCH  10  11
ATOM     11  C   UNL     1      19.499  19.797  13.918  1.00  0.00    -0.031 C 
ATOM     12  C   UNL     1      19.313  20.798  14.797  1.00  0.00    -0.031 C 
BRANCH  12  13
ATOM     13  C   UNL     1      18.971  20.580  16.250  1.00  0.00     0.027 C 
BRANCH  13  14
ATOM     14  C   UNL     1      17.828  21.504  16.694  1.00  0.00     0.004 C 
BRANCH  14  15
ATOM     15  C   UNL     1      16.447  20.823  16.636  1.00  0.00     0.000 C 
BRANCH  15  16
ATOM     16  C   UNL     1      15.259  21.729  17.002  1.00  0.00    -0.000 C 
BRANCH  16  17
ATOM     17  C   UNL     1      14.217  21.024  17.884  1.00  0.00    -0.003 C 
ATOM     18  C   UNL     1      14.794  19.754  18.503  1.00  0.00     0.004 C 
ENDBRANCH  16  17
ENDBRANCH  15  16
ENDBRANCH  14  15
ENDBRANCH  13  14
ENDBRANCH  12  13
ENDBRANCH  10  11
ENDBRANCH   1  10
TORSDOF 13
ENDMDL
MODEL 5
REMARK VINA RESULT:    -3.746      1.735      3.527
REMARK INTER + INTRA:          -8.631
REMARK INTER:                  -6.385
REMARK INTRA:                  -2.246
REMARK UNBOUND:                -2.038
REMARK SMILES CCCCCCC=CCCCCCCCC(=O)[O-]
REMARK SMILES IDX 10 1 11 2 12 3 13 4 14 5 15 6 16 7 17 8 18 9 9 10 8 11 7 12
REMARK SMILES IDX 6 13 5 14 4 15 3 16 2 17 1 18
REMARK H PARENT
REMARK Flexibility Score: inf
ROOT
ATOM      1  C   UNL     1      18.613  18.413  17.532  1.00  0.00     0.004 C 
ENDROOT
BRANCH   1   2
ATOM      2  C   UNL     1      17.709  17.617  16.575  1.00  0.00     0.000 C 
BRANCH   2   3
ATOM      3  C   UNL     1      18.290  17.523  15.155  1.00  0.00     0.000 C 
BRANCH   3   4
ATOM      4  C   UNL     1      17.885  18.712  14.271  1.00  0.00     0.000 C 
BRANCH   4   5
ATOM      5  C   UNL     1      19.102  19.583  13.934  1.00  0.00     0.006 C 
BRANCH   5   6
ATOM      6  C   UNL     1      20.406  18.801  14.116  1.00  0.00     0.053 C 
BRANCH   6   7
ATOM      7  C   UNL     1      21.246  19.422  15.187  1.00  0.00     0.041 C 
ATOM      8  O   UNL     1      22.169  18.762  15.730  1.00  0.00    -0.550 OA
ATOM      9  O   UNL     1      20.976  20.715  15.619  1.00  0.00    -0.550 OA
ENDBRANCH   6   7
ENDBRANCH   5   6
ENDBRANCH   4   5
ENDBRANCH   3   4
ENDBRANCH   2   3
ENDBRANCH   1   2
BRANCH   1  10
ATOM     10  C   UNL     1      17.860  19.566  18.213  1.00  0.00     0.027 C 
BRANCH  10  11
ATOM     11  C   UNL     1      18.009  20.867  17.461  1.00  0.00    -0.031 C 
ATOM     12  C   UNL     1      17.059  21.405  16.675  1.00  0.00    -0.031 C 
BRANCH  12  13
ATOM     13  C   UNL     1      15.695  20.792  16.476  1.00  0.00     0.027 C 
BRANCH  13  14
ATOM     14  C   UNL     1      14.646  21.478  17.363  1.00  0.00     0.004 C 
BRANCH  14  15
ATOM     15  C   UNL     1      13.384  20.621  17.575  1.00  0.00     0.000 C 
BRANCH  15  16
ATOM     16  C   UNL     1      13.169  20.125  19.015  1.00  0.00    -0.000 C 
BRANCH  16  17
ATOM     17  C   UNL     1      14.343  19.286  19.542  1.00  0.00    -0.003 C 
ATOM     18  C   UNL     1      14.496  17.995  18.742  1.00  0.00     0.004 C 
ENDBRANCH  16  17
ENDBRANCH  15  16
ENDBRANCH  14  15
ENDBRANCH  13  14
ENDBRANCH  12  13
ENDBRANCH  10  11
ENDBRANCH   1  10
TORSDOF 13
ENDMDL
MODEL 6
REMARK VINA RESULT:    -3.729      1.149      2.735
REMARK INTER + INTRA:          -8.602
REMARK INTER:                  -6.557
REMARK INTRA:                  -2.045
REMARK UNBOUND:                -2.038
REMARK SMILES CCCCCCC=CCCCCCCCC(=O)[O-]
REMARK SMILES IDX 10 1 11 2 12 3 13 4 14 5 15 6 16 7 17 8 18 9 9 10 8 11 7 12
REMARK SMILES IDX 6 13 5 14 4 15 3 16 2 17 1 18
REMARK H PARENT
REMARK Flexibility Score: inf
ROOT
ATOM      1  C   UNL     1      16.294  19.891  16.384  1.00  0.00     0.004 C 
ENDROOT
BRANCH   1   2
ATOM      2  C   UNL     1      16.051  21.332  16.868  1.00  0.00     0.000 C 
BRANCH   2   3
ATOM      3  C   UNL     1      17.294  22.223  16.714  1.00  0.00     0.000 C 
BRANCH   3   4
ATOM      4  C   UNL     1      18.437  21.520  15.966  1.00  0.00     0.000 C 
BRANCH   4   5
ATOM      5  C   UNL     1      19.677  21.388  16.858  1.00  0.00     0.006 C 
BRANCH   5   6
ATOM      6  C   UNL     1      20.310  20.000  16.716  1.00  0.00     0.053 C 
BRANCH   6   7
ATOM      7  C   UNL     1      20.970  19.859  15.381  1.00  0.00     0.041 C 
ATOM      8  O   UNL     1      21.962  20.576  15.086  1.00  0.00    -0.550 OA
ATOM      9  O   UNL     1      20.460  18.970  14.443  1.00  0.00    -0.550 OA
ENDBRANCH   6   7
ENDBRANCH   5   6
ENDBRANCH   4   5
ENDBRANCH   3   4
ENDBRANCH   2   3
ENDBRANCH   1   2
BRANCH   1  10
ATOM     10  C   UNL     1      16.249  18.879  17.538  1.00  0.00     0.027 C 
BRANCH  10  11
ATOM     11  C   UNL     1      17.130  19.291  18.692  1.00  0.00    -0.031 C 
ATOM     12  C   UNL     1      16.922  18.937  19.973  1.00  0.00    -0.031 C 
BRANCH  12  13
ATOM     13  C   UNL     1      15.794  18.039  20.419  1.00  0.00     0.027 C 
BRANCH  13  14
ATOM     14  C   UNL     1      14.943  18.717  21.503  1.00  0.00     0.004 C 
BRANCH  14  15
ATOM     15  C   UNL     1      13.454  18.816  21.123  1.00  0.00     0.000 C 
BRANCH  15  16
ATOM     16  C   UNL     1      13.167  18.838  19.612  1.00  0.00    -0.000 C 
BRANCH  16  17
ATOM     17  C   UNL     1      13.054  20.261  19.044  1.00  0.00    -0.003 C 
ATOM     18  C   UNL     1      12.618  20.234  17.582  1.00  0.00     0.004 C 
ENDBRANCH  16  17
ENDBRANCH  15  16
ENDBRANCH  14  15
ENDBRANCH  13  14
ENDBRANCH  12  13
ENDBRANCH  10  11
ENDBRANCH   1  10
TORSDOF 13
ENDMDL
MODEL 7
REMARK VINA RESULT:    -3.716      1.270      3.132
REMARK INTER + INTRA:          -8.578
REMARK INTER:                  -6.100
REMARK INTRA:                  -2.478
REMARK UNBOUND:                -2.038
REMARK SMILES CCCCCCC=CCCCCCCCC(=O)[O-]
REMARK SMILES IDX 10 1 11 2 12 3 13 4 14 5 15 6 16 7 17 8 18 9 9 10 8 11 7 12
REMARK SMILES IDX 6 13 5 14 4 15 3 16 2 17 1 18
REMARK H PARENT
REMARK Flexibility Score: inf
ROOT
ATOM      1  C   UNL     1      17.101  19.340  19.240  1.00  0.00     0.004 C 
ENDROOT
BRANCH   1   2
ATOM      2  C   UNL     1      18.129  18.369  18.632  1.00  0.00     0.000 C 
BRANCH   2   3
ATOM      3  C   UNL     1      18.957  19.014  17.509  1.00  0.00     0.000 C 
BRANCH   3   4
ATOM      4  C   UNL     1      18.589  20.486  17.274  1.00  0.00     0.000 C 
BRANCH   4   5
ATOM      5  C   UNL     1      18.655  20.836  15.782  1.00  0.00     0.006 C 
BRANCH   5   6
ATOM      6  C   UNL     1      19.393  19.749  14.994  1.00  0.00     0.053 C 
BRANCH   6   7
ATOM      7  C   UNL     1      20.761  20.220  14.609  1.00  0.00     0.041 C 
ATOM      8  O   UNL     1      20.986  20.616  13.436  1.00  0.00    -0.550 OA
ATOM      9  O   UNL     1      21.798  20.174  15.532  1.00  0.00    -0.550 OA
ENDBRANCH   6   7
ENDBRANCH   5   6
ENDBRANCH   4   5
ENDBRANCH   3   4
ENDBRANCH   2   3
ENDBRANCH   1   2
BRANCH   1  10
ATOM     10  C   UNL     1      16.282  18.684  20.362  1.00  0.00     0.027 C 
BRANCH  10  11
ATOM     11  C   UNL     1      15.244  17.728  19.825  1.00  0.00    -0.031 C 
ATOM     12  C   UNL     1      13.964  18.057  19.573  1.00  0.00    -0.031 C 
BRANCH  12  13
ATOM     13  C   UNL     1      13.408  19.448  19.754  1.00  0.00     0.027 C 
BRANCH  13  14
ATOM     14  C   UNL     1      13.123  20.111  18.399  1.00  0.00     0.004 C 
BRANCH  14  15
ATOM     15  C   UNL     1      14.200  21.134  17.992  1.00  0.00     0.000 C 
BRANCH  15  16
ATOM     16  C   UNL     1      14.967  20.794  16.703  1.00  0.00    -0.000 C 
BRANCH  16  17
ATOM     17  C   UNL     1      14.469  19.504  16.033  1.00  0.00    -0.003 C 
ATOM     18  C   UNL     1      15.584  18.465  15.949  1.00  0.00     0.004 C 
ENDBRANCH  16  17
ENDBRANCH  15  16
ENDBRANCH  14  15
ENDBRANCH  13  14
ENDBRANCH  12  13
ENDBRANCH  10  11
ENDBRANCH   1  10
TORSDOF 13
ENDMDL
MODEL 8
REMARK VINA RESULT:    -3.715      1.397      3.095
REMARK INTER + INTRA:          -8.577
REMARK INTER:                  -6.307
REMARK INTRA:                  -2.270
REMARK UNBOUND:                -2.038
REMARK SMILES CCCCCCC=CCCCCCCCC(=O)[O-]
REMARK SMILES IDX 10 1 11 2 12 3 13 4 14 5 15 6 16 7 17 8 18 9 9 10 8 11 7 12
REMARK SMILES IDX 6 13 5 14 4 15 3 16 2 17 1 18
REMARK H PARENT
REMARK Flexibility Score: inf
ROOT
ATOM      1  C   UNL     1      18.305  19.315  17.668  1.00  0.00     0.004 C 
ENDROOT
BRANCH   1   2
ATOM      2  C   UNL     1      18.572  20.791  17.321  1.00  0.00     0.000 C 
BRANCH   2   3
ATOM      3  C   UNL     1      18.329  21.101  15.835  1.00  0.00     0.000 C 
BRANCH   3   4
ATOM      4  C   UNL     1      18.297  19.836  14.964  1.00  0.00     0.000 C 
BRANCH   4   5
ATOM      5  C   UNL     1      19.335  19.920  13.838  1.00  0.00     0.006 C 
BRANCH   5   6
ATOM      6  C   UNL     1      20.431  18.865  14.020  1.00  0.00     0.053 C 
BRANCH   6   7
ATOM      7  C   UNL     1      21.322  19.228  15.166  1.00  0.00     0.041 C 
ATOM      8  O   UNL     1      21.542  18.397  16.085  1.00  0.00    -0.550 OA
ATOM      9  O   UNL     1      21.871  20.502  15.244  1.00  0.00    -0.550 OA
ENDBRANCH   6   7
ENDBRANCH   5   6
ENDBRANCH   4   5
ENDBRANCH   3   4
ENDBRANCH   2   3
ENDBRANCH   1   2
BRANCH   1  10
ATOM     10  C   UNL     1      17.522  19.163  18.980  1.00  0.00     0.027 C 
BRANCH  10  11
ATOM     11  C   UNL     1      16.636  17.940  18.977  1.00  0.00    -0.031 C 
ATOM     12  C   UNL     1      15.481  17.835  19.658  1.00  0.00    -0.031 C 
BRANCH  12  13
ATOM     13  C   UNL     1      14.896  18.952  20.487  1.00  0.00     0.027 C 
BRANCH  13  14
ATOM     14  C   UNL     1      13.444  19.243  20.079  1.00  0.00     0.004 C 
BRANCH  14  15
ATOM     15  C   UNL     1      13.304  19.640  18.598  1.00  0.00     0.000 C 
BRANCH  15  16
ATOM     16  C   UNL     1      13.769  21.066  18.259  1.00  0.00    -0.000 C 
BRANCH  16  17
ATOM     17  C   UNL     1      14.816  21.103  17.135  1.00  0.00    -0.003 C 
ATOM     18  C   UNL     1      14.751  19.838  16.285  1.00  0.00     0.004 C 
ENDBRANCH  16  17
ENDBRANCH  15  16
ENDBRANCH  14  15
ENDBRANCH  13  14
ENDBRANCH  12  13
ENDBRANCH  10  11
ENDBRANCH   1  10
TORSDOF 13
ENDMDL
MODEL 9
REMARK VINA RESULT:    -3.694      4.005      7.721
REMARK INTER + INTRA:          -8.539
REMARK INTER:                  -6.479
REMARK INTRA:                  -2.060
REMARK UNBOUND:                -2.038
REMARK SMILES CCCCCCC=CCCCCCCCC(=O)[O-]
REMARK SMILES IDX 10 1 11 2 12 3 13 4 14 5 15 6 16 7 17 8 18 9 9 10 8 11 7 12
REMARK SMILES IDX 6 13 5 14 4 15 3 16 2 17 1 18
REMARK H PARENT
REMARK Flexibility Score: inf
ROOT
ATOM      1  C   UNL     1      23.437  21.588  16.298  1.00  0.00     0.004 C 
ENDROOT
BRANCH   1   2
ATOM      2  C   UNL     1      22.781  21.093  14.997  1.00  0.00     0.000 C 
BRANCH   2   3
ATOM      3  C   UNL     1      21.518  20.257  15.254  1.00  0.00     0.000 C 
BRANCH   3   4
ATOM      4  C   UNL     1      21.161  20.168  16.745  1.00  0.00     0.000 C 
BRANCH   4   5
ATOM      5  C   UNL     1      19.663  20.413  16.966  1.00  0.00     0.006 C 
BRANCH   5   6
ATOM      6  C   UNL     1      19.128  21.465  15.988  1.00  0.00     0.053 C 
BRANCH   6   7
ATOM      7  C   UNL     1      18.234  22.432  16.697  1.00  0.00     0.041 C 
ATOM      8  O   UNL     1      18.728  23.368  17.380  1.00  0.00    -0.550 OA
ATOM      9  O   UNL     1      16.855  22.272  16.645  1.00  0.00    -0.550 OA
ENDBRANCH   6   7
ENDBRANCH   5   6
ENDBRANCH   4   5
ENDBRANCH   3   4
ENDBRANCH   2   3
ENDBRANCH   1   2
BRANCH   1  10
ATOM     10  C   UNL     1      24.971  21.576  16.212  1.00  0.00     0.027 C 
BRANCH  10  11
ATOM     11  C   UNL     1      25.480  20.515  15.266  1.00  0.00    -0.031 C 
ATOM     12  C   UNL     1      25.772  19.252  15.625  1.00  0.00    -0.031 C 
BRANCH  12  13
ATOM     13  C   UNL     1      25.585  18.717  17.023  1.00  0.00     0.027 C 
BRANCH  13  14
ATOM     14  C   UNL     1      24.230  18.008  17.168  1.00  0.00     0.004 C 
BRANCH  14  15
ATOM     15  C   UNL     1      23.758  17.339  15.863  1.00  0.00     0.000 C 
BRANCH  15  16
ATOM     16  C   UNL     1      22.713  16.225  16.043  1.00  0.00    -0.000 C 
BRANCH  16  17
ATOM     17  C   UNL     1      21.319  16.623  15.535  1.00  0.00    -0.003 C 
ATOM     18  C   UNL     1      21.291  16.694  14.011  1.00  0.00     0.004 C 
ENDBRANCH  16  17
ENDBRANCH  15  16
ENDBRANCH  14  15
ENDBRANCH  13  14
ENDBRANCH  12  13
ENDBRANCH  10  11
ENDBRANCH   1  10
TORSDOF 13
ENDMDL
