MODEL 1
REMARK VINA RESULT:    -6.439      0.000      0.000
REMARK INTER + INTRA:          -6.439
REMARK INTER:                  -6.439
REMARK INTRA:                   0.000
REMARK UNBOUND:                 0.000
REMARK SMILES C=C1[C@@H]2CC[C@@H](C2)C1(C)C
REMARK SMILES IDX 9 1 8 2 6 3 5 4 4 5 3 6 7 7 2 8 1 9 10 10
REMARK H PARENT
REMARK Flexibility Score: inf
ROOT
ATOM      1  C   UNL     1      -4.236 -16.094   6.128  1.00  0.00     0.016 C 
ATOM      2  C   UNL     1      -4.018 -15.241   7.398  1.00  0.00    -0.012 C 
ATOM      3  C   UNL     1      -2.494 -14.954   7.635  1.00  0.00    -0.001 C 
ATOM      4  C   UNL     1      -2.288 -13.944   8.790  1.00  0.00     0.005 C 
ATOM      5  C   UNL     1      -2.739 -14.746  10.031  1.00  0.00     0.008 C 
ATOM      6  C   UNL     1      -3.038 -16.140   9.450  1.00  0.00     0.015 C 
ATOM      7  C   UNL     1      -2.022 -16.225   8.334  1.00  0.00     0.012 C 
ATOM      8  C   UNL     1      -4.310 -16.032   8.652  1.00  0.00    -0.068 C 
ATOM      9  C   UNL     1      -5.501 -16.512   9.029  1.00  0.00     0.008 C 
ATOM     10  C   UNL     1      -4.889 -13.967   7.305  1.00  0.00     0.016 C 
ENDROOT
TORSDOF 0
ENDMDL
MODEL 2
REMARK VINA RESULT:    -6.414      1.243      2.022
REMARK INTER + INTRA:          -6.414
REMARK INTER:                  -6.414
REMARK INTRA:                   0.000
REMARK UNBOUND:                 0.000
REMARK SMILES C=C1[C@@H]2CC[C@@H](C2)C1(C)C
REMARK SMILES IDX 9 1 8 2 6 3 5 4 4 5 3 6 7 7 2 8 1 9 10 10
REMARK H PARENT
REMARK Flexibility Score: inf
ROOT
ATOM      1  C   UNL     1      -5.294 -16.222   7.255  1.00  0.00     0.016 C 
ATOM      2  C   UNL     1      -4.351 -16.196   8.479  1.00  0.00    -0.012 C 
ATOM      3  C   UNL     1      -3.585 -14.830   8.577  1.00  0.00    -0.001 C 
ATOM      4  C   UNL     1      -2.791 -14.728   9.902  1.00  0.00     0.005 C 
ATOM      5  C   UNL     1      -1.686 -15.792   9.722  1.00  0.00     0.008 C 
ATOM      6  C   UNL     1      -1.916 -16.288   8.283  1.00  0.00     0.015 C 
ATOM      7  C   UNL     1      -2.423 -15.032   7.610  1.00  0.00     0.012 C 
ATOM      8  C   UNL     1      -3.171 -17.119   8.288  1.00  0.00    -0.068 C 
ATOM      9  C   UNL     1      -3.214 -18.453   8.194  1.00  0.00     0.008 C 
ATOM     10  C   UNL     1      -5.161 -16.552   9.747  1.00  0.00     0.016 C 
ENDROOT
TORSDOF 0
ENDMDL
MODEL 3
REMARK VINA RESULT:    -6.369      1.095      2.873
REMARK INTER + INTRA:          -6.369
REMARK INTER:                  -6.369
REMARK INTRA:                   0.000
REMARK UNBOUND:                 0.000
REMARK SMILES C=C1[C@@H]2CC[C@@H](C2)C1(C)C
REMARK SMILES IDX 9 1 8 2 6 3 5 4 4 5 3 6 7 7 2 8 1 9 10 10
REMARK H PARENT
REMARK Flexibility Score: inf
ROOT
ATOM      1  C   UNL     1      -1.356 -15.704   8.053  1.00  0.00     0.016 C 
ATOM      2  C   UNL     1      -2.705 -15.666   8.805  1.00  0.00    -0.012 C 
ATOM      3  C   UNL     1      -2.990 -17.028   9.532  1.00  0.00    -0.001 C 
ATOM      4  C   UNL     1      -4.240 -16.926  10.439  1.00  0.00     0.005 C 
ATOM      5  C   UNL     1      -5.391 -16.770   9.421  1.00  0.00     0.008 C 
ATOM      6  C   UNL     1      -4.674 -16.913   8.067  1.00  0.00     0.015 C 
ATOM      7  C   UNL     1      -3.569 -17.886   8.412  1.00  0.00     0.012 C 
ATOM      8  C   UNL     1      -3.872 -15.658   7.846  1.00  0.00    -0.068 C 
ATOM      9  C   UNL     1      -4.185 -14.684   6.983  1.00  0.00     0.008 C 
ATOM     10  C   UNL     1      -2.724 -14.439   9.744  1.00  0.00     0.016 C 
ENDROOT
TORSDOF 0
ENDMDL
MODEL 4
REMARK VINA RESULT:    -6.368      1.354      3.090
REMARK INTER + INTRA:          -6.368
REMARK INTER:                  -6.368
REMARK INTRA:                   0.000
REMARK UNBOUND:                 0.000
REMARK SMILES C=C1[C@@H]2CC[C@@H](C2)C1(C)C
REMARK SMILES IDX 9 1 8 2 6 3 5 4 4 5 3 6 7 7 2 8 1 9 10 10
REMARK H PARENT
REMARK Flexibility Score: inf
ROOT
ATOM      1  C   UNL     1      -3.378 -14.084   8.347  1.00  0.00     0.016 C 
ATOM      2  C   UNL     1      -3.045 -15.553   8.690  1.00  0.00    -0.012 C 
ATOM      3  C   UNL     1      -4.025 -16.542   7.967  1.00  0.00    -0.001 C 
ATOM      4  C   UNL     1      -3.576 -18.011   8.154  1.00  0.00     0.005 C 
ATOM      5  C   UNL     1      -3.809 -18.252   9.662  1.00  0.00     0.008 C 
ATOM      6  C   UNL     1      -4.463 -16.937  10.123  1.00  0.00     0.015 C 
ATOM      7  C   UNL     1      -5.240 -16.539   8.889  1.00  0.00     0.012 C 
ATOM      8  C   UNL     1      -3.393 -15.878  10.124  1.00  0.00    -0.068 C 
ATOM      9  C   UNL     1      -2.818 -15.363  11.217  1.00  0.00     0.008 C 
ATOM     10  C   UNL     1      -1.553 -15.816   8.386  1.00  0.00     0.016 C 
ENDROOT
TORSDOF 0
ENDMDL
MODEL 5
REMARK VINA RESULT:    -6.294      1.219      2.729
REMARK INTER + INTRA:          -6.294
REMARK INTER:                  -6.294
REMARK INTRA:                   0.000
REMARK UNBOUND:                 0.000
REMARK SMILES C=C1[C@@H]2CC[C@@H](C2)C1(C)C
REMARK SMILES IDX 9 1 8 2 6 3 5 4 4 5 3 6 7 7 2 8 1 9 10 10
REMARK H PARENT
REMARK Flexibility Score: inf
ROOT
ATOM      1  C   UNL     1      -4.630 -17.225  10.234  1.00  0.00     0.016 C 
ATOM      2  C   UNL     1      -3.693 -16.896   9.050  1.00  0.00    -0.012 C 
ATOM      3  C   UNL     1      -2.430 -16.096   9.529  1.00  0.00    -0.001 C 
ATOM      4  C   UNL     1      -1.403 -15.935   8.383  1.00  0.00     0.005 C 
ATOM      5  C   UNL     1      -2.127 -14.986   7.403  1.00  0.00     0.008 C 
ATOM      6  C   UNL     1      -3.422 -14.636   8.157  1.00  0.00     0.015 C 
ATOM      7  C   UNL     1      -2.951 -14.664   9.593  1.00  0.00     0.012 C 
ATOM      8  C   UNL     1      -4.300 -15.858   8.135  1.00  0.00    -0.068 C 
ATOM      9  C   UNL     1      -5.399 -16.006   7.385  1.00  0.00     0.008 C 
ATOM     10  C   UNL     1      -3.357 -18.202   8.295  1.00  0.00     0.016 C 
ENDROOT
TORSDOF 0
ENDMDL
MODEL 6
REMARK VINA RESULT:    -6.243      1.198      2.204
REMARK INTER + INTRA:          -6.243
REMARK INTER:                  -6.243
REMARK INTRA:                   0.000
REMARK UNBOUND:                 0.000
REMARK SMILES C=C1[C@@H]2CC[C@@H](C2)C1(C)C
REMARK SMILES IDX 9 1 8 2 6 3 5 4 4 5 3 6 7 7 2 8 1 9 10 10
REMARK H PARENT
REMARK Flexibility Score: inf
ROOT
ATOM      1  C   UNL     1      -3.211 -18.161   8.382  1.00  0.00     0.016 C 
ATOM      2  C   UNL     1      -3.554 -16.689   8.701  1.00  0.00    -0.012 C 
ATOM      3  C   UNL     1      -3.043 -15.727   7.571  1.00  0.00    -0.001 C 
ATOM      4  C   UNL     1      -3.553 -14.283   7.792  1.00  0.00     0.005 C 
ATOM      5  C   UNL     1      -2.795 -13.842   9.063  1.00  0.00     0.008 C 
ATOM      6  C   UNL     1      -1.869 -15.038   9.344  1.00  0.00     0.015 C 
ATOM      7  C   UNL     1      -1.577 -15.528   7.943  1.00  0.00     0.012 C 
ATOM      8  C   UNL     1      -2.729 -16.165   9.852  1.00  0.00    -0.068 C 
ATOM      9  C   UNL     1      -2.784 -16.582  11.123  1.00  0.00     0.008 C 
ATOM     10  C   UNL     1      -5.070 -16.574   8.980  1.00  0.00     0.016 C 
ENDROOT
TORSDOF 0
ENDMDL
MODEL 7
REMARK VINA RESULT:    -6.240      1.289      3.223
REMARK INTER + INTRA:          -6.240
REMARK INTER:                  -6.240
REMARK INTRA:                   0.000
REMARK UNBOUND:                 0.000
REMARK SMILES C=C1[C@@H]2CC[C@@H](C2)C1(C)C
REMARK SMILES IDX 9 1 8 2 6 3 5 4 4 5 3 6 7 7 2 8 1 9 10 10
REMARK H PARENT
REMARK Flexibility Score: inf
ROOT
ATOM      1  C   UNL     1      -2.805 -16.729  10.434  1.00  0.00     0.016 C 
ATOM      2  C   UNL     1      -2.913 -16.405   8.927  1.00  0.00    -0.012 C 
ATOM      3  C   UNL     1      -3.984 -15.289   8.660  1.00  0.00    -0.001 C 
ATOM      4  C   UNL     1      -3.955 -14.830   7.182  1.00  0.00     0.005 C 
ATOM      5  C   UNL     1      -4.478 -16.071   6.427  1.00  0.00     0.008 C 
ATOM      6  C   UNL     1      -4.843 -17.039   7.566  1.00  0.00     0.015 C 
ATOM      7  C   UNL     1      -5.288 -16.079   8.645  1.00  0.00     0.012 C 
ATOM      8  C   UNL     1      -3.554 -17.539   8.163  1.00  0.00    -0.068 C 
ATOM      9  C   UNL     1      -3.048 -18.766   7.989  1.00  0.00     0.008 C 
ATOM     10  C   UNL     1      -1.507 -16.066   8.382  1.00  0.00     0.016 C 
ENDROOT
TORSDOF 0
ENDMDL
MODEL 8
REMARK VINA RESULT:    -6.142      1.377      3.291
REMARK INTER + INTRA:          -6.142
REMARK INTER:                  -6.142
REMARK INTRA:                   0.000
REMARK UNBOUND:                 0.000
REMARK SMILES C=C1[C@@H]2CC[C@@H](C2)C1(C)C
REMARK SMILES IDX 9 1 8 2 6 3 5 4 4 5 3 6 7 7 2 8 1 9 10 10
REMARK H PARENT
REMARK Flexibility Score: inf
ROOT
ATOM      1  C   UNL     1      -2.295 -14.309  10.612  1.00  0.00     0.016 C 
ATOM      2  C   UNL     1      -2.912 -15.045   9.401  1.00  0.00    -0.012 C 
ATOM      3  C   UNL     1      -3.966 -16.113   9.862  1.00  0.00    -0.001 C 
ATOM      4  C   UNL     1      -4.721 -16.712   8.651  1.00  0.00     0.005 C 
ATOM      5  C   UNL     1      -3.622 -17.522   7.928  1.00  0.00     0.008 C 
ATOM      6  C   UNL     1      -2.413 -17.378   8.868  1.00  0.00     0.015 C 
ATOM      7  C   UNL     1      -3.089 -17.309  10.219  1.00  0.00     0.012 C 
ATOM      8  C   UNL     1      -1.911 -15.964   8.744  1.00  0.00    -0.068 C 
ATOM      9  C   UNL     1      -0.793 -15.596   8.107  1.00  0.00     0.008 C 
ATOM     10  C   UNL     1      -3.473 -14.001   8.409  1.00  0.00     0.016 C 
ENDROOT
TORSDOF 0
ENDMDL
MODEL 9
REMARK VINA RESULT:    -6.079      1.347      3.140
REMARK INTER + INTRA:          -6.079
REMARK INTER:                  -6.079
REMARK INTRA:                   0.000
REMARK UNBOUND:                 0.000
REMARK SMILES C=C1[C@@H]2CC[C@@H](C2)C1(C)C
REMARK SMILES IDX 9 1 8 2 6 3 5 4 4 5 3 6 7 7 2 8 1 9 10 10
REMARK H PARENT
REMARK Flexibility Score: inf
ROOT
ATOM      1  C   UNL     1      -3.143 -18.481   8.159  1.00  0.00     0.016 C 
ATOM      2  C   UNL     1      -3.667 -17.056   8.443  1.00  0.00    -0.012 C 
ATOM      3  C   UNL     1      -4.835 -16.674   7.466  1.00  0.00    -0.001 C 
ATOM      4  C   UNL     1      -5.486 -15.330   7.871  1.00  0.00     0.005 C 
ATOM      5  C   UNL     1      -4.370 -14.305   7.577  1.00  0.00     0.008 C 
ATOM      6  C   UNL     1      -3.268 -15.169   6.940  1.00  0.00     0.015 C 
ATOM      7  C   UNL     1      -4.086 -16.216   6.218  1.00  0.00     0.012 C 
ATOM      8  C   UNL     1      -2.661 -16.006   8.035  1.00  0.00    -0.068 C 
ATOM      9  C   UNL     1      -1.457 -15.804   8.583  1.00  0.00     0.008 C 
ATOM     10  C   UNL     1      -4.041 -16.945   9.938  1.00  0.00     0.016 C 
ENDROOT
TORSDOF 0
ENDMDL
