MODEL 1
REMARK VINA RESULT:    -3.036      0.000      0.000
REMARK INTER + INTRA:         -10.452
REMARK INTER:                  -7.650
REMARK INTRA:                  -2.802
REMARK UNBOUND:                -2.802
REMARK SMILES CCCCCCCCCCCCCCCCCCCCCCCCCCCC(=O)[O-]
REMARK SMILES IDX 15 1 16 2 17 3 18 4 19 5 20 6 21 7 22 8 23 9 24 10 25 11
REMARK SMILES IDX 26 12 27 13 28 14 29 15 30 16 14 17 13 18 12 19 11 20 10 21
REMARK SMILES IDX 9 22 8 23 7 24 6 25 5 26 4 27 3 28 2 29 1 30
REMARK H PARENT
REMARK Flexibility Score: inf
ROOT
ATOM      1  C   UNL     1       2.787 -34.063  23.376  1.00  0.00     0.000 C 
ENDROOT
BRANCH   1   2
ATOM      2  C   UNL     1       2.294 -34.963  22.229  1.00  0.00     0.000 C 
BRANCH   2   3
ATOM      3  C   UNL     1       0.768 -35.154  22.154  1.00  0.00     0.000 C 
BRANCH   3   4
ATOM      4  C   UNL     1       0.355 -36.323  21.245  1.00  0.00     0.000 C 
BRANCH   4   5
ATOM      5  C   UNL     1       1.518 -37.287  20.945  1.00  0.00     0.000 C 
BRANCH   5   6
ATOM      6  C   UNL     1       1.380 -38.094  19.638  1.00  0.00     0.000 C 
BRANCH   6   7
ATOM      7  C   UNL     1       1.373 -37.253  18.348  1.00  0.00     0.000 C 
BRANCH   7   8
ATOM      8  C   UNL     1       2.758 -36.760  17.881  1.00  0.00     0.000 C 
BRANCH   8   9
ATOM      9  C   UNL     1       3.459 -35.783  18.844  1.00  0.00     0.000 C 
BRANCH   9  10
ATOM     10  C   UNL     1       4.946 -36.107  19.043  1.00  0.00     0.000 C 
BRANCH  10  11
ATOM     11  C   UNL     1       5.182 -37.624  19.067  1.00  0.00     0.000 C 
BRANCH  11  12
ATOM     12  C   UNL     1       5.699 -38.125  20.425  1.00  0.00     0.006 C 
BRANCH  12  13
ATOM     13  C   UNL     1       6.059 -36.981  21.382  1.00  0.00     0.053 C 
BRANCH  13  14
ATOM     14  C   UNL     1       5.401 -37.178  22.712  1.00  0.00     0.041 C 
ATOM     15  O   UNL     1       5.898 -36.662  23.747  1.00  0.00    -0.550 OA
ATOM     16  O   UNL     1       4.249 -37.948  22.811  1.00  0.00    -0.550 OA
ENDBRANCH  13  14
ENDBRANCH  12  13
ENDBRANCH  11  12
ENDBRANCH  10  11
ENDBRANCH   9  10
ENDBRANCH   8   9
ENDBRANCH   7   8
ENDBRANCH   6   7
ENDBRANCH   5   6
ENDBRANCH   4   5
ENDBRANCH   3   4
ENDBRANCH   2   3
ENDBRANCH   1   2
BRANCH   1  17
ATOM     17  C   UNL     1       1.664 -33.646  24.338  1.00  0.00     0.000 C 
BRANCH  17  18
ATOM     18  C   UNL     1       1.262 -32.181  24.111  1.00  0.00     0.000 C 
BRANCH  18  19
ATOM     19  C   UNL     1      -0.111 -31.837  24.717  1.00  0.00     0.000 C 
BRANCH  19  20
ATOM     20  C   UNL     1      -1.178 -31.378  23.702  1.00  0.00     0.000 C 
BRANCH  20  21
ATOM     21  C   UNL     1      -2.463 -32.224  23.675  1.00  0.00     0.000 C 
BRANCH  21  22
ATOM     22  C   UNL     1      -2.209 -33.700  24.030  1.00  0.00    -0.000 C 
BRANCH  22  23
ATOM     23  C   UNL     1      -2.171 -34.606  22.788  1.00  0.00    -0.000 C 
BRANCH  23  24
ATOM     24  C   UNL     1      -3.493 -35.365  22.573  1.00  0.00    -0.000 C 
BRANCH  24  25
ATOM     25  C   UNL     1      -3.292 -36.752  21.935  1.00  0.00    -0.000 C 
BRANCH  25  26
ATOM     26  C   UNL     1      -2.902 -36.747  20.441  1.00  0.00    -0.000 C 
BRANCH  26  27
ATOM     27  C   UNL     1      -3.160 -38.067  19.688  1.00  0.00    -0.000 C 
BRANCH  27  28
ATOM     28  C   UNL     1      -4.087 -37.914  18.460  1.00  0.00    -0.000 C 
BRANCH  28  29
ATOM     29  C   UNL     1      -4.907 -36.613  18.473  1.00  0.00    -0.003 C 
ATOM     30  C   UNL     1      -4.929 -35.914  17.115  1.00  0.00     0.004 C 
ENDBRANCH  28  29
ENDBRANCH  27  28
ENDBRANCH  26  27
ENDBRANCH  25  26
ENDBRANCH  24  25
ENDBRANCH  23  24
ENDBRANCH  22  23
ENDBRANCH  21  22
ENDBRANCH  20  21
ENDBRANCH  19  20
ENDBRANCH  18  19
ENDBRANCH  17  18
ENDBRANCH   1  17
TORSDOF 26
ENDMDL
MODEL 2
REMARK VINA RESULT:    -2.026     21.049     22.730
REMARK INTER + INTRA:          -7.908
REMARK INTER:                  -5.817
REMARK INTRA:                  -2.091
REMARK UNBOUND:                -2.802
REMARK SMILES CCCCCCCCCCCCCCCCCCCCCCCCCCCC(=O)[O-]
REMARK SMILES IDX 15 1 16 2 17 3 18 4 19 5 20 6 21 7 22 8 23 9 24 10 25 11
REMARK SMILES IDX 26 12 27 13 28 14 29 15 30 16 14 17 13 18 12 19 11 20 10 21
REMARK SMILES IDX 9 22 8 23 7 24 6 25 5 26 4 27 3 28 2 29 1 30
REMARK H PARENT
REMARK Flexibility Score: inf
ROOT
ATOM      1  C   UNL     1      -7.994 -21.491  35.485  1.00  0.00     0.000 C 
ENDROOT
BRANCH   1   2
ATOM      2  C   UNL     1      -6.557 -22.011  35.301  1.00  0.00     0.000 C 
BRANCH   2   3
ATOM      3  C   UNL     1      -5.446 -21.011  35.670  1.00  0.00     0.000 C 
BRANCH   3   4
ATOM      4  C   UNL     1      -4.135 -21.700  36.083  1.00  0.00     0.000 C 
BRANCH   4   5
ATOM      5  C   UNL     1      -2.933 -20.735  36.104  1.00  0.00     0.000 C 
BRANCH   5   6
ATOM      6  C   UNL     1      -2.343 -20.394  34.722  1.00  0.00     0.000 C 
BRANCH   6   7
ATOM      7  C   UNL     1      -2.708 -18.998  34.182  1.00  0.00     0.000 C 
BRANCH   7   8
ATOM      8  C   UNL     1      -3.635 -18.167  35.093  1.00  0.00     0.000 C 
BRANCH   8   9
ATOM      9  C   UNL     1      -5.030 -17.875  34.508  1.00  0.00     0.000 C 
BRANCH   9  10
ATOM     10  C   UNL     1      -5.098 -18.098  32.990  1.00  0.00     0.000 C 
BRANCH  10  11
ATOM     11  C   UNL     1      -5.515 -19.539  32.662  1.00  0.00     0.000 C 
BRANCH  11  12
ATOM     12  C   UNL     1      -7.037 -19.698  32.510  1.00  0.00     0.006 C 
BRANCH  12  13
ATOM     13  C   UNL     1      -7.782 -18.357  32.563  1.00  0.00     0.053 C 
BRANCH  13  14
ATOM     14  C   UNL     1      -8.581 -18.247  33.825  1.00  0.00     0.041 C 
ATOM     15  O   UNL     1      -8.022 -17.907  34.900  1.00  0.00    -0.550 OA
ATOM     16  O   UNL     1      -9.939 -18.540  33.816  1.00  0.00    -0.550 OA
ENDBRANCH  13  14
ENDBRANCH  12  13
ENDBRANCH  11  12
ENDBRANCH  10  11
ENDBRANCH   9  10
ENDBRANCH   8   9
ENDBRANCH   7   8
ENDBRANCH   6   7
ENDBRANCH   5   6
ENDBRANCH   4   5
ENDBRANCH   3   4
ENDBRANCH   2   3
ENDBRANCH   1   2
BRANCH   1  17
ATOM     17  C   UNL     1      -9.044 -22.365  34.782  1.00  0.00     0.000 C 
BRANCH  17  18
ATOM     18  C   UNL     1     -10.464 -21.989  35.233  1.00  0.00     0.000 C 
BRANCH  18  19
ATOM     19  C   UNL     1     -11.376 -23.214  35.423  1.00  0.00     0.000 C 
BRANCH  19  20
ATOM     20  C   UNL     1     -12.824 -22.894  35.844  1.00  0.00     0.000 C 
BRANCH  20  21
ATOM     21  C   UNL     1     -13.389 -21.573  35.294  1.00  0.00     0.000 C 
BRANCH  21  22
ATOM     22  C   UNL     1     -12.960 -20.351  36.125  1.00  0.00    -0.000 C 
BRANCH  22  23
ATOM     23  C   UNL     1     -13.076 -19.034  35.340  1.00  0.00    -0.000 C 
BRANCH  23  24
ATOM     24  C   UNL     1     -13.891 -19.192  34.044  1.00  0.00    -0.000 C 
BRANCH  24  25
ATOM     25  C   UNL     1     -13.038 -19.023  32.773  1.00  0.00    -0.000 C 
BRANCH  25  26
ATOM     26  C   UNL     1     -12.285 -20.286  32.304  1.00  0.00    -0.000 C 
BRANCH  26  27
ATOM     27  C   UNL     1     -11.754 -20.238  30.857  1.00  0.00    -0.000 C 
BRANCH  27  28
ATOM     28  C   UNL     1     -10.230 -20.469  30.743  1.00  0.00    -0.000 C 
BRANCH  28  29
ATOM     29  C   UNL     1      -9.505 -19.375  29.941  1.00  0.00    -0.003 C 
ATOM     30  C   UNL     1     -10.467 -18.440  29.211  1.00  0.00     0.004 C 
ENDBRANCH  28  29
ENDBRANCH  27  28
ENDBRANCH  26  27
ENDBRANCH  25  26
ENDBRANCH  24  25
ENDBRANCH  23  24
ENDBRANCH  22  23
ENDBRANCH  21  22
ENDBRANCH  20  21
ENDBRANCH  19  20
ENDBRANCH  18  19
ENDBRANCH  17  18
ENDBRANCH   1  17
TORSDOF 26
ENDMDL
MODEL 3
REMARK VINA RESULT:    -1.973     20.518     22.672
REMARK INTER + INTRA:          -7.774
REMARK INTER:                  -5.490
REMARK INTRA:                  -2.284
REMARK UNBOUND:                -2.802
REMARK SMILES CCCCCCCCCCCCCCCCCCCCCCCCCCCC(=O)[O-]
REMARK SMILES IDX 15 1 16 2 17 3 18 4 19 5 20 6 21 7 22 8 23 9 24 10 25 11
REMARK SMILES IDX 26 12 27 13 28 14 29 15 30 16 14 17 13 18 12 19 11 20 10 21
REMARK SMILES IDX 9 22 8 23 7 24 6 25 5 26 4 27 3 28 2 29 1 30
REMARK H PARENT
REMARK Flexibility Score: inf
ROOT
ATOM      1  C   UNL     1     -11.306 -22.026  35.793  1.00  0.00     0.000 C 
ENDROOT
BRANCH   1   2
ATOM      2  C   UNL     1     -10.550 -22.518  34.546  1.00  0.00     0.000 C 
BRANCH   2   3
ATOM      3  C   UNL     1      -9.396 -21.612  34.079  1.00  0.00     0.000 C 
BRANCH   3   4
ATOM      4  C   UNL     1      -9.348 -20.270  34.826  1.00  0.00     0.000 C 
BRANCH   4   5
ATOM      5  C   UNL     1      -8.413 -19.245  34.157  1.00  0.00     0.000 C 
BRANCH   5   6
ATOM      6  C   UNL     1      -7.462 -19.824  33.091  1.00  0.00     0.000 C 
BRANCH   6   7
ATOM      7  C   UNL     1      -6.826 -18.784  32.148  1.00  0.00     0.000 C 
BRANCH   7   8
ATOM      8  C   UNL     1      -5.496 -19.220  31.498  1.00  0.00     0.000 C 
BRANCH   8   9
ATOM      9  C   UNL     1      -4.319 -19.388  32.476  1.00  0.00     0.000 C 
BRANCH   9  10
ATOM     10  C   UNL     1      -4.264 -18.281  33.538  1.00  0.00     0.000 C 
BRANCH  10  11
ATOM     11  C   UNL     1      -3.323 -18.666  34.689  1.00  0.00     0.000 C 
BRANCH  11  12
ATOM     12  C   UNL     1      -3.028 -20.174  34.737  1.00  0.00     0.006 C 
BRANCH  12  13
ATOM     13  C   UNL     1      -3.610 -20.854  35.984  1.00  0.00     0.053 C 
BRANCH  13  14
ATOM     14  C   UNL     1      -4.980 -21.388  35.703  1.00  0.00     0.041 C 
ATOM     15  O   UNL     1      -5.994 -20.671  35.910  1.00  0.00    -0.550 OA
ATOM     16  O   UNL     1      -5.138 -22.686  35.231  1.00  0.00    -0.550 OA
ENDBRANCH  13  14
ENDBRANCH  12  13
ENDBRANCH  11  12
ENDBRANCH  10  11
ENDBRANCH   9  10
ENDBRANCH   8   9
ENDBRANCH   7   8
ENDBRANCH   6   7
ENDBRANCH   5   6
ENDBRANCH   4   5
ENDBRANCH   3   4
ENDBRANCH   2   3
ENDBRANCH   1   2
BRANCH   1  17
ATOM     17  C   UNL     1     -12.539 -22.880  36.125  1.00  0.00     0.000 C 
BRANCH  17  18
ATOM     18  C   UNL     1     -13.814 -22.254  35.539  1.00  0.00     0.000 C 
BRANCH  18  19
ATOM     19  C   UNL     1     -14.069 -20.825  36.051  1.00  0.00     0.000 C 
BRANCH  19  20
ATOM     20  C   UNL     1     -12.824 -19.916  36.102  1.00  0.00     0.000 C 
BRANCH  20  21
ATOM     21  C   UNL     1     -13.106 -18.411  35.954  1.00  0.00     0.000 C 
BRANCH  21  22
ATOM     22  C   UNL     1     -14.076 -18.099  34.800  1.00  0.00    -0.000 C 
BRANCH  22  23
ATOM     23  C   UNL     1     -13.352 -17.909  33.457  1.00  0.00    -0.000 C 
BRANCH  23  24
ATOM     24  C   UNL     1     -11.821 -17.961  33.602  1.00  0.00    -0.000 C 
BRANCH  24  25
ATOM     25  C   UNL     1     -11.101 -18.237  32.270  1.00  0.00    -0.000 C 
BRANCH  25  26
ATOM     26  C   UNL     1     -11.487 -19.556  31.565  1.00  0.00    -0.000 C 
BRANCH  26  27
ATOM     27  C   UNL     1     -10.917 -19.735  30.144  1.00  0.00    -0.000 C 
BRANCH  27  28
ATOM     28  C   UNL     1      -9.771 -18.754  29.803  1.00  0.00    -0.000 C 
BRANCH  28  29
ATOM     29  C   UNL     1      -8.934 -19.192  28.590  1.00  0.00    -0.003 C 
ATOM     30  C   UNL     1      -9.676 -19.021  27.265  1.00  0.00     0.004 C 
ENDBRANCH  28  29
ENDBRANCH  27  28
ENDBRANCH  26  27
ENDBRANCH  25  26
ENDBRANCH  24  25
ENDBRANCH  23  24
ENDBRANCH  22  23
ENDBRANCH  21  22
ENDBRANCH  20  21
ENDBRANCH  19  20
ENDBRANCH  18  19
ENDBRANCH  17  18
ENDBRANCH   1  17
TORSDOF 26
ENDMDL
MODEL 4
REMARK VINA RESULT:    -1.909     20.343     23.584
REMARK INTER + INTRA:          -7.612
REMARK INTER:                  -5.124
REMARK INTRA:                  -2.488
REMARK UNBOUND:                -2.802
REMARK SMILES CCCCCCCCCCCCCCCCCCCCCCCCCCCC(=O)[O-]
REMARK SMILES IDX 15 1 16 2 17 3 18 4 19 5 20 6 21 7 22 8 23 9 24 10 25 11
REMARK SMILES IDX 26 12 27 13 28 14 29 15 30 16 14 17 13 18 12 19 11 20 10 21
REMARK SMILES IDX 9 22 8 23 7 24 6 25 5 26 4 27 3 28 2 29 1 30
REMARK H PARENT
REMARK Flexibility Score: inf
ROOT
ATOM      1  C   UNL     1     -10.657 -20.800  31.066  1.00  0.00     0.000 C 
ENDROOT
BRANCH   1   2
ATOM      2  C   UNL     1     -12.116 -20.364  30.841  1.00  0.00     0.000 C 
BRANCH   2   3
ATOM      3  C   UNL     1     -12.910 -20.045  32.121  1.00  0.00     0.000 C 
BRANCH   3   4
ATOM      4  C   UNL     1     -12.818 -18.566  32.528  1.00  0.00     0.000 C 
BRANCH   4   5
ATOM      5  C   UNL     1     -13.999 -18.113  33.409  1.00  0.00     0.000 C 
BRANCH   5   6
ATOM      6  C   UNL     1     -13.806 -18.329  34.924  1.00  0.00     0.000 C 
BRANCH   6   7
ATOM      7  C   UNL     1     -12.341 -18.377  35.396  1.00  0.00     0.000 C 
BRANCH   7   8
ATOM      8  C   UNL     1     -11.925 -19.684  36.102  1.00  0.00     0.000 C 
BRANCH   8   9
ATOM      9  C   UNL     1     -12.975 -20.810  36.056  1.00  0.00     0.000 C 
BRANCH   9  10
ATOM     10  C   UNL     1     -12.611 -21.923  35.063  1.00  0.00     0.000 C 
BRANCH  10  11
ATOM     11  C   UNL     1     -11.921 -23.095  35.775  1.00  0.00     0.000 C 
BRANCH  11  12
ATOM     12  C   UNL     1     -10.516 -23.383  35.222  1.00  0.00     0.006 C 
BRANCH  12  13
ATOM     13  C   UNL     1      -9.774 -22.110  34.793  1.00  0.00     0.053 C 
BRANCH  13  14
ATOM     14  C   UNL     1      -8.797 -22.411  33.699  1.00  0.00     0.041 C 
ATOM     15  O   UNL     1      -9.102 -23.220  32.784  1.00  0.00    -0.550 OA
ATOM     16  O   UNL     1      -7.543 -21.813  33.702  1.00  0.00    -0.550 OA
ENDBRANCH  13  14
ENDBRANCH  12  13
ENDBRANCH  11  12
ENDBRANCH  10  11
ENDBRANCH   9  10
ENDBRANCH   8   9
ENDBRANCH   7   8
ENDBRANCH   6   7
ENDBRANCH   5   6
ENDBRANCH   4   5
ENDBRANCH   3   4
ENDBRANCH   2   3
ENDBRANCH   1   2
BRANCH   1  17
ATOM     17  C   UNL     1      -9.716 -20.357  29.936  1.00  0.00     0.000 C 
BRANCH  17  18
ATOM     18  C   UNL     1      -9.699 -18.826  29.802  1.00  0.00     0.000 C 
BRANCH  18  19
ATOM     19  C   UNL     1      -9.074 -18.126  31.022  1.00  0.00     0.000 C 
BRANCH  19  20
ATOM     20  C   UNL     1      -8.940 -19.002  32.283  1.00  0.00     0.000 C 
BRANCH  20  21
ATOM     21  C   UNL     1      -9.457 -18.362  33.583  1.00  0.00     0.000 C 
BRANCH  21  22
ATOM     22  C   UNL     1      -8.320 -17.878  34.500  1.00  0.00    -0.000 C 
BRANCH  22  23
ATOM     23  C   UNL     1      -7.013 -18.659  34.281  1.00  0.00    -0.000 C 
BRANCH  23  24
ATOM     24  C   UNL     1      -5.889 -18.200  35.227  1.00  0.00    -0.000 C 
BRANCH  24  25
ATOM     25  C   UNL     1      -5.358 -19.334  36.123  1.00  0.00    -0.000 C 
BRANCH  25  26
ATOM     26  C   UNL     1      -5.399 -20.748  35.503  1.00  0.00    -0.000 C 
BRANCH  26  27
ATOM     27  C   UNL     1      -4.050 -21.494  35.475  1.00  0.00    -0.000 C 
BRANCH  27  28
ATOM     28  C   UNL     1      -3.056 -20.947  34.424  1.00  0.00    -0.000 C 
BRANCH  28  29
ATOM     29  C   UNL     1      -2.145 -19.834  34.967  1.00  0.00    -0.003 C 
ATOM     30  C   UNL     1      -1.237 -20.311  36.098  1.00  0.00     0.004 C 
ENDBRANCH  28  29
ENDBRANCH  27  28
ENDBRANCH  26  27
ENDBRANCH  25  26
ENDBRANCH  24  25
ENDBRANCH  23  24
ENDBRANCH  22  23
ENDBRANCH  21  22
ENDBRANCH  20  21
ENDBRANCH  19  20
ENDBRANCH  18  19
ENDBRANCH  17  18
ENDBRANCH   1  17
TORSDOF 26
ENDMDL
MODEL 5
REMARK VINA RESULT:    -1.874      1.589      4.104
REMARK INTER + INTRA:          -7.525
REMARK INTER:                  -6.588
REMARK INTRA:                  -0.936
REMARK UNBOUND:                -2.802
REMARK SMILES CCCCCCCCCCCCCCCCCCCCCCCCCCCC(=O)[O-]
REMARK SMILES IDX 15 1 16 2 17 3 18 4 19 5 20 6 21 7 22 8 23 9 24 10 25 11
REMARK SMILES IDX 26 12 27 13 28 14 29 15 30 16 14 17 13 18 12 19 11 20 10 21
REMARK SMILES IDX 9 22 8 23 7 24 6 25 5 26 4 27 3 28 2 29 1 30
REMARK H PARENT
REMARK Flexibility Score: inf
ROOT
ATOM      1  C   UNL     1      -2.005 -32.147  24.168  1.00  0.00     0.000 C 
ENDROOT
BRANCH   1   2
ATOM      2  C   UNL     1      -0.678 -31.409  23.918  1.00  0.00     0.000 C 
BRANCH   2   3
ATOM      3  C   UNL     1       0.505 -31.874  24.787  1.00  0.00     0.000 C 
BRANCH   3   4
ATOM      4  C   UNL     1       1.738 -32.270  23.956  1.00  0.00     0.000 C 
BRANCH   4   5
ATOM      5  C   UNL     1       1.984 -33.790  23.938  1.00  0.00     0.000 C 
BRANCH   5   6
ATOM      6  C   UNL     1       3.030 -34.273  22.914  1.00  0.00     0.000 C 
BRANCH   6   7
ATOM      7  C   UNL     1       3.629 -35.664  23.197  1.00  0.00     0.000 C 
BRANCH   7   8
ATOM      8  C   UNL     1       4.981 -35.946  22.509  1.00  0.00     0.000 C 
BRANCH   8   9
ATOM      9  C   UNL     1       5.559 -37.350  22.763  1.00  0.00     0.000 C 
BRANCH   9  10
ATOM     10  C   UNL     1       5.834 -38.125  21.467  1.00  0.00     0.000 C 
BRANCH  10  11
ATOM     11  C   UNL     1       4.608 -38.108  20.543  1.00  0.00     0.000 C 
BRANCH  11  12
ATOM     12  C   UNL     1       4.984 -38.008  19.056  1.00  0.00     0.006 C 
BRANCH  12  13
ATOM     13  C   UNL     1       4.612 -36.653  18.439  1.00  0.00     0.053 C 
BRANCH  13  14
ATOM     14  C   UNL     1       3.235 -36.243  18.858  1.00  0.00     0.041 C 
ATOM     15  O   UNL     1       2.226 -36.725  18.279  1.00  0.00    -0.550 OA
ATOM     16  O   UNL     1       3.065 -35.312  19.876  1.00  0.00    -0.550 OA
ENDBRANCH  13  14
ENDBRANCH  12  13
ENDBRANCH  11  12
ENDBRANCH  10  11
ENDBRANCH   9  10
ENDBRANCH   8   9
ENDBRANCH   7   8
ENDBRANCH   6   7
ENDBRANCH   5   6
ENDBRANCH   4   5
ENDBRANCH   3   4
ENDBRANCH   2   3
ENDBRANCH   1   2
BRANCH   1  17
ATOM     17  C   UNL     1      -1.843 -33.673  24.222  1.00  0.00     0.000 C 
BRANCH  17  18
ATOM     18  C   UNL     1      -2.531 -34.342  23.021  1.00  0.00     0.000 C 
BRANCH  18  19
ATOM     19  C   UNL     1      -1.595 -34.503  21.810  1.00  0.00     0.000 C 
BRANCH  19  20
ATOM     20  C   UNL     1      -0.183 -35.030  22.137  1.00  0.00     0.000 C 
BRANCH  20  21
ATOM     21  C   UNL     1       0.031 -36.531  21.880  1.00  0.00     0.000 C 
BRANCH  21  22
ATOM     22  C   UNL     1      -0.419 -36.963  20.473  1.00  0.00    -0.000 C 
BRANCH  22  23
ATOM     23  C   UNL     1      -1.486 -38.070  20.509  1.00  0.00    -0.000 C 
BRANCH  23  24
ATOM     24  C   UNL     1      -2.667 -37.718  21.431  1.00  0.00    -0.000 C 
BRANCH  24  25
ATOM     25  C   UNL     1      -4.032 -38.098  20.829  1.00  0.00    -0.000 C 
BRANCH  25  26
ATOM     26  C   UNL     1      -4.249 -37.688  19.357  1.00  0.00    -0.000 C 
BRANCH  26  27
ATOM     27  C   UNL     1      -4.172 -36.174  19.076  1.00  0.00    -0.000 C 
BRANCH  27  28
ATOM     28  C   UNL     1      -5.215 -35.676  18.050  1.00  0.00    -0.000 C 
BRANCH  28  29
ATOM     29  C   UNL     1      -5.280 -36.538  16.778  1.00  0.00    -0.003 C 
ATOM     30  C   UNL     1      -4.803 -37.970  17.009  1.00  0.00     0.004 C 
ENDBRANCH  28  29
ENDBRANCH  27  28
ENDBRANCH  26  27
ENDBRANCH  25  26
ENDBRANCH  24  25
ENDBRANCH  23  24
ENDBRANCH  22  23
ENDBRANCH  21  22
ENDBRANCH  20  21
ENDBRANCH  19  20
ENDBRANCH  18  19
ENDBRANCH  17  18
ENDBRANCH   1  17
TORSDOF 26
ENDMDL
MODEL 6
REMARK VINA RESULT:    -1.529     20.324     22.517
REMARK INTER + INTRA:          -6.655
REMARK INTER:                  -5.936
REMARK INTRA:                  -0.719
REMARK UNBOUND:                -2.802
REMARK SMILES CCCCCCCCCCCCCCCCCCCCCCCCCCCC(=O)[O-]
REMARK SMILES IDX 15 1 16 2 17 3 18 4 19 5 20 6 21 7 22 8 23 9 24 10 25 11
REMARK SMILES IDX 26 12 27 13 28 14 29 15 30 16 14 17 13 18 12 19 11 20 10 21
REMARK SMILES IDX 9 22 8 23 7 24 6 25 5 26 4 27 3 28 2 29 1 30
REMARK H PARENT
REMARK Flexibility Score: inf
ROOT
ATOM      1  C   UNL     1      -7.620 -21.228  33.913  1.00  0.00     0.000 C 
ENDROOT
BRANCH   1   2
ATOM      2  C   UNL     1      -6.420 -22.089  34.350  1.00  0.00     0.000 C 
BRANCH   2   3
ATOM      3  C   UNL     1      -5.922 -21.839  35.785  1.00  0.00     0.000 C 
BRANCH   3   4
ATOM      4  C   UNL     1      -4.389 -21.782  35.884  1.00  0.00     0.000 C 
BRANCH   4   5
ATOM      5  C   UNL     1      -3.730 -21.181  34.628  1.00  0.00     0.000 C 
BRANCH   5   6
ATOM      6  C   UNL     1      -3.278 -19.713  34.764  1.00  0.00     0.000 C 
BRANCH   6   7
ATOM      7  C   UNL     1      -4.377 -18.664  34.504  1.00  0.00     0.000 C 
BRANCH   7   8
ATOM      8  C   UNL     1      -4.525 -18.224  33.033  1.00  0.00     0.000 C 
BRANCH   8   9
ATOM      9  C   UNL     1      -5.961 -17.875  32.601  1.00  0.00     0.000 C 
BRANCH   9  10
ATOM     10  C   UNL     1      -6.531 -18.865  31.575  1.00  0.00     0.000 C 
BRANCH  10  11
ATOM     11  C   UNL     1      -7.765 -18.282  30.872  1.00  0.00     0.000 C 
BRANCH  11  12
ATOM     12  C   UNL     1      -7.791 -18.587  29.365  1.00  0.00     0.006 C 
BRANCH  12  13
ATOM     13  C   UNL     1      -9.206 -18.867  28.840  1.00  0.00     0.053 C 
BRANCH  13  14
ATOM     14  C   UNL     1      -9.178 -19.141  27.369  1.00  0.00     0.041 C 
ATOM     15  O   UNL     1      -8.364 -19.977  26.896  1.00  0.00    -0.550 OA
ATOM     16  O   UNL     1     -10.037 -18.458  26.517  1.00  0.00    -0.550 OA
ENDBRANCH  13  14
ENDBRANCH  12  13
ENDBRANCH  11  12
ENDBRANCH  10  11
ENDBRANCH   9  10
ENDBRANCH   8   9
ENDBRANCH   7   8
ENDBRANCH   6   7
ENDBRANCH   5   6
ENDBRANCH   4   5
ENDBRANCH   3   4
ENDBRANCH   2   3
ENDBRANCH   1   2
BRANCH   1  17
ATOM     17  C   UNL     1      -7.837 -20.000  34.810  1.00  0.00     0.000 C 
BRANCH  17  18
ATOM     18  C   UNL     1      -8.572 -18.886  34.048  1.00  0.00     0.000 C 
BRANCH  18  19
ATOM     19  C   UNL     1      -9.504 -18.059  34.952  1.00  0.00     0.000 C 
BRANCH  19  20
ATOM     20  C   UNL     1     -11.007 -18.369  34.801  1.00  0.00     0.000 C 
BRANCH  20  21
ATOM     21  C   UNL     1     -11.893 -17.895  35.967  1.00  0.00     0.000 C 
BRANCH  21  22
ATOM     22  C   UNL     1     -13.363 -18.321  35.807  1.00  0.00    -0.000 C 
BRANCH  22  23
ATOM     23  C   UNL     1     -13.508 -19.707  35.156  1.00  0.00    -0.000 C 
BRANCH  23  24
ATOM     24  C   UNL     1     -13.155 -20.850  36.124  1.00  0.00    -0.000 C 
BRANCH  24  25
ATOM     25  C   UNL     1     -11.898 -21.631  35.699  1.00  0.00    -0.000 C 
BRANCH  25  26
ATOM     26  C   UNL     1     -11.740 -21.863  34.181  1.00  0.00    -0.000 C 
BRANCH  26  27
ATOM     27  C   UNL     1     -11.537 -20.590  33.337  1.00  0.00    -0.000 C 
BRANCH  27  28
ATOM     28  C   UNL     1     -12.443 -20.519  32.086  1.00  0.00    -0.000 C 
BRANCH  28  29
ATOM     29  C   UNL     1     -11.661 -20.345  30.774  1.00  0.00    -0.003 C 
ATOM     30  C   UNL     1     -10.180 -20.689  30.918  1.00  0.00     0.004 C 
ENDBRANCH  28  29
ENDBRANCH  27  28
ENDBRANCH  26  27
ENDBRANCH  25  26
ENDBRANCH  24  25
ENDBRANCH  23  24
ENDBRANCH  22  23
ENDBRANCH  21  22
ENDBRANCH  20  21
ENDBRANCH  19  20
ENDBRANCH  18  19
ENDBRANCH  17  18
ENDBRANCH   1  17
TORSDOF 26
ENDMDL
MODEL 7
REMARK VINA RESULT:    -1.140     20.629     23.404
REMARK INTER + INTRA:          -5.675
REMARK INTER:                  -4.696
REMARK INTRA:                  -0.979
REMARK UNBOUND:                -2.802
REMARK SMILES CCCCCCCCCCCCCCCCCCCCCCCCCCCC(=O)[O-]
REMARK SMILES IDX 15 1 16 2 17 3 18 4 19 5 20 6 21 7 22 8 23 9 24 10 25 11
REMARK SMILES IDX 26 12 27 13 28 14 29 15 30 16 14 17 13 18 12 19 11 20 10 21
REMARK SMILES IDX 9 22 8 23 7 24 6 25 5 26 4 27 3 28 2 29 1 30
REMARK H PARENT
REMARK Flexibility Score: inf
ROOT
ATOM      1  C   UNL     1      -8.284 -20.491  33.481  1.00  0.00     0.000 C 
ENDROOT
BRANCH   1   2
ATOM      2  C   UNL     1      -8.178 -21.794  34.294  1.00  0.00     0.000 C 
BRANCH   2   3
ATOM      3  C   UNL     1      -9.406 -22.719  34.214  1.00  0.00     0.000 C 
BRANCH   3   4
ATOM      4  C   UNL     1     -10.220 -22.748  35.519  1.00  0.00     0.000 C 
BRANCH   4   5
ATOM      5  C   UNL     1     -11.729 -22.542  35.287  1.00  0.00     0.000 C 
BRANCH   5   6
ATOM      6  C   UNL     1     -12.373 -21.420  36.125  1.00  0.00     0.000 C 
BRANCH   6   7
ATOM      7  C   UNL     1     -13.350 -20.509  35.356  1.00  0.00     0.000 C 
BRANCH   7   8
ATOM      8  C   UNL     1     -13.113 -18.995  35.540  1.00  0.00     0.000 C 
BRANCH   8   9
ATOM      9  C   UNL     1     -13.548 -18.120  34.349  1.00  0.00     0.000 C 
BRANCH   9  10
ATOM     10  C   UNL     1     -12.782 -18.447  33.059  1.00  0.00     0.000 C 
BRANCH  10  11
ATOM     11  C   UNL     1     -13.310 -19.737  32.416  1.00  0.00     0.000 C 
BRANCH  11  12
ATOM     12  C   UNL     1     -12.352 -20.311  31.359  1.00  0.00     0.006 C 
BRANCH  12  13
ATOM     13  C   UNL     1     -11.365 -19.265  30.822  1.00  0.00     0.053 C 
BRANCH  13  14
ATOM     14  C   UNL     1     -10.352 -19.906  29.926  1.00  0.00     0.041 C 
ATOM     15  O   UNL     1      -9.563 -20.773  30.381  1.00  0.00    -0.550 OA
ATOM     16  O   UNL     1     -10.267 -19.529  28.591  1.00  0.00    -0.550 OA
ENDBRANCH  13  14
ENDBRANCH  12  13
ENDBRANCH  11  12
ENDBRANCH  10  11
ENDBRANCH   9  10
ENDBRANCH   8   9
ENDBRANCH   7   8
ENDBRANCH   6   7
ENDBRANCH   5   6
ENDBRANCH   4   5
ENDBRANCH   3   4
ENDBRANCH   2   3
ENDBRANCH   1   2
BRANCH   1  17
ATOM     17  C   UNL     1      -9.592 -19.728  33.734  1.00  0.00     0.000 C 
BRANCH  17  18
ATOM     18  C   UNL     1      -9.395 -18.635  34.796  1.00  0.00     0.000 C 
BRANCH  18  19
ATOM     19  C   UNL     1      -8.066 -17.875  34.632  1.00  0.00     0.000 C 
BRANCH  19  20
ATOM     20  C   UNL     1      -7.065 -18.047  35.792  1.00  0.00     0.000 C 
BRANCH  20  21
ATOM     21  C   UNL     1      -5.582 -18.041  35.383  1.00  0.00     0.000 C 
BRANCH  21  22
ATOM     22  C   UNL     1      -4.757 -19.108  36.125  1.00  0.00    -0.000 C 
BRANCH  22  23
ATOM     23  C   UNL     1      -5.416 -20.496  36.084  1.00  0.00    -0.000 C 
BRANCH  23  24
ATOM     24  C   UNL     1      -4.781 -21.418  35.027  1.00  0.00    -0.000 C 
BRANCH  24  25
ATOM     25  C   UNL     1      -4.743 -20.785  33.624  1.00  0.00    -0.000 C 
BRANCH  25  26
ATOM     26  C   UNL     1      -3.902 -19.496  33.498  1.00  0.00    -0.000 C 
BRANCH  26  27
ATOM     27  C   UNL     1      -4.378 -18.501  32.420  1.00  0.00    -0.000 C 
BRANCH  27  28
ATOM     28  C   UNL     1      -5.895 -18.208  32.468  1.00  0.00    -0.000 C 
BRANCH  28  29
ATOM     29  C   UNL     1      -6.642 -18.644  31.197  1.00  0.00    -0.003 C 
ATOM     30  C   UNL     1      -7.995 -17.955  31.039  1.00  0.00     0.004 C 
ENDBRANCH  28  29
ENDBRANCH  27  28
ENDBRANCH  26  27
ENDBRANCH  25  26
ENDBRANCH  24  25
ENDBRANCH  23  24
ENDBRANCH  22  23
ENDBRANCH  21  22
ENDBRANCH  20  21
ENDBRANCH  19  20
ENDBRANCH  18  19
ENDBRANCH  17  18
ENDBRANCH   1  17
TORSDOF 26
ENDMDL
