MODEL 1
REMARK VINA RESULT:    -5.427      0.000      0.000
REMARK INTER + INTRA:          -5.586
REMARK INTER:                  -5.586
REMARK INTRA:                   0.000
REMARK UNBOUND:                 0.000
REMARK SMILES O=c1ccc2cc(O)ccc2o1
REMARK SMILES IDX 9 1 10 2 11 3 5 4 4 5 3 6 2 7 1 8 12 9 6 10 7 11 8 12
REMARK H PARENT 8 13
REMARK Flexibility Score: inf
ROOT
ATOM      1  C   UNL     1      54.303 110.531  44.451  1.00  0.00     0.050 A 
ATOM      2  C   UNL     1      53.986 110.773  45.791  1.00  0.00     0.052 A 
ATOM      3  C   UNL     1      54.518 111.887  46.448  1.00  0.00     0.138 A 
ATOM      4  C   UNL     1      55.378 112.766  45.753  1.00  0.00     0.021 A 
ATOM      5  C   UNL     1      55.895 113.871  46.436  1.00  0.00     0.019 A 
ATOM      6  C   UNL     1      55.552 114.072  47.772  1.00  0.00     0.094 A 
ATOM      7  C   UNL     1      54.694 113.159  48.396  1.00  0.00     0.336 A 
ATOM      8  O   UNL     1      54.371 113.324  49.602  1.00  0.00    -0.246 OA
ATOM      9  O   UNL     1      54.216 112.115  47.723  1.00  0.00    -0.423 OA
ATOM     10  C   UNL     1      55.694 112.519  44.409  1.00  0.00     0.058 A 
ATOM     11  C   UNL     1      55.155 111.399  43.758  1.00  0.00     0.116 A 
ENDROOT
BRANCH  11  12
ATOM     12  O   UNL     1      55.459 111.142  42.423  1.00  0.00    -0.508 OA
ATOM     13  H   UNL     1      56.368 110.790  42.145  1.00  0.00     0.293 HD
ENDBRANCH  11  12
TORSDOF 1
ENDMDL
MODEL 2
REMARK VINA RESULT:    -5.297     10.086     11.118
REMARK INTER + INTRA:          -5.452
REMARK INTER:                  -5.452
REMARK INTRA:                   0.000
REMARK UNBOUND:                 0.000
REMARK SMILES O=c1ccc2cc(O)ccc2o1
REMARK SMILES IDX 9 1 10 2 11 3 5 4 4 5 3 6 2 7 1 8 12 9 6 10 7 11 8 12
REMARK H PARENT 8 13
REMARK Flexibility Score: inf
ROOT
ATOM      1  C   UNL     1      49.327 104.348  51.861  1.00  0.00     0.050 A 
ATOM      2  C   UNL     1      50.081 105.456  52.257  1.00  0.00     0.052 A 
ATOM      3  C   UNL     1      49.449 106.572  52.815  1.00  0.00     0.138 A 
ATOM      4  C   UNL     1      48.046 106.575  52.977  1.00  0.00     0.021 A 
ATOM      5  C   UNL     1      47.442 107.705  53.537  1.00  0.00     0.019 A 
ATOM      6  C   UNL     1      48.234 108.787  53.916  1.00  0.00     0.094 A 
ATOM      7  C   UNL     1      49.619 108.713  53.726  1.00  0.00     0.336 A 
ATOM      8  O   UNL     1      50.352 109.680  54.064  1.00  0.00    -0.246 OA
ATOM      9  O   UNL     1      50.168 107.626  53.191  1.00  0.00    -0.423 OA
ATOM     10  C   UNL     1      47.293 105.460  52.578  1.00  0.00     0.058 A 
ATOM     11  C   UNL     1      47.935 104.346  52.019  1.00  0.00     0.116 A 
ENDROOT
BRANCH  11  12
ATOM     12  O   UNL     1      47.201 103.232  51.619  1.00  0.00    -0.508 OA
ATOM     13  H   UNL     1      46.199 103.178  51.763  1.00  0.00     0.293 HD
ENDBRANCH  11  12
TORSDOF 1
ENDMDL
MODEL 3
REMARK VINA RESULT:    -5.173     10.363     11.316
REMARK INTER + INTRA:          -5.324
REMARK INTER:                  -5.324
REMARK INTRA:                   0.000
REMARK UNBOUND:                 0.000
REMARK SMILES O=c1ccc2cc(O)ccc2o1
REMARK SMILES IDX 9 1 10 2 11 3 5 4 4 5 3 6 2 7 1 8 12 9 6 10 7 11 8 12
REMARK H PARENT 8 13
REMARK Flexibility Score: inf
ROOT
ATOM      1  C   UNL     1      49.137 104.722  51.979  1.00  0.00     0.050 A 
ATOM      2  C   UNL     1      49.744 105.907  52.402  1.00  0.00     0.052 A 
ATOM      3  C   UNL     1      48.971 106.935  52.952  1.00  0.00     0.138 A 
ATOM      4  C   UNL     1      47.574 106.771  53.077  1.00  0.00     0.021 A 
ATOM      5  C   UNL     1      46.827 107.816  53.629  1.00  0.00     0.019 A 
ATOM      6  C   UNL     1      47.475 108.980  54.037  1.00  0.00     0.094 A 
ATOM      7  C   UNL     1      48.863 109.072  53.883  1.00  0.00     0.336 A 
ATOM      8  O   UNL     1      49.468 110.115  54.246  1.00  0.00    -0.246 OA
ATOM      9  O   UNL     1      49.551 108.063  53.354  1.00  0.00    -0.423 OA
ATOM     10  C   UNL     1      46.968 105.580  52.650  1.00  0.00     0.058 A 
ATOM     11  C   UNL     1      47.751 104.554  52.101  1.00  0.00     0.116 A 
ENDROOT
BRANCH  11  12
ATOM     12  O   UNL     1      47.164 103.365  51.674  1.00  0.00    -0.508 OA
ATOM     13  H   UNL     1      46.304 103.022  52.085  1.00  0.00     0.293 HD
ENDBRANCH  11  12
TORSDOF 1
ENDMDL
MODEL 4
REMARK VINA RESULT:    -5.118      3.352      3.961
REMARK INTER + INTRA:          -5.268
REMARK INTER:                  -5.268
REMARK INTRA:                   0.000
REMARK UNBOUND:                 0.000
REMARK SMILES O=c1ccc2cc(O)ccc2o1
REMARK SMILES IDX 9 1 10 2 11 3 5 4 4 5 3 6 2 7 1 8 12 9 6 10 7 11 8 12
REMARK H PARENT 8 13
REMARK Flexibility Score: inf
ROOT
ATOM      1  C   UNL     1      54.737 112.880  47.306  1.00  0.00     0.050 A 
ATOM      2  C   UNL     1      53.507 113.138  47.917  1.00  0.00     0.052 A 
ATOM      3  C   UNL     1      52.370 113.368  47.136  1.00  0.00     0.138 A 
ATOM      4  C   UNL     1      52.469 113.340  45.727  1.00  0.00     0.021 A 
ATOM      5  C   UNL     1      51.316 113.575  44.973  1.00  0.00     0.019 A 
ATOM      6  C   UNL     1      50.111 113.828  45.626  1.00  0.00     0.094 A 
ATOM      7  C   UNL     1      50.087 113.840  47.025  1.00  0.00     0.336 A 
ATOM      8  O   UNL     1      49.008 114.066  47.633  1.00  0.00    -0.246 OA
ATOM      9  O   UNL     1      51.199 113.614  47.719  1.00  0.00    -0.423 OA
ATOM     10  C   UNL     1      53.706 113.081  45.118  1.00  0.00     0.058 A 
ATOM     11  C   UNL     1      54.841 112.851  45.909  1.00  0.00     0.116 A 
ENDROOT
BRANCH  11  12
ATOM     12  O   UNL     1      56.076 112.591  45.318  1.00  0.00    -0.508 OA
ATOM     13  H   UNL     1      56.190 112.585  44.312  1.00  0.00     0.293 HD
ENDBRANCH  11  12
TORSDOF 1
ENDMDL
MODEL 5
REMARK VINA RESULT:    -4.735     10.810     11.982
REMARK INTER + INTRA:          -4.873
REMARK INTER:                  -4.873
REMARK INTRA:                   0.000
REMARK UNBOUND:                 0.000
REMARK SMILES O=c1ccc2cc(O)ccc2o1
REMARK SMILES IDX 9 1 10 2 11 3 5 4 4 5 3 6 2 7 1 8 12 9 6 10 7 11 8 12
REMARK H PARENT 8 13
REMARK Flexibility Score: inf
ROOT
ATOM      1  C   UNL     1      48.371 104.694  51.591  1.00  0.00     0.050 A 
ATOM      2  C   UNL     1      47.162 104.882  52.268  1.00  0.00     0.052 A 
ATOM      3  C   UNL     1      47.013 105.956  53.153  1.00  0.00     0.138 A 
ATOM      4  C   UNL     1      48.088 106.848  53.360  1.00  0.00     0.021 A 
ATOM      5  C   UNL     1      47.910 107.911  54.250  1.00  0.00     0.019 A 
ATOM      6  C   UNL     1      46.687 108.059  54.903  1.00  0.00     0.094 A 
ATOM      7  C   UNL     1      45.667 107.136  54.649  1.00  0.00     0.336 A 
ATOM      8  O   UNL     1      44.555 107.253  55.228  1.00  0.00    -0.246 OA
ATOM      9  O   UNL     1      45.862 106.133  53.797  1.00  0.00    -0.423 OA
ATOM     10  C   UNL     1      49.299 106.655  52.678  1.00  0.00     0.058 A 
ATOM     11  C   UNL     1      49.439 105.577  51.793  1.00  0.00     0.116 A 
ENDROOT
BRANCH  11  12
ATOM     12  O   UNL     1      50.636 105.373  51.109  1.00  0.00    -0.508 OA
ATOM     13  H   UNL     1      50.779 105.734  50.173  1.00  0.00     0.293 HD
ENDBRANCH  11  12
TORSDOF 1
ENDMDL
MODEL 6
REMARK VINA RESULT:    -4.633      7.681      8.548
REMARK INTER + INTRA:          -4.768
REMARK INTER:                  -4.768
REMARK INTRA:                   0.000
REMARK UNBOUND:                 0.000
REMARK SMILES O=c1ccc2cc(O)ccc2o1
REMARK SMILES IDX 9 1 10 2 11 3 5 4 4 5 3 6 2 7 1 8 12 9 6 10 7 11 8 12
REMARK H PARENT 8 13
REMARK Flexibility Score: inf
ROOT
ATOM      1  C   UNL     1      49.748 113.286  48.478  1.00  0.00     0.050 A 
ATOM      2  C   UNL     1      48.785 113.000  49.450  1.00  0.00     0.052 A 
ATOM      3  C   UNL     1      47.436 113.272  49.202  1.00  0.00     0.138 A 
ATOM      4  C   UNL     1      47.050 113.837  47.967  1.00  0.00     0.021 A 
ATOM      5  C   UNL     1      45.694 114.099  47.748  1.00  0.00     0.019 A 
ATOM      6  C   UNL     1      44.769 113.797  48.747  1.00  0.00     0.094 A 
ATOM      7  C   UNL     1      45.224 113.238  49.946  1.00  0.00     0.336 A 
ATOM      8  O   UNL     1      44.405 112.957  50.859  1.00  0.00    -0.246 OA
ATOM      9  O   UNL     1      46.521 112.999  50.129  1.00  0.00    -0.423 OA
ATOM     10  C   UNL     1      48.020 114.123  46.995  1.00  0.00     0.058 A 
ATOM     11  C   UNL     1      49.370 113.847  47.251  1.00  0.00     0.116 A 
ENDROOT
BRANCH  11  12
ATOM     12  O   UNL     1      50.345 114.125  46.295  1.00  0.00    -0.508 OA
ATOM     13  H   UNL     1      51.281 114.407  46.559  1.00  0.00     0.293 HD
ENDBRANCH  11  12
TORSDOF 1
ENDMDL
MODEL 7
REMARK VINA RESULT:    -4.568     10.624     12.055
REMARK INTER + INTRA:          -4.701
REMARK INTER:                  -4.701
REMARK INTRA:                   0.000
REMARK UNBOUND:                 0.000
REMARK SMILES O=c1ccc2cc(O)ccc2o1
REMARK SMILES IDX 9 1 10 2 11 3 5 4 4 5 3 6 2 7 1 8 12 9 6 10 7 11 8 12
REMARK H PARENT 8 13
REMARK Flexibility Score: inf
ROOT
ATOM      1  C   UNL     1      48.400 109.040  54.044  1.00  0.00     0.050 A 
ATOM      2  C   UNL     1      49.276 108.068  53.552  1.00  0.00     0.052 A 
ATOM      3  C   UNL     1      48.774 106.869  53.034  1.00  0.00     0.138 A 
ATOM      4  C   UNL     1      47.380 106.644  53.012  1.00  0.00     0.021 A 
ATOM      5  C   UNL     1      46.909 105.436  52.489  1.00  0.00     0.019 A 
ATOM      6  C   UNL     1      47.819 104.495  52.010  1.00  0.00     0.094 A 
ATOM      7  C   UNL     1      49.187 104.787  52.064  1.00  0.00     0.336 A 
ATOM      8  O   UNL     1      50.025 103.951  51.636  1.00  0.00    -0.246 OA
ATOM      9  O   UNL     1      49.610 105.944  52.567  1.00  0.00    -0.423 OA
ATOM     10  C   UNL     1      46.506 107.622  53.507  1.00  0.00     0.058 A 
ATOM     11  C   UNL     1      47.017 108.821  54.023  1.00  0.00     0.116 A 
ENDROOT
BRANCH  11  12
ATOM     12  O   UNL     1      46.160 109.802  54.518  1.00  0.00    -0.508 OA
ATOM     13  H   UNL     1      46.373 110.313  55.367  1.00  0.00     0.293 HD
ENDBRANCH  11  12
TORSDOF 1
ENDMDL
MODEL 8
REMARK VINA RESULT:    -4.502      4.582      5.727
REMARK INTER + INTRA:          -4.634
REMARK INTER:                  -4.634
REMARK INTRA:                   0.000
REMARK UNBOUND:                 0.000
REMARK SMILES O=c1ccc2cc(O)ccc2o1
REMARK SMILES IDX 9 1 10 2 11 3 5 4 4 5 3 6 2 7 1 8 12 9 6 10 7 11 8 12
REMARK H PARENT 8 13
REMARK Flexibility Score: inf
ROOT
ATOM      1  C   UNL     1      49.097 113.399  48.511  1.00  0.00     0.050 A 
ATOM      2  C   UNL     1      50.489 113.275  48.509  1.00  0.00     0.052 A 
ATOM      3  C   UNL     1      51.213 113.518  47.337  1.00  0.00     0.138 A 
ATOM      4  C   UNL     1      50.533 113.889  46.156  1.00  0.00     0.021 A 
ATOM      5  C   UNL     1      51.283 114.124  45.000  1.00  0.00     0.019 A 
ATOM      6  C   UNL     1      52.669 113.989  45.045  1.00  0.00     0.094 A 
ATOM      7  C   UNL     1      53.276 113.619  46.251  1.00  0.00     0.336 A 
ATOM      8  O   UNL     1      54.527 113.492  46.312  1.00  0.00    -0.246 OA
ATOM      9  O   UNL     1      52.538 113.399  47.336  1.00  0.00    -0.423 OA
ATOM     10  C   UNL     1      49.135 114.011  46.163  1.00  0.00     0.058 A 
ATOM     11  C   UNL     1      48.417 113.766  47.343  1.00  0.00     0.116 A 
ENDROOT
BRANCH  11  12
ATOM     12  O   UNL     1      47.029 113.884  47.365  1.00  0.00    -0.508 OA
ATOM     13  H   UNL     1      46.457 113.555  46.596  1.00  0.00     0.293 HD
ENDBRANCH  11  12
TORSDOF 1
ENDMDL
