MODEL 1
REMARK VINA RESULT:    -5.799      0.000      0.000
REMARK INTER + INTRA:          -7.773
REMARK INTER:                  -7.155
REMARK INTRA:                  -0.618
REMARK UNBOUND:                -0.618
REMARK SMILES CC(C)=CCC[C@H](C)[C@@H]1C=CC(C)=CC1
REMARK SMILES IDX 6 1 7 2 8 3 9 4 13 5 12 6 14 7 11 8 15 9 10 10 5 11 4 12
REMARK SMILES IDX 2 13 1 14 3 15
REMARK H PARENT
REMARK Flexibility Score: inf
ROOT
ATOM      1  C   UNL     1       3.961  10.272  10.876  1.00  0.00     0.008 C 
ENDROOT
BRANCH   1   2
ATOM      2  C   UNL     1       3.496  10.869  12.231  1.00  0.00    -0.007 C 
ATOM      3  C   UNL     1       2.250  10.138  12.772  1.00  0.00     0.008 C 
BRANCH   2   4
ATOM      4  C   UNL     1       3.287  12.410  12.121  1.00  0.00     0.018 C 
ATOM      5  C   UNL     1       4.012  16.686  11.829  1.00  0.00     0.044 C 
ATOM      6  C   UNL     1       3.927  15.199  12.001  1.00  0.00    -0.055 C 
ATOM      7  C   UNL     1       3.585  14.672  13.187  1.00  0.00    -0.023 C 
ATOM      8  C   UNL     1       4.284  14.306  10.875  1.00  0.00    -0.001 C 
ATOM      9  C   UNL     1       3.640  13.184  13.416  1.00  0.00     0.035 C 
ATOM     10  C   UNL     1       4.035  12.993  10.939  1.00  0.00    -0.023 C 
ENDBRANCH   2   4
ENDBRANCH   1   2
BRANCH   1  11
ATOM     11  C   UNL     1       4.384   8.794  10.947  1.00  0.00     0.027 C 
BRANCH  11  12
ATOM     12  C   UNL     1       5.502   8.562  11.937  1.00  0.00    -0.028 C 
ATOM     13  C   UNL     1       5.739   7.393  12.569  1.00  0.00    -0.080 C 
ATOM     14  C   UNL     1       4.849   6.186  12.386  1.00  0.00     0.039 C 
ATOM     15  C   UNL     1       6.919   7.309  13.504  1.00  0.00     0.039 C 
ENDBRANCH  11  12
ENDBRANCH   1  11
TORSDOF 4
ENDMDL
MODEL 2
REMARK VINA RESULT:    -5.712      1.206      6.752
REMARK INTER + INTRA:          -7.665
REMARK INTER:                  -7.031
REMARK INTRA:                  -0.635
REMARK UNBOUND:                -0.618
REMARK SMILES CC(C)=CCC[C@H](C)[C@@H]1C=CC(C)=CC1
REMARK SMILES IDX 6 1 7 2 8 3 9 4 13 5 12 6 14 7 11 8 15 9 10 10 5 11 4 12
REMARK SMILES IDX 2 13 1 14 3 15
REMARK H PARENT
REMARK Flexibility Score: inf
ROOT
ATOM      1  C   UNL     1       4.315  10.463  11.291  1.00  0.00     0.008 C 
ENDROOT
BRANCH   1   2
ATOM      2  C   UNL     1       3.733   9.089  11.720  1.00  0.00    -0.007 C 
ATOM      3  C   UNL     1       3.073   9.164  13.112  1.00  0.00     0.008 C 
BRANCH   2   4
ATOM      4  C   UNL     1       4.815   7.971  11.628  1.00  0.00     0.018 C 
ATOM      5  C   UNL     1       7.699   4.889  12.671  1.00  0.00     0.044 C 
ATOM      6  C   UNL     1       6.726   6.015  12.478  1.00  0.00    -0.055 C 
ATOM      7  C   UNL     1       7.166   7.244  12.166  1.00  0.00    -0.023 C 
ATOM      8  C   UNL     1       5.281   5.784  12.696  1.00  0.00    -0.001 C 
ATOM      9  C   UNL     1       6.218   8.414  12.117  1.00  0.00     0.035 C 
ATOM     10  C   UNL     1       4.381   6.711  12.348  1.00  0.00    -0.023 C 
ENDBRANCH   2   4
ENDBRANCH   1   2
BRANCH   1  11
ATOM     11  C   UNL     1       3.254  11.498  10.876  1.00  0.00     0.027 C 
BRANCH  11  12
ATOM     12  C   UNL     1       3.694  12.916  11.156  1.00  0.00    -0.028 C 
ATOM     13  C   UNL     1       3.561  13.541  12.346  1.00  0.00    -0.080 C 
ATOM     14  C   UNL     1       2.889  12.884  13.528  1.00  0.00     0.039 C 
ATOM     15  C   UNL     1       4.083  14.949  12.478  1.00  0.00     0.039 C 
ENDBRANCH  11  12
ENDBRANCH   1  11
TORSDOF 4
ENDMDL
MODEL 3
REMARK VINA RESULT:    -4.930      1.765      3.026
REMARK INTER + INTRA:          -6.700
REMARK INTER:                  -6.266
REMARK INTRA:                  -0.434
REMARK UNBOUND:                -0.618
REMARK SMILES CC(C)=CCC[C@H](C)[C@@H]1C=CC(C)=CC1
REMARK SMILES IDX 6 1 7 2 8 3 9 4 13 5 12 6 14 7 11 8 15 9 10 10 5 11 4 12
REMARK SMILES IDX 2 13 1 14 3 15
REMARK H PARENT
REMARK Flexibility Score: inf
ROOT
ATOM      1  C   UNL     1       4.369   8.120  12.924  1.00  0.00     0.008 C 
ENDROOT
BRANCH   1   2
ATOM      2  C   UNL     1       4.435   8.550  11.434  1.00  0.00    -0.007 C 
ATOM      3  C   UNL     1       5.892   8.750  10.969  1.00  0.00     0.008 C 
BRANCH   2   4
ATOM      4  C   UNL     1       3.544   9.801  11.174  1.00  0.00     0.018 C 
ATOM      5  C   UNL     1       1.811  13.782  11.394  1.00  0.00     0.044 C 
ATOM      6  C   UNL     1       2.467  12.437  11.487  1.00  0.00    -0.055 C 
ATOM      7  C   UNL     1       1.832  11.413  12.078  1.00  0.00    -0.023 C 
ATOM      8  C   UNL     1       3.845  12.253  10.979  1.00  0.00    -0.001 C 
ATOM      9  C   UNL     1       2.534  10.100  12.311  1.00  0.00     0.035 C 
ATOM     10  C   UNL     1       4.378  11.030  10.875  1.00  0.00    -0.023 C 
ENDBRANCH   2   4
ENDBRANCH   1   2
BRANCH   1  11
ATOM     11  C   UNL     1       4.256   6.600  13.141  1.00  0.00     0.027 C 
BRANCH  11  12
ATOM     12  C   UNL     1       5.430   5.848  12.559  1.00  0.00    -0.028 C 
ATOM     13  C   UNL     1       6.688   5.889  13.049  1.00  0.00    -0.080 C 
ATOM     14  C   UNL     1       7.064   6.760  14.225  1.00  0.00     0.039 C 
ATOM     15  C   UNL     1       7.747   5.052  12.378  1.00  0.00     0.039 C 
ENDBRANCH  11  12
ENDBRANCH   1  11
TORSDOF 4
ENDMDL
MODEL 4
REMARK VINA RESULT:    -4.887      2.294      6.805
REMARK INTER + INTRA:          -6.648
REMARK INTER:                  -6.182
REMARK INTRA:                  -0.466
REMARK UNBOUND:                -0.618
REMARK SMILES CC(C)=CCC[C@H](C)[C@@H]1C=CC(C)=CC1
REMARK SMILES IDX 6 1 7 2 8 3 9 4 13 5 12 6 14 7 11 8 15 9 10 10 5 11 4 12
REMARK SMILES IDX 2 13 1 14 3 15
REMARK H PARENT
REMARK Flexibility Score: inf
ROOT
ATOM      1  C   UNL     1       4.098  10.201  11.986  1.00  0.00     0.008 C 
ENDROOT
BRANCH   1   2
ATOM      2  C   UNL     1       3.622   8.737  12.183  1.00  0.00    -0.007 C 
ATOM      3  C   UNL     1       2.996   8.530  13.577  1.00  0.00     0.008 C 
BRANCH   2   4
ATOM      4  C   UNL     1       4.774   7.730  11.887  1.00  0.00     0.018 C 
ATOM      5  C   UNL     1       8.017   4.875  12.366  1.00  0.00     0.044 C 
ATOM      6  C   UNL     1       6.937   5.915  12.368  1.00  0.00    -0.055 C 
ATOM      7  C   UNL     1       7.228   7.195  12.085  1.00  0.00    -0.023 C 
ATOM      8  C   UNL     1       5.555   5.540  12.745  1.00  0.00    -0.001 C 
ATOM      9  C   UNL     1       6.185   8.273  12.229  1.00  0.00     0.035 C 
ATOM     10  C   UNL     1       4.543   6.398  12.571  1.00  0.00    -0.023 C 
ENDBRANCH   2   4
ENDBRANCH   1   2
BRANCH   1  11
ATOM     11  C   UNL     1       3.177  11.052  11.093  1.00  0.00     0.027 C 
BRANCH  11  12
ATOM     12  C   UNL     1       1.752  11.073  11.594  1.00  0.00    -0.028 C 
ATOM     13  C   UNL     1       1.348  11.664  12.740  1.00  0.00    -0.080 C 
ATOM     14  C   UNL     1       2.320  12.329  13.686  1.00  0.00     0.039 C 
ATOM     15  C   UNL     1      -0.118  11.630  13.086  1.00  0.00     0.039 C 
ENDBRANCH  11  12
ENDBRANCH   1  11
TORSDOF 4
ENDMDL
MODEL 5
REMARK VINA RESULT:    -4.820      1.922      6.475
REMARK INTER + INTRA:          -6.565
REMARK INTER:                  -5.836
REMARK INTRA:                  -0.728
REMARK UNBOUND:                -0.618
REMARK SMILES CC(C)=CCC[C@H](C)[C@@H]1C=CC(C)=CC1
REMARK SMILES IDX 6 1 7 2 8 3 9 4 13 5 12 6 14 7 11 8 15 9 10 10 5 11 4 12
REMARK SMILES IDX 2 13 1 14 3 15
REMARK H PARENT
REMARK Flexibility Score: inf
ROOT
ATOM      1  C   UNL     1       4.062   7.557  12.209  1.00  0.00     0.008 C 
ENDROOT
BRANCH   1   2
ATOM      2  C   UNL     1       4.892   6.247  12.145  1.00  0.00    -0.007 C 
ATOM      3  C   UNL     1       4.131   5.064  12.779  1.00  0.00     0.008 C 
BRANCH   2   4
ATOM      4  C   UNL     1       6.308   6.451  12.765  1.00  0.00     0.018 C 
ATOM      5  C   UNL     1       9.964   8.271  14.255  1.00  0.00     0.044 C 
ATOM      6  C   UNL     1       8.681   7.793  13.643  1.00  0.00    -0.055 C 
ATOM      7  C   UNL     1       8.680   7.226  12.426  1.00  0.00    -0.023 C 
ATOM      8  C   UNL     1       7.401   8.004  14.357  1.00  0.00    -0.001 C 
ATOM      9  C   UNL     1       7.387   6.878  11.737  1.00  0.00     0.035 C 
ATOM     10  C   UNL     1       6.275   7.422  13.927  1.00  0.00    -0.023 C 
ENDBRANCH   2   4
ENDBRANCH   1   2
BRANCH   1  11
ATOM     11  C   UNL     1       4.420   8.587  11.123  1.00  0.00     0.027 C 
BRANCH  11  12
ATOM     12  C   UNL     1       4.532   9.989  11.675  1.00  0.00    -0.028 C 
ATOM     13  C   UNL     1       3.524  10.888  11.699  1.00  0.00    -0.080 C 
ATOM     14  C   UNL     1       2.167  10.589  11.108  1.00  0.00     0.039 C 
ATOM     15  C   UNL     1       3.782  12.238  12.318  1.00  0.00     0.039 C 
ENDBRANCH  11  12
ENDBRANCH   1  11
TORSDOF 4
ENDMDL
MODEL 6
REMARK VINA RESULT:    -3.983      1.565      5.946
REMARK INTER + INTRA:          -5.532
REMARK INTER:                  -4.573
REMARK INTRA:                  -0.959
REMARK UNBOUND:                -0.618
REMARK SMILES CC(C)=CCC[C@H](C)[C@@H]1C=CC(C)=CC1
REMARK SMILES IDX 6 1 7 2 8 3 9 4 13 5 12 6 14 7 11 8 15 9 10 10 5 11 4 12
REMARK SMILES IDX 2 13 1 14 3 15
REMARK H PARENT
REMARK Flexibility Score: inf
ROOT
ATOM      1  C   UNL     1       4.178  12.170  11.176  1.00  0.00     0.008 C 
ENDROOT
BRANCH   1   2
ATOM      2  C   UNL     1       3.723  10.717  10.875  1.00  0.00    -0.007 C 
ATOM      3  C   UNL     1       2.186  10.588  10.910  1.00  0.00     0.008 C 
BRANCH   2   4
ATOM      4  C   UNL     1       4.432   9.702  11.822  1.00  0.00     0.018 C 
ATOM      5  C   UNL     1       6.036   6.038  13.526  1.00  0.00     0.044 C 
ATOM      6  C   UNL     1       5.370   7.197  12.845  1.00  0.00    -0.055 C 
ATOM      7  C   UNL     1       4.214   7.688  13.319  1.00  0.00    -0.023 C 
ATOM      8  C   UNL     1       5.958   7.760  11.609  1.00  0.00    -0.001 C 
ATOM      9  C   UNL     1       3.459   8.749  12.562  1.00  0.00     0.035 C 
ATOM     10  C   UNL     1       5.495   8.905  11.093  1.00  0.00    -0.023 C 
ENDBRANCH   2   4
ENDBRANCH   1   2
BRANCH   1  11
ATOM     11  C   UNL     1       3.090  13.056  11.807  1.00  0.00     0.027 C 
BRANCH  11  12
ATOM     12  C   UNL     1       3.407  13.422  13.239  1.00  0.00    -0.028 C 
ATOM     13  C   UNL     1       2.828  12.859  14.322  1.00  0.00    -0.080 C 
ATOM     14  C   UNL     1       1.738  11.821  14.201  1.00  0.00     0.039 C 
ATOM     15  C   UNL     1       3.278  13.307  15.689  1.00  0.00     0.039 C 
ENDBRANCH  11  12
ENDBRANCH   1  11
TORSDOF 4
ENDMDL
MODEL 7
REMARK VINA RESULT:    -3.961      1.179      6.613
REMARK INTER + INTRA:          -5.505
REMARK INTER:                  -4.915
REMARK INTRA:                  -0.590
REMARK UNBOUND:                -0.618
REMARK SMILES CC(C)=CCC[C@H](C)[C@@H]1C=CC(C)=CC1
REMARK SMILES IDX 6 1 7 2 8 3 9 4 13 5 12 6 14 7 11 8 15 9 10 10 5 11 4 12
REMARK SMILES IDX 2 13 1 14 3 15
REMARK H PARENT
REMARK Flexibility Score: inf
ROOT
ATOM      1  C   UNL     1       3.561  11.923  12.724  1.00  0.00     0.008 C 
ENDROOT
BRANCH   1   2
ATOM      2  C   UNL     1       3.005  11.074  11.550  1.00  0.00    -0.007 C 
ATOM      3  C   UNL     1       1.463  11.080  11.530  1.00  0.00     0.008 C 
BRANCH   2   4
ATOM      4  C   UNL     1       3.600   9.634  11.572  1.00  0.00     0.018 C 
ATOM      5  C   UNL     1       5.750   6.048  12.763  1.00  0.00     0.044 C 
ATOM      6  C   UNL     1       5.120   7.375  12.461  1.00  0.00    -0.055 C 
ATOM      7  C   UNL     1       5.664   8.190  11.544  1.00  0.00    -0.023 C 
ATOM      8  C   UNL     1       3.929   7.815  13.223  1.00  0.00    -0.001 C 
ATOM      9  C   UNL     1       5.131   9.584  11.338  1.00  0.00     0.035 C 
ATOM     10  C   UNL     1       3.239   8.898  12.846  1.00  0.00    -0.023 C 
ENDBRANCH   2   4
ENDBRANCH   1   2
BRANCH   1  11
ATOM     11  C   UNL     1       2.963  13.338  12.821  1.00  0.00     0.027 C 
BRANCH  11  12
ATOM     12  C   UNL     1       3.985  14.415  12.541  1.00  0.00    -0.028 C 
ATOM     13  C   UNL     1       3.801  15.449  11.692  1.00  0.00    -0.080 C 
ATOM     14  C   UNL     1       2.539  15.601  10.875  1.00  0.00     0.039 C 
ATOM     15  C   UNL     1       4.905  16.464  11.547  1.00  0.00     0.039 C 
ENDBRANCH  11  12
ENDBRANCH   1  11
TORSDOF 4
ENDMDL
