MODEL 1
REMARK VINA RESULT:    -3.661      0.000      0.000
REMARK INTER + INTRA:          -4.262
REMARK INTER:                  -4.196
REMARK INTRA:                  -0.066
REMARK UNBOUND:                -0.066
REMARK SMILES CC(C)[C@H]([NH3+])C(=O)[O-]
REMARK SMILES IDX 4 1 5 2 6 6 7 7 8 8 2 9 1 10 3 11
REMARK H PARENT 5 3 5 4 5 5
REMARK Flexibility Score: inf
ROOT
ATOM      1  C   UNL     1      25.823  14.263  -3.371  1.00  0.00     0.230 C 
ENDROOT
BRANCH   1   2
ATOM      2  N   UNL     1      25.826  12.927  -2.757  1.00  0.00    -0.350 N 
ATOM      3  H   UNL     1      25.498  12.212  -3.446  1.00  0.00     0.345 HD
ATOM      4  H   UNL     1      26.798  12.662  -2.477  1.00  0.00     0.345 HD
ATOM      5  H   UNL     1      25.210  12.906  -1.911  1.00  0.00     0.345 HD
ENDBRANCH   1   2
BRANCH   1   6
ATOM      6  C   UNL     1      26.110  15.303  -2.315  1.00  0.00     0.099 C 
ATOM      7  O   UNL     1      27.286  15.712  -2.126  1.00  0.00    -0.544 OA
ATOM      8  O   UNL     1      25.074  15.809  -1.540  1.00  0.00    -0.544 OA
ENDBRANCH   1   6
BRANCH   1   9
ATOM      9  C   UNL     1      24.477  14.567  -4.098  1.00  0.00     0.047 C 
ATOM     10  C   UNL     1      23.917  13.324  -4.810  1.00  0.00     0.014 C 
ATOM     11  C   UNL     1      24.641  15.704  -5.123  1.00  0.00     0.014 C 
ENDBRANCH   1   9
TORSDOF 3
ENDMDL
MODEL 2
REMARK VINA RESULT:    -3.460      2.272      3.201
REMARK INTER + INTRA:          -4.031
REMARK INTER:                  -3.970
REMARK INTRA:                  -0.062
REMARK UNBOUND:                -0.066
REMARK SMILES CC(C)[C@H]([NH3+])C(=O)[O-]
REMARK SMILES IDX 4 1 5 2 6 6 7 7 8 8 2 9 1 10 3 11
REMARK H PARENT 5 3 5 4 5 5
REMARK Flexibility Score: inf
ROOT
ATOM      1  C   UNL     1      25.589  14.217  -3.244  1.00  0.00     0.230 C 
ENDROOT
BRANCH   1   2
ATOM      2  N   UNL     1      25.882  12.830  -2.854  1.00  0.00    -0.350 N 
ATOM      3  H   UNL     1      24.994  12.316  -2.651  1.00  0.00     0.345 HD
ATOM      4  H   UNL     1      26.355  12.327  -3.640  1.00  0.00     0.345 HD
ATOM      5  H   UNL     1      26.502  12.805  -2.012  1.00  0.00     0.345 HD
ENDBRANCH   1   2
BRANCH   1   6
ATOM      6  C   UNL     1      24.569  14.222  -4.357  1.00  0.00     0.099 C 
ATOM      7  O   UNL     1      24.353  15.271  -5.020  1.00  0.00    -0.544 OA
ATOM      8  O   UNL     1      23.856  13.066  -4.650  1.00  0.00    -0.544 OA
ENDBRANCH   1   6
BRANCH   1   9
ATOM      9  C   UNL     1      26.878  14.986  -3.670  1.00  0.00     0.047 C 
ATOM     10  C   UNL     1      27.829  14.100  -4.491  1.00  0.00     0.014 C 
ATOM     11  C   UNL     1      27.631  15.532  -2.443  1.00  0.00     0.014 C 
ENDBRANCH   1   9
TORSDOF 3
ENDMDL
MODEL 3
REMARK VINA RESULT:    -3.440      2.242      2.795
REMARK INTER + INTRA:          -4.009
REMARK INTER:                  -3.962
REMARK INTRA:                  -0.047
REMARK UNBOUND:                -0.066
REMARK SMILES CC(C)[C@H]([NH3+])C(=O)[O-]
REMARK SMILES IDX 4 1 5 2 6 6 7 7 8 8 2 9 1 10 3 11
REMARK H PARENT 5 3 5 4 5 5
REMARK Flexibility Score: inf
ROOT
ATOM      1  C   UNL     1      26.238  14.895  -2.154  1.00  0.00     0.230 C 
ENDROOT
BRANCH   1   2
ATOM      2  N   UNL     1      25.835  13.500  -2.391  1.00  0.00    -0.350 N 
ATOM      3  H   UNL     1      25.337  13.120  -1.553  1.00  0.00     0.345 HD
ATOM      4  H   UNL     1      25.167  13.450  -3.194  1.00  0.00     0.345 HD
ATOM      5  H   UNL     1      26.669  12.904  -2.603  1.00  0.00     0.345 HD
ENDBRANCH   1   2
BRANCH   1   6
ATOM      6  C   UNL     1      25.016  15.780  -2.171  1.00  0.00     0.099 C 
ATOM      7  O   UNL     1      24.689  16.435  -1.145  1.00  0.00    -0.544 OA
ATOM      8  O   UNL     1      24.240  15.873  -3.319  1.00  0.00    -0.544 OA
ENDBRANCH   1   6
BRANCH   1   9
ATOM      9  C   UNL     1      27.290  15.380  -3.198  1.00  0.00     0.047 C 
ATOM     10  C   UNL     1      27.535  14.332  -4.296  1.00  0.00     0.014 C 
ATOM     11  C   UNL     1      28.630  15.721  -2.521  1.00  0.00     0.014 C 
ENDBRANCH   1   9
TORSDOF 3
ENDMDL
MODEL 4
REMARK VINA RESULT:    -3.421      1.584      2.338
REMARK INTER + INTRA:          -3.987
REMARK INTER:                  -3.938
REMARK INTRA:                  -0.049
REMARK UNBOUND:                -0.066
REMARK SMILES CC(C)[C@H]([NH3+])C(=O)[O-]
REMARK SMILES IDX 4 1 5 2 6 6 7 7 8 8 2 9 1 10 3 11
REMARK H PARENT 5 3 5 4 5 5
REMARK Flexibility Score: inf
ROOT
ATOM      1  C   UNL     1      26.179  13.386  -3.950  1.00  0.00     0.230 C 
ENDROOT
BRANCH   1   2
ATOM      2  N   UNL     1      25.750  13.393  -2.544  1.00  0.00    -0.350 N 
ATOM      3  H   UNL     1      24.719  13.229  -2.479  1.00  0.00     0.345 HD
ATOM      4  H   UNL     1      26.218  12.617  -2.021  1.00  0.00     0.345 HD
ATOM      5  H   UNL     1      25.989  14.304  -2.087  1.00  0.00     0.345 HD
ENDBRANCH   1   2
BRANCH   1   6
ATOM      6  C   UNL     1      27.389  14.274  -4.111  1.00  0.00     0.099 C 
ATOM      7  O   UNL     1      28.130  14.165  -5.124  1.00  0.00    -0.544 OA
ATOM      8  O   UNL     1      27.696  15.214  -3.136  1.00  0.00    -0.544 OA
ENDBRANCH   1   6
BRANCH   1   9
ATOM      9  C   UNL     1      25.033  13.831  -4.909  1.00  0.00     0.047 C 
ATOM     10  C   UNL     1      24.625  15.295  -4.676  1.00  0.00     0.014 C 
ATOM     11  C   UNL     1      23.793  12.932  -4.750  1.00  0.00     0.014 C 
ENDBRANCH   1   9
TORSDOF 3
ENDMDL
MODEL 5
REMARK VINA RESULT:    -3.248      2.211      2.802
REMARK INTER + INTRA:          -3.788
REMARK INTER:                  -3.710
REMARK INTRA:                  -0.078
REMARK UNBOUND:                -0.066
REMARK SMILES CC(C)[C@H]([NH3+])C(=O)[O-]
REMARK SMILES IDX 4 1 5 2 6 6 7 7 8 8 2 9 1 10 3 11
REMARK H PARENT 5 3 5 4 5 5
REMARK Flexibility Score: inf
ROOT
ATOM      1  C   UNL     1      25.405  14.329  -3.105  1.00  0.00     0.230 C 
ENDROOT
BRANCH   1   2
ATOM      2  N   UNL     1      26.092  13.892  -1.880  1.00  0.00    -0.350 N 
ATOM      3  H   UNL     1      26.662  14.676  -1.486  1.00  0.00     0.345 HD
ATOM      4  H   UNL     1      25.391  13.625  -1.150  1.00  0.00     0.345 HD
ATOM      5  H   UNL     1      26.711  13.071  -2.074  1.00  0.00     0.345 HD
ENDBRANCH   1   2
BRANCH   1   6
ATOM      6  C   UNL     1      26.078  13.709  -4.306  1.00  0.00     0.099 C 
ATOM      7  O   UNL     1      27.278  13.982  -4.576  1.00  0.00    -0.544 OA
ATOM      8  O   UNL     1      25.372  12.837  -5.125  1.00  0.00    -0.544 OA
ENDBRANCH   1   6
BRANCH   1   9
ATOM      9  C   UNL     1      25.370  15.883  -3.229  1.00  0.00     0.047 C 
ATOM     10  C   UNL     1      24.822  16.548  -1.955  1.00  0.00     0.014 C 
ATOM     11  C   UNL     1      24.519  16.326  -4.434  1.00  0.00     0.014 C 
ENDBRANCH   1   9
TORSDOF 3
ENDMDL
MODEL 6
REMARK VINA RESULT:    -3.154     20.371     21.131
REMARK INTER + INTRA:          -3.680
REMARK INTER:                  -3.674
REMARK INTRA:                  -0.006
REMARK UNBOUND:                -0.066
REMARK SMILES CC(C)[C@H]([NH3+])C(=O)[O-]
REMARK SMILES IDX 4 1 5 2 6 6 7 7 8 8 2 9 1 10 3 11
REMARK H PARENT 5 3 5 4 5 5
REMARK Flexibility Score: inf
ROOT
ATOM      1  C   UNL     1      14.388   1.176   8.397  1.00  0.00     0.230 C 
ENDROOT
BRANCH   1   2
ATOM      2  N   UNL     1      14.139   2.178   9.443  1.00  0.00    -0.350 N 
ATOM      3  H   UNL     1      14.840   2.951   9.379  1.00  0.00     0.345 HD
ATOM      4  H   UNL     1      13.194   2.608   9.312  1.00  0.00     0.345 HD
ATOM      5  H   UNL     1      14.185   1.742  10.393  1.00  0.00     0.345 HD
ENDBRANCH   1   2
BRANCH   1   6
ATOM      6  C   UNL     1      14.804   1.872   7.123  1.00  0.00     0.099 C 
ATOM      7  O   UNL     1      14.732   1.273   6.017  1.00  0.00    -0.544 OA
ATOM      8  O   UNL     1      15.277   3.177   7.168  1.00  0.00    -0.544 OA
ENDBRANCH   1   6
BRANCH   1   9
ATOM      9  C   UNL     1      13.143   0.269   8.152  1.00  0.00     0.047 C 
ATOM     10  C   UNL     1      12.109   0.398   9.283  1.00  0.00     0.014 C 
ATOM     11  C   UNL     1      13.551  -1.209   8.009  1.00  0.00     0.014 C 
ENDBRANCH   1   9
TORSDOF 3
ENDMDL
MODEL 7
REMARK VINA RESULT:    -2.947     21.220     22.046
REMARK INTER + INTRA:          -3.443
REMARK INTER:                  -3.399
REMARK INTRA:                  -0.044
REMARK UNBOUND:                -0.066
REMARK SMILES CC(C)[C@H]([NH3+])C(=O)[O-]
REMARK SMILES IDX 4 1 5 2 6 6 7 7 8 8 2 9 1 10 3 11
REMARK H PARENT 5 3 5 4 5 5
REMARK Flexibility Score: inf
ROOT
ATOM      1  C   UNL     1      13.860   0.024   7.841  1.00  0.00     0.230 C 
ENDROOT
BRANCH   1   2
ATOM      2  N   UNL     1      14.728   1.032   8.468  1.00  0.00    -0.350 N 
ATOM      3  H   UNL     1      14.537   1.977   8.061  1.00  0.00     0.345 HD
ATOM      4  H   UNL     1      14.526   1.092   9.493  1.00  0.00     0.345 HD
ATOM      5  H   UNL     1      15.736   0.789   8.333  1.00  0.00     0.345 HD
ENDBRANCH   1   2
BRANCH   1   6
ATOM      6  C   UNL     1      13.699   0.341   6.374  1.00  0.00     0.099 C 
ATOM      7  O   UNL     1      12.783  -0.203   5.701  1.00  0.00    -0.544 OA
ATOM      8  O   UNL     1      14.566   1.233   5.757  1.00  0.00    -0.544 OA
ENDBRANCH   1   6
BRANCH   1   9
ATOM      9  C   UNL     1      12.472  -0.067   8.545  1.00  0.00     0.047 C 
ATOM     10  C   UNL     1      12.417   0.792   9.819  1.00  0.00     0.014 C 
ATOM     11  C   UNL     1      12.124  -1.524   8.905  1.00  0.00     0.014 C 
ENDBRANCH   1   9
TORSDOF 3
ENDMDL
MODEL 8
REMARK VINA RESULT:    -2.887     21.237     22.017
REMARK INTER + INTRA:          -3.374
REMARK INTER:                  -3.318
REMARK INTRA:                  -0.056
REMARK UNBOUND:                -0.066
REMARK SMILES CC(C)[C@H]([NH3+])C(=O)[O-]
REMARK SMILES IDX 4 1 5 2 6 6 7 7 8 8 2 9 1 10 3 11
REMARK H PARENT 5 3 5 4 5 5
REMARK Flexibility Score: inf
ROOT
ATOM      1  C   UNL     1      13.336   0.215   8.682  1.00  0.00     0.230 C 
ENDROOT
BRANCH   1   2
ATOM      2  N   UNL     1      12.060   0.817   9.095  1.00  0.00    -0.350 N 
ATOM      3  H   UNL     1      11.918   0.697  10.124  1.00  0.00     0.345 HD
ATOM      4  H   UNL     1      12.069   1.846   8.904  1.00  0.00     0.345 HD
ATOM      5  H   UNL     1      11.260   0.383   8.578  1.00  0.00     0.345 HD
ENDBRANCH   1   2
BRANCH   1   6
ATOM      6  C   UNL     1      14.305   1.305   8.294  1.00  0.00     0.099 C 
ATOM      7  O   UNL     1      14.519   2.274   9.071  1.00  0.00    -0.544 OA
ATOM      8  O   UNL     1      14.962   1.248   7.072  1.00  0.00    -0.544 OA
ENDBRANCH   1   6
BRANCH   1   9
ATOM      9  C   UNL     1      13.148  -0.803   7.515  1.00  0.00     0.047 C 
ATOM     10  C   UNL     1      11.875  -0.515   6.703  1.00  0.00     0.014 C 
ATOM     11  C   UNL     1      13.094  -2.249   8.040  1.00  0.00     0.014 C 
ENDBRANCH   1   9
TORSDOF 3
ENDMDL
MODEL 9
REMARK VINA RESULT:    -2.715      1.730      2.105
REMARK INTER + INTRA:          -3.178
REMARK INTER:                  -3.323
REMARK INTRA:                   0.145
REMARK UNBOUND:                -0.066
REMARK SMILES CC(C)[C@H]([NH3+])C(=O)[O-]
REMARK SMILES IDX 4 1 5 2 6 6 7 7 8 8 2 9 1 10 3 11
REMARK H PARENT 5 3 5 4 5 5
REMARK Flexibility Score: inf
ROOT
ATOM      1  C   UNL     1      26.905  14.536  -4.497  1.00  0.00     0.230 C 
ENDROOT
BRANCH   1   2
ATOM      2  N   UNL     1      28.058  13.759  -4.019  1.00  0.00    -0.350 N 
ATOM      3  H   UNL     1      27.789  13.187  -3.186  1.00  0.00     0.345 HD
ATOM      4  H   UNL     1      28.375  13.092  -4.760  1.00  0.00     0.345 HD
ATOM      5  H   UNL     1      28.853  14.392  -3.768  1.00  0.00     0.345 HD
ENDBRANCH   1   2
BRANCH   1   6
ATOM      6  C   UNL     1      26.517  15.554  -3.453  1.00  0.00     0.099 C 
ATOM      7  O   UNL     1      26.265  16.744  -3.784  1.00  0.00    -0.544 OA
ATOM      8  O   UNL     1      26.440  15.184  -2.117  1.00  0.00    -0.544 OA
ENDBRANCH   1   6
BRANCH   1   9
ATOM      9  C   UNL     1      25.696  13.619  -4.856  1.00  0.00     0.047 C 
ATOM     10  C   UNL     1      24.419  14.433  -5.124  1.00  0.00     0.014 C 
ATOM     11  C   UNL     1      25.417  12.601  -3.736  1.00  0.00     0.014 C 
ENDBRANCH   1   9
TORSDOF 3
ENDMDL
