MODEL 1
REMARK VINA RESULT:    -4.473      0.000      0.000
REMARK INTER + INTRA:          -9.193
REMARK INTER:                  -7.872
REMARK INTRA:                  -1.321
REMARK UNBOUND:                -1.321
REMARK SMILES CCCCCCC=CCCCCCCCC(=O)[O-]
REMARK SMILES IDX 10 1 11 2 12 3 13 4 14 5 15 6 16 7 17 8 18 9 9 10 8 11 7 12
REMARK SMILES IDX 6 13 5 14 4 15 3 16 2 17 1 18
REMARK H PARENT
REMARK Flexibility Score: inf
ROOT
ATOM      1  C   UNL     1      42.988  27.470   1.913  1.00  0.00     0.004 C 
ENDROOT
BRANCH   1   2
ATOM      2  C   UNL     1      42.237  28.264   0.824  1.00  0.00     0.000 C 
BRANCH   2   3
ATOM      3  C   UNL     1      42.817  29.666   0.559  1.00  0.00     0.000 C 
BRANCH   3   4
ATOM      4  C   UNL     1      43.203  29.896  -0.922  1.00  0.00     0.000 C 
BRANCH   4   5
ATOM      5  C   UNL     1      42.703  28.781  -1.858  1.00  0.00     0.006 C 
BRANCH   5   6
ATOM      6  C   UNL     1      43.825  28.119  -2.674  1.00  0.00     0.053 C 
BRANCH   6   7
ATOM      7  C   UNL     1      44.554  27.080  -1.878  1.00  0.00     0.041 C 
ATOM      8  O   UNL     1      45.797  27.177  -1.698  1.00  0.00    -0.550 OA
ATOM      9  O   UNL     1      43.866  25.992  -1.356  1.00  0.00    -0.550 OA
ENDBRANCH   6   7
ENDBRANCH   5   6
ENDBRANCH   4   5
ENDBRANCH   3   4
ENDBRANCH   2   3
ENDBRANCH   1   2
BRANCH   1  10
ATOM     10  C   UNL     1      44.456  27.897   2.095  1.00  0.00     0.027 C 
BRANCH  10  11
ATOM     11  C   UNL     1      45.417  26.757   1.866  1.00  0.00    -0.031 C 
ATOM     12  C   UNL     1      45.855  25.913   2.818  1.00  0.00    -0.031 C 
BRANCH  12  13
ATOM     13  C   UNL     1      45.511  26.004   4.287  1.00  0.00     0.027 C 
BRANCH  13  14
ATOM     14  C   UNL     1      46.558  26.823   5.055  1.00  0.00     0.004 C 
BRANCH  14  15
ATOM     15  C   UNL     1      45.991  27.411   6.355  1.00  0.00     0.000 C 
BRANCH  15  16
ATOM     16  C   UNL     1      45.803  26.318   7.417  1.00  0.00    -0.000 C 
BRANCH  16  17
ATOM     17  C   UNL     1      45.265  26.872   8.745  1.00  0.00    -0.003 C 
ATOM     18  C   UNL     1      45.092  28.391   8.728  1.00  0.00     0.004 C 
ENDBRANCH  16  17
ENDBRANCH  15  16
ENDBRANCH  14  15
ENDBRANCH  13  14
ENDBRANCH  12  13
ENDBRANCH  10  11
ENDBRANCH   1  10
TORSDOF 13
ENDMDL
MODEL 2
REMARK VINA RESULT:    -4.462      0.773      1.200
REMARK INTER + INTRA:          -9.175
REMARK INTER:                  -8.318
REMARK INTRA:                  -0.857
REMARK UNBOUND:                -1.321
REMARK SMILES CCCCCCC=CCCCCCCCC(=O)[O-]
REMARK SMILES IDX 10 1 11 2 12 3 13 4 14 5 15 6 16 7 17 8 18 9 9 10 8 11 7 12
REMARK SMILES IDX 6 13 5 14 4 15 3 16 2 17 1 18
REMARK H PARENT
REMARK Flexibility Score: inf
ROOT
ATOM      1  C   UNL     1      43.636  26.995   1.389  1.00  0.00     0.004 C 
ENDROOT
BRANCH   1   2
ATOM      2  C   UNL     1      42.330  27.817   1.415  1.00  0.00     0.000 C 
BRANCH   2   3
ATOM      3  C   UNL     1      42.462  29.219   0.791  1.00  0.00     0.000 C 
BRANCH   3   4
ATOM      4  C   UNL     1      43.389  29.250  -0.448  1.00  0.00     0.000 C 
BRANCH   4   5
ATOM      5  C   UNL     1      42.689  28.790  -1.739  1.00  0.00     0.006 C 
BRANCH   5   6
ATOM      6  C   UNL     1      43.633  28.092  -2.731  1.00  0.00     0.053 C 
BRANCH   6   7
ATOM      7  C   UNL     1      44.447  27.023  -2.066  1.00  0.00     0.041 C 
ATOM      8  O   UNL     1      45.633  27.258  -1.712  1.00  0.00    -0.550 OA
ATOM      9  O   UNL     1      43.906  25.760  -1.862  1.00  0.00    -0.550 OA
ENDBRANCH   6   7
ENDBRANCH   5   6
ENDBRANCH   4   5
ENDBRANCH   3   4
ENDBRANCH   2   3
ENDBRANCH   1   2
BRANCH   1  10
ATOM     10  C   UNL     1      44.501  27.159   2.651  1.00  0.00     0.027 C 
BRANCH  10  11
ATOM     11  C   UNL     1      44.886  25.832   3.258  1.00  0.00    -0.031 C 
ATOM     12  C   UNL     1      45.586  25.679   4.398  1.00  0.00    -0.031 C 
BRANCH  12  13
ATOM     13  C   UNL     1      46.159  26.806   5.226  1.00  0.00     0.027 C 
BRANCH  13  14
ATOM     14  C   UNL     1      46.724  26.289   6.555  1.00  0.00     0.004 C 
BRANCH  14  15
ATOM     15  C   UNL     1      45.672  26.301   7.673  1.00  0.00     0.000 C 
BRANCH  15  16
ATOM     16  C   UNL     1      45.968  27.409   8.695  1.00  0.00    -0.000 C 
BRANCH  16  17
ATOM     17  C   UNL     1      44.971  28.574   8.608  1.00  0.00    -0.003 C 
ATOM     18  C   UNL     1      45.407  29.656   7.621  1.00  0.00     0.004 C 
ENDBRANCH  16  17
ENDBRANCH  15  16
ENDBRANCH  14  15
ENDBRANCH  13  14
ENDBRANCH  12  13
ENDBRANCH  10  11
ENDBRANCH   1  10
TORSDOF 13
ENDMDL
MODEL 3
REMARK VINA RESULT:    -4.460      0.943      1.924
REMARK INTER + INTRA:          -9.170
REMARK INTER:                  -7.673
REMARK INTRA:                  -1.497
REMARK UNBOUND:                -1.321
REMARK SMILES CCCCCCC=CCCCCCCCC(=O)[O-]
REMARK SMILES IDX 10 1 11 2 12 3 13 4 14 5 15 6 16 7 17 8 18 9 9 10 8 11 7 12
REMARK SMILES IDX 6 13 5 14 4 15 3 16 2 17 1 18
REMARK H PARENT
REMARK Flexibility Score: inf
ROOT
ATOM      1  C   UNL     1      45.212  27.208   1.705  1.00  0.00     0.004 C 
ENDROOT
BRANCH   1   2
ATOM      2  C   UNL     1      43.753  26.771   1.957  1.00  0.00     0.000 C 
BRANCH   2   3
ATOM      3  C   UNL     1      42.722  27.900   1.772  1.00  0.00     0.000 C 
BRANCH   3   4
ATOM      4  C   UNL     1      43.065  28.853   0.602  1.00  0.00     0.000 C 
BRANCH   4   5
ATOM      5  C   UNL     1      42.661  28.292  -0.773  1.00  0.00     0.006 C 
BRANCH   5   6
ATOM      6  C   UNL     1      43.803  28.312  -1.801  1.00  0.00     0.053 C 
BRANCH   6   7
ATOM      7  C   UNL     1      44.477  26.978  -1.911  1.00  0.00     0.041 C 
ATOM      8  O   UNL     1      43.880  25.934  -1.534  1.00  0.00    -0.550 OA
ATOM      9  O   UNL     1      45.773  26.889  -2.403  1.00  0.00    -0.550 OA
ENDBRANCH   6   7
ENDBRANCH   5   6
ENDBRANCH   4   5
ENDBRANCH   3   4
ENDBRANCH   2   3
ENDBRANCH   1   2
BRANCH   1  10
ATOM     10  C   UNL     1      46.257  26.336   2.426  1.00  0.00     0.027 C 
BRANCH  10  11
ATOM     11  C   UNL     1      45.680  25.621   3.622  1.00  0.00    -0.031 C 
ATOM     12  C   UNL     1      45.853  25.996   4.904  1.00  0.00    -0.031 C 
BRANCH  12  13
ATOM     13  C   UNL     1      46.707  27.155   5.363  1.00  0.00     0.027 C 
BRANCH  13  14
ATOM     14  C   UNL     1      45.956  28.486   5.232  1.00  0.00     0.004 C 
BRANCH  14  15
ATOM     15  C   UNL     1      45.638  29.107   6.600  1.00  0.00     0.000 C 
BRANCH  15  16
ATOM     16  C   UNL     1      46.390  28.377   7.722  1.00  0.00    -0.000 C 
BRANCH  16  17
ATOM     17  C   UNL     1      45.445  27.806   8.791  1.00  0.00    -0.003 C 
ATOM     18  C   UNL     1      45.244  26.296   8.660  1.00  0.00     0.004 C 
ENDBRANCH  16  17
ENDBRANCH  15  16
ENDBRANCH  14  15
ENDBRANCH  13  14
ENDBRANCH  12  13
ENDBRANCH  10  11
ENDBRANCH   1  10
TORSDOF 13
ENDMDL
MODEL 4
REMARK VINA RESULT:    -4.383      1.613      1.974
REMARK INTER + INTRA:          -9.035
REMARK INTER:                  -8.368
REMARK INTRA:                  -0.667
REMARK UNBOUND:                -1.321
REMARK SMILES CCCCCCC=CCCCCCCCC(=O)[O-]
REMARK SMILES IDX 10 1 11 2 12 3 13 4 14 5 15 6 16 7 17 8 18 9 9 10 8 11 7 12
REMARK SMILES IDX 6 13 5 14 4 15 3 16 2 17 1 18
REMARK H PARENT
REMARK Flexibility Score: inf
ROOT
ATOM      1  C   UNL     1      43.723  26.861   1.060  1.00  0.00     0.004 C 
ENDROOT
BRANCH   1   2
ATOM      2  C   UNL     1      42.394  27.588   0.766  1.00  0.00     0.000 C 
BRANCH   2   3
ATOM      3  C   UNL     1      42.561  29.080   0.423  1.00  0.00     0.000 C 
BRANCH   3   4
ATOM      4  C   UNL     1      43.381  29.321  -0.867  1.00  0.00     0.000 C 
BRANCH   4   5
ATOM      5  C   UNL     1      42.682  28.800  -2.135  1.00  0.00     0.006 C 
BRANCH   5   6
ATOM      6  C   UNL     1      43.652  28.491  -3.286  1.00  0.00     0.053 C 
BRANCH   6   7
ATOM      7  C   UNL     1      43.022  27.615  -4.326  1.00  0.00     0.041 C 
ATOM      8  O   UNL     1      43.538  26.503  -4.615  1.00  0.00    -0.550 OA
ATOM      9  O   UNL     1      41.880  28.039  -4.995  1.00  0.00    -0.550 OA
ENDBRANCH   6   7
ENDBRANCH   5   6
ENDBRANCH   4   5
ENDBRANCH   3   4
ENDBRANCH   2   3
ENDBRANCH   1   2
BRANCH   1  10
ATOM     10  C   UNL     1      44.227  27.043   2.504  1.00  0.00     0.027 C 
BRANCH  10  11
ATOM     11  C   UNL     1      44.859  25.788   3.053  1.00  0.00    -0.031 C 
ATOM     12  C   UNL     1      45.696  25.741   4.106  1.00  0.00    -0.031 C 
BRANCH  12  13
ATOM     13  C   UNL     1      46.193  26.943   4.876  1.00  0.00     0.027 C 
BRANCH  13  14
ATOM     14  C   UNL     1      45.944  26.783   6.381  1.00  0.00     0.004 C 
BRANCH  14  15
ATOM     15  C   UNL     1      45.790  28.137   7.089  1.00  0.00     0.000 C 
BRANCH  15  16
ATOM     16  C   UNL     1      45.207  27.958   8.498  1.00  0.00    -0.000 C 
BRANCH  16  17
ATOM     17  C   UNL     1      45.204  26.490   8.953  1.00  0.00    -0.003 C 
ATOM     18  C   UNL     1      46.313  26.179   9.959  1.00  0.00     0.004 C 
ENDBRANCH  16  17
ENDBRANCH  15  16
ENDBRANCH  14  15
ENDBRANCH  13  14
ENDBRANCH  12  13
ENDBRANCH  10  11
ENDBRANCH   1  10
TORSDOF 13
ENDMDL
MODEL 5
REMARK VINA RESULT:    -4.320      2.938      4.060
REMARK INTER + INTRA:          -8.925
REMARK INTER:                  -6.749
REMARK INTRA:                  -2.175
REMARK UNBOUND:                -1.321
REMARK SMILES CCCCCCC=CCCCCCCCC(=O)[O-]
REMARK SMILES IDX 10 1 11 2 12 3 13 4 14 5 15 6 16 7 17 8 18 9 9 10 8 11 7 12
REMARK SMILES IDX 6 13 5 14 4 15 3 16 2 17 1 18
REMARK H PARENT
REMARK Flexibility Score: inf
ROOT
ATOM      1  C   UNL     1      42.625  27.131   0.045  1.00  0.00     0.004 C 
ENDROOT
BRANCH   1   2
ATOM      2  C   UNL     1      44.074  27.117  -0.487  1.00  0.00     0.000 C 
BRANCH   2   3
ATOM      3  C   UNL     1      44.352  28.173  -1.572  1.00  0.00     0.000 C 
BRANCH   3   4
ATOM      4  C   UNL     1      43.136  29.088  -1.857  1.00  0.00     0.000 C 
BRANCH   4   5
ATOM      5  C   UNL     1      42.672  29.037  -3.323  1.00  0.00     0.006 C 
BRANCH   5   6
ATOM      6  C   UNL     1      43.231  27.834  -4.100  1.00  0.00     0.053 C 
BRANCH   6   7
ATOM      7  C   UNL     1      42.737  27.806  -5.515  1.00  0.00     0.041 C 
ATOM      8  O   UNL     1      41.638  28.347  -5.812  1.00  0.00    -0.550 OA
ATOM      9  O   UNL     1      43.474  27.161  -6.499  1.00  0.00    -0.550 OA
ENDBRANCH   6   7
ENDBRANCH   5   6
ENDBRANCH   4   5
ENDBRANCH   3   4
ENDBRANCH   2   3
ENDBRANCH   1   2
BRANCH   1  10
ATOM     10  C   UNL     1      42.510  27.522   1.529  1.00  0.00     0.027 C 
BRANCH  10  11
ATOM     11  C   UNL     1      42.143  28.974   1.712  1.00  0.00    -0.031 C 
ATOM     12  C   UNL     1      43.024  29.982   1.853  1.00  0.00    -0.031 C 
BRANCH  12  13
ATOM     13  C   UNL     1      44.525  29.822   1.917  1.00  0.00     0.027 C 
BRANCH  13  14
ATOM     14  C   UNL     1      45.022  29.803   3.368  1.00  0.00     0.004 C 
BRANCH  14  15
ATOM     15  C   UNL     1      45.774  28.507   3.704  1.00  0.00     0.000 C 
BRANCH  15  16
ATOM     16  C   UNL     1      46.151  27.744   2.425  1.00  0.00    -0.000 C 
BRANCH  16  17
ATOM     17  C   UNL     1      46.245  26.227   2.649  1.00  0.00    -0.003 C 
ATOM     18  C   UNL     1      45.029  25.659   3.382  1.00  0.00     0.004 C 
ENDBRANCH  16  17
ENDBRANCH  15  16
ENDBRANCH  14  15
ENDBRANCH  13  14
ENDBRANCH  12  13
ENDBRANCH  10  11
ENDBRANCH   1  10
TORSDOF 13
ENDMDL
MODEL 6
REMARK VINA RESULT:    -4.284      1.466      2.485
REMARK INTER + INTRA:          -8.861
REMARK INTER:                  -6.859
REMARK INTRA:                  -2.002
REMARK UNBOUND:                -1.321
REMARK SMILES CCCCCCC=CCCCCCCCC(=O)[O-]
REMARK SMILES IDX 10 1 11 2 12 3 13 4 14 5 15 6 16 7 17 8 18 9 9 10 8 11 7 12
REMARK SMILES IDX 6 13 5 14 4 15 3 16 2 17 1 18
REMARK H PARENT
REMARK Flexibility Score: inf
ROOT
ATOM      1  C   UNL     1      42.376  27.904   1.243  1.00  0.00     0.004 C 
ENDROOT
BRANCH   1   2
ATOM      2  C   UNL     1      42.284  29.444   1.245  1.00  0.00     0.000 C 
BRANCH   2   3
ATOM      3  C   UNL     1      42.200  30.068  -0.161  1.00  0.00     0.000 C 
BRANCH   3   4
ATOM      4  C   UNL     1      43.270  29.520  -1.136  1.00  0.00     0.000 C 
BRANCH   4   5
ATOM      5  C   UNL     1      42.668  28.740  -2.318  1.00  0.00     0.006 C 
BRANCH   5   6
ATOM      6  C   UNL     1      43.683  27.833  -3.033  1.00  0.00     0.053 C 
BRANCH   6   7
ATOM      7  C   UNL     1      44.456  26.992  -2.063  1.00  0.00     0.041 C 
ATOM      8  O   UNL     1      43.881  26.068  -1.427  1.00  0.00    -0.550 OA
ATOM      9  O   UNL     1      45.804  27.243  -1.842  1.00  0.00    -0.550 OA
ENDBRANCH   6   7
ENDBRANCH   5   6
ENDBRANCH   4   5
ENDBRANCH   3   4
ENDBRANCH   2   3
ENDBRANCH   1   2
BRANCH   1  10
ATOM     10  C   UNL     1      43.541  27.347   2.080  1.00  0.00     0.027 C 
BRANCH  10  11
ATOM     11  C   UNL     1      44.886  27.769   1.543  1.00  0.00    -0.031 C 
ATOM     12  C   UNL     1      45.691  28.688   2.109  1.00  0.00    -0.031 C 
BRANCH  12  13
ATOM     13  C   UNL     1      45.356  29.497   3.341  1.00  0.00     0.027 C 
BRANCH  13  14
ATOM     14  C   UNL     1      46.423  29.322   4.430  1.00  0.00     0.004 C 
BRANCH  14  15
ATOM     15  C   UNL     1      46.037  28.239   5.447  1.00  0.00     0.000 C 
BRANCH  15  16
ATOM     16  C   UNL     1      46.708  26.900   5.106  1.00  0.00    -0.000 C 
BRANCH  16  17
ATOM     17  C   UNL     1      45.695  25.818   4.702  1.00  0.00    -0.003 C 
ATOM     18  C   UNL     1      46.131  25.028   3.468  1.00  0.00     0.004 C 
ENDBRANCH  16  17
ENDBRANCH  15  16
ENDBRANCH  14  15
ENDBRANCH  13  14
ENDBRANCH  12  13
ENDBRANCH  10  11
ENDBRANCH   1  10
TORSDOF 13
ENDMDL
MODEL 7
REMARK VINA RESULT:    -4.231      2.128      2.660
REMARK INTER + INTRA:          -8.768
REMARK INTER:                  -8.112
REMARK INTRA:                  -0.656
REMARK UNBOUND:                -1.321
REMARK SMILES CCCCCCC=CCCCCCCCC(=O)[O-]
REMARK SMILES IDX 10 1 11 2 12 3 13 4 14 5 15 6 16 7 17 8 18 9 9 10 8 11 7 12
REMARK SMILES IDX 6 13 5 14 4 15 3 16 2 17 1 18
REMARK H PARENT
REMARK Flexibility Score: inf
ROOT
ATOM      1  C   UNL     1      42.685  27.912   0.781  1.00  0.00     0.004 C 
ENDROOT
BRANCH   1   2
ATOM      2  C   UNL     1      43.072  26.917  -0.333  1.00  0.00     0.000 C 
BRANCH   2   3
ATOM      3  C   UNL     1      43.950  27.528  -1.440  1.00  0.00     0.000 C 
BRANCH   3   4
ATOM      4  C   UNL     1      44.150  26.584  -2.651  1.00  0.00     0.000 C 
BRANCH   4   5
ATOM      5  C   UNL     1      44.461  27.335  -3.958  1.00  0.00     0.006 C 
BRANCH   5   6
ATOM      6  C   UNL     1      43.420  27.096  -5.063  1.00  0.00     0.053 C 
BRANCH   6   7
ATOM      7  C   UNL     1      42.413  28.204  -5.129  1.00  0.00     0.041 C 
ATOM      8  O   UNL     1      41.566  28.235  -6.061  1.00  0.00    -0.550 OA
ATOM      9  O   UNL     1      42.427  29.216  -4.178  1.00  0.00    -0.550 OA
ENDBRANCH   6   7
ENDBRANCH   5   6
ENDBRANCH   4   5
ENDBRANCH   3   4
ENDBRANCH   2   3
ENDBRANCH   1   2
BRANCH   1  10
ATOM     10  C   UNL     1      43.451  27.700   2.099  1.00  0.00     0.027 C 
BRANCH  10  11
ATOM     11  C   UNL     1      44.155  26.366   2.145  1.00  0.00    -0.031 C 
ATOM     12  C   UNL     1      45.102  26.023   3.038  1.00  0.00    -0.031 C 
BRANCH  12  13
ATOM     13  C   UNL     1      45.666  26.936   4.102  1.00  0.00     0.027 C 
BRANCH  13  14
ATOM     14  C   UNL     1      46.365  26.135   5.209  1.00  0.00     0.004 C 
BRANCH  14  15
ATOM     15  C   UNL     1      46.494  26.941   6.511  1.00  0.00     0.000 C 
BRANCH  15  16
ATOM     16  C   UNL     1      45.605  26.348   7.614  1.00  0.00    -0.000 C 
BRANCH  16  17
ATOM     17  C   UNL     1      45.589  27.210   8.886  1.00  0.00    -0.003 C 
ATOM     18  C   UNL     1      45.066  28.624   8.637  1.00  0.00     0.004 C 
ENDBRANCH  16  17
ENDBRANCH  15  16
ENDBRANCH  14  15
ENDBRANCH  13  14
ENDBRANCH  12  13
ENDBRANCH  10  11
ENDBRANCH   1  10
TORSDOF 13
ENDMDL
MODEL 8
REMARK VINA RESULT:    -4.207      3.713      8.723
REMARK INTER + INTRA:          -8.725
REMARK INTER:                  -7.833
REMARK INTRA:                  -0.892
REMARK UNBOUND:                -1.321
REMARK SMILES CCCCCCC=CCCCCCCCC(=O)[O-]
REMARK SMILES IDX 10 1 11 2 12 3 13 4 14 5 15 6 16 7 17 8 18 9 9 10 8 11 7 12
REMARK SMILES IDX 6 13 5 14 4 15 3 16 2 17 1 18
REMARK H PARENT
REMARK Flexibility Score: inf
ROOT
ATOM      1  C   UNL     1      44.982  27.742   2.642  1.00  0.00     0.004 C 
ENDROOT
BRANCH   1   2
ATOM      2  C   UNL     1      44.616  26.259   2.857  1.00  0.00     0.000 C 
BRANCH   2   3
ATOM      3  C   UNL     1      45.381  25.588   4.014  1.00  0.00     0.000 C 
BRANCH   3   4
ATOM      4  C   UNL     1      46.465  26.500   4.637  1.00  0.00     0.000 C 
BRANCH   4   5
ATOM      5  C   UNL     1      46.062  27.068   6.009  1.00  0.00     0.006 C 
BRANCH   5   6
ATOM      6  C   UNL     1      46.303  26.090   7.170  1.00  0.00     0.053 C 
BRANCH   6   7
ATOM      7  C   UNL     1      45.616  26.536   8.425  1.00  0.00     0.041 C 
ATOM      8  O   UNL     1      45.524  25.754   9.409  1.00  0.00    -0.550 OA
ATOM      9  O   UNL     1      45.055  27.804   8.501  1.00  0.00    -0.550 OA
ENDBRANCH   6   7
ENDBRANCH   5   6
ENDBRANCH   4   5
ENDBRANCH   3   4
ENDBRANCH   2   3
ENDBRANCH   1   2
BRANCH   1  10
ATOM     10  C   UNL     1      43.880  28.560   1.944  1.00  0.00     0.027 C 
BRANCH  10  11
ATOM     11  C   UNL     1      42.704  27.708   1.536  1.00  0.00    -0.031 C 
ATOM     12  C   UNL     1      42.372  27.406   0.267  1.00  0.00    -0.031 C 
BRANCH  12  13
ATOM     13  C   UNL     1      43.081  27.922  -0.964  1.00  0.00     0.027 C 
BRANCH  13  14
ATOM     14  C   UNL     1      44.036  26.868  -1.540  1.00  0.00     0.004 C 
BRANCH  14  15
ATOM     15  C   UNL     1      44.433  27.179  -2.990  1.00  0.00     0.000 C 
BRANCH  15  16
ATOM     16  C   UNL     1      43.525  28.264  -3.587  1.00  0.00    -0.000 C 
BRANCH  16  17
ATOM     17  C   UNL     1      42.562  27.708  -4.648  1.00  0.00    -0.003 C 
ATOM     18  C   UNL     1      43.251  27.418  -5.981  1.00  0.00     0.004 C 
ENDBRANCH  16  17
ENDBRANCH  15  16
ENDBRANCH  14  15
ENDBRANCH  13  14
ENDBRANCH  12  13
ENDBRANCH  10  11
ENDBRANCH   1  10
TORSDOF 13
ENDMDL
MODEL 9
REMARK VINA RESULT:    -4.163      3.552      7.989
REMARK INTER + INTRA:          -8.648
REMARK INTER:                  -7.225
REMARK INTRA:                  -1.423
REMARK UNBOUND:                -1.321
REMARK SMILES CCCCCCC=CCCCCCCCC(=O)[O-]
REMARK SMILES IDX 10 1 11 2 12 3 13 4 14 5 15 6 16 7 17 8 18 9 9 10 8 11 7 12
REMARK SMILES IDX 6 13 5 14 4 15 3 16 2 17 1 18
REMARK H PARENT
REMARK Flexibility Score: inf
ROOT
ATOM      1  C   UNL     1      44.822  26.977   2.400  1.00  0.00     0.004 C 
ENDROOT
BRANCH   1   2
ATOM      2  C   UNL     1      44.918  25.710   3.276  1.00  0.00     0.000 C 
BRANCH   2   3
ATOM      3  C   UNL     1      46.270  25.548   3.995  1.00  0.00     0.000 C 
BRANCH   3   4
ATOM      4  C   UNL     1      46.826  26.881   4.553  1.00  0.00     0.000 C 
BRANCH   4   5
ATOM      5  C   UNL     1      46.174  27.299   5.882  1.00  0.00     0.006 C 
BRANCH   5   6
ATOM      6  C   UNL     1      46.114  26.164   6.918  1.00  0.00     0.053 C 
BRANCH   6   7
ATOM      7  C   UNL     1      45.575  26.639   8.233  1.00  0.00     0.041 C 
ATOM      8  O   UNL     1      45.184  27.830   8.364  1.00  0.00    -0.550 OA
ATOM      9  O   UNL     1      45.529  25.777   9.321  1.00  0.00    -0.550 OA
ENDBRANCH   6   7
ENDBRANCH   5   6
ENDBRANCH   4   5
ENDBRANCH   3   4
ENDBRANCH   2   3
ENDBRANCH   1   2
BRANCH   1  10
ATOM     10  C   UNL     1      43.694  26.928   1.354  1.00  0.00     0.027 C 
BRANCH  10  11
ATOM     11  C   UNL     1      42.431  27.594   1.841  1.00  0.00    -0.031 C 
ATOM     12  C   UNL     1      42.089  28.873   1.598  1.00  0.00    -0.031 C 
BRANCH  12  13
ATOM     13  C   UNL     1      42.942  29.875   0.853  1.00  0.00     0.027 C 
BRANCH  13  14
ATOM     14  C   UNL     1      42.486  30.018  -0.605  1.00  0.00     0.004 C 
BRANCH  14  15
ATOM     15  C   UNL     1      43.574  29.577  -1.596  1.00  0.00     0.000 C 
BRANCH  15  16
ATOM     16  C   UNL     1      43.228  28.219  -2.223  1.00  0.00    -0.000 C 
BRANCH  16  17
ATOM     17  C   UNL     1      44.413  27.241  -2.204  1.00  0.00    -0.003 C 
ATOM     18  C   UNL     1      45.697  27.876  -1.670  1.00  0.00     0.004 C 
ENDBRANCH  16  17
ENDBRANCH  15  16
ENDBRANCH  14  15
ENDBRANCH  13  14
ENDBRANCH  12  13
ENDBRANCH  10  11
ENDBRANCH   1  10
TORSDOF 13
ENDMDL
