MODEL 1
REMARK VINA RESULT:     4.015      0.000      0.000
REMARK INTER + INTRA:           6.777
REMARK INTER:                   6.128
REMARK INTRA:                   0.649
REMARK UNBOUND:                 0.649
REMARK SMILES CC1=CCC[C@@H](C)C(=O)C[C@H](C(C)C)C(=O)C1
REMARK SMILES IDX 8 1 9 2 6 3 7 4 5 5 4 6 3 7 2 8 1 9 10 11 11 12 15 13 16 14
REMARK SMILES IDX 17 15 12 17 13 18 14 19
REMARK H PARENT
REMARK Flexibility Score: 70.00
ROOT
ATOM      1  C   UNL     1      13.613  37.639 -15.010  1.00  0.00     0.136 C 
ATOM      2  O   UNL     1      14.741  38.088 -14.863  1.00  0.00    -0.299 OA
ENDROOT
BRANCH   1   3
ATOM      3  C   UNL     1      13.443  36.139 -15.169  1.00  0.00     0.053 C 
ATOM      4  C   UNL     1      13.685  35.410 -13.841  1.00  0.00     0.016 C 
BRANCH   3   5
ATOM      5  C   UNL     1      14.345  35.574 -16.284  1.00  0.00     0.015 C 
BRANCH   5   6
ATOM      6  C   UNL     1      14.454  36.528 -17.494  1.00  0.00     0.028 C 
BRANCH   6   7
ATOM      7  C   UNL     1      13.471  36.148 -18.573  1.00  0.00    -0.028 C 
ATOM      8  C   UNL     1      12.187  36.574 -18.651  1.00  0.00    -0.070 CG0
ATOM      9  C   UNL     1      11.375  36.145 -19.847  1.00  0.00     0.039 C 
ATOM     10  G   UNL     1      11.524  37.431 -17.584  1.00  0.00     0.000 G0
ENDBRANCH   6   7
ENDBRANCH   5   6
ENDBRANCH   3   5
ENDBRANCH   1   3
BRANCH   1  11
ATOM     11  C   UNL     1      12.446  38.607 -15.038  1.00  0.00     0.087 C 
BRANCH  11  12
ATOM     12  C   UNL     1      12.455  39.587 -16.246  1.00  0.00     0.066 C 
BRANCH  12  13
ATOM     13  C   UNL     1      11.978  38.890 -17.517  1.00  0.00     0.140 C 
ATOM     14  O   UNL     1      11.978  39.525 -18.562  1.00  0.00    -0.299 OA
BRANCH  13  15
ATOM     15  C   UNL     1      11.532  37.441 -17.579  1.00  0.00     0.106 CG0
ATOM     16  G   UNL     1      12.189  36.592 -18.657  1.00  0.00     0.000 G0
ENDBRANCH  13  15
ENDBRANCH  12  13
BRANCH  12  17
ATOM     17  C   UNL     1      11.581  40.851 -15.965  1.00  0.00    -0.006 C 
ATOM     18  C   UNL     1      10.239  40.494 -15.301  1.00  0.00     0.008 C 
ATOM     19  C   UNL     1      12.323  41.861 -15.070  1.00  0.00     0.008 C 
ENDBRANCH  12  17
ENDBRANCH  11  12
ENDBRANCH   1  11
TORSDOF 1
ENDMDL
MODEL 2
REMARK VINA RESULT:     4.418      1.522      4.706
REMARK INTER + INTRA:           7.393
REMARK INTER:                   6.395
REMARK INTRA:                   0.998
REMARK UNBOUND:                 0.649
REMARK SMILES CC1=CCC[C@@H](C)C(=O)C[C@H](C(C)C)C(=O)C1
REMARK SMILES IDX 8 1 9 2 6 3 7 4 5 5 4 6 3 7 2 8 1 9 10 11 11 12 15 13 16 14
REMARK SMILES IDX 17 15 12 17 13 18 14 19
REMARK H PARENT
REMARK Flexibility Score: 70.00
ROOT
ATOM      1  C   UNL     1      11.867  39.111 -17.247  1.00  0.00     0.136 C 
ATOM      2  O   UNL     1      12.534  39.921 -17.876  1.00  0.00    -0.299 OA
ENDROOT
BRANCH   1   3
ATOM      3  C   UNL     1      11.580  39.388 -15.783  1.00  0.00     0.053 C 
ATOM      4  C   UNL     1      10.663  40.607 -15.620  1.00  0.00     0.016 C 
BRANCH   3   5
ATOM      5  C   UNL     1      12.875  39.555 -14.965  1.00  0.00     0.015 C 
BRANCH   5   6
ATOM      6  C   UNL     1      13.970  38.549 -15.383  1.00  0.00     0.028 C 
BRANCH   6   7
ATOM      7  C   UNL     1      13.976  37.347 -14.471  1.00  0.00    -0.028 C 
ATOM      8  C   UNL     1      13.426  36.142 -14.757  1.00  0.00    -0.070 CG0
ATOM      9  C   UNL     1      13.597  35.033 -13.749  1.00  0.00     0.039 C 
ATOM     10  G   UNL     1      12.627  35.866 -16.021  1.00  0.00     0.000 G0
ENDBRANCH   6   7
ENDBRANCH   5   6
ENDBRANCH   3   5
ENDBRANCH   1   3
BRANCH   1  11
ATOM     11  C   UNL     1      11.374  37.868 -17.963  1.00  0.00     0.087 C 
BRANCH  11  12
ATOM     12  C   UNL     1      12.506  36.937 -18.484  1.00  0.00     0.066 C 
BRANCH  12  13
ATOM     13  C   UNL     1      13.260  36.293 -17.324  1.00  0.00     0.140 C 
ATOM     14  O   UNL     1      14.466  36.125 -17.438  1.00  0.00    -0.299 OA
BRANCH  13  15
ATOM     15  C   UNL     1      12.616  35.874 -16.016  1.00  0.00     0.106 CG0
ATOM     16  G   UNL     1      13.431  36.145 -14.760  1.00  0.00     0.000 G0
ENDBRANCH  13  15
ENDBRANCH  12  13
BRANCH  12  17
ATOM     17  C   UNL     1      11.947  35.836 -19.441  1.00  0.00    -0.006 C 
ATOM     18  C   UNL     1      10.946  36.407 -20.461  1.00  0.00     0.008 C 
ATOM     19  C   UNL     1      13.079  35.124 -20.203  1.00  0.00     0.008 C 
ENDBRANCH  12  17
ENDBRANCH  11  12
ENDBRANCH   1  11
TORSDOF 1
ENDMDL
MODEL 3
REMARK VINA RESULT:     4.724      1.615      4.159
REMARK INTER + INTRA:           7.859
REMARK INTER:                   7.334
REMARK INTRA:                   0.524
REMARK UNBOUND:                 0.649
REMARK SMILES CC1=CCC[C@@H](C)C(=O)C[C@H](C(C)C)C(=O)C1
REMARK SMILES IDX 8 1 9 2 6 3 7 4 5 5 4 6 3 7 2 8 1 9 10 11 11 12 15 13 16 14
REMARK SMILES IDX 17 15 12 17 13 18 14 19
REMARK H PARENT
REMARK Flexibility Score: 70.00
ROOT
ATOM      1  C   UNL     1      12.864  36.002 -15.971  1.00  0.00     0.136 C 
ATOM      2  O   UNL     1      11.679  35.757 -15.794  1.00  0.00    -0.299 OA
ENDROOT
BRANCH   1   3
ATOM      3  C   UNL     1      13.802  35.950 -14.780  1.00  0.00     0.053 C 
ATOM      4  C   UNL     1      13.296  34.963 -13.720  1.00  0.00     0.016 C 
BRANCH   3   5
ATOM      5  C   UNL     1      14.037  37.345 -14.170  1.00  0.00     0.015 C 
BRANCH   5   6
ATOM      6  C   UNL     1      14.031  38.463 -15.237  1.00  0.00     0.028 C 
BRANCH   6   7
ATOM      7  C   UNL     1      12.729  39.226 -15.213  1.00  0.00    -0.028 C 
ATOM      8  C   UNL     1      11.960  39.500 -16.294  1.00  0.00    -0.070 CG0
ATOM      9  C   UNL     1      10.651  40.212 -16.065  1.00  0.00     0.039 C 
ATOM     10  G   UNL     1      12.366  39.153 -17.719  1.00  0.00     0.000 G0
ENDBRANCH   6   7
ENDBRANCH   5   6
ENDBRANCH   3   5
ENDBRANCH   1   3
BRANCH   1  11
ATOM     11  C   UNL     1      13.329  36.359 -17.370  1.00  0.00     0.087 C 
BRANCH  11  12
ATOM     12  C   UNL     1      12.177  36.550 -18.398  1.00  0.00     0.066 C 
BRANCH  12  13
ATOM     13  C   UNL     1      11.663  37.987 -18.381  1.00  0.00     0.140 C 
ATOM     14  O   UNL     1      10.586  38.224 -18.909  1.00  0.00    -0.299 OA
BRANCH  13  15
ATOM     15  C   UNL     1      12.387  39.144 -17.718  1.00  0.00     0.106 CG0
ATOM     16  G   UNL     1      11.939  39.481 -16.303  1.00  0.00     0.000 G0
ENDBRANCH  13  15
ENDBRANCH  12  13
BRANCH  12  17
ATOM     17  C   UNL     1      12.628  36.157 -19.842  1.00  0.00    -0.006 C 
ATOM     18  C   UNL     1      14.039  35.542 -19.863  1.00  0.00     0.008 C 
ATOM     19  C   UNL     1      11.645  35.164 -20.488  1.00  0.00     0.008 C 
ENDBRANCH  12  17
ENDBRANCH  11  12
ENDBRANCH   1  11
TORSDOF 1
ENDMDL
MODEL 4
REMARK VINA RESULT:     5.879      1.717      4.664
REMARK INTER + INTRA:           9.621
REMARK INTER:                   8.583
REMARK INTRA:                   1.038
REMARK UNBOUND:                 0.649
REMARK SMILES CC1=CCC[C@@H](C)C(=O)C[C@H](C(C)C)C(=O)C1
REMARK SMILES IDX 8 1 9 2 6 3 7 4 5 5 4 6 3 7 2 8 1 9 10 11 11 12 15 13 16 14
REMARK SMILES IDX 17 15 12 17 13 18 14 19
REMARK H PARENT
REMARK Flexibility Score: 70.00
ROOT
ATOM      1  C   UNL     1      12.567  36.288 -17.945  1.00  0.00     0.136 C 
ATOM      2  O   UNL     1      13.661  36.126 -18.466  1.00  0.00    -0.299 OA
ENDROOT
BRANCH   1   3
ATOM      3  C   UNL     1      11.402  36.710 -18.820  1.00  0.00     0.053 C 
ATOM      4  C   UNL     1      11.560  36.174 -20.249  1.00  0.00     0.016 C 
BRANCH   3   5
ATOM      5  C   UNL     1      11.207  38.239 -18.821  1.00  0.00     0.015 C 
BRANCH   5   6
ATOM      6  C   UNL     1      12.438  38.990 -18.268  1.00  0.00     0.028 C 
BRANCH   6   7
ATOM      7  C   UNL     1      12.019  40.130 -17.372  1.00  0.00    -0.028 C 
ATOM      8  C   UNL     1      11.821  40.044 -16.035  1.00  0.00    -0.070 CG0
ATOM      9  C   UNL     1      11.476  41.310 -15.292  1.00  0.00     0.039 C 
ATOM     10  G   UNL     1      11.900  38.738 -15.259  1.00  0.00     0.000 G0
ENDBRANCH   6   7
ENDBRANCH   5   6
ENDBRANCH   3   5
ENDBRANCH   1   3
BRANCH   1  11
ATOM     11  C   UNL     1      12.438  36.072 -16.449  1.00  0.00     0.087 C 
BRANCH  11  12
ATOM     12  C   UNL     1      13.601  36.676 -15.612  1.00  0.00     0.066 C 
BRANCH  12  13
ATOM     13  C   UNL     1      13.282  38.106 -15.185  1.00  0.00     0.140 C 
ATOM     14  O   UNL     1      14.196  38.805 -14.770  1.00  0.00    -0.299 OA
BRANCH  13  15
ATOM     15  C   UNL     1      11.904  38.734 -15.273  1.00  0.00     0.106 CG0
ATOM     16  G   UNL     1      11.825  40.052 -16.028  1.00  0.00     0.000 G0
ENDBRANCH  13  15
ENDBRANCH  12  13
BRANCH  12  17
ATOM     17  C   UNL     1      13.920  35.798 -14.359  1.00  0.00    -0.006 C 
ATOM     18  C   UNL     1      14.001  36.634 -13.069  1.00  0.00     0.008 C 
ATOM     19  C   UNL     1      12.870  34.689 -14.166  1.00  0.00     0.008 C 
ENDBRANCH  12  17
ENDBRANCH  11  12
ENDBRANCH   1  11
TORSDOF 1
ENDMDL
MODEL 5
REMARK VINA RESULT:     6.844      1.677      3.417
REMARK INTER + INTRA:          11.094
REMARK INTER:                   8.948
REMARK INTRA:                   2.147
REMARK UNBOUND:                 0.649
REMARK SMILES CC1=CCC[C@@H](C)C(=O)C[C@H](C(C)C)C(=O)C1
REMARK SMILES IDX 8 1 9 2 6 3 7 4 5 5 4 6 3 7 2 8 1 9 10 11 11 12 15 13 16 14
REMARK SMILES IDX 17 15 12 17 13 18 14 19
REMARK H PARENT
REMARK Flexibility Score: 70.00
ROOT
ATOM      1  C   UNL     1      11.572  37.073 -17.652  1.00  0.00     0.136 C 
ATOM      2  O   UNL     1      11.359  36.186 -16.836  1.00  0.00    -0.299 OA
ENDROOT
BRANCH   1   3
ATOM      3  C   UNL     1      12.323  36.723 -18.923  1.00  0.00     0.053 C 
ATOM      4  C   UNL     1      11.499  35.783 -19.812  1.00  0.00     0.016 C 
BRANCH   3   5
ATOM      5  C   UNL     1      13.713  36.128 -18.624  1.00  0.00     0.015 C 
BRANCH   5   6
ATOM      6  C   UNL     1      14.418  36.838 -17.448  1.00  0.00     0.028 C 
BRANCH   6   7
ATOM      7  C   UNL     1      14.200  36.090 -16.156  1.00  0.00    -0.028 C 
ATOM      8  C   UNL     1      13.878  36.654 -14.967  1.00  0.00    -0.070 CG0
ATOM      9  C   UNL     1      13.626  35.737 -13.797  1.00  0.00     0.039 C 
ATOM     10  G   UNL     1      13.789  38.158 -14.751  1.00  0.00     0.000 G0
ENDBRANCH   6   7
ENDBRANCH   5   6
ENDBRANCH   3   5
ENDBRANCH   1   3
BRANCH   1  11
ATOM     11  C   UNL     1      11.087  38.476 -17.341  1.00  0.00     0.087 C 
BRANCH  11  12
ATOM     12  C   UNL     1      11.544  39.020 -15.957  1.00  0.00     0.066 C 
BRANCH  12  13
ATOM     13  C   UNL     1      13.061  38.946 -15.815  1.00  0.00     0.140 C 
ATOM     14  O   UNL     1      13.749  39.596 -16.590  1.00  0.00    -0.299 OA
BRANCH  13  15
ATOM     15  C   UNL     1      13.780  38.142 -14.747  1.00  0.00     0.106 CG0
ATOM     16  G   UNL     1      13.863  36.643 -14.991  1.00  0.00     0.000 G0
ENDBRANCH  13  15
ENDBRANCH  12  13
BRANCH  12  17
ATOM     17  C   UNL     1      11.052  40.485 -15.728  1.00  0.00    -0.006 C 
ATOM     18  C   UNL     1       9.766  40.542 -14.883  1.00  0.00     0.008 C 
ATOM     19  C   UNL     1      12.133  41.341 -15.043  1.00  0.00     0.008 C 
ENDBRANCH  12  17
ENDBRANCH  11  12
ENDBRANCH   1  11
TORSDOF 1
ENDMDL
