MODEL 1
REMARK VINA RESULT:    -3.112      0.000      0.000
REMARK INTER + INTRA:          -3.112
REMARK INTER:                  -3.112
REMARK INTRA:                   0.000
REMARK UNBOUND:                 0.000
REMARK SMILES CC(=O)[O-]
REMARK SMILES IDX 1 1 2 2 3 3 4 4
REMARK H PARENT
REMARK Flexibility Score: inf
ROOT
ATOM      1  C   UNL     1     -18.698  -1.489  -4.923  1.00  0.00     0.063 C 
ATOM      2  C   UNL     1     -17.967  -1.713  -6.204  1.00  0.00     0.038 C 
ATOM      3  O   UNL     1     -17.973  -2.849  -6.745  1.00  0.00    -0.550 OA
ATOM      4  O   UNL     1     -17.232  -0.682  -6.775  1.00  0.00    -0.550 OA
ENDROOT
TORSDOF 0
ENDMDL
MODEL 2
REMARK VINA RESULT:    -3.109      1.374      1.686
REMARK INTER + INTRA:          -3.109
REMARK INTER:                  -3.109
REMARK INTRA:                   0.000
REMARK UNBOUND:                 0.000
REMARK SMILES CC(=O)[O-]
REMARK SMILES IDX 1 1 2 2 3 3 4 4
REMARK H PARENT
REMARK Flexibility Score: inf
ROOT
ATOM      1  C   UNL     1     -18.233  -2.848  -6.465  1.00  0.00     0.063 C 
ATOM      2  C   UNL     1     -18.031  -1.418  -6.092  1.00  0.00     0.038 C 
ATOM      3  O   UNL     1     -18.693  -0.911  -5.150  1.00  0.00    -0.550 OA
ATOM      4  O   UNL     1     -17.151  -0.627  -6.820  1.00  0.00    -0.550 OA
ENDROOT
TORSDOF 0
ENDMDL
MODEL 3
REMARK VINA RESULT:    -3.058      1.397      2.194
REMARK INTER + INTRA:          -3.058
REMARK INTER:                  -3.058
REMARK INTRA:                   0.000
REMARK UNBOUND:                 0.000
REMARK SMILES CC(=O)[O-]
REMARK SMILES IDX 1 1 2 2 3 3 4 4
REMARK H PARENT
REMARK Flexibility Score: inf
ROOT
ATOM      1  C   UNL     1     -19.048  -1.516  -5.285  1.00  0.00     0.063 C 
ATOM      2  C   UNL     1     -18.902  -2.771  -6.078  1.00  0.00     0.038 C 
ATOM      3  O   UNL     1     -17.897  -2.937  -6.817  1.00  0.00    -0.550 OA
ATOM      4  O   UNL     1     -19.900  -3.735  -6.046  1.00  0.00    -0.550 OA
ENDROOT
TORSDOF 0
ENDMDL
MODEL 4
REMARK VINA RESULT:    -3.015      1.476      1.859
REMARK INTER + INTRA:          -3.015
REMARK INTER:                  -3.015
REMARK INTRA:                   0.000
REMARK UNBOUND:                 0.000
REMARK SMILES CC(=O)[O-]
REMARK SMILES IDX 1 1 2 2 3 3 4 4
REMARK H PARENT
REMARK Flexibility Score: inf
ROOT
ATOM      1  C   UNL     1     -19.438  -1.675  -5.224  1.00  0.00     0.063 C 
ATOM      2  C   UNL     1     -19.108  -2.869  -6.055  1.00  0.00     0.038 C 
ATOM      3  O   UNL     1     -19.856  -3.881  -6.033  1.00  0.00    -0.550 OA
ATOM      4  O   UNL     1     -17.944  -2.889  -6.813  1.00  0.00    -0.550 OA
ENDROOT
TORSDOF 0
ENDMDL
MODEL 5
REMARK VINA RESULT:    -2.967      2.399      3.011
REMARK INTER + INTRA:          -2.967
REMARK INTER:                  -2.967
REMARK INTRA:                   0.000
REMARK UNBOUND:                 0.000
REMARK SMILES CC(=O)[O-]
REMARK SMILES IDX 1 1 2 2 3 3 4 4
REMARK H PARENT
REMARK Flexibility Score: inf
ROOT
ATOM      1  C   UNL     1     -18.120  -2.774  -6.487  1.00  0.00     0.063 C 
ATOM      2  C   UNL     1     -19.475  -2.889  -5.874  1.00  0.00     0.038 C 
ATOM      3  O   UNL     1     -19.985  -1.903  -5.281  1.00  0.00    -0.550 OA
ATOM      4  O   UNL     1     -20.154  -4.100  -5.907  1.00  0.00    -0.550 OA
ENDROOT
TORSDOF 0
ENDMDL
MODEL 6
REMARK VINA RESULT:    -2.908     11.542     11.868
REMARK INTER + INTRA:          -2.908
REMARK INTER:                  -2.908
REMARK INTRA:                   0.000
REMARK UNBOUND:                 0.000
REMARK SMILES CC(=O)[O-]
REMARK SMILES IDX 1 1 2 2 3 3 4 4
REMARK H PARENT
REMARK Flexibility Score: inf
ROOT
ATOM      1  C   UNL     1     -25.507  -7.612 -13.303  1.00  0.00     0.063 C 
ATOM      2  C   UNL     1     -25.048  -8.717 -12.413  1.00  0.00     0.038 C 
ATOM      3  O   UNL     1     -25.868  -9.304 -11.661  1.00  0.00    -0.550 OA
ATOM      4  O   UNL     1     -23.704  -9.063 -12.371  1.00  0.00    -0.550 OA
ENDROOT
TORSDOF 0
ENDMDL
MODEL 7
REMARK VINA RESULT:    -2.791     11.152     11.614
REMARK INTER + INTRA:          -2.791
REMARK INTER:                  -2.791
REMARK INTRA:                   0.000
REMARK UNBOUND:                 0.000
REMARK SMILES CC(=O)[O-]
REMARK SMILES IDX 1 1 2 2 3 3 4 4
REMARK H PARENT
REMARK Flexibility Score: inf
ROOT
ATOM      1  C   UNL     1     -17.103   2.013 -17.716  1.00  0.00     0.063 C 
ATOM      2  C   UNL     1     -18.398   1.537 -17.149  1.00  0.00     0.038 C 
ATOM      3  O   UNL     1     -19.315   1.142 -17.914  1.00  0.00    -0.550 OA
ATOM      4  O   UNL     1     -18.615   1.581 -15.778  1.00  0.00    -0.550 OA
ENDROOT
TORSDOF 0
ENDMDL
MODEL 8
REMARK VINA RESULT:    -2.782     12.572     12.702
REMARK INTER + INTRA:          -2.782
REMARK INTER:                  -2.782
REMARK INTRA:                   0.000
REMARK UNBOUND:                 0.000
REMARK SMILES CC(=O)[O-]
REMARK SMILES IDX 1 1 2 2 3 3 4 4
REMARK H PARENT
REMARK Flexibility Score: inf
ROOT
ATOM      1  C   UNL     1     -24.292  -7.965 -15.022  1.00  0.00     0.063 C 
ATOM      2  C   UNL     1     -25.414  -7.034 -14.710  1.00  0.00     0.038 C 
ATOM      3  O   UNL     1     -25.612  -6.020 -15.427  1.00  0.00    -0.550 OA
ATOM      4  O   UNL     1     -26.210  -7.255 -13.593  1.00  0.00    -0.550 OA
ENDROOT
TORSDOF 0
ENDMDL
MODEL 9
REMARK VINA RESULT:    -2.773     11.927     12.529
REMARK INTER + INTRA:          -2.773
REMARK INTER:                  -2.773
REMARK INTRA:                   0.000
REMARK UNBOUND:                 0.000
REMARK SMILES CC(=O)[O-]
REMARK SMILES IDX 1 1 2 2 3 3 4 4
REMARK H PARENT
REMARK Flexibility Score: inf
ROOT
ATOM      1  C   UNL     1     -23.719  -9.903 -14.658  1.00  0.00     0.063 C 
ATOM      2  C   UNL     1     -23.592 -10.067 -13.181  1.00  0.00     0.038 C 
ATOM      3  O   UNL     1     -23.876  -9.112 -12.413  1.00  0.00    -0.550 OA
ATOM      4  O   UNL     1     -23.106 -11.256 -12.653  1.00  0.00    -0.550 OA
ENDROOT
TORSDOF 0
ENDMDL
