MODEL 1
REMARK VINA RESULT:    -4.186      0.000      0.000
REMARK INTER + INTRA:          -5.265
REMARK INTER:                  -5.043
REMARK INTRA:                  -0.222
REMARK UNBOUND:                -0.222
REMARK SMILES OCC(O)CO
REMARK SMILES IDX 3 1 5 2 6 3 2 5 1 6 4 8
REMARK H PARENT 6 4 1 7 4 9
REMARK Flexibility Score: inf
ROOT
ATOM      1  C   UNL     1      28.397   2.387  12.756  1.00  0.00     0.165 C 
ENDROOT
BRANCH   1   2
ATOM      2  C   UNL     1      27.337   3.398  12.294  1.00  0.00     0.190 C 
BRANCH   2   3
ATOM      3  O   UNL     1      27.688   4.706  12.663  1.00  0.00    -0.394 OA
ATOM      4  H   UNL     1      27.886   5.196  11.822  1.00  0.00     0.210 HD
ENDBRANCH   2   3
ENDBRANCH   1   2
BRANCH   1   5
ATOM      5  C   UNL     1      29.612   3.079  13.394  1.00  0.00     0.190 C 
BRANCH   5   6
ATOM      6  O   UNL     1      29.311   3.471  14.705  1.00  0.00    -0.394 OA
ATOM      7  H   UNL     1      29.815   2.856  15.299  1.00  0.00     0.210 HD
ENDBRANCH   5   6
ENDBRANCH   1   5
BRANCH   1   8
ATOM      8  O   UNL     1      28.810   1.615  11.658  1.00  0.00    -0.388 OA
ATOM      9  H   UNL     1      29.741   1.890  11.446  1.00  0.00     0.211 HD
ENDBRANCH   1   8
TORSDOF 5
ENDMDL
MODEL 2
REMARK VINA RESULT:    -4.121      0.812      2.351
REMARK INTER + INTRA:          -5.186
REMARK INTER:                  -4.971
REMARK INTRA:                  -0.215
REMARK UNBOUND:                -0.222
REMARK SMILES OCC(O)CO
REMARK SMILES IDX 3 1 5 2 6 3 2 5 1 6 4 8
REMARK H PARENT 6 4 1 7 4 9
REMARK Flexibility Score: inf
ROOT
ATOM      1  C   UNL     1      28.365   2.474  12.471  1.00  0.00     0.165 C 
ENDROOT
BRANCH   1   2
ATOM      2  C   UNL     1      29.560   3.055  13.242  1.00  0.00     0.190 C 
BRANCH   2   3
ATOM      3  O   UNL     1      29.224   3.314  14.580  1.00  0.00    -0.394 OA
ATOM      4  H   UNL     1      28.294   2.993  14.709  1.00  0.00     0.210 HD
ENDBRANCH   2   3
ENDBRANCH   1   2
BRANCH   1   5
ATOM      5  C   UNL     1      27.347   3.558  12.085  1.00  0.00     0.190 C 
BRANCH   5   6
ATOM      6  O   UNL     1      27.673   4.769  12.709  1.00  0.00    -0.394 OA
ATOM      7  H   UNL     1      26.884   5.018  13.258  1.00  0.00     0.210 HD
ENDBRANCH   5   6
ENDBRANCH   1   5
BRANCH   1   8
ATOM      8  O   UNL     1      27.741   1.492  13.257  1.00  0.00    -0.388 OA
ATOM      9  H   UNL     1      28.178   0.627  13.039  1.00  0.00     0.211 HD
ENDBRANCH   1   8
TORSDOF 5
ENDMDL
MODEL 3
REMARK VINA RESULT:    -4.081      1.057      2.963
REMARK INTER + INTRA:          -5.138
REMARK INTER:                  -5.136
REMARK INTRA:                  -0.003
REMARK UNBOUND:                -0.222
REMARK SMILES OCC(O)CO
REMARK SMILES IDX 3 1 5 2 6 3 2 5 1 6 4 8
REMARK H PARENT 6 4 1 7 4 9
REMARK Flexibility Score: inf
ROOT
ATOM      1  C   UNL     1      28.171   3.136  12.867  1.00  0.00     0.165 C 
ENDROOT
BRANCH   1   2
ATOM      2  C   UNL     1      29.536   3.138  13.572  1.00  0.00     0.190 C 
BRANCH   2   3
ATOM      3  O   UNL     1      29.411   3.511  14.919  1.00  0.00    -0.394 OA
ATOM      4  H   UNL     1      29.341   2.671  15.444  1.00  0.00     0.210 HD
ENDBRANCH   2   3
ENDBRANCH   1   2
BRANCH   1   5
ATOM      5  C   UNL     1      28.186   2.285  11.588  1.00  0.00     0.190 C 
BRANCH   5   6
ATOM      6  O   UNL     1      27.813   3.064  10.485  1.00  0.00    -0.394 OA
ATOM      7  H   UNL     1      27.262   3.806  10.846  1.00  0.00     0.210 HD
ENDBRANCH   5   6
ENDBRANCH   1   5
BRANCH   1   8
ATOM      8  O   UNL     1      27.809   4.457  12.556  1.00  0.00    -0.388 OA
ATOM      9  H   UNL     1      27.912   4.561  11.573  1.00  0.00     0.211 HD
ENDBRANCH   1   8
TORSDOF 5
ENDMDL
MODEL 4
REMARK VINA RESULT:    -3.983     12.671     13.564
REMARK INTER + INTRA:          -5.020
REMARK INTER:                  -4.797
REMARK INTRA:                  -0.223
REMARK UNBOUND:                -0.222
REMARK SMILES OCC(O)CO
REMARK SMILES IDX 3 1 5 2 6 3 2 5 1 6 4 8
REMARK H PARENT 6 4 1 7 4 9
REMARK Flexibility Score: inf
ROOT
ATOM      1  C   UNL     1      21.138  -7.324  14.129  1.00  0.00     0.165 C 
ENDROOT
BRANCH   1   2
ATOM      2  C   UNL     1      22.618  -7.543  14.476  1.00  0.00     0.190 C 
BRANCH   2   3
ATOM      3  O   UNL     1      22.785  -8.664  15.305  1.00  0.00    -0.394 OA
ATOM      4  H   UNL     1      23.744  -8.689  15.562  1.00  0.00     0.210 HD
ENDBRANCH   2   3
ENDBRANCH   1   2
BRANCH   1   5
ATOM      5  C   UNL     1      20.360  -8.647  14.068  1.00  0.00     0.190 C 
BRANCH   5   6
ATOM      6  O   UNL     1      19.832  -8.955  15.328  1.00  0.00    -0.394 OA
ATOM      7  H   UNL     1      19.630  -8.086  15.763  1.00  0.00     0.210 HD
ENDBRANCH   5   6
ENDBRANCH   1   5
BRANCH   1   8
ATOM      8  O   UNL     1      21.046  -6.659  12.896  1.00  0.00    -0.388 OA
ATOM      9  H   UNL     1      21.318  -7.310  12.196  1.00  0.00     0.211 HD
ENDBRANCH   1   8
TORSDOF 5
ENDMDL
MODEL 5
REMARK VINA RESULT:    -3.965      1.387      1.791
REMARK INTER + INTRA:          -4.999
REMARK INTER:                  -4.989
REMARK INTRA:                  -0.010
REMARK UNBOUND:                -0.222
REMARK SMILES OCC(O)CO
REMARK SMILES IDX 3 1 5 2 6 3 2 5 1 6 4 8
REMARK H PARENT 6 4 1 7 4 9
REMARK Flexibility Score: inf
ROOT
ATOM      1  C   UNL     1      28.471   3.204  12.530  1.00  0.00     0.165 C 
ENDROOT
BRANCH   1   2
ATOM      2  C   UNL     1      27.378   2.142  12.730  1.00  0.00     0.190 C 
BRANCH   2   3
ATOM      3  O   UNL     1      26.098   2.691  12.555  1.00  0.00    -0.394 OA
ATOM      4  H   UNL     1      25.746   2.327  11.701  1.00  0.00     0.210 HD
ENDBRANCH   2   3
ENDBRANCH   1   2
BRANCH   1   5
ATOM      5  C   UNL     1      29.655   2.996  13.486  1.00  0.00     0.190 C 
BRANCH   5   6
ATOM      6  O   UNL     1      29.335   3.478  14.762  1.00  0.00    -0.394 OA
ATOM      7  H   UNL     1      30.048   4.127  14.999  1.00  0.00     0.210 HD
ENDBRANCH   5   6
ENDBRANCH   1   5
BRANCH   1   8
ATOM      8  O   UNL     1      27.918   4.479  12.726  1.00  0.00    -0.388 OA
ATOM      9  H   UNL     1      27.846   4.904  11.831  1.00  0.00     0.211 HD
ENDBRANCH   1   8
TORSDOF 5
ENDMDL
MODEL 6
REMARK VINA RESULT:    -3.888     12.611     13.391
REMARK INTER + INTRA:          -4.906
REMARK INTER:                  -4.684
REMARK INTRA:                  -0.222
REMARK UNBOUND:                -0.222
REMARK SMILES OCC(O)CO
REMARK SMILES IDX 3 1 5 2 6 3 2 5 1 6 4 8
REMARK H PARENT 6 4 1 7 4 9
REMARK Flexibility Score: inf
ROOT
ATOM      1  C   UNL     1      21.372  -7.790  13.850  1.00  0.00     0.165 C 
ENDROOT
BRANCH   1   2
ATOM      2  C   UNL     1      20.275  -7.877  14.921  1.00  0.00     0.190 C 
BRANCH   2   3
ATOM      3  O   UNL     1      20.104  -9.196  15.369  1.00  0.00    -0.394 OA
ATOM      4  H   UNL     1      19.287  -9.204  15.932  1.00  0.00     0.210 HD
ENDBRANCH   2   3
ENDBRANCH   1   2
BRANCH   1   5
ATOM      5  C   UNL     1      22.766  -7.605  14.469  1.00  0.00     0.190 C 
BRANCH   5   6
ATOM      6  O   UNL     1      23.042  -8.653  15.357  1.00  0.00    -0.394 OA
ATOM      7  H   UNL     1      22.535  -8.453  16.186  1.00  0.00     0.210 HD
ENDBRANCH   5   6
ENDBRANCH   1   5
BRANCH   1   8
ATOM      8  O   UNL     1      21.090  -6.721  12.984  1.00  0.00    -0.388 OA
ATOM      9  H   UNL     1      21.103  -5.893  13.533  1.00  0.00     0.211 HD
ENDBRANCH   1   8
TORSDOF 5
ENDMDL
MODEL 7
REMARK VINA RESULT:    -3.820     12.716     13.515
REMARK INTER + INTRA:          -4.824
REMARK INTER:                  -4.808
REMARK INTRA:                  -0.016
REMARK UNBOUND:                -0.222
REMARK SMILES OCC(O)CO
REMARK SMILES IDX 3 1 5 2 6 3 2 5 1 6 4 8
REMARK H PARENT 6 4 1 7 4 9
REMARK Flexibility Score: inf
ROOT
ATOM      1  C   UNL     1      21.754  -8.368  14.361  1.00  0.00     0.165 C 
ENDROOT
BRANCH   1   2
ATOM      2  C   UNL     1      22.173  -7.186  13.473  1.00  0.00     0.190 C 
BRANCH   2   3
ATOM      3  O   UNL     1      21.060  -6.596  12.853  1.00  0.00    -0.394 OA
ATOM      4  H   UNL     1      21.392  -5.792  12.374  1.00  0.00     0.210 HD
ENDBRANCH   2   3
ENDBRANCH   1   2
BRANCH   1   5
ATOM      5  C   UNL     1      20.430  -8.096  15.091  1.00  0.00     0.190 C 
BRANCH   5   6
ATOM      6  O   UNL     1      19.729  -9.294  15.282  1.00  0.00    -0.394 OA
ATOM      7  H   UNL     1      20.323  -9.878  15.823  1.00  0.00     0.210 HD
ENDBRANCH   5   6
ENDBRANCH   1   5
BRANCH   1   8
ATOM      8  O   UNL     1      22.769  -8.627  15.295  1.00  0.00    -0.388 OA
ATOM      9  H   UNL     1      22.597  -8.043  16.079  1.00  0.00     0.211 HD
ENDBRANCH   1   8
TORSDOF 5
ENDMDL
MODEL 8
REMARK VINA RESULT:    -3.746     12.746     13.592
REMARK INTER + INTRA:          -4.734
REMARK INTER:                  -4.718
REMARK INTRA:                  -0.016
REMARK UNBOUND:                -0.222
REMARK SMILES OCC(O)CO
REMARK SMILES IDX 3 1 5 2 6 3 2 5 1 6 4 8
REMARK H PARENT 6 4 1 7 4 9
REMARK Flexibility Score: inf
ROOT
ATOM      1  C   UNL     1      21.703  -7.977  14.701  1.00  0.00     0.165 C 
ENDROOT
BRANCH   1   2
ATOM      2  C   UNL     1      20.614  -9.012  14.382  1.00  0.00     0.190 C 
BRANCH   2   3
ATOM      3  O   UNL     1      19.665  -9.087  15.414  1.00  0.00    -0.394 OA
ATOM      4  H   UNL     1      20.151  -8.917  16.262  1.00  0.00     0.210 HD
ENDBRANCH   2   3
ENDBRANCH   1   2
BRANCH   1   5
ATOM      5  C   UNL     1      22.155  -7.213  13.448  1.00  0.00     0.190 C 
BRANCH   5   6
ATOM      6  O   UNL     1      21.072  -6.522  12.887  1.00  0.00    -0.394 OA
ATOM      7  H   UNL     1      21.353  -5.572  12.826  1.00  0.00     0.210 HD
ENDBRANCH   5   6
ENDBRANCH   1   5
BRANCH   1   8
ATOM      8  O   UNL     1      22.802  -8.628  15.285  1.00  0.00    -0.388 OA
ATOM      9  H   UNL     1      23.180  -8.006  15.962  1.00  0.00     0.211 HD
ENDBRANCH   1   8
TORSDOF 5
ENDMDL
MODEL 9
REMARK VINA RESULT:    -3.614      1.416      2.670
REMARK INTER + INTRA:          -4.576
REMARK INTER:                  -4.573
REMARK INTRA:                  -0.003
REMARK UNBOUND:                -0.222
REMARK SMILES OCC(O)CO
REMARK SMILES IDX 3 1 5 2 6 3 2 5 1 6 4 8
REMARK H PARENT 6 4 1 7 4 9
REMARK Flexibility Score: inf
ROOT
ATOM      1  C   UNL     1      27.837   2.443  12.350  1.00  0.00     0.165 C 
ENDROOT
BRANCH   1   2
ATOM      2  C   UNL     1      27.059   3.697  11.922  1.00  0.00     0.190 C 
BRANCH   2   3
ATOM      3  O   UNL     1      27.533   4.840  12.583  1.00  0.00    -0.394 OA
ATOM      4  H   UNL     1      27.497   4.644  13.556  1.00  0.00     0.210 HD
ENDBRANCH   2   3
ENDBRANCH   1   2
BRANCH   1   5
ATOM      5  C   UNL     1      26.955   1.186  12.336  1.00  0.00     0.190 C 
BRANCH   5   6
ATOM      6  O   UNL     1      27.395   0.298  11.345  1.00  0.00    -0.394 OA
ATOM      7  H   UNL     1      27.474   0.832  10.512  1.00  0.00     0.210 HD
ENDBRANCH   5   6
ENDBRANCH   1   5
BRANCH   1   8
ATOM      8  O   UNL     1      28.363   2.642  13.636  1.00  0.00    -0.388 OA
ATOM      9  H   UNL     1      28.061   1.877  14.193  1.00  0.00     0.211 HD
ENDBRANCH   1   8
TORSDOF 5
ENDMDL
