MODEL 1
REMARK VINA RESULT:    -3.418      0.000      0.000
REMARK INTER + INTRA:          -4.379
REMARK INTER:                  -4.318
REMARK INTRA:                  -0.062
REMARK UNBOUND:                -0.062
REMARK SMILES CSCC[C@H]([NH3+])C(=O)[O-]
REMARK SMILES IDX 4 1 5 2 6 3 7 7 8 8 9 9 3 10 2 11 1 12
REMARK H PARENT 6 4 6 5 6 6
REMARK Flexibility Score: inf
ROOT
ATOM      1  C   UNL     1      65.771  -2.795   3.551  1.00  0.00     0.082 C 
ENDROOT
BRANCH   1   2
ATOM      2  C   UNL     1      64.572  -2.361   4.421  1.00  0.00     0.228 C 
BRANCH   2   3
ATOM      3  N   UNL     1      63.541  -1.723   3.594  1.00  0.00    -0.350 N 
ATOM      4  H   UNL     1      63.479  -2.206   2.668  1.00  0.00     0.345 HD
ATOM      5  H   UNL     1      62.609  -1.799   4.065  1.00  0.00     0.345 HD
ATOM      6  H   UNL     1      63.765  -0.712   3.437  1.00  0.00     0.345 HD
ENDBRANCH   2   3
BRANCH   2   7
ATOM      7  C   UNL     1      65.006  -1.427   5.521  1.00  0.00     0.099 C 
ATOM      8  O   UNL     1      64.164  -0.694   6.107  1.00  0.00    -0.544 OA
ATOM      9  O   UNL     1      66.344  -1.362   5.888  1.00  0.00    -0.544 OA
ENDBRANCH   2   7
ENDBRANCH   1   2
BRANCH   1  10
ATOM     10  C   UNL     1      65.337  -3.621   2.334  1.00  0.00     0.076 C 
BRANCH  10  11
ATOM     11  S   UNL     1      66.776  -4.015   1.278  1.00  0.00    -0.165 SA
ATOM     12  C   UNL     1      67.899  -2.782   2.015  1.00  0.00     0.085 C 
ENDBRANCH  10  11
ENDBRANCH   1  10
TORSDOF 5
ENDMDL
MODEL 2
REMARK VINA RESULT:    -3.397      1.969      2.293
REMARK INTER + INTRA:          -4.352
REMARK INTER:                  -4.212
REMARK INTRA:                  -0.140
REMARK UNBOUND:                -0.062
REMARK SMILES CSCC[C@H]([NH3+])C(=O)[O-]
REMARK SMILES IDX 4 1 5 2 6 3 7 7 8 8 9 9 3 10 2 11 1 12
REMARK H PARENT 6 4 6 5 6 6
REMARK Flexibility Score: inf
ROOT
ATOM      1  C   UNL     1      65.627  -3.777   4.614  1.00  0.00     0.082 C 
ENDROOT
BRANCH   1   2
ATOM      2  C   UNL     1      65.634  -2.375   3.967  1.00  0.00     0.228 C 
BRANCH   2   3
ATOM      3  N   UNL     1      66.809  -1.613   4.405  1.00  0.00    -0.350 N 
ATOM      4  H   UNL     1      67.622  -2.257   4.535  1.00  0.00     0.345 HD
ATOM      5  H   UNL     1      67.066  -0.906   3.677  1.00  0.00     0.345 HD
ATOM      6  H   UNL     1      66.615  -1.121   5.308  1.00  0.00     0.345 HD
ENDBRANCH   2   3
BRANCH   2   7
ATOM      7  C   UNL     1      64.373  -1.618   4.292  1.00  0.00     0.099 C 
ATOM      8  O   UNL     1      63.414  -1.591   3.475  1.00  0.00    -0.544 OA
ATOM      9  O   UNL     1      64.265  -0.933   5.496  1.00  0.00    -0.544 OA
ENDBRANCH   2   7
ENDBRANCH   1   2
BRANCH   1  10
ATOM     10  C   UNL     1      65.620  -4.899   3.570  1.00  0.00     0.076 C 
BRANCH  10  11
ATOM     11  S   UNL     1      65.693  -4.205   1.880  1.00  0.00    -0.165 SA
ATOM     12  C   UNL     1      66.163  -5.759   1.053  1.00  0.00     0.085 C 
ENDBRANCH  10  11
ENDBRANCH   1  10
TORSDOF 5
ENDMDL
MODEL 3
REMARK VINA RESULT:    -3.389      1.835      2.152
REMARK INTER + INTRA:          -4.342
REMARK INTER:                  -4.250
REMARK INTRA:                  -0.092
REMARK UNBOUND:                -0.062
REMARK SMILES CSCC[C@H]([NH3+])C(=O)[O-]
REMARK SMILES IDX 4 1 5 2 6 3 7 7 8 8 9 9 3 10 2 11 1 12
REMARK H PARENT 6 4 6 5 6 6
REMARK Flexibility Score: inf
ROOT
ATOM      1  C   UNL     1      66.249  -2.749   3.292  1.00  0.00     0.082 C 
ENDROOT
BRANCH   1   2
ATOM      2  C   UNL     1      65.261  -2.864   4.473  1.00  0.00     0.228 C 
BRANCH   2   3
ATOM      3  N   UNL     1      64.547  -4.145   4.423  1.00  0.00    -0.350 N 
ATOM      4  H   UNL     1      63.764  -4.142   5.116  1.00  0.00     0.345 HD
ATOM      5  H   UNL     1      64.141  -4.290   3.470  1.00  0.00     0.345 HD
ATOM      6  H   UNL     1      65.195  -4.938   4.645  1.00  0.00     0.345 HD
ENDBRANCH   2   3
BRANCH   2   7
ATOM      7  C   UNL     1      64.278  -1.722   4.475  1.00  0.00     0.099 C 
ATOM      8  O   UNL     1      63.482  -1.561   3.511  1.00  0.00    -0.544 OA
ATOM      9  O   UNL     1      64.251  -0.831   5.540  1.00  0.00    -0.544 OA
ENDBRANCH   2   7
ENDBRANCH   1   2
BRANCH   1  10
ATOM     10  C   UNL     1      67.526  -1.991   3.675  1.00  0.00     0.076 C 
BRANCH  10  11
ATOM     11  S   UNL     1      68.840  -2.282   2.438  1.00  0.00    -0.165 SA
ATOM     12  C   UNL     1      67.847  -3.355   1.350  1.00  0.00     0.085 C 
ENDBRANCH  10  11
ENDBRANCH   1  10
TORSDOF 5
ENDMDL
MODEL 4
REMARK VINA RESULT:    -3.357      1.689      2.201
REMARK INTER + INTRA:          -4.301
REMARK INTER:                  -4.100
REMARK INTRA:                  -0.202
REMARK UNBOUND:                -0.062
REMARK SMILES CSCC[C@H]([NH3+])C(=O)[O-]
REMARK SMILES IDX 4 1 5 2 6 3 7 7 8 8 9 9 3 10 2 11 1 12
REMARK H PARENT 6 4 6 5 6 6
REMARK Flexibility Score: inf
ROOT
ATOM      1  C   UNL     1      65.682  -2.766   3.365  1.00  0.00     0.082 C 
ENDROOT
BRANCH   1   2
ATOM      2  C   UNL     1      64.584  -2.407   4.388  1.00  0.00     0.228 C 
BRANCH   2   3
ATOM      3  N   UNL     1      63.412  -1.842   3.707  1.00  0.00    -0.350 N 
ATOM      4  H   UNL     1      63.576  -0.831   3.500  1.00  0.00     0.345 HD
ATOM      5  H   UNL     1      63.253  -2.340   2.801  1.00  0.00     0.345 HD
ATOM      6  H   UNL     1      62.557  -1.934   4.305  1.00  0.00     0.345 HD
ENDBRANCH   2   3
BRANCH   2   7
ATOM      7  C   UNL     1      65.097  -1.442   5.424  1.00  0.00     0.099 C 
ATOM      8  O   UNL     1      66.331  -1.362   5.669  1.00  0.00    -0.544 OA
ATOM      9  O   UNL     1      64.207  -0.638   6.126  1.00  0.00    -0.544 OA
ENDBRANCH   2   7
ENDBRANCH   1   2
BRANCH   1  10
ATOM     10  C   UNL     1      65.723  -4.268   3.060  1.00  0.00     0.076 C 
BRANCH  10  11
ATOM     11  S   UNL     1      65.285  -5.239   4.546  1.00  0.00    -0.165 SA
ATOM     12  C   UNL     1      66.927  -5.141   5.331  1.00  0.00     0.085 C 
ENDBRANCH  10  11
ENDBRANCH   1  10
TORSDOF 5
ENDMDL
MODEL 5
REMARK VINA RESULT:    -3.316      0.843      1.356
REMARK INTER + INTRA:          -4.250
REMARK INTER:                  -4.174
REMARK INTRA:                  -0.076
REMARK UNBOUND:                -0.062
REMARK SMILES CSCC[C@H]([NH3+])C(=O)[O-]
REMARK SMILES IDX 4 1 5 2 6 3 7 7 8 8 9 9 3 10 2 11 1 12
REMARK H PARENT 6 4 6 5 6 6
REMARK Flexibility Score: inf
ROOT
ATOM      1  C   UNL     1      65.635  -3.056   3.228  1.00  0.00     0.082 C 
ENDROOT
BRANCH   1   2
ATOM      2  C   UNL     1      64.653  -2.564   4.313  1.00  0.00     0.228 C 
BRANCH   2   3
ATOM      3  N   UNL     1      63.496  -1.903   3.698  1.00  0.00    -0.350 N 
ATOM      4  H   UNL     1      63.802  -1.360   2.859  1.00  0.00     0.345 HD
ATOM      5  H   UNL     1      62.800  -2.620   3.388  1.00  0.00     0.345 HD
ATOM      6  H   UNL     1      63.039  -1.251   4.378  1.00  0.00     0.345 HD
ENDBRANCH   2   3
BRANCH   2   7
ATOM      7  C   UNL     1      65.332  -1.630   5.280  1.00  0.00     0.099 C 
ATOM      8  O   UNL     1      66.590  -1.586   5.352  1.00  0.00    -0.544 OA
ATOM      9  O   UNL     1      64.571  -0.815   6.109  1.00  0.00    -0.544 OA
ENDBRANCH   2   7
ENDBRANCH   1   2
BRANCH   1  10
ATOM     10  C   UNL     1      65.645  -4.584   3.102  1.00  0.00     0.076 C 
BRANCH  10  11
ATOM     11  S   UNL     1      66.181  -5.087   1.428  1.00  0.00    -0.165 SA
ATOM     12  C   UNL     1      67.093  -3.555   1.049  1.00  0.00     0.085 C 
ENDBRANCH  10  11
ENDBRANCH   1  10
TORSDOF 5
ENDMDL
MODEL 6
REMARK VINA RESULT:    -3.245      2.809      3.168
REMARK INTER + INTRA:          -4.161
REMARK INTER:                  -4.058
REMARK INTRA:                  -0.103
REMARK UNBOUND:                -0.062
REMARK SMILES CSCC[C@H]([NH3+])C(=O)[O-]
REMARK SMILES IDX 4 1 5 2 6 3 7 7 8 8 9 9 3 10 2 11 1 12
REMARK H PARENT 6 4 6 5 6 6
REMARK Flexibility Score: inf
ROOT
ATOM      1  C   UNL     1      65.880  -3.704   4.872  1.00  0.00     0.082 C 
ENDROOT
BRANCH   1   2
ATOM      2  C   UNL     1      65.699  -2.429   4.022  1.00  0.00     0.228 C 
BRANCH   2   3
ATOM      3  N   UNL     1      66.791  -1.482   4.274  1.00  0.00    -0.350 N 
ATOM      4  H   UNL     1      66.488  -0.770   4.978  1.00  0.00     0.345 HD
ATOM      5  H   UNL     1      67.620  -1.990   4.660  1.00  0.00     0.345 HD
ATOM      6  H   UNL     1      67.068  -0.993   3.391  1.00  0.00     0.345 HD
ENDBRANCH   2   3
BRANCH   2   7
ATOM      7  C   UNL     1      64.370  -1.775   4.297  1.00  0.00     0.099 C 
ATOM      8  O   UNL     1      64.108  -1.315   5.441  1.00  0.00    -0.544 OA
ATOM      9  O   UNL     1      63.419  -1.683   3.288  1.00  0.00    -0.544 OA
ENDBRANCH   2   7
ENDBRANCH   1   2
BRANCH   1  10
ATOM     10  C   UNL     1      64.893  -4.810   4.480  1.00  0.00     0.076 C 
BRANCH  10  11
ATOM     11  S   UNL     1      65.271  -6.357   5.378  1.00  0.00    -0.165 SA
ATOM     12  C   UNL     1      66.168  -7.161   4.010  1.00  0.00     0.085 C 
ENDBRANCH  10  11
ENDBRANCH   1  10
TORSDOF 5
ENDMDL
MODEL 7
REMARK VINA RESULT:    -3.171     14.858     15.005
REMARK INTER + INTRA:          -4.066
REMARK INTER:                  -3.912
REMARK INTRA:                  -0.154
REMARK UNBOUND:                -0.062
REMARK SMILES CSCC[C@H]([NH3+])C(=O)[O-]
REMARK SMILES IDX 4 1 5 2 6 3 7 7 8 8 9 9 3 10 2 11 1 12
REMARK H PARENT 6 4 6 5 6 6
REMARK Flexibility Score: inf
ROOT
ATOM      1  C   UNL     1      61.098  10.368  -4.372  1.00  0.00     0.082 C 
ENDROOT
BRANCH   1   2
ATOM      2  C   UNL     1      61.762   9.753  -3.122  1.00  0.00     0.228 C 
BRANCH   2   3
ATOM      3  N   UNL     1      62.634   8.635  -3.499  1.00  0.00    -0.350 N 
ATOM      4  H   UNL     1      63.624   8.965  -3.571  1.00  0.00     0.345 HD
ATOM      5  H   UNL     1      62.591   7.888  -2.769  1.00  0.00     0.345 HD
ATOM      6  H   UNL     1      62.341   8.233  -4.421  1.00  0.00     0.345 HD
ENDBRANCH   2   3
BRANCH   2   7
ATOM      7  C   UNL     1      60.729   9.293  -2.126  1.00  0.00     0.099 C 
ATOM      8  O   UNL     1      59.865  10.096  -1.682  1.00  0.00    -0.544 OA
ATOM      9  O   UNL     1      60.731   7.975  -1.683  1.00  0.00    -0.544 OA
ENDBRANCH   2   7
ENDBRANCH   1   2
BRANCH   1  10
ATOM     10  C   UNL     1      60.136   9.391  -5.058  1.00  0.00     0.076 C 
BRANCH  10  11
ATOM     11  S   UNL     1      60.485   9.297  -6.851  1.00  0.00    -0.165 SA
ATOM     12  C   UNL     1      61.614  10.727  -6.902  1.00  0.00     0.085 C 
ENDBRANCH  10  11
ENDBRANCH   1  10
TORSDOF 5
ENDMDL
MODEL 8
REMARK VINA RESULT:    -3.162      3.385      4.313
REMARK INTER + INTRA:          -4.055
REMARK INTER:                  -3.845
REMARK INTRA:                  -0.210
REMARK UNBOUND:                -0.062
REMARK SMILES CSCC[C@H]([NH3+])C(=O)[O-]
REMARK SMILES IDX 4 1 5 2 6 3 7 7 8 8 9 9 3 10 2 11 1 12
REMARK H PARENT 6 4 6 5 6 6
REMARK Flexibility Score: inf
ROOT
ATOM      1  C   UNL     1      66.114  -4.610   3.345  1.00  0.00     0.082 C 
ENDROOT
BRANCH   1   2
ATOM      2  C   UNL     1      65.931  -4.045   1.920  1.00  0.00     0.228 C 
BRANCH   2   3
ATOM      3  N   UNL     1      65.543  -5.112   0.990  1.00  0.00    -0.350 N 
ATOM      4  H   UNL     1      64.619  -5.511   1.272  1.00  0.00     0.345 HD
ATOM      5  H   UNL     1      65.449  -4.724   0.022  1.00  0.00     0.345 HD
ATOM      6  H   UNL     1      66.258  -5.877   0.986  1.00  0.00     0.345 HD
ENDBRANCH   2   3
BRANCH   2   7
ATOM      7  C   UNL     1      67.186  -3.365   1.436  1.00  0.00     0.099 C 
ATOM      8  O   UNL     1      67.724  -2.455   2.121  1.00  0.00    -0.544 OA
ATOM      9  O   UNL     1      67.752  -3.735   0.222  1.00  0.00    -0.544 OA
ENDBRANCH   2   7
ENDBRANCH   1   2
BRANCH   1  10
ATOM     10  C   UNL     1      64.982  -4.186   4.288  1.00  0.00     0.076 C 
BRANCH  10  11
ATOM     11  S   UNL     1      64.602  -2.410   4.079  1.00  0.00    -0.165 SA
ATOM     12  C   UNL     1      65.931  -1.799   5.167  1.00  0.00     0.085 C 
ENDBRANCH  10  11
ENDBRANCH   1  10
TORSDOF 5
ENDMDL
MODEL 9
REMARK VINA RESULT:    -3.114      2.254      2.680
REMARK INTER + INTRA:          -3.995
REMARK INTER:                  -3.835
REMARK INTRA:                  -0.160
REMARK UNBOUND:                -0.062
REMARK SMILES CSCC[C@H]([NH3+])C(=O)[O-]
REMARK SMILES IDX 4 1 5 2 6 3 7 7 8 8 9 9 3 10 2 11 1 12
REMARK H PARENT 6 4 6 5 6 6
REMARK Flexibility Score: inf
ROOT
ATOM      1  C   UNL     1      67.063  -4.071   2.731  1.00  0.00     0.082 C 
ENDROOT
BRANCH   1   2
ATOM      2  C   UNL     1      65.522  -3.996   2.692  1.00  0.00     0.228 C 
BRANCH   2   3
ATOM      3  N   UNL     1      65.049  -3.862   1.309  1.00  0.00    -0.350 N 
ATOM      4  H   UNL     1      64.332  -4.596   1.107  1.00  0.00     0.345 HD
ATOM      5  H   UNL     1      64.605  -2.925   1.174  1.00  0.00     0.345 HD
ATOM      6  H   UNL     1      65.844  -3.967   0.635  1.00  0.00     0.345 HD
ENDBRANCH   2   3
BRANCH   2   7
ATOM      7  C   UNL     1      65.009  -2.853   3.529  1.00  0.00     0.099 C 
ATOM      8  O   UNL     1      63.977  -2.220   3.182  1.00  0.00    -0.544 OA
ATOM      9  O   UNL     1      65.682  -2.485   4.687  1.00  0.00    -0.544 OA
ENDBRANCH   2   7
ENDBRANCH   1   2
BRANCH   1  10
ATOM     10  C   UNL     1      67.719  -3.053   1.790  1.00  0.00     0.076 C 
BRANCH  10  11
ATOM     11  S   UNL     1      69.294  -2.448   2.494  1.00  0.00    -0.165 SA
ATOM     12  C   UNL     1      68.611  -0.913   3.202  1.00  0.00     0.085 C 
ENDBRANCH  10  11
ENDBRANCH   1  10
TORSDOF 5
ENDMDL
