MODEL 1
REMARK VINA RESULT:    -3.063      0.000      0.000
REMARK INTER + INTRA:          -4.732
REMARK INTER:                  -4.226
REMARK INTRA:                  -0.505
REMARK UNBOUND:                -0.505
REMARK SMILES OC[C@H](O)C(O)[C@@H](O)CO
REMARK SMILES IDX 5 1 7 2 9 3 10 4 8 6 3 8 2 9 1 10 4 12 6 14
REMARK H PARENT 10 5 8 7 1 11 4 13 6 15
REMARK Flexibility Score: inf
ROOT
ATOM      1  C   UNL     1     134.009  52.077  22.353  1.00  0.00     0.176 C 
ENDROOT
BRANCH   1   2
ATOM      2  C   UNL     1     135.007  51.467  21.333  1.00  0.00     0.171 C 
BRANCH   2   3
ATOM      3  C   UNL     1     134.949  52.121  19.935  1.00  0.00     0.190 C 
BRANCH   3   4
ATOM      4  O   UNL     1     136.115  51.833  19.212  1.00  0.00    -0.394 OA
ATOM      5  H   UNL     1     136.084  52.388  18.388  1.00  0.00     0.210 HD
ENDBRANCH   3   4
ENDBRANCH   2   3
BRANCH   2   6
ATOM      6  O   UNL     1     134.802  50.079  21.231  1.00  0.00    -0.388 OA
ATOM      7  H   UNL     1     135.640  49.629  21.517  1.00  0.00     0.211 HD
ENDBRANCH   2   6
ENDBRANCH   1   2
BRANCH   1   8
ATOM      8  C   UNL     1     134.319  51.669  23.821  1.00  0.00     0.171 C 
BRANCH   8   9
ATOM      9  C   UNL     1     134.471  52.886  24.753  1.00  0.00     0.190 C 
BRANCH   9  10
ATOM     10  O   UNL     1     135.664  53.573  24.491  1.00  0.00    -0.394 OA
ATOM     11  H   UNL     1     135.878  53.399  23.538  1.00  0.00     0.210 HD
ENDBRANCH   9  10
ENDBRANCH   8   9
BRANCH   8  12
ATOM     12  O   UNL     1     135.448  50.832  23.912  1.00  0.00    -0.388 OA
ATOM     13  H   UNL     1     136.099  51.255  24.530  1.00  0.00     0.211 HD
ENDBRANCH   8  12
ENDBRANCH   1   8
BRANCH   1  14
ATOM     14  O   UNL     1     133.979  53.478  22.218  1.00  0.00    -0.388 OA
ATOM     15  H   UNL     1     134.685  53.729  21.567  1.00  0.00     0.211 HD
ENDBRANCH   1  14
TORSDOF 9
ENDMDL
MODEL 2
REMARK VINA RESULT:    -2.872      5.608      8.665
REMARK INTER + INTRA:          -4.468
REMARK INTER:                  -4.056
REMARK INTRA:                  -0.412
REMARK UNBOUND:                -0.505
REMARK SMILES OC[C@H](O)C(O)[C@@H](O)CO
REMARK SMILES IDX 5 1 7 2 9 3 10 4 8 6 3 8 2 9 1 10 4 12 6 14
REMARK H PARENT 10 5 8 7 1 11 4 13 6 15
REMARK Flexibility Score: inf
ROOT
ATOM      1  C   UNL     1     135.612  53.898  30.015  1.00  0.00     0.176 C 
ENDROOT
BRANCH   1   2
ATOM      2  C   UNL     1     134.651  54.139  31.209  1.00  0.00     0.171 C 
BRANCH   2   3
ATOM      3  C   UNL     1     134.533  55.621  31.627  1.00  0.00     0.190 C 
BRANCH   3   4
ATOM      4  O   UNL     1     134.276  56.425  30.508  1.00  0.00    -0.394 OA
ATOM      5  H   UNL     1     135.159  56.679  30.131  1.00  0.00     0.210 HD
ENDBRANCH   3   4
ENDBRANCH   2   3
BRANCH   2   6
ATOM      6  O   UNL     1     135.044  53.352  32.308  1.00  0.00    -0.388 OA
ATOM      7  H   UNL     1     136.034  53.272  32.282  1.00  0.00     0.211 HD
ENDBRANCH   2   6
ENDBRANCH   1   2
BRANCH   1   8
ATOM      8  C   UNL     1     134.869  53.790  28.653  1.00  0.00     0.171 C 
BRANCH   8   9
ATOM      9  C   UNL     1     135.654  52.965  27.615  1.00  0.00     0.190 C 
BRANCH   9  10
ATOM     10  O   UNL     1     135.322  53.352  26.310  1.00  0.00    -0.394 OA
ATOM     11  H   UNL     1     135.251  54.342  26.326  1.00  0.00     0.210 HD
ENDBRANCH   9  10
ENDBRANCH   8   9
BRANCH   8  12
ATOM     12  O   UNL     1     134.535  55.054  28.129  1.00  0.00    -0.388 OA
ATOM     13  H   UNL     1     134.594  55.006  27.140  1.00  0.00     0.211 HD
ENDBRANCH   8  12
ENDBRANCH   1   8
BRANCH   1  14
ATOM     14  O   UNL     1     136.590  54.909  29.974  1.00  0.00    -0.388 OA
ATOM     15  H   UNL     1     137.325  54.637  30.582  1.00  0.00     0.211 HD
ENDBRANCH   1  14
TORSDOF 9
ENDMDL
MODEL 3
REMARK VINA RESULT:    -2.804      0.596      3.874
REMARK INTER + INTRA:          -4.375
REMARK INTER:                  -3.876
REMARK INTRA:                  -0.500
REMARK UNBOUND:                -0.505
REMARK SMILES OC[C@H](O)C(O)[C@@H](O)CO
REMARK SMILES IDX 5 1 7 2 9 3 10 4 8 6 3 8 2 9 1 10 4 12 6 14
REMARK H PARENT 10 5 8 7 1 11 4 13 6 15
REMARK Flexibility Score: inf
ROOT
ATOM      1  C   UNL     1     134.741  52.253  22.499  1.00  0.00     0.176 C 
ENDROOT
BRANCH   1   2
ATOM      2  C   UNL     1     134.079  51.551  23.714  1.00  0.00     0.171 C 
BRANCH   2   3
ATOM      3  C   UNL     1     133.962  52.447  24.966  1.00  0.00     0.190 C 
BRANCH   3   4
ATOM      4  O   UNL     1     135.012  53.375  25.004  1.00  0.00    -0.394 OA
ATOM      5  H   UNL     1     134.685  54.155  25.525  1.00  0.00     0.210 HD
ENDBRANCH   3   4
ENDBRANCH   2   3
BRANCH   2   6
ATOM      6  O   UNL     1     134.777  50.369  24.024  1.00  0.00    -0.388 OA
ATOM      7  H   UNL     1     135.698  50.625  24.294  1.00  0.00     0.211 HD
ENDBRANCH   2   6
ENDBRANCH   1   2
BRANCH   1   8
ATOM      8  C   UNL     1     134.879  51.320  21.262  1.00  0.00     0.171 C 
BRANCH   8   9
ATOM      9  C   UNL     1     134.918  52.100  19.935  1.00  0.00     0.190 C 
BRANCH   9  10
ATOM     10  O   UNL     1     136.120  51.871  19.252  1.00  0.00    -0.394 OA
ATOM     11  H   UNL     1     135.922  51.176  18.572  1.00  0.00     0.210 HD
ENDBRANCH   9  10
ENDBRANCH   8   9
BRANCH   8  12
ATOM     12  O   UNL     1     133.875  50.333  21.227  1.00  0.00    -0.388 OA
ATOM     13  H   UNL     1     134.310  49.453  21.081  1.00  0.00     0.211 HD
ENDBRANCH   8  12
ENDBRANCH   1   8
BRANCH   1  14
ATOM     14  O   UNL     1     134.024  53.419  22.169  1.00  0.00    -0.388 OA
ATOM     15  H   UNL     1     133.968  53.464  21.180  1.00  0.00     0.211 HD
ENDBRANCH   1  14
TORSDOF 9
ENDMDL
MODEL 4
REMARK VINA RESULT:    -2.786      5.630      7.872
REMARK INTER + INTRA:          -4.350
REMARK INTER:                  -4.203
REMARK INTRA:                  -0.147
REMARK UNBOUND:                -0.505
REMARK SMILES OC[C@H](O)C(O)[C@@H](O)CO
REMARK SMILES IDX 5 1 7 2 9 3 10 4 8 6 3 8 2 9 1 10 4 12 6 14
REMARK H PARENT 10 5 8 7 1 11 4 13 6 15
REMARK Flexibility Score: inf
ROOT
ATOM      1  C   UNL     1     135.435  54.714  29.788  1.00  0.00     0.176 C 
ENDROOT
BRANCH   1   2
ATOM      2  C   UNL     1     134.778  54.013  28.570  1.00  0.00     0.171 C 
BRANCH   2   3
ATOM      3  C   UNL     1     135.767  53.195  27.712  1.00  0.00     0.190 C 
BRANCH   3   4
ATOM      4  O   UNL     1     135.487  53.364  26.349  1.00  0.00    -0.394 OA
ATOM      5  H   UNL     1     136.051  52.709  25.859  1.00  0.00     0.210 HD
ENDBRANCH   3   4
ENDBRANCH   2   3
BRANCH   2   6
ATOM      6  O   UNL     1     134.109  54.960  27.774  1.00  0.00    -0.388 OA
ATOM      7  H   UNL     1     133.471  54.468  27.193  1.00  0.00     0.211 HD
ENDBRANCH   2   6
ENDBRANCH   1   2
BRANCH   1   8
ATOM      8  C   UNL     1     134.775  54.323  31.142  1.00  0.00     0.171 C 
BRANCH   8   9
ATOM      9  C   UNL     1     134.141  55.528  31.861  1.00  0.00     0.190 C 
BRANCH   9  10
ATOM     10  O   UNL     1     134.205  56.679  31.064  1.00  0.00    -0.394 OA
ATOM     11  H   UNL     1     133.758  57.397  31.583  1.00  0.00     0.210 HD
ENDBRANCH   9  10
ENDBRANCH   8   9
BRANCH   8  12
ATOM     12  O   UNL     1     135.673  53.654  31.995  1.00  0.00    -0.388 OA
ATOM     13  H   UNL     1     136.595  53.821  31.669  1.00  0.00     0.211 HD
ENDBRANCH   8  12
ENDBRANCH   1   8
BRANCH   1  14
ATOM     14  O   UNL     1     136.817  54.447  29.809  1.00  0.00    -0.388 OA
ATOM     15  H   UNL     1     137.261  55.132  29.246  1.00  0.00     0.211 HD
ENDBRANCH   1  14
TORSDOF 9
ENDMDL
MODEL 5
REMARK VINA RESULT:    -2.732      4.666      6.447
REMARK INTER + INTRA:          -4.276
REMARK INTER:                  -3.566
REMARK INTRA:                  -0.710
REMARK UNBOUND:                -0.505
REMARK SMILES OC[C@H](O)C(O)[C@@H](O)CO
REMARK SMILES IDX 5 1 7 2 9 3 10 4 8 6 3 8 2 9 1 10 4 12 6 14
REMARK H PARENT 10 5 8 7 1 11 4 13 6 15
REMARK Flexibility Score: inf
ROOT
ATOM      1  C   UNL     1     135.444  52.921  28.331  1.00  0.00     0.176 C 
ENDROOT
BRANCH   1   2
ATOM      2  C   UNL     1     134.698  52.641  26.999  1.00  0.00     0.171 C 
BRANCH   2   3
ATOM      3  C   UNL     1     134.577  51.141  26.654  1.00  0.00     0.190 C 
BRANCH   3   4
ATOM      4  O   UNL     1     135.717  50.446  27.082  1.00  0.00    -0.394 OA
ATOM      5  H   UNL     1     135.431  49.869  27.838  1.00  0.00     0.210 HD
ENDBRANCH   3   4
ENDBRANCH   2   3
BRANCH   2   6
ATOM      6  O   UNL     1     135.321  53.336  25.946  1.00  0.00    -0.388 OA
ATOM      7  H   UNL     1     134.768  54.137  25.746  1.00  0.00     0.211 HD
ENDBRANCH   2   6
ENDBRANCH   1   2
BRANCH   1   8
ATOM      8  C   UNL     1     135.384  54.415  28.757  1.00  0.00     0.171 C 
BRANCH   8   9
ATOM      9  C   UNL     1     135.257  54.591  30.282  1.00  0.00     0.190 C 
BRANCH   9  10
ATOM     10  O   UNL     1     136.404  54.127  30.939  1.00  0.00    -0.394 OA
ATOM     11  H   UNL     1     136.113  53.352  31.486  1.00  0.00     0.210 HD
ENDBRANCH   9  10
ENDBRANCH   8   9
BRANCH   8  12
ATOM     12  O   UNL     1     134.361  55.116  28.090  1.00  0.00    -0.388 OA
ATOM     13  H   UNL     1     134.406  54.888  27.126  1.00  0.00     0.211 HD
ENDBRANCH   8  12
ENDBRANCH   1   8
BRANCH   1  14
ATOM     14  O   UNL     1     134.939  52.089  29.348  1.00  0.00    -0.388 OA
ATOM     15  H   UNL     1     134.538  52.676  30.040  1.00  0.00     0.211 HD
ENDBRANCH   1  14
TORSDOF 9
ENDMDL
MODEL 6
REMARK VINA RESULT:    -2.730      1.503      3.833
REMARK INTER + INTRA:          -4.272
REMARK INTER:                  -3.797
REMARK INTRA:                  -0.476
REMARK UNBOUND:                -0.505
REMARK SMILES OC[C@H](O)C(O)[C@@H](O)CO
REMARK SMILES IDX 5 1 7 2 9 3 10 4 8 6 3 8 2 9 1 10 4 12 6 14
REMARK H PARENT 10 5 8 7 1 11 4 13 6 15
REMARK Flexibility Score: inf
ROOT
ATOM      1  C   UNL     1     135.025  51.437  22.114  1.00  0.00     0.176 C 
ENDROOT
BRANCH   1   2
ATOM      2  C   UNL     1     134.343  50.057  22.305  1.00  0.00     0.171 C 
BRANCH   2   3
ATOM      3  C   UNL     1     134.643  49.394  23.667  1.00  0.00     0.190 C 
BRANCH   3   4
ATOM      4  O   UNL     1     133.875  49.987  24.680  1.00  0.00    -0.394 OA
ATOM      5  H   UNL     1     134.191  50.925  24.764  1.00  0.00     0.210 HD
ENDBRANCH   3   4
ENDBRANCH   2   3
BRANCH   2   6
ATOM      6  O   UNL     1     134.701  49.194  21.253  1.00  0.00    -0.388 OA
ATOM      7  H   UNL     1     135.489  48.667  21.551  1.00  0.00     0.211 HD
ENDBRANCH   2   6
ENDBRANCH   1   2
BRANCH   1   8
ATOM      8  C   UNL     1     134.304  52.329  21.063  1.00  0.00     0.171 C 
BRANCH   8   9
ATOM      9  C   UNL     1     134.969  52.262  19.675  1.00  0.00     0.190 C 
BRANCH   9  10
ATOM     10  O   UNL     1     136.173  51.546  19.728  1.00  0.00    -0.394 OA
ATOM     11  H   UNL     1     136.012  50.701  19.235  1.00  0.00     0.210 HD
ENDBRANCH   9  10
ENDBRANCH   8   9
BRANCH   8  12
ATOM     12  O   UNL     1     134.188  53.665  21.492  1.00  0.00    -0.388 OA
ATOM     13  H   UNL     1     135.096  54.064  21.514  1.00  0.00     0.211 HD
ENDBRANCH   8  12
ENDBRANCH   1   8
BRANCH   1  14
ATOM     14  O   UNL     1     135.123  52.100  23.352  1.00  0.00    -0.388 OA
ATOM     15  H   UNL     1     135.593  52.959  23.193  1.00  0.00     0.211 HD
ENDBRANCH   1  14
TORSDOF 9
ENDMDL
MODEL 7
REMARK VINA RESULT:    -2.708      1.219      4.320
REMARK INTER + INTRA:          -4.242
REMARK INTER:                  -4.000
REMARK INTRA:                  -0.242
REMARK UNBOUND:                -0.505
REMARK SMILES OC[C@H](O)C(O)[C@@H](O)CO
REMARK SMILES IDX 5 1 7 2 9 3 10 4 8 6 3 8 2 9 1 10 4 12 6 14
REMARK H PARENT 10 5 8 7 1 11 4 13 6 15
REMARK Flexibility Score: inf
ROOT
ATOM      1  C   UNL     1     134.044  51.733  22.926  1.00  0.00     0.176 C 
ENDROOT
BRANCH   1   2
ATOM      2  C   UNL     1     134.824  52.734  23.818  1.00  0.00     0.171 C 
BRANCH   2   3
ATOM      3  C   UNL     1     134.980  52.275  25.284  1.00  0.00     0.190 C 
BRANCH   3   4
ATOM      4  O   UNL     1     135.378  53.349  26.093  1.00  0.00    -0.394 OA
ATOM      5  H   UNL     1     136.299  53.146  26.402  1.00  0.00     0.210 HD
ENDBRANCH   3   4
ENDBRANCH   2   3
BRANCH   2   6
ATOM      6  O   UNL     1     134.214  54.000  23.765  1.00  0.00    -0.388 OA
ATOM      7  H   UNL     1     134.929  54.673  23.607  1.00  0.00     0.211 HD
ENDBRANCH   2   6
ENDBRANCH   1   2
BRANCH   1   8
ATOM      8  C   UNL     1     134.231  52.002  21.405  1.00  0.00     0.171 C 
BRANCH   8   9
ATOM      9  C   UNL     1     135.421  51.226  20.810  1.00  0.00     0.190 C 
BRANCH   9  10
ATOM     10  O   UNL     1     135.928  51.876  19.676  1.00  0.00    -0.394 OA
ATOM     11  H   UNL     1     135.991  52.837  19.915  1.00  0.00     0.210 HD
ENDBRANCH   9  10
ENDBRANCH   8   9
BRANCH   8  12
ATOM     12  O   UNL     1     134.344  53.377  21.120  1.00  0.00    -0.388 OA
ATOM     13  H   UNL     1     133.798  53.572  20.315  1.00  0.00     0.211 HD
ENDBRANCH   8  12
ENDBRANCH   1   8
BRANCH   1  14
ATOM     14  O   UNL     1     134.412  50.413  23.250  1.00  0.00    -0.388 OA
ATOM     15  H   UNL     1     135.131  50.463  23.931  1.00  0.00     0.211 HD
ENDBRANCH   1  14
TORSDOF 9
ENDMDL
MODEL 8
REMARK VINA RESULT:    -2.671      1.771      4.470
REMARK INTER + INTRA:          -4.191
REMARK INTER:                  -3.801
REMARK INTRA:                  -0.391
REMARK UNBOUND:                -0.505
REMARK SMILES OC[C@H](O)C(O)[C@@H](O)CO
REMARK SMILES IDX 5 1 7 2 9 3 10 4 8 6 3 8 2 9 1 10 4 12 6 14
REMARK H PARENT 10 5 8 7 1 11 4 13 6 15
REMARK Flexibility Score: inf
ROOT
ATOM      1  C   UNL     1     134.838  52.866  23.982  1.00  0.00     0.176 C 
ENDROOT
BRANCH   1   2
ATOM      2  C   UNL     1     133.918  52.165  25.016  1.00  0.00     0.171 C 
BRANCH   2   3
ATOM      3  C   UNL     1     134.204  52.566  26.479  1.00  0.00     0.190 C 
BRANCH   3   4
ATOM      4  O   UNL     1     133.926  53.926  26.677  1.00  0.00    -0.394 OA
ATOM      5  H   UNL     1     133.886  54.069  27.659  1.00  0.00     0.210 HD
ENDBRANCH   3   4
ENDBRANCH   2   3
BRANCH   2   6
ATOM      6  O   UNL     1     134.006  50.769  24.867  1.00  0.00    -0.388 OA
ATOM      7  H   UNL     1     134.378  50.398  25.711  1.00  0.00     0.211 HD
ENDBRANCH   2   6
ENDBRANCH   1   2
BRANCH   1   8
ATOM      8  C   UNL     1     134.063  53.822  23.031  1.00  0.00     0.171 C 
BRANCH   8   9
ATOM      9  C   UNL     1     134.059  53.330  21.572  1.00  0.00     0.190 C 
BRANCH   9  10
ATOM     10  O   UNL     1     134.664  52.070  21.465  1.00  0.00    -0.394 OA
ATOM     11  H   UNL     1     133.940  51.405  21.601  1.00  0.00     0.210 HD
ENDBRANCH   9  10
ENDBRANCH   8   9
BRANCH   8  12
ATOM     12  O   UNL     1     134.539  55.146  23.106  1.00  0.00    -0.388 OA
ATOM     13  H   UNL     1     135.342  55.154  23.687  1.00  0.00     0.211 HD
ENDBRANCH   8  12
ENDBRANCH   1   8
BRANCH   1  14
ATOM     14  O   UNL     1     135.873  53.551  24.646  1.00  0.00    -0.388 OA
ATOM     15  H   UNL     1     136.118  54.334  24.089  1.00  0.00     0.211 HD
ENDBRANCH   1  14
TORSDOF 9
ENDMDL
MODEL 9
REMARK VINA RESULT:    -2.608      5.207      8.201
REMARK INTER + INTRA:          -4.105
REMARK INTER:                  -3.408
REMARK INTRA:                  -0.696
REMARK UNBOUND:                -0.505
REMARK SMILES OC[C@H](O)C(O)[C@@H](O)CO
REMARK SMILES IDX 5 1 7 2 9 3 10 4 8 6 3 8 2 9 1 10 4 12 6 14
REMARK H PARENT 10 5 8 7 1 11 4 13 6 15
REMARK Flexibility Score: inf
ROOT
ATOM      1  C   UNL     1     134.457  53.228  29.340  1.00  0.00     0.176 C 
ENDROOT
BRANCH   1   2
ATOM      2  C   UNL     1     135.246  54.289  30.151  1.00  0.00     0.171 C 
BRANCH   2   3
ATOM      3  C   UNL     1     134.822  54.387  31.633  1.00  0.00     0.190 C 
BRANCH   3   4
ATOM      4  O   UNL     1     135.403  53.351  32.377  1.00  0.00    -0.394 OA
ATOM      5  H   UNL     1     134.681  52.963  32.938  1.00  0.00     0.210 HD
ENDBRANCH   3   4
ENDBRANCH   2   3
BRANCH   2   6
ATOM      6  O   UNL     1     135.138  55.546  29.529  1.00  0.00    -0.388 OA
ATOM      7  H   UNL     1     135.999  56.024  29.663  1.00  0.00     0.211 HD
ENDBRANCH   2   6
ENDBRANCH   1   2
BRANCH   1   8
ATOM      8  C   UNL     1     134.677  53.351  27.805  1.00  0.00     0.171 C 
BRANCH   8   9
ATOM      9  C   UNL     1     134.330  52.053  27.052  1.00  0.00     0.190 C 
BRANCH   9  10
ATOM     10  O   UNL     1     135.415  51.166  27.054  1.00  0.00    -0.394 OA
ATOM     11  H   UNL     1     135.722  51.109  27.996  1.00  0.00     0.210 HD
ENDBRANCH   9  10
ENDBRANCH   8   9
BRANCH   8  12
ATOM     12  O   UNL     1     135.982  53.774  27.489  1.00  0.00    -0.388 OA
ATOM     13  H   UNL     1     135.921  54.473  26.788  1.00  0.00     0.211 HD
ENDBRANCH   8  12
ENDBRANCH   1   8
BRANCH   1  14
ATOM     14  O   UNL     1     134.788  51.936  29.791  1.00  0.00    -0.388 OA
ATOM     15  H   UNL     1     134.277  51.288  29.240  1.00  0.00     0.211 HD
ENDBRANCH   1  14
TORSDOF 9
ENDMDL
