MODEL 1
REMARK VINA RESULT:    -4.847      0.000      0.000
REMARK INTER + INTRA:          -8.759
REMARK INTER:                  -8.248
REMARK INTRA:                  -0.511
REMARK UNBOUND:                -0.511
REMARK SMILES CCCCCCCCCCCCCC(=O)[O-]
REMARK SMILES IDX 8 1 9 2 10 3 11 4 12 5 13 6 14 7 15 8 16 9 7 10 6 11 5 12
REMARK SMILES IDX 4 13 3 14 2 15 1 16
REMARK H PARENT
REMARK Flexibility Score: inf
ROOT
ATOM      1  C   UNL     1       2.516   9.378  16.320  1.00  0.00     0.000 C 
ENDROOT
BRANCH   1   2
ATOM      2  C   UNL     1       3.636   9.859  15.386  1.00  0.00     0.000 C 
BRANCH   2   3
ATOM      3  C   UNL     1       5.023   9.809  16.047  1.00  0.00     0.000 C 
BRANCH   3   4
ATOM      4  C   UNL     1       6.168   9.799  15.018  1.00  0.00     0.000 C 
BRANCH   4   5
ATOM      5  C   UNL     1       7.340  10.703  15.433  1.00  0.00     0.006 C 
BRANCH   5   6
ATOM      6  C   UNL     1       7.138  11.340  16.815  1.00  0.00     0.053 C 
BRANCH   6   7
ATOM      7  C   UNL     1       8.419  11.329  17.586  1.00  0.00     0.041 C 
ATOM      8  O   UNL     1       9.157  10.308  17.577  1.00  0.00    -0.550 OA
ATOM      9  O   UNL     1       8.825  12.465  18.275  1.00  0.00    -0.550 OA
ENDBRANCH   6   7
ENDBRANCH   5   6
ENDBRANCH   4   5
ENDBRANCH   3   4
ENDBRANCH   2   3
ENDBRANCH   1   2
BRANCH   1  10
ATOM     10  C   UNL     1       1.568   8.418  15.591  1.00  0.00     0.000 C 
BRANCH  10  11
ATOM     11  C   UNL     1       0.225   8.305  16.324  1.00  0.00    -0.000 C 
BRANCH  11  12
ATOM     12  C   UNL     1      -0.115   9.613  17.054  1.00  0.00    -0.000 C 
BRANCH  12  13
ATOM     13  C   UNL     1      -1.102   9.403  18.213  1.00  0.00    -0.000 C 
BRANCH  13  14
ATOM     14  C   UNL     1      -1.482  10.720  18.913  1.00  0.00    -0.000 C 
BRANCH  14  15
ATOM     15  C   UNL     1      -2.227  10.490  20.237  1.00  0.00    -0.003 C 
ATOM     16  C   UNL     1      -1.587   9.396  21.091  1.00  0.00     0.004 C 
ENDBRANCH  14  15
ENDBRANCH  13  14
ENDBRANCH  12  13
ENDBRANCH  11  12
ENDBRANCH  10  11
ENDBRANCH   1  10
TORSDOF 12
ENDMDL
MODEL 2
REMARK VINA RESULT:    -4.700      4.202      8.440
REMARK INTER + INTRA:          -8.508
REMARK INTER:                  -8.117
REMARK INTRA:                  -0.390
REMARK UNBOUND:                -0.511
REMARK SMILES CCCCCCCCCCCCCC(=O)[O-]
REMARK SMILES IDX 8 1 9 2 10 3 11 4 12 5 13 6 14 7 15 8 16 9 7 10 6 11 5 12
REMARK SMILES IDX 4 13 3 14 2 15 1 16
REMARK H PARENT
REMARK Flexibility Score: inf
ROOT
ATOM      1  C   UNL     1       2.849   9.446  16.065  1.00  0.00     0.000 C 
ENDROOT
BRANCH   1   2
ATOM      2  C   UNL     1       1.935   8.407  15.400  1.00  0.00     0.000 C 
BRANCH   2   3
ATOM      3  C   UNL     1       0.524   8.378  16.012  1.00  0.00     0.000 C 
BRANCH   3   4
ATOM      4  C   UNL     1       0.317   9.477  17.069  1.00  0.00     0.000 C 
BRANCH   4   5
ATOM      5  C   UNL     1      -0.988   9.292  17.861  1.00  0.00     0.006 C 
BRANCH   5   6
ATOM      6  C   UNL     1      -1.256  10.446  18.838  1.00  0.00     0.053 C 
BRANCH   6   7
ATOM      7  C   UNL     1      -1.957   9.942  20.060  1.00  0.00     0.041 C 
ATOM      8  O   UNL     1      -3.186   9.670  20.019  1.00  0.00    -0.550 OA
ATOM      9  O   UNL     1      -1.242   9.724  21.231  1.00  0.00    -0.550 OA
ENDBRANCH   6   7
ENDBRANCH   5   6
ENDBRANCH   4   5
ENDBRANCH   3   4
ENDBRANCH   2   3
ENDBRANCH   1   2
BRANCH   1  10
ATOM     10  C   UNL     1       3.982   9.865  15.119  1.00  0.00     0.000 C 
BRANCH  10  11
ATOM     11  C   UNL     1       5.303  10.035  15.881  1.00  0.00    -0.000 C 
BRANCH  11  12
ATOM     12  C   UNL     1       6.210  11.061  15.186  1.00  0.00    -0.000 C 
BRANCH  12  13
ATOM     13  C   UNL     1       7.687  10.908  15.582  1.00  0.00    -0.000 C 
BRANCH  13  14
ATOM     14  C   UNL     1       8.216  12.117  16.373  1.00  0.00    -0.000 C 
BRANCH  14  15
ATOM     15  C   UNL     1       8.502  11.779  17.845  1.00  0.00    -0.003 C 
ATOM     16  C   UNL     1       9.206  12.917  18.584  1.00  0.00     0.004 C 
ENDBRANCH  14  15
ENDBRANCH  13  14
ENDBRANCH  12  13
ENDBRANCH  11  12
ENDBRANCH  10  11
ENDBRANCH   1  10
TORSDOF 12
ENDMDL
MODEL 3
REMARK VINA RESULT:    -4.612     15.859     18.888
REMARK INTER + INTRA:          -8.358
REMARK INTER:                  -7.910
REMARK INTRA:                  -0.448
REMARK UNBOUND:                -0.511
REMARK SMILES CCCCCCCCCCCCCC(=O)[O-]
REMARK SMILES IDX 8 1 9 2 10 3 11 4 12 5 13 6 14 7 15 8 16 9 7 10 6 11 5 12
REMARK SMILES IDX 4 13 3 14 2 15 1 16
REMARK H PARENT
REMARK Flexibility Score: inf
ROOT
ATOM      1  C   UNL     1       0.764  21.337  33.485  1.00  0.00     0.000 C 
ENDROOT
BRANCH   1   2
ATOM      2  C   UNL     1      -0.210  21.650  32.340  1.00  0.00     0.000 C 
BRANCH   2   3
ATOM      3  C   UNL     1      -0.462  20.439  31.426  1.00  0.00     0.000 C 
BRANCH   3   4
ATOM      4  C   UNL     1      -1.259  20.807  30.163  1.00  0.00     0.000 C 
BRANCH   4   5
ATOM      5  C   UNL     1      -1.598  19.580  29.301  1.00  0.00     0.006 C 
BRANCH   5   6
ATOM      6  C   UNL     1      -1.730  19.920  27.810  1.00  0.00     0.053 C 
BRANCH   6   7
ATOM      7  C   UNL     1      -3.159  19.821  27.378  1.00  0.00     0.041 C 
ATOM      8  O   UNL     1      -3.987  20.707  27.718  1.00  0.00    -0.550 OA
ATOM      9  O   UNL     1      -3.566  18.777  26.556  1.00  0.00    -0.550 OA
ENDBRANCH   6   7
ENDBRANCH   5   6
ENDBRANCH   4   5
ENDBRANCH   3   4
ENDBRANCH   2   3
ENDBRANCH   1   2
BRANCH   1  10
ATOM     10  C   UNL     1       1.396  19.952  33.303  1.00  0.00     0.000 C 
BRANCH  10  11
ATOM     11  C   UNL     1       2.793  20.060  32.678  1.00  0.00    -0.000 C 
BRANCH  11  12
ATOM     12  C   UNL     1       3.886  19.826  33.732  1.00  0.00    -0.000 C 
BRANCH  12  13
ATOM     13  C   UNL     1       4.322  18.355  33.814  1.00  0.00    -0.000 C 
BRANCH  13  14
ATOM     14  C   UNL     1       5.332  17.975  32.718  1.00  0.00    -0.000 C 
BRANCH  14  15
ATOM     15  C   UNL     1       6.083  16.671  33.034  1.00  0.00    -0.003 C 
ATOM     16  C   UNL     1       6.545  16.596  34.490  1.00  0.00     0.004 C 
ENDBRANCH  14  15
ENDBRANCH  13  14
ENDBRANCH  12  13
ENDBRANCH  11  12
ENDBRANCH  10  11
ENDBRANCH   1  10
TORSDOF 12
ENDMDL
MODEL 4
REMARK VINA RESULT:    -4.596     15.203     17.634
REMARK INTER + INTRA:          -8.331
REMARK INTER:                  -7.799
REMARK INTRA:                  -0.532
REMARK UNBOUND:                -0.511
REMARK SMILES CCCCCCCCCCCCCC(=O)[O-]
REMARK SMILES IDX 8 1 9 2 10 3 11 4 12 5 13 6 14 7 15 8 16 9 7 10 6 11 5 12
REMARK SMILES IDX 4 13 3 14 2 15 1 16
REMARK H PARENT
REMARK Flexibility Score: inf
ROOT
ATOM      1  C   UNL     1       1.700  20.137  32.113  1.00  0.00     0.000 C 
ENDROOT
BRANCH   1   2
ATOM      2  C   UNL     1       2.214  19.103  33.126  1.00  0.00     0.000 C 
BRANCH   2   3
ATOM      3  C   UNL     1       3.734  19.193  33.347  1.00  0.00     0.000 C 
BRANCH   3   4
ATOM      4  C   UNL     1       4.179  18.533  34.664  1.00  0.00     0.000 C 
BRANCH   4   5
ATOM      5  C   UNL     1       5.514  17.783  34.525  1.00  0.00     0.006 C 
BRANCH   5   6
ATOM      6  C   UNL     1       5.492  16.736  33.402  1.00  0.00     0.053 C 
BRANCH   6   7
ATOM      7  C   UNL     1       6.713  16.865  32.547  1.00  0.00     0.041 C 
ATOM      8  O   UNL     1       7.335  17.958  32.489  1.00  0.00    -0.550 OA
ATOM      9  O   UNL     1       7.192  15.761  31.852  1.00  0.00    -0.550 OA
ENDBRANCH   6   7
ENDBRANCH   5   6
ENDBRANCH   4   5
ENDBRANCH   3   4
ENDBRANCH   2   3
ENDBRANCH   1   2
BRANCH   1  10
ATOM     10  C   UNL     1       0.665  21.068  32.757  1.00  0.00     0.000 C 
BRANCH  10  11
ATOM     11  C   UNL     1      -0.512  21.325  31.807  1.00  0.00    -0.000 C 
BRANCH  11  12
ATOM     12  C   UNL     1      -0.601  20.230  30.733  1.00  0.00    -0.000 C 
BRANCH  12  13
ATOM     13  C   UNL     1      -1.649  20.546  29.654  1.00  0.00    -0.000 C 
BRANCH  13  14
ATOM     14  C   UNL     1      -1.602  19.557  28.476  1.00  0.00    -0.000 C 
BRANCH  14  15
ATOM     15  C   UNL     1      -2.311  20.097  27.225  1.00  0.00    -0.003 C 
ATOM     16  C   UNL     1      -1.351  20.784  26.253  1.00  0.00     0.004 C 
ENDBRANCH  14  15
ENDBRANCH  13  14
ENDBRANCH  12  13
ENDBRANCH  11  12
ENDBRANCH  10  11
ENDBRANCH   1  10
TORSDOF 12
ENDMDL
MODEL 5
REMARK VINA RESULT:    -4.430      3.853      8.233
REMARK INTER + INTRA:          -8.048
REMARK INTER:                  -7.554
REMARK INTRA:                  -0.494
REMARK UNBOUND:                -0.511
REMARK SMILES CCCCCCCCCCCCCC(=O)[O-]
REMARK SMILES IDX 8 1 9 2 10 3 11 4 12 5 13 6 14 7 15 8 16 9 7 10 6 11 5 12
REMARK SMILES IDX 4 13 3 14 2 15 1 16
REMARK H PARENT
REMARK Flexibility Score: inf
ROOT
ATOM      1  C   UNL     1       3.427   9.912  15.333  1.00  0.00     0.000 C 
ENDROOT
BRANCH   1   2
ATOM      2  C   UNL     1       2.471   9.366  16.403  1.00  0.00     0.000 C 
BRANCH   2   3
ATOM      3  C   UNL     1       1.464   8.350  15.838  1.00  0.00     0.000 C 
BRANCH   3   4
ATOM      4  C   UNL     1       0.041   8.564  16.381  1.00  0.00     0.000 C 
BRANCH   4   5
ATOM      5  C   UNL     1      -0.027   9.686  17.431  1.00  0.00     0.006 C 
BRANCH   5   6
ATOM      6  C   UNL     1      -1.163   9.483  18.443  1.00  0.00     0.053 C 
BRANCH   6   7
ATOM      7  C   UNL     1      -1.417  10.747  19.201  1.00  0.00     0.041 C 
ATOM      8  O   UNL     1      -0.937  11.838  18.795  1.00  0.00    -0.550 OA
ATOM      9  O   UNL     1      -2.227  10.729  20.330  1.00  0.00    -0.550 OA
ENDBRANCH   6   7
ENDBRANCH   5   6
ENDBRANCH   4   5
ENDBRANCH   3   4
ENDBRANCH   2   3
ENDBRANCH   1   2
BRANCH   1  10
ATOM     10  C   UNL     1       4.869   9.948  15.853  1.00  0.00     0.000 C 
BRANCH  10  11
ATOM     11  C   UNL     1       5.759  10.816  14.955  1.00  0.00    -0.000 C 
BRANCH  11  12
ATOM     12  C   UNL     1       6.816  11.562  15.784  1.00  0.00    -0.000 C 
BRANCH  12  13
ATOM     13  C   UNL     1       7.287  10.754  17.003  1.00  0.00    -0.000 C 
BRANCH  13  14
ATOM     14  C   UNL     1       8.629  11.256  17.563  1.00  0.00    -0.000 C 
BRANCH  14  15
ATOM     15  C   UNL     1       8.572  12.728  17.999  1.00  0.00    -0.003 C 
ATOM     16  C   UNL     1       9.665  13.088  19.006  1.00  0.00     0.004 C 
ENDBRANCH  14  15
ENDBRANCH  13  14
ENDBRANCH  12  13
ENDBRANCH  11  12
ENDBRANCH  10  11
ENDBRANCH   1  10
TORSDOF 12
ENDMDL
MODEL 6
REMARK VINA RESULT:    -4.396     15.371     18.087
REMARK INTER + INTRA:          -7.990
REMARK INTER:                  -7.462
REMARK INTRA:                  -0.529
REMARK UNBOUND:                -0.511
REMARK SMILES CCCCCCCCCCCCCC(=O)[O-]
REMARK SMILES IDX 8 1 9 2 10 3 11 4 12 5 13 6 14 7 15 8 16 9 7 10 6 11 5 12
REMARK SMILES IDX 4 13 3 14 2 15 1 16
REMARK H PARENT
REMARK Flexibility Score: inf
ROOT
ATOM      1  C   UNL     1       0.676  21.286  32.710  1.00  0.00     0.000 C 
ENDROOT
BRANCH   1   2
ATOM      2  C   UNL     1       0.202  21.026  34.147  1.00  0.00     0.000 C 
BRANCH   2   3
ATOM      3  C   UNL     1       1.168  20.128  34.938  1.00  0.00     0.000 C 
BRANCH   3   4
ATOM      4  C   UNL     1       1.997  19.206  34.027  1.00  0.00     0.000 C 
BRANCH   4   5
ATOM      5  C   UNL     1       3.505  19.489  34.118  1.00  0.00     0.006 C 
BRANCH   5   6
ATOM      6  C   UNL     1       4.272  19.023  32.873  1.00  0.00     0.053 C 
BRANCH   6   7
ATOM      7  C   UNL     1       5.334  18.039  33.253  1.00  0.00     0.041 C 
ATOM      8  O   UNL     1       5.539  17.021  32.541  1.00  0.00    -0.550 OA
ATOM      9  O   UNL     1       6.131  18.274  34.366  1.00  0.00    -0.550 OA
ENDBRANCH   6   7
ENDBRANCH   5   6
ENDBRANCH   4   5
ENDBRANCH   3   4
ENDBRANCH   2   3
ENDBRANCH   1   2
BRANCH   1  10
ATOM     10  C   UNL     1      -0.517  21.489  31.768  1.00  0.00     0.000 C 
BRANCH  10  11
ATOM     11  C   UNL     1      -0.860  20.191  31.024  1.00  0.00    -0.000 C 
BRANCH  11  12
ATOM     12  C   UNL     1      -1.519  20.492  29.670  1.00  0.00    -0.000 C 
BRANCH  12  13
ATOM     13  C   UNL     1      -1.560  19.264  28.747  1.00  0.00    -0.000 C 
BRANCH  13  14
ATOM     14  C   UNL     1      -2.742  19.302  27.763  1.00  0.00    -0.000 C 
BRANCH  14  15
ATOM     15  C   UNL     1      -2.736  20.561  26.882  1.00  0.00    -0.003 C 
ATOM     16  C   UNL     1      -1.399  20.778  26.174  1.00  0.00     0.004 C 
ENDBRANCH  14  15
ENDBRANCH  13  14
ENDBRANCH  12  13
ENDBRANCH  11  12
ENDBRANCH  10  11
ENDBRANCH   1  10
TORSDOF 12
ENDMDL
MODEL 7
REMARK VINA RESULT:    -4.191     17.725     19.392
REMARK INTER + INTRA:          -7.642
REMARK INTER:                  -6.973
REMARK INTRA:                  -0.670
REMARK UNBOUND:                -0.511
REMARK SMILES CCCCCCCCCCCCCC(=O)[O-]
REMARK SMILES IDX 8 1 9 2 10 3 11 4 12 5 13 6 14 7 15 8 16 9 7 10 6 11 5 12
REMARK SMILES IDX 4 13 3 14 2 15 1 16
REMARK H PARENT
REMARK Flexibility Score: inf
ROOT
ATOM      1  C   UNL     1       3.156  19.817  32.610  1.00  0.00     0.000 C 
ENDROOT
BRANCH   1   2
ATOM      2  C   UNL     1       3.955  19.647  33.911  1.00  0.00     0.000 C 
BRANCH   2   3
ATOM      3  C   UNL     1       3.290  18.669  34.893  1.00  0.00     0.000 C 
BRANCH   3   4
ATOM      4  C   UNL     1       4.130  17.400  35.123  1.00  0.00     0.000 C 
BRANCH   4   5
ATOM      5  C   UNL     1       5.641  17.681  35.093  1.00  0.00     0.006 C 
BRANCH   5   6
ATOM      6  C   UNL     1       6.443  16.543  34.446  1.00  0.00     0.053 C 
BRANCH   6   7
ATOM      7  C   UNL     1       6.689  16.837  32.999  1.00  0.00     0.041 C 
ATOM      8  O   UNL     1       6.982  15.906  32.204  1.00  0.00    -0.550 OA
ATOM      9  O   UNL     1       6.545  18.133  32.520  1.00  0.00    -0.550 OA
ENDBRANCH   6   7
ENDBRANCH   5   6
ENDBRANCH   4   5
ENDBRANCH   3   4
ENDBRANCH   2   3
ENDBRANCH   1   2
BRANCH   1  10
ATOM     10  C   UNL     1       1.652  19.665  32.867  1.00  0.00     0.000 C 
BRANCH  10  11
ATOM     11  C   UNL     1       0.840  20.594  31.957  1.00  0.00    -0.000 C 
BRANCH  11  12
ATOM     12  C   UNL     1      -0.390  21.148  32.693  1.00  0.00    -0.000 C 
BRANCH  12  13
ATOM     13  C   UNL     1      -0.189  21.206  34.216  1.00  0.00    -0.000 C 
BRANCH  13  14
ATOM     14  C   UNL     1       0.596  22.451  34.663  1.00  0.00    -0.000 C 
BRANCH  14  15
ATOM     15  C   UNL     1      -0.324  23.592  35.125  1.00  0.00    -0.003 C 
ATOM     16  C   UNL     1      -1.377  23.961  34.080  1.00  0.00     0.004 C 
ENDBRANCH  14  15
ENDBRANCH  13  14
ENDBRANCH  12  13
ENDBRANCH  11  12
ENDBRANCH  10  11
ENDBRANCH   1  10
TORSDOF 12
ENDMDL
MODEL 8
REMARK VINA RESULT:    -4.039      1.120      1.863
REMARK INTER + INTRA:          -7.383
REMARK INTER:                  -6.896
REMARK INTRA:                  -0.487
REMARK UNBOUND:                -0.511
REMARK SMILES CCCCCCCCCCCCCC(=O)[O-]
REMARK SMILES IDX 8 1 9 2 10 3 11 4 12 5 13 6 14 7 15 8 16 9 7 10 6 11 5 12
REMARK SMILES IDX 4 13 3 14 2 15 1 16
REMARK H PARENT
REMARK Flexibility Score: inf
ROOT
ATOM      1  C   UNL     1       1.514   8.478  16.305  1.00  0.00     0.000 C 
ENDROOT
BRANCH   1   2
ATOM      2  C   UNL     1       2.235   8.617  14.956  1.00  0.00     0.000 C 
BRANCH   2   3
ATOM      3  C   UNL     1       3.305   9.722  14.965  1.00  0.00     0.000 C 
BRANCH   3   4
ATOM      4  C   UNL     1       4.086   9.777  16.290  1.00  0.00     0.000 C 
BRANCH   4   5
ATOM      5  C   UNL     1       5.608   9.735  16.078  1.00  0.00     0.006 C 
BRANCH   5   6
ATOM      6  C   UNL     1       6.175  11.075  15.588  1.00  0.00     0.053 C 
BRANCH   6   7
ATOM      7  C   UNL     1       7.455  11.389  16.297  1.00  0.00     0.041 C 
ATOM      8  O   UNL     1       8.115  12.416  15.988  1.00  0.00    -0.550 OA
ATOM      9  O   UNL     1       7.893  10.575  17.334  1.00  0.00    -0.550 OA
ENDBRANCH   6   7
ENDBRANCH   5   6
ENDBRANCH   4   5
ENDBRANCH   3   4
ENDBRANCH   2   3
ENDBRANCH   1   2
BRANCH   1  10
ATOM     10  C   UNL     1       0.239   9.329  16.336  1.00  0.00     0.000 C 
BRANCH  10  11
ATOM     11  C   UNL     1      -0.444   9.249  17.707  1.00  0.00    -0.000 C 
BRANCH  11  12
ATOM     12  C   UNL     1      -0.381  10.602  18.433  1.00  0.00    -0.000 C 
BRANCH  12  13
ATOM     13  C   UNL     1      -1.755  11.064  18.941  1.00  0.00    -0.000 C 
BRANCH  13  14
ATOM     14  C   UNL     1      -2.762   9.907  19.061  1.00  0.00    -0.000 C 
BRANCH  14  15
ATOM     15  C   UNL     1      -2.939   9.428  20.511  1.00  0.00    -0.003 C 
ATOM     16  C   UNL     1      -1.609   9.294  21.254  1.00  0.00     0.004 C 
ENDBRANCH  14  15
ENDBRANCH  13  14
ENDBRANCH  12  13
ENDBRANCH  11  12
ENDBRANCH  10  11
ENDBRANCH   1  10
TORSDOF 12
ENDMDL
MODEL 9
REMARK VINA RESULT:    -3.913     17.160     19.200
REMARK INTER + INTRA:          -7.169
REMARK INTER:                  -6.832
REMARK INTRA:                  -0.337
REMARK UNBOUND:                -0.511
REMARK SMILES CCCCCCCCCCCCCC(=O)[O-]
REMARK SMILES IDX 8 1 9 2 10 3 11 4 12 5 13 6 14 7 15 8 16 9 7 10 6 11 5 12
REMARK SMILES IDX 4 13 3 14 2 15 1 16
REMARK H PARENT
REMARK Flexibility Score: inf
ROOT
ATOM      1  C   UNL     1       3.118  19.831  33.481  1.00  0.00     0.000 C 
ENDROOT
BRANCH   1   2
ATOM      2  C   UNL     1       4.074  20.286  34.594  1.00  0.00     0.000 C 
BRANCH   2   3
ATOM      3  C   UNL     1       5.159  19.242  34.907  1.00  0.00     0.000 C 
BRANCH   3   4
ATOM      4  C   UNL     1       4.589  17.819  35.038  1.00  0.00     0.000 C 
BRANCH   4   5
ATOM      5  C   UNL     1       5.538  16.751  34.469  1.00  0.00     0.006 C 
BRANCH   5   6
ATOM      6  C   UNL     1       5.512  16.692  32.935  1.00  0.00     0.053 C 
BRANCH   6   7
ATOM      7  C   UNL     1       6.898  16.815  32.386  1.00  0.00     0.041 C 
ATOM      8  O   UNL     1       7.450  15.830  31.829  1.00  0.00    -0.550 OA
ATOM      9  O   UNL     1       7.562  18.035  32.444  1.00  0.00    -0.550 OA
ENDBRANCH   6   7
ENDBRANCH   5   6
ENDBRANCH   4   5
ENDBRANCH   3   4
ENDBRANCH   2   3
ENDBRANCH   1   2
BRANCH   1  10
ATOM     10  C   UNL     1       1.746  19.457  34.056  1.00  0.00     0.000 C 
BRANCH  10  11
ATOM     11  C   UNL     1       1.303  20.464  35.125  1.00  0.00    -0.000 C 
BRANCH  11  12
ATOM     12  C   UNL     1       1.284  21.893  34.560  1.00  0.00    -0.000 C 
BRANCH  12  13
ATOM     13  C   UNL     1      -0.140  22.454  34.422  1.00  0.00    -0.000 C 
BRANCH  13  14
ATOM     14  C   UNL     1      -0.635  22.460  32.966  1.00  0.00    -0.000 C 
BRANCH  14  15
ATOM     15  C   UNL     1      -0.044  21.308  32.138  1.00  0.00    -0.003 C 
ATOM     16  C   UNL     1      -0.889  20.970  30.910  1.00  0.00     0.004 C 
ENDBRANCH  14  15
ENDBRANCH  13  14
ENDBRANCH  12  13
ENDBRANCH  11  12
ENDBRANCH  10  11
ENDBRANCH   1  10
TORSDOF 12
ENDMDL
