MODEL 1
REMARK VINA RESULT:    -4.529      0.000      0.000
REMARK INTER + INTRA:         -10.307
REMARK INTER:                  -8.500
REMARK INTRA:                  -1.806
REMARK UNBOUND:                -1.806
REMARK SMILES O=C([O-])CCCCCCCCCCCCCCC(=O)[O-]
REMARK SMILES IDX 10 1 9 2 8 3 7 4 6 5 5 6 4 7 2 8 1 9 3 10 11 11 12 12 13 13
REMARK SMILES IDX 14 14 15 15 16 16 17 17 18 18 19 19 20 20
REMARK H PARENT
REMARK Flexibility Score: inf
ROOT
ATOM      1  C   UNL     1      48.447  21.800  52.123  1.00  0.00     0.000 C 
ENDROOT
BRANCH   1   2
ATOM      2  C   UNL     1      47.776  21.011  50.985  1.00  0.00     0.000 C 
BRANCH   2   3
ATOM      3  C   UNL     1      48.773  20.550  49.906  1.00  0.00     0.000 C 
BRANCH   3   4
ATOM      4  C   UNL     1      50.160  20.134  50.431  1.00  0.00     0.000 C 
BRANCH   4   5
ATOM      5  C   UNL     1      51.293  21.032  49.912  1.00  0.00     0.000 C 
BRANCH   5   6
ATOM      6  C   UNL     1      52.541  20.205  49.581  1.00  0.00     0.006 C 
BRANCH   6   7
ATOM      7  C   UNL     1      53.818  21.017  49.815  1.00  0.00     0.053 C 
BRANCH   7   8
ATOM      8  C   UNL     1      54.851  20.675  48.789  1.00  0.00     0.041 C 
ATOM      9  O   UNL     1      54.948  21.358  47.735  1.00  0.00    -0.550 OA
ATOM     10  O   UNL     1      55.671  19.568  48.970  1.00  0.00    -0.550 OA
ENDBRANCH   7   8
ENDBRANCH   6   7
ENDBRANCH   5   6
ENDBRANCH   4   5
ENDBRANCH   3   4
ENDBRANCH   2   3
ENDBRANCH   1   2
BRANCH   1  11
ATOM     11  C   UNL     1      47.741  23.133  52.411  1.00  0.00     0.000 C 
BRANCH  11  12
ATOM     12  C   UNL     1      48.718  24.321  52.480  1.00  0.00     0.000 C 
BRANCH  12  13
ATOM     13  C   UNL     1      50.045  24.045  51.749  1.00  0.00     0.000 C 
BRANCH  13  14
ATOM     14  C   UNL     1      51.248  24.863  52.254  1.00  0.00     0.000 C 
BRANCH  14  15
ATOM     15  C   UNL     1      52.372  23.983  52.828  1.00  0.00     0.000 C 
BRANCH  15  16
ATOM     16  C   UNL     1      51.937  22.519  53.031  1.00  0.00     0.006 C 
BRANCH  16  17
ATOM     17  C   UNL     1      53.110  21.545  53.235  1.00  0.00     0.053 C 
BRANCH  17  18
ATOM     18  C   UNL     1      53.217  21.069  54.650  1.00  0.00     0.041 C 
ATOM     19  O   UNL     1      53.892  21.722  55.489  1.00  0.00    -0.550 OA
ATOM     20  O   UNL     1      52.575  19.901  55.042  1.00  0.00    -0.550 OA
ENDBRANCH  17  18
ENDBRANCH  16  17
ENDBRANCH  15  16
ENDBRANCH  14  15
ENDBRANCH  13  14
ENDBRANCH  12  13
ENDBRANCH  11  12
ENDBRANCH   1  11
TORSDOF 15
ENDMDL
MODEL 2
REMARK VINA RESULT:    -4.431      0.805      5.157
REMARK INTER + INTRA:         -10.123
REMARK INTER:                  -8.465
REMARK INTRA:                  -1.658
REMARK UNBOUND:                -1.806
REMARK SMILES O=C([O-])CCCCCCCCCCCCCCC(=O)[O-]
REMARK SMILES IDX 10 1 9 2 8 3 7 4 6 5 5 6 4 7 2 8 1 9 3 10 11 11 12 12 13 13
REMARK SMILES IDX 14 14 15 15 16 16 17 17 18 18 19 19 20 20
REMARK H PARENT
REMARK Flexibility Score: inf
ROOT
ATOM      1  C   UNL     1      48.079  22.070  52.278  1.00  0.00     0.000 C 
ENDROOT
BRANCH   1   2
ATOM      2  C   UNL     1      47.753  23.557  52.496  1.00  0.00     0.000 C 
BRANCH   2   3
ATOM      3  C   UNL     1      48.974  24.474  52.300  1.00  0.00     0.000 C 
BRANCH   3   4
ATOM      4  C   UNL     1      50.241  24.049  53.065  1.00  0.00     0.000 C 
BRANCH   4   5
ATOM      5  C   UNL     1      51.334  23.479  52.149  1.00  0.00     0.000 C 
BRANCH   5   6
ATOM      6  C   UNL     1      52.213  22.474  52.902  1.00  0.00     0.006 C 
BRANCH   6   7
ATOM      7  C   UNL     1      51.382  21.642  53.883  1.00  0.00     0.053 C 
BRANCH   7   8
ATOM      8  C   UNL     1      52.239  20.620  54.559  1.00  0.00     0.041 C 
ATOM      9  O   UNL     1      51.780  19.473  54.810  1.00  0.00    -0.550 OA
ATOM     10  O   UNL     1      53.526  20.950  54.965  1.00  0.00    -0.550 OA
ENDBRANCH   7   8
ENDBRANCH   6   7
ENDBRANCH   5   6
ENDBRANCH   4   5
ENDBRANCH   3   4
ENDBRANCH   2   3
ENDBRANCH   1   2
BRANCH   1  11
ATOM     11  C   UNL     1      47.568  21.547  50.927  1.00  0.00     0.000 C 
BRANCH  11  12
ATOM     12  C   UNL     1      47.826  20.041  50.735  1.00  0.00     0.000 C 
BRANCH  12  13
ATOM     13  C   UNL     1      49.058  19.754  49.857  1.00  0.00     0.000 C 
BRANCH  13  14
ATOM     14  C   UNL     1      50.413  19.873  50.579  1.00  0.00     0.000 C 
BRANCH  14  15
ATOM     15  C   UNL     1      51.396  20.812  49.857  1.00  0.00     0.000 C 
BRANCH  15  16
ATOM     16  C   UNL     1      52.832  20.253  49.817  1.00  0.00     0.006 C 
BRANCH  16  17
ATOM     17  C   UNL     1      53.908  21.322  49.560  1.00  0.00     0.053 C 
BRANCH  17  18
ATOM     18  C   UNL     1      55.028  20.811  48.709  1.00  0.00     0.041 C 
ATOM     19  O   UNL     1      55.472  19.645  48.879  1.00  0.00    -0.550 OA
ATOM     20  O   UNL     1      55.583  21.624  47.729  1.00  0.00    -0.550 OA
ENDBRANCH  17  18
ENDBRANCH  16  17
ENDBRANCH  15  16
ENDBRANCH  14  15
ENDBRANCH  13  14
ENDBRANCH  12  13
ENDBRANCH  11  12
ENDBRANCH   1  11
TORSDOF 15
ENDMDL
MODEL 3
REMARK VINA RESULT:    -4.358      4.030      6.384
REMARK INTER + INTRA:          -9.986
REMARK INTER:                  -8.441
REMARK INTRA:                  -1.545
REMARK UNBOUND:                -1.806
REMARK SMILES O=C([O-])CCCCCCCCCCCCCCC(=O)[O-]
REMARK SMILES IDX 10 1 9 2 8 3 7 4 6 5 5 6 4 7 2 8 1 9 3 10 11 11 12 12 13 13
REMARK SMILES IDX 14 14 15 15 16 16 17 17 18 18 19 19 20 20
REMARK H PARENT
REMARK Flexibility Score: inf
ROOT
ATOM      1  C   UNL     1      50.636  19.444  50.257  1.00  0.00     0.000 C 
ENDROOT
BRANCH   1   2
ATOM      2  C   UNL     1      49.182  19.477  49.756  1.00  0.00     0.000 C 
BRANCH   2   3
ATOM      3  C   UNL     1      48.442  20.769  50.147  1.00  0.00     0.000 C 
BRANCH   3   4
ATOM      4  C   UNL     1      47.280  20.584  51.140  1.00  0.00     0.000 C 
BRANCH   4   5
ATOM      5  C   UNL     1      46.735  19.148  51.166  1.00  0.00     0.000 C 
BRANCH   5   6
ATOM      6  C   UNL     1      45.677  18.982  52.263  1.00  0.00     0.006 C 
BRANCH   6   7
ATOM      7  C   UNL     1      45.181  17.536  52.336  1.00  0.00     0.053 C 
BRANCH   7   8
ATOM      8  C   UNL     1      44.085  17.307  51.344  1.00  0.00     0.041 C 
ATOM      9  O   UNL     1      43.991  16.202  50.747  1.00  0.00    -0.550 OA
ATOM     10  O   UNL     1      43.200  18.333  51.036  1.00  0.00    -0.550 OA
ENDBRANCH   7   8
ENDBRANCH   6   7
ENDBRANCH   5   6
ENDBRANCH   4   5
ENDBRANCH   3   4
ENDBRANCH   2   3
ENDBRANCH   1   2
BRANCH   1  11
ATOM     11  C   UNL     1      51.402  20.734  49.927  1.00  0.00     0.000 C 
BRANCH  11  12
ATOM     12  C   UNL     1      52.927  20.572  50.064  1.00  0.00     0.000 C 
BRANCH  12  13
ATOM     13  C   UNL     1      53.593  21.771  50.764  1.00  0.00     0.000 C 
BRANCH  13  14
ATOM     14  C   UNL     1      52.886  22.252  52.044  1.00  0.00     0.000 C 
BRANCH  14  15
ATOM     15  C   UNL     1      53.050  21.275  53.222  1.00  0.00     0.000 C 
BRANCH  15  16
ATOM     16  C   UNL     1      51.713  20.650  53.668  1.00  0.00     0.006 C 
BRANCH  16  17
ATOM     17  C   UNL     1      50.496  21.564  53.448  1.00  0.00     0.053 C 
BRANCH  17  18
ATOM     18  C   UNL     1      49.945  22.101  54.732  1.00  0.00     0.041 C 
ATOM     19  O   UNL     1      48.750  21.872  55.054  1.00  0.00    -0.550 OA
ATOM     20  O   UNL     1      50.752  22.859  55.571  1.00  0.00    -0.550 OA
ENDBRANCH  17  18
ENDBRANCH  16  17
ENDBRANCH  15  16
ENDBRANCH  14  15
ENDBRANCH  13  14
ENDBRANCH  12  13
ENDBRANCH  11  12
ENDBRANCH   1  11
TORSDOF 15
ENDMDL
MODEL 4
REMARK VINA RESULT:    -4.271      2.688      5.567
REMARK INTER + INTRA:          -9.822
REMARK INTER:                  -8.027
REMARK INTRA:                  -1.795
REMARK UNBOUND:                -1.806
REMARK SMILES O=C([O-])CCCCCCCCCCCCCCC(=O)[O-]
REMARK SMILES IDX 10 1 9 2 8 3 7 4 6 5 5 6 4 7 2 8 1 9 3 10 11 11 12 12 13 13
REMARK SMILES IDX 14 14 15 15 16 16 17 17 18 18 19 19 20 20
REMARK H PARENT
REMARK Flexibility Score: inf
ROOT
ATOM      1  C   UNL     1      50.373  19.261  49.854  1.00  0.00     0.000 C 
ENDROOT
BRANCH   1   2
ATOM      2  C   UNL     1      48.906  19.362  50.307  1.00  0.00     0.000 C 
BRANCH   2   3
ATOM      3  C   UNL     1      48.305  20.762  50.081  1.00  0.00     0.000 C 
BRANCH   3   4
ATOM      4  C   UNL     1      47.685  21.416  51.330  1.00  0.00     0.000 C 
BRANCH   4   5
ATOM      5  C   UNL     1      48.565  22.524  51.927  1.00  0.00     0.000 C 
BRANCH   5   6
ATOM      6  C   UNL     1      48.065  22.933  53.318  1.00  0.00     0.006 C 
BRANCH   6   7
ATOM      7  C   UNL     1      48.435  21.881  54.367  1.00  0.00     0.053 C 
BRANCH   7   8
ATOM      8  C   UNL     1      47.269  21.601  55.261  1.00  0.00     0.041 C 
ATOM      9  O   UNL     1      47.188  22.154  56.390  1.00  0.00    -0.550 OA
ATOM     10  O   UNL     1      46.299  20.686  54.872  1.00  0.00    -0.550 OA
ENDBRANCH   7   8
ENDBRANCH   6   7
ENDBRANCH   5   6
ENDBRANCH   4   5
ENDBRANCH   3   4
ENDBRANCH   2   3
ENDBRANCH   1   2
BRANCH   1  11
ATOM     11  C   UNL     1      51.066  20.630  49.791  1.00  0.00     0.000 C 
BRANCH  11  12
ATOM     12  C   UNL     1      52.592  20.533  49.965  1.00  0.00     0.000 C 
BRANCH  12  13
ATOM     13  C   UNL     1      53.128  21.473  51.061  1.00  0.00     0.000 C 
BRANCH  13  14
ATOM     14  C   UNL     1      52.079  21.945  52.083  1.00  0.00     0.000 C 
BRANCH  14  15
ATOM     15  C   UNL     1      51.768  20.885  53.155  1.00  0.00     0.000 C 
BRANCH  15  16
ATOM     16  C   UNL     1      52.273  21.288  54.554  1.00  0.00     0.006 C 
BRANCH  16  17
ATOM     17  C   UNL     1      53.792  21.132  54.736  1.00  0.00     0.053 C 
BRANCH  17  18
ATOM     18  C   UNL     1      54.461  22.425  55.082  1.00  0.00     0.041 C 
ATOM     19  O   UNL     1      55.031  22.565  56.197  1.00  0.00    -0.550 OA
ATOM     20  O   UNL     1      54.454  23.477  54.175  1.00  0.00    -0.550 OA
ENDBRANCH  17  18
ENDBRANCH  16  17
ENDBRANCH  15  16
ENDBRANCH  14  15
ENDBRANCH  13  14
ENDBRANCH  12  13
ENDBRANCH  11  12
ENDBRANCH   1  11
TORSDOF 15
ENDMDL
MODEL 5
REMARK VINA RESULT:    -4.216      2.251      3.868
REMARK INTER + INTRA:          -9.720
REMARK INTER:                  -7.421
REMARK INTRA:                  -2.299
REMARK UNBOUND:                -1.806
REMARK SMILES O=C([O-])CCCCCCCCCCCCCCC(=O)[O-]
REMARK SMILES IDX 10 1 9 2 8 3 7 4 6 5 5 6 4 7 2 8 1 9 3 10 11 11 12 12 13 13
REMARK SMILES IDX 14 14 15 15 16 16 17 17 18 18 19 19 20 20
REMARK H PARENT
REMARK Flexibility Score: inf
ROOT
ATOM      1  C   UNL     1      52.981  21.404  53.546  1.00  0.00     0.000 C 
ENDROOT
BRANCH   1   2
ATOM      2  C   UNL     1      51.484  21.108  53.358  1.00  0.00     0.000 C 
BRANCH   2   3
ATOM      3  C   UNL     1      51.188  20.300  52.081  1.00  0.00     0.000 C 
BRANCH   3   4
ATOM      4  C   UNL     1      50.511  21.092  50.947  1.00  0.00     0.000 C 
BRANCH   4   5
ATOM      5  C   UNL     1      51.394  21.225  49.697  1.00  0.00     0.000 C 
BRANCH   5   6
ATOM      6  C   UNL     1      52.646  20.347  49.813  1.00  0.00     0.006 C 
BRANCH   6   7
ATOM      7  C   UNL     1      53.919  21.198  49.797  1.00  0.00     0.053 C 
BRANCH   7   8
ATOM      8  C   UNL     1      54.865  20.704  48.750  1.00  0.00     0.041 C 
ATOM      9  O   UNL     1      55.490  19.623  48.919  1.00  0.00    -0.550 OA
ATOM     10  O   UNL     1      55.101  21.464  47.611  1.00  0.00    -0.550 OA
ENDBRANCH   7   8
ENDBRANCH   6   7
ENDBRANCH   5   6
ENDBRANCH   4   5
ENDBRANCH   3   4
ENDBRANCH   2   3
ENDBRANCH   1   2
BRANCH   1  11
ATOM     11  C   UNL     1      53.371  22.806  53.052  1.00  0.00     0.000 C 
BRANCH  11  12
ATOM     12  C   UNL     1      52.339  23.881  53.438  1.00  0.00     0.000 C 
BRANCH  12  13
ATOM     13  C   UNL     1      51.803  24.657  52.221  1.00  0.00     0.000 C 
BRANCH  13  14
ATOM     14  C   UNL     1      50.318  24.414  51.898  1.00  0.00     0.000 C 
BRANCH  14  15
ATOM     15  C   UNL     1      49.455  24.220  53.157  1.00  0.00     0.000 C 
BRANCH  15  16
ATOM     16  C   UNL     1      48.067  23.627  52.842  1.00  0.00     0.006 C 
BRANCH  16  17
ATOM     17  C   UNL     1      47.897  22.168  53.297  1.00  0.00     0.053 C 
BRANCH  17  18
ATOM     18  C   UNL     1      47.190  22.058  54.611  1.00  0.00     0.041 C 
ATOM     19  O   UNL     1      46.989  20.928  55.130  1.00  0.00    -0.550 OA
ATOM     20  O   UNL     1      46.750  23.204  55.263  1.00  0.00    -0.550 OA
ENDBRANCH  17  18
ENDBRANCH  16  17
ENDBRANCH  15  16
ENDBRANCH  14  15
ENDBRANCH  13  14
ENDBRANCH  12  13
ENDBRANCH  11  12
ENDBRANCH   1  11
TORSDOF 15
ENDMDL
MODEL 6
REMARK VINA RESULT:    -4.203      2.453      5.877
REMARK INTER + INTRA:          -9.694
REMARK INTER:                  -7.902
REMARK INTRA:                  -1.792
REMARK UNBOUND:                -1.806
REMARK SMILES O=C([O-])CCCCCCCCCCCCCCC(=O)[O-]
REMARK SMILES IDX 10 1 9 2 8 3 7 4 6 5 5 6 4 7 2 8 1 9 3 10 11 11 12 12 13 13
REMARK SMILES IDX 14 14 15 15 16 16 17 17 18 18 19 19 20 20
REMARK H PARENT
REMARK Flexibility Score: inf
ROOT
ATOM      1  C   UNL     1      53.077  21.732  51.578  1.00  0.00     0.000 C 
ENDROOT
BRANCH   1   2
ATOM      2  C   UNL     1      53.725  23.112  51.783  1.00  0.00     0.000 C 
BRANCH   2   3
ATOM      3  C   UNL     1      52.782  24.121  52.464  1.00  0.00     0.000 C 
BRANCH   3   4
ATOM      4  C   UNL     1      51.376  23.586  52.792  1.00  0.00     0.000 C 
BRANCH   4   5
ATOM      5  C   UNL     1      50.924  23.919  54.221  1.00  0.00     0.000 C 
BRANCH   5   6
ATOM      6  C   UNL     1      51.106  22.713  55.150  1.00  0.00     0.006 C 
BRANCH   6   7
ATOM      7  C   UNL     1      51.005  21.398  54.372  1.00  0.00     0.053 C 
BRANCH   7   8
ATOM      8  C   UNL     1      52.122  20.478  54.750  1.00  0.00     0.041 C 
ATOM      9  O   UNL     1      53.299  20.917  54.850  1.00  0.00    -0.550 OA
ATOM     10  O   UNL     1      51.874  19.124  54.938  1.00  0.00    -0.550 OA
ENDBRANCH   7   8
ENDBRANCH   6   7
ENDBRANCH   5   6
ENDBRANCH   4   5
ENDBRANCH   3   4
ENDBRANCH   2   3
ENDBRANCH   1   2
BRANCH   1  11
ATOM     11  C   UNL     1      53.634  20.997  50.350  1.00  0.00     0.000 C 
BRANCH  11  12
ATOM     12  C   UNL     1      52.531  20.345  49.496  1.00  0.00     0.000 C 
BRANCH  12  13
ATOM     13  C   UNL     1      51.150  20.993  49.709  1.00  0.00     0.000 C 
BRANCH  13  14
ATOM     14  C   UNL     1      50.093  20.075  50.349  1.00  0.00     0.000 C 
BRANCH  14  15
ATOM     15  C   UNL     1      48.663  20.386  49.874  1.00  0.00     0.000 C 
BRANCH  15  16
ATOM     16  C   UNL     1      47.763  20.923  51.005  1.00  0.00     0.006 C 
BRANCH  16  17
ATOM     17  C   UNL     1      48.360  22.125  51.757  1.00  0.00     0.053 C 
BRANCH  17  18
ATOM     18  C   UNL     1      47.704  22.351  53.083  1.00  0.00     0.041 C 
ATOM     19  O   UNL     1      47.456  21.377  53.841  1.00  0.00    -0.550 OA
ATOM     20  O   UNL     1      47.365  23.638  53.480  1.00  0.00    -0.550 OA
ENDBRANCH  17  18
ENDBRANCH  16  17
ENDBRANCH  15  16
ENDBRANCH  14  15
ENDBRANCH  13  14
ENDBRANCH  12  13
ENDBRANCH  11  12
ENDBRANCH   1  11
TORSDOF 15
ENDMDL
MODEL 7
REMARK VINA RESULT:    -4.203      3.573      6.115
REMARK INTER + INTRA:          -9.694
REMARK INTER:                  -8.466
REMARK INTRA:                  -1.228
REMARK UNBOUND:                -1.806
REMARK SMILES O=C([O-])CCCCCCCCCCCCCCC(=O)[O-]
REMARK SMILES IDX 10 1 9 2 8 3 7 4 6 5 5 6 4 7 2 8 1 9 3 10 11 11 12 12 13 13
REMARK SMILES IDX 14 14 15 15 16 16 17 17 18 18 19 19 20 20
REMARK H PARENT
REMARK Flexibility Score: inf
ROOT
ATOM      1  C   UNL     1      52.594  20.613  49.834  1.00  0.00     0.000 C 
ENDROOT
BRANCH   1   2
ATOM      2  C   UNL     1      53.384  21.336  50.938  1.00  0.00     0.000 C 
BRANCH   2   3
ATOM      3  C   UNL     1      52.500  21.767  52.123  1.00  0.00     0.000 C 
BRANCH   3   4
ATOM      4  C   UNL     1      53.104  21.513  53.517  1.00  0.00     0.000 C 
BRANCH   4   5
ATOM      5  C   UNL     1      53.956  22.685  54.026  1.00  0.00     0.000 C 
BRANCH   5   6
ATOM      6  C   UNL     1      54.661  22.323  55.338  1.00  0.00     0.006 C 
BRANCH   6   7
ATOM      7  C   UNL     1      56.074  22.910  55.385  1.00  0.00     0.053 C 
BRANCH   7   8
ATOM      8  C   UNL     1      56.560  22.994  56.797  1.00  0.00     0.041 C 
ATOM      9  O   UNL     1      55.994  23.765  57.618  1.00  0.00    -0.550 OA
ATOM     10  O   UNL     1      57.672  22.262  57.195  1.00  0.00    -0.550 OA
ENDBRANCH   7   8
ENDBRANCH   6   7
ENDBRANCH   5   6
ENDBRANCH   4   5
ENDBRANCH   3   4
ENDBRANCH   2   3
ENDBRANCH   1   2
BRANCH   1  11
ATOM     11  C   UNL     1      51.076  20.677  50.058  1.00  0.00     0.000 C 
BRANCH  11  12
ATOM     12  C   UNL     1      50.427  19.284  50.141  1.00  0.00     0.000 C 
BRANCH  12  13
ATOM     13  C   UNL     1      48.891  19.345  50.232  1.00  0.00     0.000 C 
BRANCH  13  14
ATOM     14  C   UNL     1      48.280  20.736  49.978  1.00  0.00     0.000 C 
BRANCH  14  15
ATOM     15  C   UNL     1      47.607  21.331  51.227  1.00  0.00     0.000 C 
BRANCH  15  16
ATOM     16  C   UNL     1      48.473  22.405  51.916  1.00  0.00     0.006 C 
BRANCH  16  17
ATOM     17  C   UNL     1      48.944  22.013  53.327  1.00  0.00     0.053 C 
BRANCH  17  18
ATOM     18  C   UNL     1      47.842  22.088  54.337  1.00  0.00     0.041 C 
ATOM     19  O   UNL     1      47.728  21.196  55.218  1.00  0.00    -0.550 OA
ATOM     20  O   UNL     1      46.940  23.143  54.305  1.00  0.00    -0.550 OA
ENDBRANCH  17  18
ENDBRANCH  16  17
ENDBRANCH  15  16
ENDBRANCH  14  15
ENDBRANCH  13  14
ENDBRANCH  12  13
ENDBRANCH  11  12
ENDBRANCH   1  11
TORSDOF 15
ENDMDL
MODEL 8
REMARK VINA RESULT:    -4.178      2.166      6.123
REMARK INTER + INTRA:          -9.648
REMARK INTER:                  -7.594
REMARK INTRA:                  -2.055
REMARK UNBOUND:                -1.806
REMARK SMILES O=C([O-])CCCCCCCCCCCCCCC(=O)[O-]
REMARK SMILES IDX 10 1 9 2 8 3 7 4 6 5 5 6 4 7 2 8 1 9 3 10 11 11 12 12 13 13
REMARK SMILES IDX 14 14 15 15 16 16 17 17 18 18 19 19 20 20
REMARK H PARENT
REMARK Flexibility Score: inf
ROOT
ATOM      1  C   UNL     1      53.476  22.418  53.442  1.00  0.00     0.000 C 
ENDROOT
BRANCH   1   2
ATOM      2  C   UNL     1      53.384  23.867  53.950  1.00  0.00     0.000 C 
BRANCH   2   3
ATOM      3  C   UNL     1      52.050  24.545  53.588  1.00  0.00     0.000 C 
BRANCH   3   4
ATOM      4  C   UNL     1      51.705  24.552  52.087  1.00  0.00     0.000 C 
BRANCH   4   5
ATOM      5  C   UNL     1      50.210  24.773  51.815  1.00  0.00     0.000 C 
BRANCH   5   6
ATOM      6  C   UNL     1      49.374  24.476  53.065  1.00  0.00     0.006 C 
BRANCH   6   7
ATOM      7  C   UNL     1      47.951  24.052  52.690  1.00  0.00     0.053 C 
BRANCH   7   8
ATOM      8  C   UNL     1      47.874  22.569  52.520  1.00  0.00     0.041 C 
ATOM      9  O   UNL     1      47.924  22.059  51.369  1.00  0.00    -0.550 OA
ATOM     10  O   UNL     1      47.690  21.751  53.628  1.00  0.00    -0.550 OA
ENDBRANCH   7   8
ENDBRANCH   6   7
ENDBRANCH   5   6
ENDBRANCH   4   5
ENDBRANCH   3   4
ENDBRANCH   2   3
ENDBRANCH   1   2
BRANCH   1  11
ATOM     11  C   UNL     1      53.159  21.389  54.537  1.00  0.00     0.000 C 
BRANCH  11  12
ATOM     12  C   UNL     1      51.927  20.527  54.204  1.00  0.00     0.000 C 
BRANCH  12  13
ATOM     13  C   UNL     1      51.075  21.118  53.066  1.00  0.00     0.000 C 
BRANCH  13  14
ATOM     14  C   UNL     1      51.086  20.308  51.757  1.00  0.00     0.000 C 
BRANCH  14  15
ATOM     15  C   UNL     1      51.291  21.186  50.510  1.00  0.00     0.000 C 
BRANCH  15  16
ATOM     16  C   UNL     1      52.363  20.625  49.556  1.00  0.00     0.006 C 
BRANCH  16  17
ATOM     17  C   UNL     1      53.804  20.982  49.961  1.00  0.00     0.053 C 
BRANCH  17  18
ATOM     18  C   UNL     1      54.799  20.627  48.901  1.00  0.00     0.041 C 
ATOM     19  O   UNL     1      54.936  21.364  47.888  1.00  0.00    -0.550 OA
ATOM     20  O   UNL     1      55.574  19.482  49.030  1.00  0.00    -0.550 OA
ENDBRANCH  17  18
ENDBRANCH  16  17
ENDBRANCH  15  16
ENDBRANCH  14  15
ENDBRANCH  13  14
ENDBRANCH  12  13
ENDBRANCH  11  12
ENDBRANCH   1  11
TORSDOF 15
ENDMDL
MODEL 9
REMARK VINA RESULT:    -4.129      3.116      5.018
REMARK INTER + INTRA:          -9.556
REMARK INTER:                  -7.374
REMARK INTRA:                  -2.181
REMARK UNBOUND:                -1.806
REMARK SMILES O=C([O-])CCCCCCCCCCCCCCC(=O)[O-]
REMARK SMILES IDX 10 1 9 2 8 3 7 4 6 5 5 6 4 7 2 8 1 9 3 10 11 11 12 12 13 13
REMARK SMILES IDX 14 14 15 15 16 16 17 17 18 18 19 19 20 20
REMARK H PARENT
REMARK Flexibility Score: inf
ROOT
ATOM      1  C   UNL     1      51.528  20.621  54.123  1.00  0.00     0.000 C 
ENDROOT
BRANCH   1   2
ATOM      2  C   UNL     1      52.868  21.327  54.388  1.00  0.00     0.000 C 
BRANCH   2   3
ATOM      3  C   UNL     1      53.656  21.624  53.098  1.00  0.00     0.000 C 
BRANCH   3   4
ATOM      4  C   UNL     1      52.793  21.858  51.844  1.00  0.00     0.000 C 
BRANCH   4   5
ATOM      5  C   UNL     1      53.302  21.093  50.613  1.00  0.00     0.000 C 
BRANCH   5   6
ATOM      6  C   UNL     1      52.142  20.437  49.855  1.00  0.00     0.006 C 
BRANCH   6   7
ATOM      7  C   UNL     1      50.799  21.039  50.276  1.00  0.00     0.053 C 
BRANCH   7   8
ATOM      8  C   UNL     1      49.711  20.018  50.170  1.00  0.00     0.041 C 
ATOM      9  O   UNL     1      49.989  18.790  50.202  1.00  0.00    -0.550 OA
ATOM     10  O   UNL     1      48.395  20.422  49.980  1.00  0.00    -0.550 OA
ENDBRANCH   7   8
ENDBRANCH   6   7
ENDBRANCH   5   6
ENDBRANCH   4   5
ENDBRANCH   3   4
ENDBRANCH   2   3
ENDBRANCH   1   2
BRANCH   1  11
ATOM     11  C   UNL     1      50.325  21.433  54.624  1.00  0.00     0.000 C 
BRANCH  11  12
ATOM     12  C   UNL     1      50.668  22.913  54.874  1.00  0.00     0.000 C 
BRANCH  12  13
ATOM     13  C   UNL     1      49.889  23.869  53.952  1.00  0.00     0.000 C 
BRANCH  13  14
ATOM     14  C   UNL     1      49.159  23.191  52.778  1.00  0.00     0.000 C 
BRANCH  14  15
ATOM     15  C   UNL     1      47.651  23.494  52.754  1.00  0.00     0.000 C 
BRANCH  15  16
ATOM     16  C   UNL     1      47.173  24.238  54.016  1.00  0.00     0.006 C 
BRANCH  16  17
ATOM     17  C   UNL     1      46.209  23.421  54.893  1.00  0.00     0.053 C 
BRANCH  17  18
ATOM     18  C   UNL     1      46.913  22.365  55.685  1.00  0.00     0.041 C 
ATOM     19  O   UNL     1      46.849  21.158  55.330  1.00  0.00    -0.550 OA
ATOM     20  O   UNL     1      47.640  22.712  56.817  1.00  0.00    -0.550 OA
ENDBRANCH  17  18
ENDBRANCH  16  17
ENDBRANCH  15  16
ENDBRANCH  14  15
ENDBRANCH  13  14
ENDBRANCH  12  13
ENDBRANCH  11  12
ENDBRANCH   1  11
TORSDOF 15
ENDMDL
