MODEL 1
REMARK VINA RESULT:    -3.304      0.000      0.000
REMARK INTER + INTRA:          -3.696
REMARK INTER:                  -3.691
REMARK INTRA:                  -0.005
REMARK UNBOUND:                -0.005
REMARK SMILES CCCC(=O)[O-]
REMARK SMILES IDX 3 1 4 2 5 3 6 4 2 5 1 6
REMARK H PARENT
REMARK Flexibility Score: inf
ROOT
ATOM      1  C   UNL     1     -30.774 -20.907 -24.456  1.00  0.00     0.052 C 
ENDROOT
BRANCH   1   2
ATOM      2  C   UNL     1     -31.409 -21.367 -23.182  1.00  0.00     0.041 C 
ATOM      3  O   UNL     1     -31.031 -22.437 -22.637  1.00  0.00    -0.550 OA
ATOM      4  O   UNL     1     -32.452 -20.639 -22.623  1.00  0.00    -0.550 OA
ENDBRANCH   1   2
BRANCH   1   5
ATOM      5  C   UNL     1     -31.430 -21.591 -25.659  1.00  0.00     0.003 C 
ATOM      6  C   UNL     1     -30.734 -21.205 -26.960  1.00  0.00     0.004 C 
ENDBRANCH   1   5
TORSDOF 2
ENDMDL
MODEL 2
REMARK VINA RESULT:    -3.300      0.147      1.330
REMARK INTER + INTRA:          -3.691
REMARK INTER:                  -3.685
REMARK INTRA:                  -0.006
REMARK UNBOUND:                -0.005
REMARK SMILES CCCC(=O)[O-]
REMARK SMILES IDX 3 1 4 2 5 3 6 4 2 5 1 6
REMARK H PARENT
REMARK Flexibility Score: inf
ROOT
ATOM      1  C   UNL     1     -31.012 -20.719 -24.479  1.00  0.00     0.052 C 
ENDROOT
BRANCH   1   2
ATOM      2  C   UNL     1     -31.558 -21.256 -23.194  1.00  0.00     0.041 C 
ATOM      3  O   UNL     1     -32.472 -20.639 -22.587  1.00  0.00    -0.550 OA
ATOM      4  O   UNL     1     -31.024 -22.413 -22.642  1.00  0.00    -0.550 OA
ENDBRANCH   1   2
BRANCH   1   5
ATOM      5  C   UNL     1     -31.431 -21.609 -25.653  1.00  0.00     0.003 C 
ATOM      6  C   UNL     1     -30.730 -21.190 -26.940  1.00  0.00     0.004 C 
ENDBRANCH   1   5
TORSDOF 2
ENDMDL
MODEL 3
REMARK VINA RESULT:    -3.115      2.181      3.296
REMARK INTER + INTRA:          -3.485
REMARK INTER:                  -3.472
REMARK INTRA:                  -0.013
REMARK UNBOUND:                -0.005
REMARK SMILES CCCC(=O)[O-]
REMARK SMILES IDX 3 1 4 2 5 3 6 4 2 5 1 6
REMARK H PARENT
REMARK Flexibility Score: inf
ROOT
ATOM      1  C   UNL     1     -31.593 -21.200 -23.525  1.00  0.00     0.052 C 
ENDROOT
BRANCH   1   2
ATOM      2  C   UNL     1     -31.313 -20.966 -24.976  1.00  0.00     0.041 C 
ATOM      3  O   UNL     1     -31.513 -21.881 -25.816  1.00  0.00    -0.550 OA
ATOM      4  O   UNL     1     -30.784 -19.751 -25.394  1.00  0.00    -0.550 OA
ENDBRANCH   1   2
BRANCH   1   5
ATOM      5  C   UNL     1     -30.343 -21.730 -22.817  1.00  0.00     0.003 C 
ATOM      6  C   UNL     1     -30.697 -22.835 -21.827  1.00  0.00     0.004 C 
ENDBRANCH   1   5
TORSDOF 2
ENDMDL
MODEL 4
REMARK VINA RESULT:    -3.096      2.160      3.316
REMARK INTER + INTRA:          -3.463
REMARK INTER:                  -3.414
REMARK INTRA:                  -0.049
REMARK UNBOUND:                -0.005
REMARK SMILES CCCC(=O)[O-]
REMARK SMILES IDX 3 1 4 2 5 3 6 4 2 5 1 6
REMARK H PARENT
REMARK Flexibility Score: inf
ROOT
ATOM      1  C   UNL     1     -30.320 -21.227 -24.068  1.00  0.00     0.052 C 
ENDROOT
BRANCH   1   2
ATOM      2  C   UNL     1     -31.079 -20.956 -25.329  1.00  0.00     0.041 C 
ATOM      3  O   UNL     1     -31.301 -19.773 -25.693  1.00  0.00    -0.550 OA
ATOM      4  O   UNL     1     -31.583 -22.013 -26.076  1.00  0.00    -0.550 OA
ENDBRANCH   1   2
BRANCH   1   5
ATOM      5  C   UNL     1     -31.248 -21.808 -22.998  1.00  0.00     0.003 C 
ATOM      6  C   UNL     1     -32.232 -20.758 -22.492  1.00  0.00     0.004 C 
ENDBRANCH   1   5
TORSDOF 2
ENDMDL
MODEL 5
REMARK VINA RESULT:    -3.050      2.254      3.682
REMARK INTER + INTRA:          -3.412
REMARK INTER:                  -3.370
REMARK INTRA:                  -0.042
REMARK UNBOUND:                -0.005
REMARK SMILES CCCC(=O)[O-]
REMARK SMILES IDX 3 1 4 2 5 3 6 4 2 5 1 6
REMARK H PARENT
REMARK Flexibility Score: inf
ROOT
ATOM      1  C   UNL     1     -30.786 -22.514 -22.142  1.00  0.00     0.052 C 
ENDROOT
BRANCH   1   2
ATOM      2  C   UNL     1     -31.496 -21.519 -23.004  1.00  0.00     0.041 C 
ATOM      3  O   UNL     1     -32.379 -20.770 -22.511  1.00  0.00    -0.550 OA
ATOM      4  O   UNL     1     -31.219 -21.454 -24.364  1.00  0.00    -0.550 OA
ENDBRANCH   1   2
BRANCH   1   5
ATOM      5  C   UNL     1     -29.396 -21.996 -21.760  1.00  0.00     0.003 C 
ATOM      6  C   UNL     1     -29.440 -21.211 -20.454  1.00  0.00     0.004 C 
ENDBRANCH   1   5
TORSDOF 2
ENDMDL
MODEL 6
REMARK VINA RESULT:    -3.031      2.752      4.160
REMARK INTER + INTRA:          -3.391
REMARK INTER:                  -3.366
REMARK INTRA:                  -0.025
REMARK UNBOUND:                -0.005
REMARK SMILES CCCC(=O)[O-]
REMARK SMILES IDX 3 1 4 2 5 3 6 4 2 5 1 6
REMARK H PARENT
REMARK Flexibility Score: inf
ROOT
ATOM      1  C   UNL     1     -30.409 -23.110 -21.694  1.00  0.00     0.052 C 
ENDROOT
BRANCH   1   2
ATOM      2  C   UNL     1     -31.092 -21.903 -22.255  1.00  0.00     0.041 C 
ATOM      3  O   UNL     1     -31.576 -21.033 -21.485  1.00  0.00    -0.550 OA
ATOM      4  O   UNL     1     -31.236 -21.762 -23.630  1.00  0.00    -0.550 OA
ENDBRANCH   1   2
BRANCH   1   5
ATOM      5  C   UNL     1     -28.929 -22.816 -21.434  1.00  0.00     0.003 C 
ATOM      6  C   UNL     1     -28.561 -23.089 -19.979  1.00  0.00     0.004 C 
ENDBRANCH   1   5
TORSDOF 2
ENDMDL
MODEL 7
REMARK VINA RESULT:    -3.007      2.902      3.452
REMARK INTER + INTRA:          -3.364
REMARK INTER:                  -3.328
REMARK INTRA:                  -0.036
REMARK UNBOUND:                -0.005
REMARK SMILES CCCC(=O)[O-]
REMARK SMILES IDX 3 1 4 2 5 3 6 4 2 5 1 6
REMARK H PARENT
REMARK Flexibility Score: inf
ROOT
ATOM      1  C   UNL     1     -30.674 -22.728 -21.873  1.00  0.00     0.052 C 
ENDROOT
BRANCH   1   2
ATOM      2  C   UNL     1     -29.439 -22.342 -21.123  1.00  0.00     0.041 C 
ATOM      3  O   UNL     1     -28.445 -23.114 -21.100  1.00  0.00    -0.550 OA
ATOM      4  O   UNL     1     -29.403 -21.151 -20.408  1.00  0.00    -0.550 OA
ENDBRANCH   1   2
BRANCH   1   5
ATOM      5  C   UNL     1     -30.968 -21.711 -22.980  1.00  0.00     0.003 C 
ATOM      6  C   UNL     1     -32.159 -20.830 -22.617  1.00  0.00     0.004 C 
ENDBRANCH   1   5
TORSDOF 2
ENDMDL
MODEL 8
REMARK VINA RESULT:    -2.964      2.612      3.697
REMARK INTER + INTRA:          -3.317
REMARK INTER:                  -3.282
REMARK INTRA:                  -0.035
REMARK UNBOUND:                -0.005
REMARK SMILES CCCC(=O)[O-]
REMARK SMILES IDX 3 1 4 2 5 3 6 4 2 5 1 6
REMARK H PARENT
REMARK Flexibility Score: inf
ROOT
ATOM      1  C   UNL     1     -30.270 -22.695 -21.868  1.00  0.00     0.052 C 
ENDROOT
BRANCH   1   2
ATOM      2  C   UNL     1     -29.356 -22.241 -20.774  1.00  0.00     0.041 C 
ATOM      3  O   UNL     1     -29.413 -21.057 -20.352  1.00  0.00    -0.550 OA
ATOM      4  O   UNL     1     -28.408 -23.113 -20.254  1.00  0.00    -0.550 OA
ENDBRANCH   1   2
BRANCH   1   5
ATOM      5  C   UNL     1     -31.302 -21.610 -22.189  1.00  0.00     0.003 C 
ATOM      6  C   UNL     1     -31.224 -21.190 -23.652  1.00  0.00     0.004 C 
ENDBRANCH   1   5
TORSDOF 2
ENDMDL
MODEL 9
REMARK VINA RESULT:    -2.908      3.742      5.364
REMARK INTER + INTRA:          -3.253
REMARK INTER:                  -3.243
REMARK INTRA:                  -0.010
REMARK UNBOUND:                -0.005
REMARK SMILES CCCC(=O)[O-]
REMARK SMILES IDX 3 1 4 2 5 3 6 4 2 5 1 6
REMARK H PARENT
REMARK Flexibility Score: inf
ROOT
ATOM      1  C   UNL     1     -29.363 -21.782 -20.448  1.00  0.00     0.052 C 
ENDROOT
BRANCH   1   2
ATOM      2  C   UNL     1     -29.349 -21.948 -21.934  1.00  0.00     0.041 C 
ATOM      3  O   UNL     1     -30.430 -22.042 -22.571  1.00  0.00    -0.550 OA
ATOM      4  O   UNL     1     -28.140 -22.047 -22.611  1.00  0.00    -0.550 OA
ENDBRANCH   1   2
BRANCH   1   5
ATOM      5  C   UNL     1     -28.621 -22.939 -19.773  1.00  0.00     0.003 C 
ATOM      6  C   UNL     1     -28.153 -22.552 -18.374  1.00  0.00     0.004 C 
ENDBRANCH   1   5
TORSDOF 2
ENDMDL
