MODEL 1
REMARK VINA RESULT:    -7.383      0.000      0.000
REMARK INTER + INTRA:         -11.690
REMARK INTER:                  -9.973
REMARK INTRA:                  -1.717
REMARK UNBOUND:                -1.717
REMARK SMILES CC[C@H](CC[C@H](C)[C@@H]1CC[C@@H]2[C@@H]3CC(=O)C4=CC(=O)CC[C@]4(C)[C@H]3CC[C@@]21C)C(C)C
REMARK SMILES IDX 4 1 3 2 2 3 1 4 29 5 30 6 31 7 5 8 6 9 7 10 8 11 9 12 27 13
REMARK SMILES IDX 10 14 11 15 26 16 28 17 12 18 25 19 24 20 13 21 22 22 14 23
REMARK SMILES IDX 16 24 21 25 23 26 15 27 17 28 20 29 18 30 19 31
REMARK H PARENT
REMARK Flexibility Score: inf
ROOT
ATOM      1  C   UNL     1      49.843   2.361  18.406  1.00  0.00     0.004 C 
ENDROOT
BRANCH   1   2
ATOM      2  C   UNL     1      48.697   2.593  17.364  1.00  0.00    -0.009 C 
BRANCH   2   3
ATOM      3  C   UNL     1      49.121   2.033  15.977  1.00  0.00     0.000 C 
ATOM      4  C   UNL     1      49.082   3.090  14.867  1.00  0.00     0.004 C 
ENDBRANCH   2   3
BRANCH   2   5
ATOM      5  C   UNL     1      47.340   1.976  17.859  1.00  0.00    -0.014 C 
ATOM      6  C   UNL     1      46.110   2.711  17.290  1.00  0.00     0.007 C 
ATOM      7  C   UNL     1      47.240   1.982  19.398  1.00  0.00     0.007 C 
ENDBRANCH   2   5
ENDBRANCH   1   2
BRANCH   1   8
ATOM      8  C   UNL     1      50.212   3.650  19.175  1.00  0.00     0.004 C 
BRANCH   8   9
ATOM      9  C   UNL     1      51.747   3.896  19.297  1.00  0.00    -0.011 C 
ATOM     10  C   UNL     1      52.129   4.056  20.782  1.00  0.00     0.008 C 
BRANCH   9  11
ATOM     11  C   UNL     1      52.175   5.152  18.449  1.00  0.00    -0.002 C 
ATOM     12  C   UNL     1      50.961   5.973  17.968  1.00  0.00     0.005 C 
ATOM     13  C   UNL     1      53.030   4.929  17.155  1.00  0.00    -0.026 C 
ATOM     14  C   UNL     1      51.333   6.613  16.636  1.00  0.00     0.005 C 
ATOM     15  C   UNL     1      52.798   6.248  16.379  1.00  0.00    -0.001 C 
ATOM     16  C   UNL     1      52.502   3.722  16.323  1.00  0.00     0.007 C 
ATOM     17  C   UNL     1      54.543   4.777  17.473  1.00  0.00     0.012 C 
ATOM     18  C   UNL     1      53.223   6.219  14.875  1.00  0.00     0.004 C 
ATOM     19  C   UNL     1      53.055   3.687  14.897  1.00  0.00     0.005 C 
ATOM     20  C   UNL     1      52.697   4.971  14.106  1.00  0.00     0.003 C 
ATOM     21  C   UNL     1      52.817   7.527  14.173  1.00  0.00     0.085 C 
ATOM     22  C   UNL     1      53.184   4.920  12.597  1.00  0.00    -0.000 C 
ATOM     23  C   UNL     1      53.203   7.516  12.733  1.00  0.00     0.159 C 
ATOM     24  C   UNL     1      53.004   6.291  11.931  1.00  0.00     0.005 C 
ATOM     25  C   UNL     1      52.333   3.862  11.823  1.00  0.00     0.020 C 
ATOM     26  C   UNL     1      54.688   4.547  12.491  1.00  0.00     0.017 C 
ATOM     27  O   UNL     1      53.613   8.580  12.194  1.00  0.00    -0.295 OA
ATOM     28  C   UNL     1      52.774   6.408  10.610  1.00  0.00     0.055 C 
ATOM     29  C   UNL     1      52.608   3.850  10.314  1.00  0.00     0.081 C 
ATOM     30  C   UNL     1      52.568   5.235   9.748  1.00  0.00     0.156 C 
ATOM     31  O   UNL     1      52.387   5.397   8.512  1.00  0.00    -0.295 OA
ENDBRANCH   9  11
ENDBRANCH   8   9
ENDBRANCH   1   8
TORSDOF 6
ENDMDL
MODEL 2
REMARK VINA RESULT:    -7.016      1.242      1.623
REMARK INTER + INTRA:         -11.194
REMARK INTER:                  -9.681
REMARK INTRA:                  -1.513
REMARK UNBOUND:                -1.717
REMARK SMILES CC[C@H](CC[C@H](C)[C@@H]1CC[C@@H]2[C@@H]3CC(=O)C4=CC(=O)CC[C@]4(C)[C@H]3CC[C@@]21C)C(C)C
REMARK SMILES IDX 4 1 3 2 2 3 1 4 29 5 30 6 31 7 5 8 6 9 7 10 8 11 9 12 27 13
REMARK SMILES IDX 10 14 11 15 26 16 28 17 12 18 25 19 24 20 13 21 22 22 14 23
REMARK SMILES IDX 16 24 21 25 23 26 15 27 17 28 20 29 18 30 19 31
REMARK H PARENT
REMARK Flexibility Score: inf
ROOT
ATOM      1  C   UNL     1      49.846   2.380  18.352  1.00  0.00     0.004 C 
ENDROOT
BRANCH   1   2
ATOM      2  C   UNL     1      48.660   2.575  17.348  1.00  0.00    -0.009 C 
BRANCH   2   3
ATOM      3  C   UNL     1      49.018   1.935  15.976  1.00  0.00     0.000 C 
ATOM      4  C   UNL     1      49.024   2.951  14.827  1.00  0.00     0.004 C 
ENDBRANCH   2   3
BRANCH   2   5
ATOM      5  C   UNL     1      47.319   2.004  17.931  1.00  0.00    -0.014 C 
ATOM      6  C   UNL     1      46.074   2.719  17.367  1.00  0.00     0.007 C 
ATOM      7  C   UNL     1      47.279   2.103  19.470  1.00  0.00     0.007 C 
ENDBRANCH   2   5
ENDBRANCH   1   2
BRANCH   1   8
ATOM      8  C   UNL     1      50.915   3.490  18.225  1.00  0.00     0.004 C 
BRANCH   8   9
ATOM      9  C   UNL     1      52.262   3.003  17.609  1.00  0.00    -0.011 C 
ATOM     10  C   UNL     1      53.131   2.360  18.708  1.00  0.00     0.008 C 
BRANCH   9  11
ATOM     11  C   UNL     1      53.009   4.195  16.901  1.00  0.00    -0.002 C 
ATOM     12  C   UNL     1      52.097   5.424  16.708  1.00  0.00     0.005 C 
ATOM     13  C   UNL     1      53.640   3.953  15.487  1.00  0.00    -0.026 C 
ATOM     14  C   UNL     1      52.551   6.143  15.443  1.00  0.00     0.005 C 
ATOM     15  C   UNL     1      53.791   5.395  14.946  1.00  0.00    -0.001 C 
ATOM     16  C   UNL     1      52.682   3.137  14.568  1.00  0.00     0.007 C 
ATOM     17  C   UNL     1      55.040   3.287  15.578  1.00  0.00     0.012 C 
ATOM     18  C   UNL     1      54.064   5.504  13.411  1.00  0.00     0.004 C 
ATOM     19  C   UNL     1      53.079   3.188  13.091  1.00  0.00     0.005 C 
ATOM     20  C   UNL     1      53.100   4.639  12.547  1.00  0.00     0.003 C 
ATOM     21  C   UNL     1      54.054   6.977  12.964  1.00  0.00     0.085 C 
ATOM     22  C   UNL     1      53.423   4.710  10.995  1.00  0.00    -0.000 C 
ATOM     23  C   UNL     1      54.300   7.105  11.499  1.00  0.00     0.159 C 
ATOM     24  C   UNL     1      53.649   6.166  10.563  1.00  0.00     0.005 C 
ATOM     25  C   UNL     1      52.215   4.123  10.196  1.00  0.00     0.020 C 
ATOM     26  C   UNL     1      54.709   3.916  10.640  1.00  0.00     0.017 C 
ATOM     27  O   UNL     1      54.992   8.068  11.069  1.00  0.00    -0.295 OA
ATOM     28  C   UNL     1      53.367   6.581   9.314  1.00  0.00     0.055 C 
ATOM     29  C   UNL     1      52.352   4.296   8.678  1.00  0.00     0.081 C 
ATOM     30  C   UNL     1      52.722   5.703   8.327  1.00  0.00     0.156 C 
ATOM     31  O   UNL     1      52.507   6.131   7.162  1.00  0.00    -0.295 OA
ENDBRANCH   9  11
ENDBRANCH   8   9
ENDBRANCH   1   8
TORSDOF 6
ENDMDL
MODEL 3
REMARK VINA RESULT:    -6.940      1.219      2.040
REMARK INTER + INTRA:         -11.091
REMARK INTER:                  -9.439
REMARK INTRA:                  -1.652
REMARK UNBOUND:                -1.717
REMARK SMILES CC[C@H](CC[C@H](C)[C@@H]1CC[C@@H]2[C@@H]3CC(=O)C4=CC(=O)CC[C@]4(C)[C@H]3CC[C@@]21C)C(C)C
REMARK SMILES IDX 4 1 3 2 2 3 1 4 29 5 30 6 31 7 5 8 6 9 7 10 8 11 9 12 27 13
REMARK SMILES IDX 10 14 11 15 26 16 28 17 12 18 25 19 24 20 13 21 22 22 14 23
REMARK SMILES IDX 16 24 21 25 23 26 15 27 17 28 20 29 18 30 19 31
REMARK H PARENT
REMARK Flexibility Score: inf
ROOT
ATOM      1  C   UNL     1      48.313   4.139  18.750  1.00  0.00     0.004 C 
ENDROOT
BRANCH   1   2
ATOM      2  C   UNL     1      48.198   2.668  19.272  1.00  0.00    -0.009 C 
BRANCH   2   3
ATOM      3  C   UNL     1      46.701   2.248  19.348  1.00  0.00     0.000 C 
ATOM      4  C   UNL     1      45.816   3.009  18.355  1.00  0.00     0.004 C 
ENDBRANCH   2   3
BRANCH   2   5
ATOM      5  C   UNL     1      49.042   1.680  18.390  1.00  0.00    -0.014 C 
ATOM      6  C   UNL     1      50.547   1.725  18.723  1.00  0.00     0.007 C 
ATOM      7  C   UNL     1      48.869   1.970  16.885  1.00  0.00     0.007 C 
ENDBRANCH   2   5
ENDBRANCH   1   2
BRANCH   1   8
ATOM      8  C   UNL     1      48.901   5.098  19.810  1.00  0.00     0.004 C 
BRANCH   8   9
ATOM      9  C   UNL     1      50.450   5.000  19.960  1.00  0.00    -0.011 C 
ATOM     10  C   UNL     1      50.829   5.047  21.454  1.00  0.00     0.008 C 
BRANCH   9  11
ATOM     11  C   UNL     1      51.159   6.146  19.146  1.00  0.00    -0.002 C 
ATOM     12  C   UNL     1      50.148   7.137  18.532  1.00  0.00     0.005 C 
ATOM     13  C   UNL     1      52.092   5.753  17.950  1.00  0.00    -0.026 C 
ATOM     14  C   UNL     1      50.750   7.670  17.238  1.00  0.00     0.005 C 
ATOM     15  C   UNL     1      52.154   7.069  17.138  1.00  0.00    -0.001 C 
ATOM     16  C   UNL     1      51.461   4.622  17.083  1.00  0.00     0.007 C 
ATOM     17  C   UNL     1      53.520   5.371  18.425  1.00  0.00     0.012 C 
ATOM     18  C   UNL     1      52.718   6.929  15.687  1.00  0.00     0.004 C 
ATOM     19  C   UNL     1      52.140   4.459  15.722  1.00  0.00     0.005 C 
ATOM     20  C   UNL     1      52.076   5.760  14.883  1.00  0.00     0.003 C 
ATOM     21  C   UNL     1      52.601   8.265  14.931  1.00  0.00     0.085 C 
ATOM     22  C   UNL     1      52.697   5.589  13.432  1.00  0.00    -0.000 C 
ATOM     23  C   UNL     1      53.122   8.151  13.538  1.00  0.00     0.159 C 
ATOM     24  C   UNL     1      52.808   6.952  12.735  1.00  0.00     0.005 C 
ATOM     25  C   UNL     1      51.767   4.659  12.588  1.00  0.00     0.020 C 
ATOM     26  C   UNL     1      54.123   4.978  13.487  1.00  0.00     0.017 C 
ATOM     27  O   UNL     1      53.750   9.121  13.031  1.00  0.00    -0.295 OA
ATOM     28  C   UNL     1      52.734   7.065  11.396  1.00  0.00     0.055 C 
ATOM     29  C   UNL     1      52.187   4.560  11.115  1.00  0.00     0.081 C 
ATOM     30  C   UNL     1      52.428   5.917  10.532  1.00  0.00     0.156 C 
ATOM     31  O   UNL     1      52.400   6.070   9.281  1.00  0.00    -0.295 OA
ENDBRANCH   9  11
ENDBRANCH   8   9
ENDBRANCH   1   8
TORSDOF 6
ENDMDL
MODEL 4
REMARK VINA RESULT:    -6.590      6.469      8.596
REMARK INTER + INTRA:         -10.619
REMARK INTER:                  -9.473
REMARK INTRA:                  -1.146
REMARK UNBOUND:                -1.717
REMARK SMILES CC[C@H](CC[C@H](C)[C@@H]1CC[C@@H]2[C@@H]3CC(=O)C4=CC(=O)CC[C@]4(C)[C@H]3CC[C@@]21C)C(C)C
REMARK SMILES IDX 4 1 3 2 2 3 1 4 29 5 30 6 31 7 5 8 6 9 7 10 8 11 9 12 27 13
REMARK SMILES IDX 10 14 11 15 26 16 28 17 12 18 25 19 24 20 13 21 22 22 14 23
REMARK SMILES IDX 16 24 21 25 23 26 15 27 17 28 20 29 18 30 19 31
REMARK H PARENT
REMARK Flexibility Score: inf
ROOT
ATOM      1  C   UNL     1      49.918   4.633  19.588  1.00  0.00     0.004 C 
ENDROOT
BRANCH   1   2
ATOM      2  C   UNL     1      49.339   3.532  18.637  1.00  0.00    -0.009 C 
BRANCH   2   3
ATOM      3  C   UNL     1      50.481   2.588  18.164  1.00  0.00     0.000 C 
ATOM      4  C   UNL     1      51.760   2.732  18.997  1.00  0.00     0.004 C 
ENDBRANCH   2   3
BRANCH   2   5
ATOM      5  C   UNL     1      48.168   2.743  19.322  1.00  0.00    -0.014 C 
ATOM      6  C   UNL     1      48.162   1.246  18.950  1.00  0.00     0.007 C 
ATOM      7  C   UNL     1      46.792   3.338  18.961  1.00  0.00     0.007 C 
ENDBRANCH   2   5
ENDBRANCH   1   2
BRANCH   1   8
ATOM      8  C   UNL     1      49.885   6.041  18.951  1.00  0.00     0.004 C 
BRANCH   8   9
ATOM      9  C   UNL     1      50.024   7.205  19.980  1.00  0.00    -0.011 C 
ATOM     10  C   UNL     1      50.742   6.694  21.245  1.00  0.00     0.008 C 
BRANCH   9  11
ATOM     11  C   UNL     1      48.612   7.814  20.320  1.00  0.00    -0.002 C 
ATOM     12  C   UNL     1      47.464   7.041  19.640  1.00  0.00     0.005 C 
ATOM     13  C   UNL     1      48.335   9.314  19.964  1.00  0.00    -0.026 C 
ATOM     14  C   UNL     1      46.342   8.033  19.357  1.00  0.00     0.005 C 
ATOM     15  C   UNL     1      46.788   9.369  19.958  1.00  0.00    -0.001 C 
ATOM     16  C   UNL     1      48.886   9.676  18.552  1.00  0.00     0.007 C 
ATOM     17  C   UNL     1      48.882  10.282  21.049  1.00  0.00     0.012 C 
ATOM     18  C   UNL     1      46.170  10.639  19.292  1.00  0.00     0.004 C 
ATOM     19  C   UNL     1      48.331  10.996  18.011  1.00  0.00     0.005 C 
ATOM     20  C   UNL     1      46.785  10.972  17.900  1.00  0.00     0.003 C 
ATOM     21  C   UNL     1      44.637  10.519  19.217  1.00  0.00     0.085 C 
ATOM     22  C   UNL     1      46.193  12.297  17.259  1.00  0.00    -0.000 C 
ATOM     23  C   UNL     1      44.026  11.716  18.572  1.00  0.00     0.159 C 
ATOM     24  C   UNL     1      44.663  12.310  17.379  1.00  0.00     0.005 C 
ATOM     25  C   UNL     1      46.587  12.350  15.747  1.00  0.00     0.020 C 
ATOM     26  C   UNL     1      46.726  13.568  17.974  1.00  0.00     0.017 C 
ATOM     27  O   UNL     1      42.923  12.155  19.000  1.00  0.00    -0.295 OA
ATOM     28  C   UNL     1      43.892  12.945  16.477  1.00  0.00     0.055 C 
ATOM     29  C   UNL     1      45.924  13.508  14.990  1.00  0.00     0.081 C 
ATOM     30  C   UNL     1      44.454  13.561  15.267  1.00  0.00     0.156 C 
ATOM     31  O   UNL     1      43.692  14.171  14.469  1.00  0.00    -0.295 OA
ENDBRANCH   9  11
ENDBRANCH   8   9
ENDBRANCH   1   8
TORSDOF 6
ENDMDL
MODEL 5
REMARK VINA RESULT:    -6.479      6.966      9.407
REMARK INTER + INTRA:         -10.468
REMARK INTER:                  -8.680
REMARK INTRA:                  -1.788
REMARK UNBOUND:                -1.717
REMARK SMILES CC[C@H](CC[C@H](C)[C@@H]1CC[C@@H]2[C@@H]3CC(=O)C4=CC(=O)CC[C@]4(C)[C@H]3CC[C@@]21C)C(C)C
REMARK SMILES IDX 4 1 3 2 2 3 1 4 29 5 30 6 31 7 5 8 6 9 7 10 8 11 9 12 27 13
REMARK SMILES IDX 10 14 11 15 26 16 28 17 12 18 25 19 24 20 13 21 22 22 14 23
REMARK SMILES IDX 16 24 21 25 23 26 15 27 17 28 20 29 18 30 19 31
REMARK H PARENT
REMARK Flexibility Score: inf
ROOT
ATOM      1  C   UNL     1      51.376   5.765  19.474  1.00  0.00     0.004 C 
ENDROOT
BRANCH   1   2
ATOM      2  C   UNL     1      50.647   4.530  20.102  1.00  0.00    -0.009 C 
BRANCH   2   3
ATOM      3  C   UNL     1      49.862   4.968  21.372  1.00  0.00     0.000 C 
ATOM      4  C   UNL     1      50.766   5.169  22.594  1.00  0.00     0.004 C 
ENDBRANCH   2   3
BRANCH   2   5
ATOM      5  C   UNL     1      49.720   3.819  19.053  1.00  0.00    -0.014 C 
ATOM      6  C   UNL     1      48.316   3.512  19.612  1.00  0.00     0.007 C 
ATOM      7  C   UNL     1      50.340   2.500  18.547  1.00  0.00     0.007 C 
ENDBRANCH   2   5
ENDBRANCH   1   2
BRANCH   1   8
ATOM      8  C   UNL     1      50.401   6.721  18.751  1.00  0.00     0.004 C 
BRANCH   8   9
ATOM      9  C   UNL     1      50.281   8.126  19.418  1.00  0.00    -0.011 C 
ATOM     10  C   UNL     1      51.369   8.279  20.499  1.00  0.00     0.008 C 
BRANCH   9  11
ATOM     11  C   UNL     1      48.838   8.334  20.013  1.00  0.00    -0.002 C 
ATOM     12  C   UNL     1      47.837   7.279  19.501  1.00  0.00     0.005 C 
ATOM     13  C   UNL     1      48.116   9.704  19.771  1.00  0.00    -0.026 C 
ATOM     14  C   UNL     1      46.461   7.932  19.451  1.00  0.00     0.005 C 
ATOM     15  C   UNL     1      46.633   9.341  20.025  1.00  0.00    -0.001 C 
ATOM     16  C   UNL     1      48.301  10.195  18.304  1.00  0.00     0.007 C 
ATOM     17  C   UNL     1      48.563  10.787  20.791  1.00  0.00     0.012 C 
ATOM     18  C   UNL     1      45.595  10.396  19.525  1.00  0.00     0.004 C 
ATOM     19  C   UNL     1      47.331  11.315  17.919  1.00  0.00     0.005 C 
ATOM     20  C   UNL     1      45.853  10.876  18.065  1.00  0.00     0.003 C 
ATOM     21  C   UNL     1      44.159   9.867  19.700  1.00  0.00     0.085 C 
ATOM     22  C   UNL     1      44.829  11.990  17.588  1.00  0.00    -0.000 C 
ATOM     23  C   UNL     1      43.152  10.854  19.216  1.00  0.00     0.159 C 
ATOM     24  C   UNL     1      43.394  11.593  17.960  1.00  0.00     0.005 C 
ATOM     25  C   UNL     1      44.930  12.141  16.035  1.00  0.00     0.020 C 
ATOM     26  C   UNL     1      45.120  13.361  18.258  1.00  0.00     0.017 C 
ATOM     27  O   UNL     1      42.062  10.982  19.840  1.00  0.00    -0.295 OA
ATOM     28  C   UNL     1      42.340  11.994  17.226  1.00  0.00     0.055 C 
ATOM     29  C   UNL     1      43.864  13.076  15.448  1.00  0.00     0.081 C 
ATOM     30  C   UNL     1      42.503  12.734  15.967  1.00  0.00     0.156 C 
ATOM     31  O   UNL     1      41.482  13.113  15.332  1.00  0.00    -0.295 OA
ENDBRANCH   9  11
ENDBRANCH   8   9
ENDBRANCH   1   8
TORSDOF 6
ENDMDL
MODEL 6
REMARK VINA RESULT:    -6.408      2.045      3.516
REMARK INTER + INTRA:         -10.372
REMARK INTER:                  -9.162
REMARK INTRA:                  -1.211
REMARK UNBOUND:                -1.717
REMARK SMILES CC[C@H](CC[C@H](C)[C@@H]1CC[C@@H]2[C@@H]3CC(=O)C4=CC(=O)CC[C@]4(C)[C@H]3CC[C@@]21C)C(C)C
REMARK SMILES IDX 4 1 3 2 2 3 1 4 29 5 30 6 31 7 5 8 6 9 7 10 8 11 9 12 27 13
REMARK SMILES IDX 10 14 11 15 26 16 28 17 12 18 25 19 24 20 13 21 22 22 14 23
REMARK SMILES IDX 16 24 21 25 23 26 15 27 17 28 20 29 18 30 19 31
REMARK H PARENT
REMARK Flexibility Score: inf
ROOT
ATOM      1  C   UNL     1      50.105   3.168  18.972  1.00  0.00     0.004 C 
ENDROOT
BRANCH   1   2
ATOM      2  C   UNL     1      48.574   2.872  19.111  1.00  0.00    -0.009 C 
BRANCH   2   3
ATOM      3  C   UNL     1      47.839   4.130  19.656  1.00  0.00     0.000 C 
ATOM      4  C   UNL     1      48.715   4.981  20.583  1.00  0.00     0.004 C 
ENDBRANCH   2   3
BRANCH   2   5
ATOM      5  C   UNL     1      47.962   2.374  17.754  1.00  0.00    -0.014 C 
ATOM      6  C   UNL     1      46.462   2.704  17.622  1.00  0.00     0.007 C 
ATOM      7  C   UNL     1      48.143   0.853  17.572  1.00  0.00     0.007 C 
ENDBRANCH   2   5
ENDBRANCH   1   2
BRANCH   1   8
ATOM      8  C   UNL     1      50.577   3.160  17.500  1.00  0.00     0.004 C 
BRANCH   8   9
ATOM      9  C   UNL     1      51.479   4.373  17.118  1.00  0.00    -0.011 C 
ATOM     10  C   UNL     1      51.227   5.535  18.100  1.00  0.00     0.008 C 
BRANCH   9  11
ATOM     11  C   UNL     1      51.221   4.807  15.627  1.00  0.00    -0.002 C 
ATOM     12  C   UNL     1      50.350   3.787  14.864  1.00  0.00     0.005 C 
ATOM     13  C   UNL     1      52.453   5.044  14.689  1.00  0.00    -0.026 C 
ATOM     14  C   UNL     1      50.770   3.824  13.399  1.00  0.00     0.005 C 
ATOM     15  C   UNL     1      51.818   4.934  13.281  1.00  0.00    -0.001 C 
ATOM     16  C   UNL     1      53.533   3.936  14.874  1.00  0.00     0.007 C 
ATOM     17  C   UNL     1      53.061   6.462  14.870  1.00  0.00     0.012 C 
ATOM     18  C   UNL     1      52.833   4.769  12.105  1.00  0.00     0.004 C 
ATOM     19  C   UNL     1      54.567   3.910  13.747  1.00  0.00     0.005 C 
ATOM     20  C   UNL     1      53.910   3.673  12.364  1.00  0.00     0.003 C 
ATOM     21  C   UNL     1      52.089   4.527  10.779  1.00  0.00     0.085 C 
ATOM     22  C   UNL     1      54.970   3.554  11.189  1.00  0.00    -0.000 C 
ATOM     23  C   UNL     1      53.040   4.353   9.643  1.00  0.00     0.159 C 
ATOM     24  C   UNL     1      54.262   3.544   9.828  1.00  0.00     0.005 C 
ATOM     25  C   UNL     1      55.769   2.221  11.359  1.00  0.00     0.020 C 
ATOM     26  C   UNL     1      55.961   4.750  11.188  1.00  0.00     0.017 C 
ATOM     27  O   UNL     1      52.746   4.827   8.512  1.00  0.00    -0.295 OA
ATOM     28  C   UNL     1      54.785   2.902   8.767  1.00  0.00     0.055 C 
ATOM     29  C   UNL     1      56.708   1.925  10.182  1.00  0.00     0.081 C 
ATOM     30  C   UNL     1      55.998   2.079   8.874  1.00  0.00     0.156 C 
ATOM     31  O   UNL     1      56.464   1.523   7.844  1.00  0.00    -0.295 OA
ENDBRANCH   9  11
ENDBRANCH   8   9
ENDBRANCH   1   8
TORSDOF 6
ENDMDL
MODEL 7
REMARK VINA RESULT:    -6.355      4.896      7.876
REMARK INTER + INTRA:         -10.301
REMARK INTER:                  -8.837
REMARK INTRA:                  -1.465
REMARK UNBOUND:                -1.717
REMARK SMILES CC[C@H](CC[C@H](C)[C@@H]1CC[C@@H]2[C@@H]3CC(=O)C4=CC(=O)CC[C@]4(C)[C@H]3CC[C@@]21C)C(C)C
REMARK SMILES IDX 4 1 3 2 2 3 1 4 29 5 30 6 31 7 5 8 6 9 7 10 8 11 9 12 27 13
REMARK SMILES IDX 10 14 11 15 26 16 28 17 12 18 25 19 24 20 13 21 22 22 14 23
REMARK SMILES IDX 16 24 21 25 23 26 15 27 17 28 20 29 18 30 19 31
REMARK H PARENT
REMARK Flexibility Score: inf
ROOT
ATOM      1  C   UNL     1      56.787   1.128  23.461  1.00  0.00     0.004 C 
ENDROOT
BRANCH   1   2
ATOM      2  C   UNL     1      55.392   0.441  23.274  1.00  0.00    -0.009 C 
BRANCH   2   3
ATOM      3  C   UNL     1      55.538  -0.817  22.371  1.00  0.00     0.000 C 
ATOM      4  C   UNL     1      56.953  -1.407  22.391  1.00  0.00     0.004 C 
ENDBRANCH   2   3
BRANCH   2   5
ATOM      5  C   UNL     1      54.732   0.100  24.657  1.00  0.00    -0.014 C 
ATOM      6  C   UNL     1      54.129  -1.318  24.694  1.00  0.00     0.007 C 
ATOM      7  C   UNL     1      53.625   1.109  25.024  1.00  0.00     0.007 C 
ENDBRANCH   2   5
ENDBRANCH   1   2
BRANCH   1   8
ATOM      8  C   UNL     1      56.884   2.480  22.719  1.00  0.00     0.004 C 
BRANCH   8   9
ATOM      9  C   UNL     1      56.213   2.478  21.310  1.00  0.00    -0.011 C 
ATOM     10  C   UNL     1      57.299   2.582  20.220  1.00  0.00     0.008 C 
BRANCH   9  11
ATOM     11  C   UNL     1      55.162   3.645  21.196  1.00  0.00    -0.002 C 
ATOM     12  C   UNL     1      54.269   3.752  22.449  1.00  0.00     0.005 C 
ATOM     13  C   UNL     1      54.152   3.632  19.998  1.00  0.00    -0.026 C 
ATOM     14  C   UNL     1      52.909   4.275  22.005  1.00  0.00     0.005 C 
ATOM     15  C   UNL     1      53.031   4.570  20.507  1.00  0.00    -0.001 C 
ATOM     16  C   UNL     1      53.580   2.204  19.751  1.00  0.00     0.007 C 
ATOM     17  C   UNL     1      54.773   4.224  18.704  1.00  0.00     0.012 C 
ATOM     18  C   UNL     1      51.692   4.503  19.704  1.00  0.00     0.004 C 
ATOM     19  C   UNL     1      52.339   2.201  18.856  1.00  0.00     0.005 C 
ATOM     20  C   UNL     1      51.190   3.049  19.456  1.00  0.00     0.003 C 
ATOM     21  C   UNL     1      50.612   5.365  20.381  1.00  0.00     0.085 C 
ATOM     22  C   UNL     1      49.862   2.990  18.589  1.00  0.00    -0.000 C 
ATOM     23  C   UNL     1      49.321   5.306  19.637  1.00  0.00     0.159 C 
ATOM     24  C   UNL     1      48.842   4.015  19.104  1.00  0.00     0.005 C 
ATOM     25  C   UNL     1      49.247   1.557  18.699  1.00  0.00     0.020 C 
ATOM     26  C   UNL     1      50.137   3.318  17.096  1.00  0.00     0.017 C 
ATOM     27  O   UNL     1      48.608   6.344  19.550  1.00  0.00    -0.295 OA
ATOM     28  C   UNL     1      47.517   3.810  18.982  1.00  0.00     0.055 C 
ATOM     29  C   UNL     1      47.870   1.438  18.032  1.00  0.00     0.081 C 
ATOM     30  C   UNL     1      46.967   2.552  18.458  1.00  0.00     0.156 C 
ATOM     31  O   UNL     1      45.719   2.423  18.335  1.00  0.00    -0.295 OA
ENDBRANCH   9  11
ENDBRANCH   8   9
ENDBRANCH   1   8
TORSDOF 6
ENDMDL
MODEL 8
REMARK VINA RESULT:    -6.344      5.308      7.916
REMARK INTER + INTRA:         -10.287
REMARK INTER:                  -8.385
REMARK INTRA:                  -1.902
REMARK UNBOUND:                -1.717
REMARK SMILES CC[C@H](CC[C@H](C)[C@@H]1CC[C@@H]2[C@@H]3CC(=O)C4=CC(=O)CC[C@]4(C)[C@H]3CC[C@@]21C)C(C)C
REMARK SMILES IDX 4 1 3 2 2 3 1 4 29 5 30 6 31 7 5 8 6 9 7 10 8 11 9 12 27 13
REMARK SMILES IDX 10 14 11 15 26 16 28 17 12 18 25 19 24 20 13 21 22 22 14 23
REMARK SMILES IDX 16 24 21 25 23 26 15 27 17 28 20 29 18 30 19 31
REMARK H PARENT
REMARK Flexibility Score: inf
ROOT
ATOM      1  C   UNL     1      50.589   2.679  17.757  1.00  0.00     0.004 C 
ENDROOT
BRANCH   1   2
ATOM      2  C   UNL     1      49.077   3.084  17.794  1.00  0.00    -0.009 C 
BRANCH   2   3
ATOM      3  C   UNL     1      48.277   2.243  16.758  1.00  0.00     0.000 C 
ATOM      4  C   UNL     1      48.793   2.414  15.324  1.00  0.00     0.004 C 
ENDBRANCH   2   3
BRANCH   2   5
ATOM      5  C   UNL     1      48.485   2.952  19.243  1.00  0.00    -0.014 C 
ATOM      6  C   UNL     1      47.365   1.896  19.333  1.00  0.00     0.007 C 
ATOM      7  C   UNL     1      47.929   4.295  19.756  1.00  0.00     0.007 C 
ENDBRANCH   2   5
ENDBRANCH   1   2
BRANCH   1   8
ATOM      8  C   UNL     1      51.338   3.071  19.050  1.00  0.00     0.004 C 
BRANCH   8   9
ATOM      9  C   UNL     1      52.374   4.221  18.857  1.00  0.00    -0.011 C 
ATOM     10  C   UNL     1      53.800   3.634  18.839  1.00  0.00     0.008 C 
BRANCH   9  11
ATOM     11  C   UNL     1      52.209   5.310  19.982  1.00  0.00    -0.002 C 
ATOM     12  C   UNL     1      51.428   4.777  21.201  1.00  0.00     0.005 C 
ATOM     13  C   UNL     1      51.498   6.659  19.624  1.00  0.00    -0.026 C 
ATOM     14  C   UNL     1      50.672   5.949  21.815  1.00  0.00     0.005 C 
ATOM     15  C   UNL     1      51.084   7.190  21.018  1.00  0.00    -0.001 C 
ATOM     16  C   UNL     1      50.232   6.421  18.748  1.00  0.00     0.007 C 
ATOM     17  C   UNL     1      52.468   7.671  18.954  1.00  0.00     0.012 C 
ATOM     18  C   UNL     1      50.038   8.351  21.004  1.00  0.00     0.004 C 
ATOM     19  C   UNL     1      49.311   7.641  18.679  1.00  0.00     0.005 C 
ATOM     20  C   UNL     1      48.814   8.071  20.082  1.00  0.00     0.003 C 
ATOM     21  C   UNL     1      49.597   8.699  22.437  1.00  0.00     0.085 C 
ATOM     22  C   UNL     1      47.788   9.280  20.029  1.00  0.00    -0.000 C 
ATOM     23  C   UNL     1      48.589   9.797  22.447  1.00  0.00     0.159 C 
ATOM     24  C   UNL     1      47.505   9.804  21.443  1.00  0.00     0.005 C 
ATOM     25  C   UNL     1      46.450   8.783  19.392  1.00  0.00     0.020 C 
ATOM     26  C   UNL     1      48.343  10.468  19.197  1.00  0.00     0.017 C 
ATOM     27  O   UNL     1      48.621  10.659  23.367  1.00  0.00    -0.295 OA
ATOM     28  C   UNL     1      46.325  10.369  21.762  1.00  0.00     0.055 C 
ATOM     29  C   UNL     1      45.329   9.830  19.444  1.00  0.00     0.081 C 
ATOM     30  C   UNL     1      45.202  10.415  20.815  1.00  0.00     0.156 C 
ATOM     31  O   UNL     1      44.129  10.983  21.152  1.00  0.00    -0.295 OA
ENDBRANCH   9  11
ENDBRANCH   8   9
ENDBRANCH   1   8
TORSDOF 6
ENDMDL
MODEL 9
REMARK VINA RESULT:    -6.220      4.286      5.833
REMARK INTER + INTRA:         -10.118
REMARK INTER:                  -8.934
REMARK INTRA:                  -1.184
REMARK UNBOUND:                -1.717
REMARK SMILES CC[C@H](CC[C@H](C)[C@@H]1CC[C@@H]2[C@@H]3CC(=O)C4=CC(=O)CC[C@]4(C)[C@H]3CC[C@@]21C)C(C)C
REMARK SMILES IDX 4 1 3 2 2 3 1 4 29 5 30 6 31 7 5 8 6 9 7 10 8 11 9 12 27 13
REMARK SMILES IDX 10 14 11 15 26 16 28 17 12 18 25 19 24 20 13 21 22 22 14 23
REMARK SMILES IDX 16 24 21 25 23 26 15 27 17 28 20 29 18 30 19 31
REMARK H PARENT
REMARK Flexibility Score: inf
ROOT
ATOM      1  C   UNL     1      48.647   3.988  20.140  1.00  0.00     0.004 C 
ENDROOT
BRANCH   1   2
ATOM      2  C   UNL     1      48.812   3.157  18.824  1.00  0.00    -0.009 C 
BRANCH   2   3
ATOM      3  C   UNL     1      50.244   2.551  18.756  1.00  0.00     0.000 C 
ATOM      4  C   UNL     1      51.252   3.474  18.062  1.00  0.00     0.004 C 
ENDBRANCH   2   3
BRANCH   2   5
ATOM      5  C   UNL     1      47.700   2.056  18.699  1.00  0.00    -0.014 C 
ATOM      6  C   UNL     1      48.001   1.031  17.587  1.00  0.00     0.007 C 
ATOM      7  C   UNL     1      46.314   2.675  18.426  1.00  0.00     0.007 C 
ENDBRANCH   2   5
ENDBRANCH   1   2
BRANCH   1   8
ATOM      8  C   UNL     1      48.599   5.510  19.876  1.00  0.00     0.004 C 
BRANCH   8   9
ATOM      9  C   UNL     1      49.925   6.254  20.221  1.00  0.00    -0.011 C 
ATOM     10  C   UNL     1      50.428   5.800  21.607  1.00  0.00     0.008 C 
BRANCH   9  11
ATOM     11  C   UNL     1      49.716   7.814  20.162  1.00  0.00    -0.002 C 
ATOM     12  C   UNL     1      48.510   8.208  19.286  1.00  0.00     0.005 C 
ATOM     13  C   UNL     1      50.889   8.710  19.635  1.00  0.00    -0.026 C 
ATOM     14  C   UNL     1      48.813   9.567  18.665  1.00  0.00     0.005 C 
ATOM     15  C   UNL     1      50.154  10.017  19.251  1.00  0.00    -0.001 C 
ATOM     16  C   UNL     1      51.560   8.087  18.374  1.00  0.00     0.007 C 
ATOM     17  C   UNL     1      51.936   9.012  20.742  1.00  0.00     0.012 C 
ATOM     18  C   UNL     1      50.973  11.003  18.359  1.00  0.00     0.004 C 
ATOM     19  C   UNL     1      52.446   9.076  17.615  1.00  0.00     0.005 C 
ATOM     20  C   UNL     1      51.651  10.317  17.136  1.00  0.00     0.003 C 
ATOM     21  C   UNL     1      50.099  12.194  17.925  1.00  0.00     0.085 C 
ATOM     22  C   UNL     1      52.529  11.315  16.270  1.00  0.00    -0.000 C 
ATOM     23  C   UNL     1      50.858  13.143  17.061  1.00  0.00     0.159 C 
ATOM     24  C   UNL     1      51.761  12.619  16.015  1.00  0.00     0.005 C 
ATOM     25  C   UNL     1      52.861  10.642  14.899  1.00  0.00     0.020 C 
ATOM     26  C   UNL     1      53.852  11.690  16.993  1.00  0.00     0.017 C 
ATOM     27  O   UNL     1      50.654  14.382  17.175  1.00  0.00    -0.295 OA
ATOM     28  C   UNL     1      51.970  13.354  14.907  1.00  0.00     0.055 C 
ATOM     29  C   UNL     1      53.567  11.587  13.917  1.00  0.00     0.081 C 
ATOM     30  C   UNL     1      52.854  12.899  13.825  1.00  0.00     0.156 C 
ATOM     31  O   UNL     1      53.040  13.639  12.822  1.00  0.00    -0.295 OA
ENDBRANCH   9  11
ENDBRANCH   8   9
ENDBRANCH   1   8
TORSDOF 6
ENDMDL
