MODEL 1
REMARK VINA RESULT:     1.768      0.000      0.000
REMARK INTER + INTRA:           1.859
REMARK INTER:                   2.130
REMARK INTRA:                  -0.271
REMARK UNBOUND:                -0.271
REMARK SMILES NC(=O)C[C@@H]([NH3+])C(=O)[O-]
REMARK SMILES IDX 4 1 5 2 6 3 7 7 8 8 9 9 2 10 3 11 1 12
REMARK H PARENT 6 4 6 5 6 6 1 13 1 14
REMARK Flexibility Score: inf
ROOT
ATOM      1  C   UNL     1      25.916  21.326  27.857  1.00  0.00     0.171 C 
ENDROOT
BRANCH   1   2
ATOM      2  C   UNL     1      25.579  21.036  26.379  1.00  0.00     0.237 C 
BRANCH   2   3
ATOM      3  N   UNL     1      24.175  20.638  26.207  1.00  0.00    -0.350 N 
ATOM      4  H   UNL     1      23.552  21.299  26.725  1.00  0.00     0.345 HD
ATOM      5  H   UNL     1      24.032  19.678  26.600  1.00  0.00     0.345 HD
ATOM      6  H   UNL     1      23.903  20.632  25.197  1.00  0.00     0.345 HD
ENDBRANCH   2   3
BRANCH   2   7
ATOM      7  C   UNL     1      25.932  22.203  25.492  1.00  0.00     0.100 C 
ATOM      8  O   UNL     1      26.687  23.123  25.907  1.00  0.00    -0.544 OA
ATOM      9  O   UNL     1      25.463  22.241  24.185  1.00  0.00    -0.544 OA
ENDBRANCH   2   7
ENDBRANCH   1   2
BRANCH   1  10
ATOM     10  C   UNL     1      24.953  20.691  28.822  1.00  0.00     0.223 C 
ATOM     11  O   UNL     1      23.803  21.182  28.975  1.00  0.00    -0.275 OA
ATOM     12  N   UNL     1      25.326  19.524  29.554  1.00  0.00    -0.369 N 
ATOM     13  H   UNL     1      26.272  19.098  29.435  1.00  0.00     0.159 HD
ATOM     14  H   UNL     1      24.651  19.079  30.216  1.00  0.00     0.159 HD
ENDBRANCH   1  10
TORSDOF 4
ENDMDL
MODEL 2
REMARK VINA RESULT:     2.684      2.302      4.397
REMARK INTER + INTRA:           2.962
REMARK INTER:                   2.818
REMARK INTRA:                   0.144
REMARK UNBOUND:                -0.271
REMARK SMILES NC(=O)C[C@@H]([NH3+])C(=O)[O-]
REMARK SMILES IDX 4 1 5 2 6 3 7 7 8 8 9 9 2 10 3 11 1 12
REMARK H PARENT 6 4 6 5 6 6 1 13 1 14
REMARK Flexibility Score: inf
ROOT
ATOM      1  C   UNL     1      25.366  20.339  28.923  1.00  0.00     0.171 C 
ENDROOT
BRANCH   1   2
ATOM      2  C   UNL     1      23.907  20.728  29.243  1.00  0.00     0.237 C 
BRANCH   2   3
ATOM      3  N   UNL     1      23.263  21.410  28.111  1.00  0.00    -0.350 N 
ATOM      4  H   UNL     1      23.842  21.292  27.249  1.00  0.00     0.345 HD
ATOM      5  H   UNL     1      23.187  22.434  28.316  1.00  0.00     0.345 HD
ATOM      6  H   UNL     1      22.304  21.030  27.935  1.00  0.00     0.345 HD
ENDBRANCH   2   3
BRANCH   2   7
ATOM      7  C   UNL     1      23.104  19.535  29.695  1.00  0.00     0.100 C 
ATOM      8  O   UNL     1      23.670  18.531  30.203  1.00  0.00    -0.544 OA
ATOM      9  O   UNL     1      21.718  19.561  29.599  1.00  0.00    -0.544 OA
ENDBRANCH   2   7
ENDBRANCH   1   2
BRANCH   1  10
ATOM     10  C   UNL     1      25.914  21.034  27.707  1.00  0.00     0.223 C 
ATOM     11  O   UNL     1      26.652  22.046  27.841  1.00  0.00    -0.275 OA
ATOM     12  N   UNL     1      25.619  20.544  26.399  1.00  0.00    -0.369 N 
ATOM     13  H   UNL     1      25.016  19.701  26.267  1.00  0.00     0.159 HD
ATOM     14  H   UNL     1      26.010  21.021  25.556  1.00  0.00     0.159 HD
ENDBRANCH   1  10
TORSDOF 4
ENDMDL
MODEL 3
REMARK VINA RESULT:     2.710      1.558      4.187
REMARK INTER + INTRA:           2.993
REMARK INTER:                   2.321
REMARK INTRA:                   0.673
REMARK UNBOUND:                -0.271
REMARK SMILES NC(=O)C[C@@H]([NH3+])C(=O)[O-]
REMARK SMILES IDX 4 1 5 2 6 3 7 7 8 8 9 9 2 10 3 11 1 12
REMARK H PARENT 6 4 6 5 6 6 1 13 1 14
REMARK Flexibility Score: inf
ROOT
ATOM      1  C   UNL     1      25.827  21.018  27.970  1.00  0.00     0.171 C 
ENDROOT
BRANCH   1   2
ATOM      2  C   UNL     1      24.566  21.003  28.861  1.00  0.00     0.237 C 
BRANCH   2   3
ATOM      3  N   UNL     1      23.346  21.265  28.085  1.00  0.00    -0.350 N 
ATOM      4  H   UNL     1      22.608  21.667  28.707  1.00  0.00     0.345 HD
ATOM      5  H   UNL     1      22.984  20.367  27.687  1.00  0.00     0.345 HD
ATOM      6  H   UNL     1      23.532  21.930  27.300  1.00  0.00     0.345 HD
ENDBRANCH   2   3
BRANCH   2   7
ATOM      7  C   UNL     1      24.456  19.717  29.641  1.00  0.00     0.100 C 
ATOM      8  O   UNL     1      25.486  19.134  30.073  1.00  0.00    -0.544 OA
ATOM      9  O   UNL     1      23.202  19.195  29.934  1.00  0.00    -0.544 OA
ENDBRANCH   2   7
ENDBRANCH   1   2
BRANCH   1  10
ATOM     10  C   UNL     1      25.545  21.412  26.547  1.00  0.00     0.223 C 
ATOM     11  O   UNL     1      26.202  22.344  26.012  1.00  0.00    -0.275 OA
ATOM     12  N   UNL     1      24.549  20.725  25.789  1.00  0.00    -0.369 N 
ATOM     13  H   UNL     1      24.000  19.944  26.213  1.00  0.00     0.159 HD
ATOM     14  H   UNL     1      24.363  20.993  24.797  1.00  0.00     0.159 HD
ENDBRANCH   1  10
TORSDOF 4
ENDMDL
MODEL 4
REMARK VINA RESULT:     2.798      8.425      9.488
REMARK INTER + INTRA:           3.099
REMARK INTER:                   3.326
REMARK INTRA:                  -0.226
REMARK UNBOUND:                -0.271
REMARK SMILES NC(=O)C[C@@H]([NH3+])C(=O)[O-]
REMARK SMILES IDX 4 1 5 2 6 3 7 7 8 8 9 9 2 10 3 11 1 12
REMARK H PARENT 6 4 6 5 6 6 1 13 1 14
REMARK Flexibility Score: inf
ROOT
ATOM      1  C   UNL     1      25.996  16.432  35.086  1.00  0.00     0.171 C 
ENDROOT
BRANCH   1   2
ATOM      2  C   UNL     1      25.637  15.293  34.107  1.00  0.00     0.237 C 
BRANCH   2   3
ATOM      3  N   UNL     1      24.219  15.327  33.725  1.00  0.00    -0.350 N 
ATOM      4  H   UNL     1      23.930  16.311  33.520  1.00  0.00     0.345 HD
ATOM      5  H   UNL     1      23.634  14.974  34.518  1.00  0.00     0.345 HD
ATOM      6  H   UNL     1      24.038  14.735  32.883  1.00  0.00     0.345 HD
ENDBRANCH   2   3
BRANCH   2   7
ATOM      7  C   UNL     1      26.534  15.303  32.895  1.00  0.00     0.100 C 
ATOM      8  O   UNL     1      26.911  14.225  32.363  1.00  0.00    -0.544 OA
ATOM      9  O   UNL     1      26.906  16.513  32.325  1.00  0.00    -0.544 OA
ENDBRANCH   2   7
ENDBRANCH   1   2
BRANCH   1  10
ATOM     10  C   UNL     1      25.263  16.344  36.395  1.00  0.00     0.223 C 
ATOM     11  O   UNL     1      24.008  16.235  36.406  1.00  0.00    -0.275 OA
ATOM     12  N   UNL     1      25.981  16.364  37.630  1.00  0.00    -0.369 N 
ATOM     13  H   UNL     1      27.022  16.445  37.640  1.00  0.00     0.159 HD
ATOM     14  H   UNL     1      25.470  16.291  38.537  1.00  0.00     0.159 HD
ENDBRANCH   1  10
TORSDOF 4
ENDMDL
MODEL 5
REMARK VINA RESULT:     2.861      1.217      1.414
REMARK INTER + INTRA:           3.176
REMARK INTER:                   3.318
REMARK INTRA:                  -0.143
REMARK UNBOUND:                -0.271
REMARK SMILES NC(=O)C[C@@H]([NH3+])C(=O)[O-]
REMARK SMILES IDX 4 1 5 2 6 3 7 7 8 8 9 9 2 10 3 11 1 12
REMARK H PARENT 6 4 6 5 6 6 1 13 1 14
REMARK Flexibility Score: inf
ROOT
ATOM      1  C   UNL     1      25.303  20.509  28.656  1.00  0.00     0.171 C 
ENDROOT
BRANCH   1   2
ATOM      2  C   UNL     1      25.583  20.717  27.152  1.00  0.00     0.237 C 
BRANCH   2   3
ATOM      3  N   UNL     1      24.348  20.675  26.356  1.00  0.00    -0.350 N 
ATOM      4  H   UNL     1      23.522  20.849  26.973  1.00  0.00     0.345 HD
ATOM      5  H   UNL     1      24.240  19.726  25.926  1.00  0.00     0.345 HD
ATOM      6  H   UNL     1      24.363  21.390  25.594  1.00  0.00     0.345 HD
ENDBRANCH   2   3
BRANCH   2   7
ATOM      7  C   UNL     1      26.354  21.989  26.904  1.00  0.00     0.100 C 
ATOM      8  O   UNL     1      27.105  22.471  27.793  1.00  0.00    -0.544 OA
ATOM      9  O   UNL     1      26.277  22.609  25.664  1.00  0.00    -0.544 OA
ENDBRANCH   2   7
ENDBRANCH   1   2
BRANCH   1  10
ATOM     10  C   UNL     1      23.837  20.458  28.987  1.00  0.00     0.223 C 
ATOM     11  O   UNL     1      23.077  21.390  28.614  1.00  0.00    -0.275 OA
ATOM     12  N   UNL     1      23.295  19.350  29.706  1.00  0.00    -0.369 N 
ATOM     13  H   UNL     1      23.908  18.563  30.016  1.00  0.00     0.159 HD
ATOM     14  H   UNL     1      22.275  19.312  29.925  1.00  0.00     0.159 HD
ENDBRANCH   1  10
TORSDOF 4
ENDMDL
MODEL 6
REMARK VINA RESULT:     2.923      1.676      4.179
REMARK INTER + INTRA:           3.250
REMARK INTER:                   2.618
REMARK INTRA:                   0.632
REMARK UNBOUND:                -0.271
REMARK SMILES NC(=O)C[C@@H]([NH3+])C(=O)[O-]
REMARK SMILES IDX 4 1 5 2 6 3 7 7 8 8 9 9 2 10 3 11 1 12
REMARK H PARENT 6 4 6 5 6 6 1 13 1 14
REMARK Flexibility Score: inf
ROOT
ATOM      1  C   UNL     1      25.208  21.003  26.361  1.00  0.00     0.171 C 
ENDROOT
BRANCH   1   2
ATOM      2  C   UNL     1      25.974  20.924  27.699  1.00  0.00     0.237 C 
BRANCH   2   3
ATOM      3  N   UNL     1      26.666  22.184  28.006  1.00  0.00    -0.350 N 
ATOM      4  H   UNL     1      25.971  22.961  28.086  1.00  0.00     0.345 HD
ATOM      5  H   UNL     1      27.330  22.417  27.231  1.00  0.00     0.345 HD
ATOM      6  H   UNL     1      27.204  22.113  28.900  1.00  0.00     0.345 HD
ENDBRANCH   2   3
BRANCH   2   7
ATOM      7  C   UNL     1      25.069  20.504  28.830  1.00  0.00     0.100 C 
ATOM      8  O   UNL     1      25.456  19.667  29.688  1.00  0.00    -0.544 OA
ATOM      9  O   UNL     1      23.814  21.085  28.959  1.00  0.00    -0.544 OA
ENDBRANCH   2   7
ENDBRANCH   1   2
BRANCH   1  10
ATOM     10  C   UNL     1      25.731  22.068  25.437  1.00  0.00     0.223 C 
ATOM     11  O   UNL     1      26.592  22.889  25.851  1.00  0.00    -0.275 OA
ATOM     12  N   UNL     1      25.275  22.144  24.087  1.00  0.00    -0.369 N 
ATOM     13  H   UNL     1      24.568  21.466  23.723  1.00  0.00     0.159 HD
ATOM     14  H   UNL     1      25.648  22.877  23.445  1.00  0.00     0.159 HD
ENDBRANCH   1  10
TORSDOF 4
ENDMDL
MODEL 7
REMARK VINA RESULT:     3.149      6.470      8.677
REMARK INTER + INTRA:           3.522
REMARK INTER:                   3.533
REMARK INTRA:                  -0.011
REMARK UNBOUND:                -0.271
REMARK SMILES NC(=O)C[C@@H]([NH3+])C(=O)[O-]
REMARK SMILES IDX 4 1 5 2 6 3 7 7 8 8 9 9 2 10 3 11 1 12
REMARK H PARENT 6 4 6 5 6 6 1 13 1 14
REMARK Flexibility Score: inf
ROOT
ATOM      1  C   UNL     1      27.300  15.959  32.312  1.00  0.00     0.171 C 
ENDROOT
BRANCH   1   2
ATOM      2  C   UNL     1      26.205  14.896  32.549  1.00  0.00     0.237 C 
BRANCH   2   3
ATOM      3  N   UNL     1      26.773  13.546  32.672  1.00  0.00    -0.350 N 
ATOM      4  H   UNL     1      27.811  13.586  32.562  1.00  0.00     0.345 HD
ATOM      5  H   UNL     1      26.387  12.933  31.916  1.00  0.00     0.345 HD
ATOM      6  H   UNL     1      26.543  13.121  33.600  1.00  0.00     0.345 HD
ENDBRANCH   2   3
BRANCH   2   7
ATOM      7  C   UNL     1      25.347  15.243  33.739  1.00  0.00     0.100 C 
ATOM      8  O   UNL     1      25.834  15.846  34.732  1.00  0.00    -0.544 OA
ATOM      9  O   UNL     1      23.991  14.941  33.720  1.00  0.00    -0.544 OA
ENDBRANCH   2   7
ENDBRANCH   1   2
BRANCH   1  10
ATOM     10  C   UNL     1      26.813  17.152  31.537  1.00  0.00     0.223 C 
ATOM     11  O   UNL     1      25.597  17.240  31.219  1.00  0.00    -0.275 OA
ATOM     12  N   UNL     1      27.714  18.198  31.176  1.00  0.00    -0.369 N 
ATOM     13  H   UNL     1      28.724  18.148  31.439  1.00  0.00     0.159 HD
ATOM     14  H   UNL     1      27.371  19.031  30.647  1.00  0.00     0.159 HD
ENDBRANCH   1  10
TORSDOF 4
ENDMDL
MODEL 8
REMARK VINA RESULT:     3.158      6.878      8.690
REMARK INTER + INTRA:           3.534
REMARK INTER:                   3.751
REMARK INTRA:                  -0.217
REMARK UNBOUND:                -0.271
REMARK SMILES NC(=O)C[C@@H]([NH3+])C(=O)[O-]
REMARK SMILES IDX 4 1 5 2 6 3 7 7 8 8 9 9 2 10 3 11 1 12
REMARK H PARENT 6 4 6 5 6 6 1 13 1 14
REMARK Flexibility Score: inf
ROOT
ATOM      1  C   UNL     1      26.946  16.075  31.566  1.00  0.00     0.171 C 
ENDROOT
BRANCH   1   2
ATOM      2  C   UNL     1      26.684  15.180  32.797  1.00  0.00     0.237 C 
BRANCH   2   3
ATOM      3  N   UNL     1      25.471  15.589  33.521  1.00  0.00    -0.350 N 
ATOM      4  H   UNL     1      24.749  15.925  32.843  1.00  0.00     0.345 HD
ATOM      5  H   UNL     1      25.700  16.377  34.171  1.00  0.00     0.345 HD
ATOM      6  H   UNL     1      25.077  14.797  34.078  1.00  0.00     0.345 HD
ENDBRANCH   2   3
BRANCH   2   7
ATOM      7  C   UNL     1      26.633  13.722  32.419  1.00  0.00     0.100 C 
ATOM      8  O   UNL     1      25.893  12.918  33.047  1.00  0.00    -0.544 OA
ATOM      9  O   UNL     1      27.369  13.266  31.334  1.00  0.00    -0.544 OA
ENDBRANCH   2   7
ENDBRANCH   1   2
BRANCH   1  10
ATOM     10  C   UNL     1      27.065  17.535  31.907  1.00  0.00     0.223 C 
ATOM     11  O   UNL     1      26.982  17.908  33.107  1.00  0.00    -0.275 OA
ATOM     12  N   UNL     1      27.292  18.502  30.881  1.00  0.00    -0.369 N 
ATOM     13  H   UNL     1      27.373  18.210  29.881  1.00  0.00     0.159 HD
ATOM     14  H   UNL     1      27.385  19.513  31.121  1.00  0.00     0.159 HD
ENDBRANCH   1  10
TORSDOF 4
ENDMDL
