MODEL 1
REMARK VINA RESULT:    -2.476      0.000      0.000
REMARK INTER + INTRA:          -3.331
REMARK INTER:                  -3.199
REMARK INTRA:                  -0.132
REMARK UNBOUND:                -0.132
REMARK SMILES CCCCCCC(=O)[O-]
REMARK SMILES IDX 5 1 6 2 7 3 8 4 9 5 4 6 3 7 2 8 1 9
REMARK H PARENT
REMARK Flexibility Score: inf
ROOT
ATOM      1  C   UNL     1      -8.636  39.711  17.174  1.00  0.00     0.006 C 
ENDROOT
BRANCH   1   2
ATOM      2  C   UNL     1      -8.940  39.963  15.695  1.00  0.00     0.053 C 
BRANCH   2   3
ATOM      3  C   UNL     1     -10.384  40.307  15.506  1.00  0.00     0.041 C 
ATOM      4  O   UNL     1     -10.771  40.847  14.437  1.00  0.00    -0.550 OA
ATOM      5  O   UNL     1     -11.309  39.986  16.491  1.00  0.00    -0.550 OA
ENDBRANCH   2   3
ENDBRANCH   1   2
BRANCH   1   6
ATOM      6  C   UNL     1      -7.810  40.859  17.770  1.00  0.00     0.000 C 
BRANCH   6   7
ATOM      7  C   UNL     1      -6.497  40.382  18.417  1.00  0.00    -0.000 C 
BRANCH   7   8
ATOM      8  C   UNL     1      -5.218  40.958  17.784  1.00  0.00    -0.003 C 
ATOM      9  C   UNL     1      -3.940  40.445  18.447  1.00  0.00     0.004 C 
ENDBRANCH   7   8
ENDBRANCH   6   7
ENDBRANCH   1   6
TORSDOF 5
ENDMDL
MODEL 2
REMARK VINA RESULT:    -2.463      1.983      2.733
REMARK INTER + INTRA:          -3.315
REMARK INTER:                  -2.987
REMARK INTRA:                  -0.328
REMARK UNBOUND:                -0.132
REMARK SMILES CCCCCCC(=O)[O-]
REMARK SMILES IDX 5 1 6 2 7 3 8 4 9 5 4 6 3 7 2 8 1 9
REMARK H PARENT
REMARK Flexibility Score: inf
ROOT
ATOM      1  C   UNL     1      -9.317  39.875  15.378  1.00  0.00     0.006 C 
ENDROOT
BRANCH   1   2
ATOM      2  C   UNL     1     -10.565  40.683  15.012  1.00  0.00     0.053 C 
BRANCH   2   3
ATOM      3  C   UNL     1     -11.778  40.102  15.668  1.00  0.00     0.041 C 
ATOM      4  O   UNL     1     -12.686  39.580  14.969  1.00  0.00    -0.550 OA
ATOM      5  O   UNL     1     -11.882  40.093  17.053  1.00  0.00    -0.550 OA
ENDBRANCH   2   3
ENDBRANCH   1   2
BRANCH   1   6
ATOM      6  C   UNL     1      -8.240  40.776  15.997  1.00  0.00     0.000 C 
BRANCH   6   7
ATOM      7  C   UNL     1      -7.900  40.395  17.449  1.00  0.00    -0.000 C 
BRANCH   7   8
ATOM      8  C   UNL     1      -8.659  39.170  17.990  1.00  0.00    -0.003 C 
ATOM      9  C   UNL     1      -9.268  39.407  19.372  1.00  0.00     0.004 C 
ENDBRANCH   7   8
ENDBRANCH   6   7
ENDBRANCH   1   6
TORSDOF 5
ENDMDL
MODEL 3
REMARK VINA RESULT:    -2.436     22.447     23.036
REMARK INTER + INTRA:          -3.280
REMARK INTER:                  -3.142
REMARK INTRA:                  -0.138
REMARK UNBOUND:                -0.132
REMARK SMILES CCCCCCC(=O)[O-]
REMARK SMILES IDX 5 1 6 2 7 3 8 4 9 5 4 6 3 7 2 8 1 9
REMARK H PARENT
REMARK Flexibility Score: inf
ROOT
ATOM      1  C   UNL     1       2.683  22.291   6.414  1.00  0.00     0.006 C 
ENDROOT
BRANCH   1   2
ATOM      2  C   UNL     1       1.316  22.896   6.744  1.00  0.00     0.053 C 
BRANCH   2   3
ATOM      3  C   UNL     1       0.387  22.759   5.580  1.00  0.00     0.041 C 
ATOM      4  O   UNL     1       0.811  22.936   4.407  1.00  0.00    -0.550 OA
ATOM      5  O   UNL     1      -0.936  22.388   5.785  1.00  0.00    -0.550 OA
ENDBRANCH   2   3
ENDBRANCH   1   2
BRANCH   1   6
ATOM      6  C   UNL     1       3.763  23.380   6.339  1.00  0.00     0.000 C 
BRANCH   6   7
ATOM      7  C   UNL     1       4.867  23.205   7.397  1.00  0.00    -0.000 C 
BRANCH   7   8
ATOM      8  C   UNL     1       6.037  24.199   7.282  1.00  0.00    -0.003 C 
ATOM      9  C   UNL     1       6.229  24.734   5.863  1.00  0.00     0.004 C 
ENDBRANCH   7   8
ENDBRANCH   6   7
ENDBRANCH   1   6
TORSDOF 5
ENDMDL
MODEL 4
REMARK VINA RESULT:    -2.425      2.875      5.464
REMARK INTER + INTRA:          -3.266
REMARK INTER:                  -3.122
REMARK INTRA:                  -0.144
REMARK UNBOUND:                -0.132
REMARK SMILES CCCCCCC(=O)[O-]
REMARK SMILES IDX 5 1 6 2 7 3 8 4 9 5 4 6 3 7 2 8 1 9
REMARK H PARENT
REMARK Flexibility Score: inf
ROOT
ATOM      1  C   UNL     1      -8.706  39.785  16.897  1.00  0.00     0.006 C 
ENDROOT
BRANCH   1   2
ATOM      2  C   UNL     1      -7.587  40.728  17.350  1.00  0.00     0.053 C 
BRANCH   2   3
ATOM      3  C   UNL     1      -6.819  40.126  18.483  1.00  0.00     0.041 C 
ATOM      4  O   UNL     1      -7.424  39.518  19.406  1.00  0.00    -0.550 OA
ATOM      5  O   UNL     1      -5.432  40.192  18.496  1.00  0.00    -0.550 OA
ENDBRANCH   2   3
ENDBRANCH   1   2
BRANCH   1   6
ATOM      6  C   UNL     1      -8.980  39.939  15.395  1.00  0.00     0.000 C 
BRANCH   6   7
ATOM      7  C   UNL     1     -10.381  40.502  15.095  1.00  0.00    -0.000 C 
BRANCH   7   8
ATOM      8  C   UNL     1     -11.480  40.061  16.079  1.00  0.00    -0.003 C 
ATOM      9  C   UNL     1     -12.828  39.818  15.401  1.00  0.00     0.004 C 
ENDBRANCH   7   8
ENDBRANCH   6   7
ENDBRANCH   1   6
TORSDOF 5
ENDMDL
MODEL 5
REMARK VINA RESULT:    -2.410      2.753      4.588
REMARK INTER + INTRA:          -3.247
REMARK INTER:                  -2.919
REMARK INTRA:                  -0.328
REMARK UNBOUND:                -0.132
REMARK SMILES CCCCCCC(=O)[O-]
REMARK SMILES IDX 5 1 6 2 7 3 8 4 9 5 4 6 3 7 2 8 1 9
REMARK H PARENT
REMARK Flexibility Score: inf
ROOT
ATOM      1  C   UNL     1      -8.001  40.469  18.006  1.00  0.00     0.006 C 
ENDROOT
BRANCH   1   2
ATOM      2  C   UNL     1      -8.646  39.115  18.313  1.00  0.00     0.053 C 
BRANCH   2   3
ATOM      3  C   UNL     1      -9.524  39.214  19.521  1.00  0.00     0.041 C 
ATOM      4  O   UNL     1      -9.058  39.648  20.607  1.00  0.00    -0.550 OA
ATOM      5  O   UNL     1     -10.867  38.873  19.434  1.00  0.00    -0.550 OA
ENDBRANCH   2   3
ENDBRANCH   1   2
BRANCH   1   6
ATOM      6  C   UNL     1      -7.971  40.734  16.494  1.00  0.00     0.000 C 
BRANCH   6   7
ATOM      7  C   UNL     1      -8.913  39.809  15.704  1.00  0.00    -0.000 C 
BRANCH   7   8
ATOM      8  C   UNL     1     -10.196  40.483  15.185  1.00  0.00    -0.003 C 
ATOM      9  C   UNL     1     -11.444  40.077  15.968  1.00  0.00     0.004 C 
ENDBRANCH   7   8
ENDBRANCH   6   7
ENDBRANCH   1   6
TORSDOF 5
ENDMDL
MODEL 6
REMARK VINA RESULT:    -2.397     22.484     22.984
REMARK INTER + INTRA:          -3.229
REMARK INTER:                  -3.113
REMARK INTRA:                  -0.116
REMARK UNBOUND:                -0.132
REMARK SMILES CCCCCCC(=O)[O-]
REMARK SMILES IDX 5 1 6 2 7 3 8 4 9 5 4 6 3 7 2 8 1 9
REMARK H PARENT
REMARK Flexibility Score: inf
ROOT
ATOM      1  C   UNL     1       2.358  22.731   5.575  1.00  0.00     0.006 C 
ENDROOT
BRANCH   1   2
ATOM      2  C   UNL     1       1.211  22.731   6.588  1.00  0.00     0.053 C 
BRANCH   2   3
ATOM      3  C   UNL     1      -0.107  22.606   5.890  1.00  0.00     0.041 C 
ATOM      4  O   UNL     1      -1.018  21.889   6.381  1.00  0.00    -0.550 OA
ATOM      5  O   UNL     1      -0.345  23.322   4.724  1.00  0.00    -0.550 OA
ENDBRANCH   2   3
ENDBRANCH   1   2
BRANCH   1   6
ATOM      6  C   UNL     1       3.641  23.299   6.197  1.00  0.00     0.000 C 
BRANCH   6   7
ATOM      7  C   UNL     1       4.522  24.047   5.179  1.00  0.00    -0.000 C 
BRANCH   7   8
ATOM      8  C   UNL     1       5.844  24.593   5.747  1.00  0.00    -0.003 C 
ATOM      9  C   UNL     1       6.054  24.242   7.220  1.00  0.00     0.004 C 
ENDBRANCH   7   8
ENDBRANCH   6   7
ENDBRANCH   1   6
TORSDOF 5
ENDMDL
MODEL 7
REMARK VINA RESULT:    -2.392      2.231      4.006
REMARK INTER + INTRA:          -3.223
REMARK INTER:                  -2.869
REMARK INTRA:                  -0.355
REMARK UNBOUND:                -0.132
REMARK SMILES CCCCCCC(=O)[O-]
REMARK SMILES IDX 5 1 6 2 7 3 8 4 9 5 4 6 3 7 2 8 1 9
REMARK H PARENT
REMARK Flexibility Score: inf
ROOT
ATOM      1  C   UNL     1      -8.326  39.212  18.581  1.00  0.00     0.006 C 
ENDROOT
BRANCH   1   2
ATOM      2  C   UNL     1      -9.285  39.764  19.640  1.00  0.00     0.053 C 
BRANCH   2   3
ATOM      3  C   UNL     1     -10.665  39.227  19.428  1.00  0.00     0.041 C 
ATOM      4  O   UNL     1     -11.408  39.723  18.541  1.00  0.00    -0.550 OA
ATOM      5  O   UNL     1     -11.114  38.147  20.177  1.00  0.00    -0.550 OA
ENDBRANCH   2   3
ENDBRANCH   1   2
BRANCH   1   6
ATOM      6  C   UNL     1      -7.492  40.338  17.954  1.00  0.00     0.000 C 
BRANCH   6   7
ATOM      7  C   UNL     1      -8.055  40.825  16.607  1.00  0.00    -0.000 C 
BRANCH   7   8
ATOM      8  C   UNL     1      -8.913  39.792  15.854  1.00  0.00    -0.003 C 
ATOM      9  C   UNL     1     -10.214  40.380  15.308  1.00  0.00     0.004 C 
ENDBRANCH   7   8
ENDBRANCH   6   7
ENDBRANCH   1   6
TORSDOF 5
ENDMDL
MODEL 8
REMARK VINA RESULT:    -2.378      2.967      4.267
REMARK INTER + INTRA:          -3.204
REMARK INTER:                  -2.960
REMARK INTRA:                  -0.244
REMARK UNBOUND:                -0.132
REMARK SMILES CCCCCCC(=O)[O-]
REMARK SMILES IDX 5 1 6 2 7 3 8 4 9 5 4 6 3 7 2 8 1 9
REMARK H PARENT
REMARK Flexibility Score: inf
ROOT
ATOM      1  C   UNL     1      -8.624  39.064  18.763  1.00  0.00     0.006 C 
ENDROOT
BRANCH   1   2
ATOM      2  C   UNL     1      -8.280  39.996  17.597  1.00  0.00     0.053 C 
BRANCH   2   3
ATOM      3  C   UNL     1      -9.288  39.859  16.500  1.00  0.00     0.041 C 
ATOM      4  O   UNL     1      -8.910  39.679  15.313  1.00  0.00    -0.550 OA
ATOM      5  O   UNL     1     -10.645  39.880  16.797  1.00  0.00    -0.550 OA
ENDBRANCH   2   3
ENDBRANCH   1   2
BRANCH   1   6
ATOM      6  C   UNL     1      -8.932  39.865  20.035  1.00  0.00     0.000 C 
BRANCH   6   7
ATOM      7  C   UNL     1      -9.992  39.193  20.926  1.00  0.00    -0.000 C 
BRANCH   7   8
ATOM      8  C   UNL     1     -11.079  38.415  20.163  1.00  0.00    -0.003 C 
ATOM      9  C   UNL     1     -11.540  37.156  20.896  1.00  0.00     0.004 C 
ENDBRANCH   7   8
ENDBRANCH   6   7
ENDBRANCH   1   6
TORSDOF 5
ENDMDL
MODEL 9
REMARK VINA RESULT:    -2.353     23.586     24.405
REMARK INTER + INTRA:          -3.173
REMARK INTER:                  -2.920
REMARK INTRA:                  -0.253
REMARK UNBOUND:                -0.132
REMARK SMILES CCCCCCC(=O)[O-]
REMARK SMILES IDX 5 1 6 2 7 3 8 4 9 5 4 6 3 7 2 8 1 9
REMARK H PARENT
REMARK Flexibility Score: inf
ROOT
ATOM      1  C   UNL     1       6.102  24.691   6.790  1.00  0.00     0.006 C 
ENDROOT
BRANCH   1   2
ATOM      2  C   UNL     1       6.399  23.344   7.454  1.00  0.00     0.053 C 
BRANCH   2   3
ATOM      3  C   UNL     1       5.134  22.576   7.673  1.00  0.00     0.041 C 
ATOM      4  O   UNL     1       4.073  22.926   7.093  1.00  0.00    -0.550 OA
ATOM      5  O   UNL     1       5.138  21.444   8.478  1.00  0.00    -0.550 OA
ENDBRANCH   2   3
ENDBRANCH   1   2
BRANCH   1   6
ATOM      6  C   UNL     1       7.125  24.998   5.687  1.00  0.00     0.000 C 
BRANCH   6   7
ATOM      7  C   UNL     1       6.581  24.731   4.272  1.00  0.00    -0.000 C 
BRANCH   7   8
ATOM      8  C   UNL     1       5.047  24.667   4.171  1.00  0.00    -0.003 C 
ATOM      9  C   UNL     1       4.512  25.204   2.844  1.00  0.00     0.004 C 
ENDBRANCH   7   8
ENDBRANCH   6   7
ENDBRANCH   1   6
TORSDOF 5
ENDMDL
