MODEL 1
REMARK VINA RESULT:    -2.894      0.000      0.000
REMARK INTER + INTRA:          -4.742
REMARK INTER:                  -4.417
REMARK INTRA:                  -0.325
REMARK UNBOUND:                -0.325
REMARK SMILES CC1=CCC[C@@H](C)C(=O)C[C@@H](C(C)C)C(=O)C1
REMARK SMILES IDX 8 1 9 2 6 3 7 4 5 5 4 6 3 7 2 8 1 9 10 11 11 12 15 13 16 14
REMARK SMILES IDX 17 15 12 17 13 18 14 19
REMARK H PARENT
REMARK Flexibility Score: 70.00
ROOT
ATOM      1  C   UNL     1       1.329   2.132  21.477  1.00  0.00     0.136 C 
ATOM      2  O   UNL     1       2.115   2.153  20.540  1.00  0.00    -0.299 OA
ENDROOT
BRANCH   1   3
ATOM      3  C   UNL     1       1.322   3.268  22.486  1.00  0.00     0.053 C 
ATOM      4  C   UNL     1       0.840   4.589  21.868  1.00  0.00     0.016 C 
BRANCH   3   5
ATOM      5  C   UNL     1       2.669   3.437  23.235  1.00  0.00     0.015 C 
BRANCH   5   6
ATOM      6  C   UNL     1       3.117   2.317  24.200  1.00  0.00     0.028 C 
BRANCH   6   7
ATOM      7  C   UNL     1       4.059   1.265  23.662  1.00  0.00    -0.028 C 
ATOM      8  C   UNL     1       3.896  -0.079  23.723  1.00  0.00    -0.070 CG0
ATOM      9  C   UNL     1       5.055  -0.945  23.297  1.00  0.00     0.039 C 
ATOM     10  G   UNL     1       2.598  -0.759  24.113  1.00  0.00     0.000 G0
ENDBRANCH   6   7
ENDBRANCH   5   6
ENDBRANCH   3   5
ENDBRANCH   1   3
BRANCH   1  11
ATOM     11  C   UNL     1       0.368   0.964  21.587  1.00  0.00     0.087 C 
BRANCH  11  12
ATOM     12  C   UNL     1       0.453   0.229  22.948  1.00  0.00     0.066 C 
BRANCH  12  13
ATOM     13  C   UNL     1       1.606  -0.761  22.972  1.00  0.00     0.140 C 
ATOM     14  O   UNL     1       1.783  -1.508  22.021  1.00  0.00    -0.299 OA
BRANCH  13  15
ATOM     15  C   UNL     1       2.594  -0.786  24.118  1.00  0.00     0.106 CG0
ATOM     16  G   UNL     1       3.867  -0.065  23.717  1.00  0.00     0.000 G0
ENDBRANCH  13  15
ENDBRANCH  12  13
BRANCH  12  17
ATOM     17  C   UNL     1      -0.914  -0.379  23.397  1.00  0.00    -0.006 C 
ATOM     18  C   UNL     1      -1.080  -0.566  24.918  1.00  0.00     0.008 C 
ATOM     19  C   UNL     1      -2.090   0.440  22.844  1.00  0.00     0.008 C 
ENDBRANCH  12  17
ENDBRANCH  11  12
ENDBRANCH   1  11
TORSDOF 1
ENDMDL
MODEL 2
REMARK VINA RESULT:    -2.880      6.064      7.783
REMARK INTER + INTRA:          -4.720
REMARK INTER:                  -4.556
REMARK INTRA:                  -0.164
REMARK UNBOUND:                -0.325
REMARK SMILES CC1=CCC[C@@H](C)C(=O)C[C@@H](C(C)C)C(=O)C1
REMARK SMILES IDX 8 1 9 2 6 3 7 4 5 5 4 6 3 7 2 8 1 9 10 11 11 12 15 13 16 14
REMARK SMILES IDX 17 15 12 17 13 18 14 19
REMARK H PARENT
REMARK Flexibility Score: 70.00
ROOT
ATOM      1  C   UNL     1       1.106  -4.195  18.823  1.00  0.00     0.136 C 
ATOM      2  O   UNL     1       0.726  -4.562  19.926  1.00  0.00    -0.299 OA
ENDROOT
BRANCH   1   3
ATOM      3  C   UNL     1       0.089  -3.800  17.765  1.00  0.00     0.053 C 
ATOM      4  C   UNL     1      -1.120  -4.748  17.740  1.00  0.00     0.016 C 
BRANCH   3   5
ATOM      5  C   UNL     1       0.705  -3.611  16.355  1.00  0.00     0.015 C 
BRANCH   5   6
ATOM      6  C   UNL     1       1.000  -2.174  15.870  1.00  0.00     0.028 C 
BRANCH   6   7
ATOM      7  C   UNL     1       2.298  -1.937  15.133  1.00  0.00    -0.028 C 
ATOM      8  C   UNL     1       3.406  -1.325  15.616  1.00  0.00    -0.070 CG0
ATOM      9  C   UNL     1       4.518  -1.020  14.644  1.00  0.00     0.039 C 
ATOM     10  G   UNL     1       3.627  -1.004  17.082  1.00  0.00     0.000 G0
ENDBRANCH   6   7
ENDBRANCH   5   6
ENDBRANCH   3   5
ENDBRANCH   1   3
BRANCH   1  11
ATOM     11  C   UNL     1       2.597  -4.134  18.556  1.00  0.00     0.087 C 
BRANCH  11  12
ATOM     12  C   UNL     1       3.237  -2.787  18.975  1.00  0.00     0.066 C 
BRANCH  12  13
ATOM     13  C   UNL     1       4.088  -2.205  17.858  1.00  0.00     0.140 C 
ATOM     14  O   UNL     1       5.123  -2.768  17.529  1.00  0.00    -0.299 OA
BRANCH  13  15
ATOM     15  C   UNL     1       3.638  -0.987  17.082  1.00  0.00     0.106 CG0
ATOM     16  G   UNL     1       3.435  -1.349  15.624  1.00  0.00     0.000 G0
ENDBRANCH  13  15
ENDBRANCH  12  13
BRANCH  12  17
ATOM     17  C   UNL     1       3.969  -2.864  20.353  1.00  0.00    -0.006 C 
ATOM     18  C   UNL     1       3.143  -2.383  21.561  1.00  0.00     0.008 C 
ATOM     19  C   UNL     1       4.498  -4.282  20.617  1.00  0.00     0.008 C 
ENDBRANCH  12  17
ENDBRANCH  11  12
ENDBRANCH   1  11
TORSDOF 1
ENDMDL
MODEL 3
REMARK VINA RESULT:    -2.858      5.519      7.074
REMARK INTER + INTRA:          -4.686
REMARK INTER:                  -4.471
REMARK INTRA:                  -0.216
REMARK UNBOUND:                -0.325
REMARK SMILES CC1=CCC[C@@H](C)C(=O)C[C@@H](C(C)C)C(=O)C1
REMARK SMILES IDX 8 1 9 2 6 3 7 4 5 5 4 6 3 7 2 8 1 9 10 11 11 12 15 13 16 14
REMARK SMILES IDX 17 15 12 17 13 18 14 19
REMARK H PARENT
REMARK Flexibility Score: 70.00
ROOT
ATOM      1  C   UNL     1      -0.088  -2.360  18.418  1.00  0.00     0.136 C 
ATOM      2  O   UNL     1      -1.122  -1.760  18.673  1.00  0.00    -0.299 OA
ENDROOT
BRANCH   1   3
ATOM      3  C   UNL     1      -0.060  -3.878  18.468  1.00  0.00     0.053 C 
ATOM      4  C   UNL     1      -1.382  -4.498  17.991  1.00  0.00     0.016 C 
BRANCH   3   5
ATOM      5  C   UNL     1       0.380  -4.443  19.843  1.00  0.00     0.015 C 
BRANCH   5   6
ATOM      6  C   UNL     1       1.727  -5.195  19.930  1.00  0.00     0.028 C 
BRANCH   6   7
ATOM      7  C   UNL     1       2.841  -4.547  20.719  1.00  0.00    -0.028 C 
ATOM      8  C   UNL     1       3.973  -3.993  20.221  1.00  0.00    -0.070 CG0
ATOM      9  C   UNL     1       5.040  -3.579  21.203  1.00  0.00     0.039 C 
ATOM     10  G   UNL     1       4.195  -3.692  18.751  1.00  0.00     0.000 G0
ENDBRANCH   6   7
ENDBRANCH   5   6
ENDBRANCH   3   5
ENDBRANCH   1   3
BRANCH   1  11
ATOM     11  C   UNL     1       1.140  -1.554  18.041  1.00  0.00     0.087 C 
BRANCH  11  12
ATOM     12  C   UNL     1       2.282  -2.420  17.453  1.00  0.00     0.066 C 
BRANCH  12  13
ATOM     13  C   UNL     1       3.511  -2.399  18.347  1.00  0.00     0.140 C 
ATOM     14  O   UNL     1       3.908  -1.338  18.806  1.00  0.00    -0.299 OA
BRANCH  13  15
ATOM     15  C   UNL     1       4.209  -3.679  18.752  1.00  0.00     0.106 CG0
ATOM     16  G   UNL     1       3.968  -3.955  20.224  1.00  0.00     0.000 G0
ENDBRANCH  13  15
ENDBRANCH  12  13
BRANCH  12  17
ATOM     17  C   UNL     1       2.584  -2.094  15.955  1.00  0.00    -0.006 C 
ATOM     18  C   UNL     1       3.757  -2.878  15.337  1.00  0.00     0.008 C 
ATOM     19  C   UNL     1       1.327  -2.273  15.089  1.00  0.00     0.008 C 
ENDBRANCH  12  17
ENDBRANCH  11  12
ENDBRANCH   1  11
TORSDOF 1
ENDMDL
MODEL 4
REMARK VINA RESULT:    -2.710      5.756      7.401
REMARK INTER + INTRA:          -4.460
REMARK INTER:                  -4.060
REMARK INTRA:                  -0.400
REMARK UNBOUND:                -0.325
REMARK SMILES CC1=CCC[C@@H](C)C(=O)C[C@@H](C(C)C)C(=O)C1
REMARK SMILES IDX 8 1 9 2 6 3 7 4 5 5 4 6 3 7 2 8 1 9 10 11 11 12 15 13 16 14
REMARK SMILES IDX 17 15 12 17 13 18 14 19
REMARK H PARENT
REMARK Flexibility Score: 70.00
ROOT
ATOM      1  C   UNL     1       1.704  -3.454  18.757  1.00  0.00     0.136 C 
ATOM      2  O   UNL     1       2.040  -4.481  19.330  1.00  0.00    -0.299 OA
ENDROOT
BRANCH   1   3
ATOM      3  C   UNL     1       0.599  -3.495  17.714  1.00  0.00     0.053 C 
ATOM      4  C   UNL     1      -0.527  -4.465  18.100  1.00  0.00     0.016 C 
BRANCH   3   5
ATOM      5  C   UNL     1       1.117  -3.752  16.276  1.00  0.00     0.015 C 
BRANCH   5   6
ATOM      6  C   UNL     1       1.321  -2.538  15.342  1.00  0.00     0.028 C 
BRANCH   6   7
ATOM      7  C   UNL     1       2.737  -2.065  15.108  1.00  0.00    -0.028 C 
ATOM      8  C   UNL     1       3.242  -0.841  15.394  1.00  0.00    -0.070 CG0
ATOM      9  C   UNL     1       4.630  -0.522  14.896  1.00  0.00     0.039 C 
ATOM     10  G   UNL     1       2.532   0.192  16.249  1.00  0.00     0.000 G0
ENDBRANCH   6   7
ENDBRANCH   5   6
ENDBRANCH   3   5
ENDBRANCH   1   3
BRANCH   1  11
ATOM     11  C   UNL     1       2.402  -2.159  19.127  1.00  0.00     0.087 C 
BRANCH  11  12
ATOM     12  C   UNL     1       1.734  -0.907  18.506  1.00  0.00     0.066 C 
BRANCH  12  13
ATOM     13  C   UNL     1       2.735  -0.078  17.718  1.00  0.00     0.140 C 
ATOM     14  O   UNL     1       3.760   0.309  18.259  1.00  0.00    -0.299 OA
BRANCH  13  15
ATOM     15  C   UNL     1       2.529   0.210  16.247  1.00  0.00     0.106 CG0
ATOM     16  G   UNL     1       3.254  -0.828  15.411  1.00  0.00     0.000 G0
ENDBRANCH  13  15
ENDBRANCH  12  13
BRANCH  12  17
ATOM     17  C   UNL     1       0.906  -0.082  19.542  1.00  0.00    -0.006 C 
ATOM     18  C   UNL     1      -0.620  -0.109  19.333  1.00  0.00     0.008 C 
ATOM     19  C   UNL     1       1.241  -0.509  20.980  1.00  0.00     0.008 C 
ENDBRANCH  12  17
ENDBRANCH  11  12
ENDBRANCH   1  11
TORSDOF 1
ENDMDL
MODEL 5
REMARK VINA RESULT:    -2.707      7.463      8.184
REMARK INTER + INTRA:          -4.456
REMARK INTER:                  -4.091
REMARK INTRA:                  -0.365
REMARK UNBOUND:                -0.325
REMARK SMILES CC1=CCC[C@@H](C)C(=O)C[C@@H](C(C)C)C(=O)C1
REMARK SMILES IDX 8 1 9 2 6 3 7 4 5 5 4 6 3 7 2 8 1 9 10 11 11 12 15 13 16 14
REMARK SMILES IDX 17 15 12 17 13 18 14 19
REMARK H PARENT
REMARK Flexibility Score: 70.00
ROOT
ATOM      1  C   UNL     1       4.255  -0.792  13.720  1.00  0.00     0.136 C 
ATOM      2  O   UNL     1       4.559  -0.615  12.548  1.00  0.00    -0.299 OA
ENDROOT
BRANCH   1   3
ATOM      3  C   UNL     1       4.251   0.380  14.686  1.00  0.00     0.053 C 
ATOM      4  C   UNL     1       3.390   1.547  14.180  1.00  0.00     0.016 C 
BRANCH   3   5
ATOM      5  C   UNL     1       5.671   0.846  15.099  1.00  0.00     0.015 C 
BRANCH   5   6
ATOM      6  C   UNL     1       6.234   0.371  16.456  1.00  0.00     0.028 C 
BRANCH   6   7
ATOM      7  C   UNL     1       7.137  -0.842  16.454  1.00  0.00    -0.028 C 
ATOM      8  C   UNL     1       6.873  -2.051  17.005  1.00  0.00    -0.070 CG0
ATOM      9  C   UNL     1       7.997  -3.057  17.057  1.00  0.00     0.039 C 
ATOM     10  G   UNL     1       5.503  -2.481  17.495  1.00  0.00     0.000 G0
ENDBRANCH   6   7
ENDBRANCH   5   6
ENDBRANCH   3   5
ENDBRANCH   1   3
BRANCH   1  11
ATOM     11  C   UNL     1       3.873  -2.191  14.163  1.00  0.00     0.087 C 
BRANCH  11  12
ATOM     12  C   UNL     1       3.597  -2.295  15.684  1.00  0.00     0.066 C 
BRANCH  12  13
ATOM     13  C   UNL     1       4.681  -3.092  16.392  1.00  0.00     0.140 C 
ATOM     14  O   UNL     1       4.953  -4.220  16.005  1.00  0.00    -0.299 OA
BRANCH  13  15
ATOM     15  C   UNL     1       5.492  -2.487  17.516  1.00  0.00     0.106 CG0
ATOM     16  G   UNL     1       6.852  -2.058  16.998  1.00  0.00     0.000 G0
ENDBRANCH  13  15
ENDBRANCH  12  13
BRANCH  12  17
ATOM     17  C   UNL     1       2.146  -2.774  16.008  1.00  0.00    -0.006 C 
ATOM     18  C   UNL     1       1.965  -3.426  17.391  1.00  0.00     0.008 C 
ATOM     19  C   UNL     1       1.137  -1.628  15.838  1.00  0.00     0.008 C 
ENDBRANCH  12  17
ENDBRANCH  11  12
ENDBRANCH   1  11
TORSDOF 1
ENDMDL
MODEL 6
REMARK VINA RESULT:    -2.625      6.381      7.784
REMARK INTER + INTRA:          -4.331
REMARK INTER:                  -3.958
REMARK INTRA:                  -0.373
REMARK UNBOUND:                -0.325
REMARK SMILES CC1=CCC[C@@H](C)C(=O)C[C@@H](C(C)C)C(=O)C1
REMARK SMILES IDX 8 1 9 2 6 3 7 4 5 5 4 6 3 7 2 8 1 9 10 11 11 12 15 13 16 14
REMARK SMILES IDX 17 15 12 17 13 18 14 19
REMARK H PARENT
REMARK Flexibility Score: 70.00
ROOT
ATOM      1  C   UNL     1       0.914   0.692  17.547  1.00  0.00     0.136 C 
ATOM      2  O   UNL     1       1.534   1.117  18.512  1.00  0.00    -0.299 OA
ENDROOT
BRANCH   1   3
ATOM      3  C   UNL     1      -0.487   0.136  17.734  1.00  0.00     0.053 C 
ATOM      4  C   UNL     1      -1.478   1.209  18.211  1.00  0.00     0.016 C 
BRANCH   3   5
ATOM      5  C   UNL     1      -0.536  -1.133  18.623  1.00  0.00     0.015 C 
BRANCH   5   6
ATOM      6  C   UNL     1      -0.106  -2.480  18.002  1.00  0.00     0.028 C 
BRANCH   6   7
ATOM      7  C   UNL     1       1.374  -2.723  17.814  1.00  0.00    -0.028 C 
ATOM      8  C   UNL     1       2.016  -2.960  16.645  1.00  0.00    -0.070 CG0
ATOM      9  C   UNL     1       3.466  -3.371  16.712  1.00  0.00     0.039 C 
ATOM     10  G   UNL     1       1.391  -2.758  15.277  1.00  0.00     0.000 G0
ENDBRANCH   6   7
ENDBRANCH   5   6
ENDBRANCH   3   5
ENDBRANCH   1   3
BRANCH   1  11
ATOM     11  C   UNL     1       1.572   0.752  16.182  1.00  0.00     0.087 C 
BRANCH  11  12
ATOM     12  C   UNL     1       0.871  -0.141  15.128  1.00  0.00     0.066 C 
BRANCH  12  13
ATOM     13  C   UNL     1       1.724  -1.347  14.768  1.00  0.00     0.140 C 
ATOM     14  O   UNL     1       2.744  -1.194  14.111  1.00  0.00    -0.299 OA
BRANCH  13  15
ATOM     15  C   UNL     1       1.381  -2.730  15.278  1.00  0.00     0.106 CG0
ATOM     16  G   UNL     1       2.025  -2.954  16.633  1.00  0.00     0.000 G0
ENDBRANCH  13  15
ENDBRANCH  12  13
BRANCH  12  17
ATOM     17  C   UNL     1       0.361   0.665  13.890  1.00  0.00    -0.006 C 
ATOM     18  C   UNL     1      -1.104   1.134  13.973  1.00  0.00     0.008 C 
ATOM     19  C   UNL     1       1.276   1.865  13.600  1.00  0.00     0.008 C 
ENDBRANCH  12  17
ENDBRANCH  11  12
ENDBRANCH   1  11
TORSDOF 1
ENDMDL
MODEL 7
REMARK VINA RESULT:    -2.545      5.795      7.702
REMARK INTER + INTRA:          -4.209
REMARK INTER:                  -4.343
REMARK INTRA:                   0.134
REMARK UNBOUND:                -0.325
REMARK SMILES CC1=CCC[C@@H](C)C(=O)C[C@@H](C(C)C)C(=O)C1
REMARK SMILES IDX 8 1 9 2 6 3 7 4 5 5 4 6 3 7 2 8 1 9 10 11 11 12 15 13 16 14
REMARK SMILES IDX 17 15 12 17 13 18 14 19
REMARK H PARENT
REMARK Flexibility Score: 70.00
ROOT
ATOM      1  C   UNL     1      -0.201  -4.067  17.871  1.00  0.00     0.136 C 
ATOM      2  O   UNL     1      -1.095  -4.899  17.817  1.00  0.00    -0.299 OA
ENDROOT
BRANCH   1   3
ATOM      3  C   UNL     1       0.088  -3.352  19.181  1.00  0.00     0.053 C 
ATOM      4  C   UNL     1       0.488  -4.327  20.298  1.00  0.00     0.016 C 
BRANCH   3   5
ATOM      5  C   UNL     1      -1.047  -2.395  19.627  1.00  0.00     0.015 C 
BRANCH   5   6
ATOM      6  C   UNL     1      -1.183  -1.034  18.910  1.00  0.00     0.028 C 
BRANCH   6   7
ATOM      7  C   UNL     1       0.045  -0.156  18.834  1.00  0.00    -0.028 C 
ATOM      8  C   UNL     1       0.799   0.093  17.736  1.00  0.00    -0.070 CG0
ATOM      9  C   UNL     1       2.094   0.842  17.931  1.00  0.00     0.039 C 
ATOM     10  G   UNL     1       0.381  -0.261  16.322  1.00  0.00     0.000 G0
ENDBRANCH   6   7
ENDBRANCH   5   6
ENDBRANCH   3   5
ENDBRANCH   1   3
BRANCH   1  11
ATOM     11  C   UNL     1       0.605  -3.788  16.618  1.00  0.00     0.087 C 
BRANCH  11  12
ATOM     12  C   UNL     1       1.567  -2.583  16.765  1.00  0.00     0.066 C 
BRANCH  12  13
ATOM     13  C   UNL     1       1.184  -1.450  15.827  1.00  0.00     0.140 C 
ATOM     14  O   UNL     1       1.451  -1.532  14.637  1.00  0.00    -0.299 OA
BRANCH  13  15
ATOM     15  C   UNL     1       0.403  -0.253  16.321  1.00  0.00     0.106 CG0
ATOM     16  G   UNL     1       0.804   0.073  17.748  1.00  0.00     0.000 G0
ENDBRANCH  13  15
ENDBRANCH  12  13
BRANCH  12  17
ATOM     17  C   UNL     1       3.072  -2.992  16.682  1.00  0.00    -0.006 C 
ATOM     18  C   UNL     1       4.015  -1.912  16.119  1.00  0.00     0.008 C 
ATOM     19  C   UNL     1       3.589  -3.471  18.048  1.00  0.00     0.008 C 
ENDBRANCH  12  17
ENDBRANCH  11  12
ENDBRANCH   1  11
TORSDOF 1
ENDMDL
MODEL 8
REMARK VINA RESULT:    -2.539      5.257      6.898
REMARK INTER + INTRA:          -4.199
REMARK INTER:                  -3.972
REMARK INTRA:                  -0.226
REMARK UNBOUND:                -0.325
REMARK SMILES CC1=CCC[C@@H](C)C(=O)C[C@@H](C(C)C)C(=O)C1
REMARK SMILES IDX 8 1 9 2 6 3 7 4 5 5 4 6 3 7 2 8 1 9 10 11 11 12 15 13 16 14
REMARK SMILES IDX 17 15 12 17 13 18 14 19
REMARK H PARENT
REMARK Flexibility Score: 70.00
ROOT
ATOM      1  C   UNL     1       0.953  -0.902  15.613  1.00  0.00     0.136 C 
ATOM      2  O   UNL     1       1.038  -0.361  14.519  1.00  0.00    -0.299 OA
ENDROOT
BRANCH   1   3
ATOM      3  C   UNL     1       1.846  -2.086  15.944  1.00  0.00     0.053 C 
ATOM      4  C   UNL     1       3.128  -2.099  15.098  1.00  0.00     0.016 C 
BRANCH   3   5
ATOM      5  C   UNL     1       1.108  -3.448  15.897  1.00  0.00     0.015 C 
BRANCH   5   6
ATOM      6  C   UNL     1       0.428  -3.959  17.187  1.00  0.00     0.028 C 
BRANCH   6   7
ATOM      7  C   UNL     1       1.127  -3.691  18.500  1.00  0.00    -0.028 C 
ATOM      8  C   UNL     1       0.922  -2.640  19.330  1.00  0.00    -0.070 CG0
ATOM      9  C   UNL     1       1.870  -2.469  20.491  1.00  0.00     0.039 C 
ATOM     10  G   UNL     1      -0.245  -1.679  19.210  1.00  0.00     0.000 G0
ENDBRANCH   6   7
ENDBRANCH   5   6
ENDBRANCH   3   5
ENDBRANCH   1   3
BRANCH   1  11
ATOM     11  C   UNL     1      -0.044  -0.352  16.615  1.00  0.00     0.087 C 
BRANCH  11  12
ATOM     12  C   UNL     1       0.627   0.390  17.798  1.00  0.00     0.066 C 
BRANCH  12  13
ATOM     13  C   UNL     1       0.252  -0.238  19.131  1.00  0.00     0.140 C 
ATOM     14  O   UNL     1       0.289   0.436  20.150  1.00  0.00    -0.299 OA
BRANCH  13  15
ATOM     15  C   UNL     1      -0.248  -1.663  19.212  1.00  0.00     0.106 CG0
ATOM     16  G   UNL     1       0.927  -2.616  19.336  1.00  0.00     0.000 G0
ENDBRANCH  13  15
ENDBRANCH  12  13
BRANCH  12  17
ATOM     17  C   UNL     1       0.414   1.937  17.746  1.00  0.00    -0.006 C 
ATOM     18  C   UNL     1       1.229   2.674  16.667  1.00  0.00     0.008 C 
ATOM     19  C   UNL     1      -1.076   2.283  17.597  1.00  0.00     0.008 C 
ENDBRANCH  12  17
ENDBRANCH  11  12
ENDBRANCH   1  11
TORSDOF 1
ENDMDL
MODEL 9
REMARK VINA RESULT:    -2.423      1.948      3.954
REMARK INTER + INTRA:          -4.023
REMARK INTER:                  -3.902
REMARK INTRA:                  -0.120
REMARK UNBOUND:                -0.325
REMARK SMILES CC1=CCC[C@@H](C)C(=O)C[C@@H](C(C)C)C(=O)C1
REMARK SMILES IDX 8 1 9 2 6 3 7 4 5 5 4 6 3 7 2 8 1 9 10 11 11 12 15 13 16 14
REMARK SMILES IDX 17 15 12 17 13 18 14 19
REMARK H PARENT
REMARK Flexibility Score: 70.00
ROOT
ATOM      1  C   UNL     1       3.784   2.560  22.490  1.00  0.00     0.136 C 
ATOM      2  O   UNL     1       4.907   2.652  22.014  1.00  0.00    -0.299 OA
ENDROOT
BRANCH   1   3
ATOM      3  C   UNL     1       2.573   2.922  21.646  1.00  0.00     0.053 C 
ATOM      4  C   UNL     1       1.320   3.159  22.502  1.00  0.00     0.016 C 
BRANCH   3   5
ATOM      5  C   UNL     1       2.304   1.924  20.491  1.00  0.00     0.015 C 
BRANCH   5   6
ATOM      6  C   UNL     1       1.117   0.944  20.629  1.00  0.00     0.028 C 
BRANCH   6   7
ATOM      7  C   UNL     1       1.423  -0.468  21.073  1.00  0.00    -0.028 C 
ATOM      8  C   UNL     1       1.536  -0.911  22.348  1.00  0.00    -0.070 CG0
ATOM      9  C   UNL     1       2.041  -2.317  22.559  1.00  0.00     0.039 C 
ATOM     10  G   UNL     1       1.110  -0.113  23.566  1.00  0.00     0.000 G0
ENDBRANCH   6   7
ENDBRANCH   5   6
ENDBRANCH   3   5
ENDBRANCH   1   3
BRANCH   1  11
ATOM     11  C   UNL     1       3.641   2.067  23.916  1.00  0.00     0.087 C 
BRANCH  11  12
ATOM     12  C   UNL     1       3.621   0.522  24.029  1.00  0.00     0.066 C 
BRANCH  12  13
ATOM     13  C   UNL     1       2.272   0.020  24.519  1.00  0.00     0.140 C 
ATOM     14  O   UNL     1       2.104  -0.200  25.710  1.00  0.00    -0.299 OA
BRANCH  13  15
ATOM     15  C   UNL     1       1.102  -0.136  23.573  1.00  0.00     0.106 CG0
ATOM     16  G   UNL     1       1.531  -0.920  22.347  1.00  0.00     0.000 G0
ENDBRANCH  13  15
ENDBRANCH  12  13
BRANCH  12  17
ATOM     17  C   UNL     1       4.836  -0.046  24.829  1.00  0.00    -0.006 C 
ATOM     18  C   UNL     1       5.449  -1.340  24.260  1.00  0.00     0.008 C 
ATOM     19  C   UNL     1       5.932   1.018  24.994  1.00  0.00     0.008 C 
ENDBRANCH  12  17
ENDBRANCH  11  12
ENDBRANCH   1  11
TORSDOF 1
ENDMDL
