MODEL 1
REMARK VINA RESULT:    -2.691      0.000      0.000
REMARK INTER + INTRA:          -4.425
REMARK INTER:                  -3.634
REMARK INTRA:                  -0.791
REMARK UNBOUND:                -0.791
REMARK SMILES CC(=O)CCC=C(C)CCC=C(C)C
REMARK SMILES IDX 7 1 6 2 8 3 9 4 10 5 11 6 13 7 12 8 14 9 5 10 4 11 2 12 3 13
REMARK SMILES IDX 1 14
REMARK H PARENT
REMARK Flexibility Score: inf
ROOT
ATOM      1  C   UNL     1     112.530  88.082  56.914  1.00  0.00    -0.077 C 
ATOM      2  C   UNL     1     113.136  89.088  57.585  1.00  0.00    -0.028 C 
ATOM      3  C   UNL     1     112.905  86.639  57.156  1.00  0.00     0.039 C 
ENDROOT
BRANCH   1   4
ATOM      4  C   UNL     1     111.448  88.410  55.907  1.00  0.00     0.034 C 
BRANCH   4   5
ATOM      5  C   UNL     1     110.225  89.020  56.600  1.00  0.00     0.032 C 
BRANCH   5   6
ATOM      6  C   UNL     1     109.569  88.026  57.528  1.00  0.00    -0.028 C 
ATOM      7  C   UNL     1     107.792  86.503  58.283  1.00  0.00     0.039 C 
ATOM      8  C   UNL     1     108.354  87.487  57.291  1.00  0.00    -0.080 C 
ATOM      9  C   UNL     1     107.557  87.849  56.060  1.00  0.00     0.039 C 
ENDBRANCH   5   6
ENDBRANCH   4   5
ENDBRANCH   1   4
BRANCH   2  10
ATOM     10  C   UNL     1     114.225  88.859  58.606  1.00  0.00     0.035 C 
BRANCH  10  11
ATOM     11  C   UNL     1     115.610  89.121  58.007  1.00  0.00     0.079 C 
BRANCH  11  12
ATOM     12  C   UNL     1     116.465  87.884  58.081  1.00  0.00     0.130 C 
ATOM     13  O   UNL     1     117.039  87.611  59.124  1.00  0.00    -0.300 OA
ATOM     14  C   UNL     1     116.639  86.981  56.895  1.00  0.00     0.087 C 
ENDBRANCH  11  12
ENDBRANCH  10  11
ENDBRANCH   2  10
TORSDOF 6
ENDMDL
MODEL 2
REMARK VINA RESULT:    -2.679      8.484     11.131
REMARK INTER + INTRA:          -4.410
REMARK INTER:                  -3.237
REMARK INTRA:                  -1.173
REMARK UNBOUND:                -0.791
REMARK SMILES CC(=O)CCC=C(C)CCC=C(C)C
REMARK SMILES IDX 7 1 6 2 8 3 9 4 10 5 11 6 13 7 12 8 14 9 5 10 4 11 2 12 3 13
REMARK SMILES IDX 1 14
REMARK H PARENT
REMARK Flexibility Score: inf
ROOT
ATOM      1  C   UNL     1     122.869  86.532  54.816  1.00  0.00    -0.077 C 
ATOM      2  C   UNL     1     124.104  86.555  55.367  1.00  0.00    -0.028 C 
ATOM      3  C   UNL     1     122.379  85.332  54.040  1.00  0.00     0.039 C 
ENDROOT
BRANCH   1   4
ATOM      4  C   UNL     1     121.958  87.728  54.987  1.00  0.00     0.034 C 
BRANCH   4   5
ATOM      5  C   UNL     1     122.179  88.391  56.352  1.00  0.00     0.032 C 
BRANCH   5   6
ATOM      6  C   UNL     1     120.953  88.271  57.223  1.00  0.00    -0.028 C 
ATOM      7  C   UNL     1     119.529  87.267  58.960  1.00  0.00     0.039 C 
ATOM      8  C   UNL     1     120.794  87.295  58.142  1.00  0.00    -0.080 C 
ATOM      9  C   UNL     1     121.851  86.238  58.361  1.00  0.00     0.039 C 
ENDBRANCH   5   6
ENDBRANCH   4   5
ENDBRANCH   1   4
BRANCH   2  10
ATOM     10  C   UNL     1     125.081  85.411  55.248  1.00  0.00     0.035 C 
BRANCH  10  11
ATOM     11  C   UNL     1     125.125  84.583  56.537  1.00  0.00     0.079 C 
BRANCH  11  12
ATOM     12  C   UNL     1     124.338  83.310  56.379  1.00  0.00     0.130 C 
ATOM     13  O   UNL     1     124.529  82.602  55.402  1.00  0.00    -0.300 OA
ATOM     14  C   UNL     1     123.312  82.893  57.392  1.00  0.00     0.087 C 
ENDBRANCH  11  12
ENDBRANCH  10  11
ENDBRANCH   2  10
TORSDOF 6
ENDMDL
MODEL 3
REMARK VINA RESULT:    -2.677      3.250      8.427
REMARK INTER + INTRA:          -4.407
REMARK INTER:                  -3.761
REMARK INTRA:                  -0.646
REMARK UNBOUND:                -0.791
REMARK SMILES CC(=O)CCC=C(C)CCC=C(C)C
REMARK SMILES IDX 7 1 6 2 8 3 9 4 10 5 11 6 13 7 12 8 14 9 5 10 4 11 2 12 3 13
REMARK SMILES IDX 1 14
REMARK H PARENT
REMARK Flexibility Score: inf
ROOT
ATOM      1  C   UNL     1     117.205  87.643  57.847  1.00  0.00    -0.077 C 
ATOM      2  C   UNL     1     116.408  88.150  58.814  1.00  0.00    -0.028 C 
ATOM      3  C   UNL     1     116.956  87.941  56.387  1.00  0.00     0.039 C 
ENDROOT
BRANCH   1   4
ATOM      4  C   UNL     1     118.376  86.767  58.236  1.00  0.00     0.034 C 
BRANCH   4   5
ATOM      5  C   UNL     1     119.507  87.605  58.842  1.00  0.00     0.032 C 
BRANCH   5   6
ATOM      6  C   UNL     1     120.421  88.146  57.770  1.00  0.00    -0.028 C 
ATOM      7  C   UNL     1     122.408  88.163  56.320  1.00  0.00     0.039 C 
ATOM      8  C   UNL     1     121.568  87.537  57.402  1.00  0.00    -0.080 C 
ATOM      9  C   UNL     1     122.021  86.250  58.051  1.00  0.00     0.039 C 
ENDBRANCH   5   6
ENDBRANCH   4   5
ENDBRANCH   1   4
BRANCH   2  10
ATOM     10  C   UNL     1     115.218  89.032  58.522  1.00  0.00     0.035 C 
BRANCH  10  11
ATOM     11  C   UNL     1     113.935  88.450  59.125  1.00  0.00     0.079 C 
BRANCH  11  12
ATOM     12  C   UNL     1     113.051  87.881  58.048  1.00  0.00     0.130 C 
ATOM     13  O   UNL     1     113.411  87.938  56.881  1.00  0.00    -0.300 OA
ATOM     14  C   UNL     1     111.727  87.253  58.372  1.00  0.00     0.087 C 
ENDBRANCH  11  12
ENDBRANCH  10  11
ENDBRANCH   2  10
TORSDOF 6
ENDMDL
MODEL 4
REMARK VINA RESULT:    -2.606      4.947      7.044
REMARK INTER + INTRA:          -4.311
REMARK INTER:                  -3.048
REMARK INTRA:                  -1.263
REMARK UNBOUND:                -0.791
REMARK SMILES CC(=O)CCC=C(C)CCC=C(C)C
REMARK SMILES IDX 7 1 6 2 8 3 9 4 10 5 11 6 13 7 12 8 14 9 5 10 4 11 2 12 3 13
REMARK SMILES IDX 1 14
REMARK H PARENT
REMARK Flexibility Score: inf
ROOT
ATOM      1  C   UNL     1     109.157  86.824  57.970  1.00  0.00    -0.077 C 
ATOM      2  C   UNL     1     107.948  86.381  58.382  1.00  0.00    -0.028 C 
ATOM      3  C   UNL     1     110.375  85.931  58.009  1.00  0.00     0.039 C 
ENDROOT
BRANCH   1   4
ATOM      4  C   UNL     1     109.290  88.239  57.448  1.00  0.00     0.034 C 
BRANCH   4   5
ATOM      5  C   UNL     1     109.349  88.253  55.917  1.00  0.00     0.032 C 
BRANCH   5   6
ATOM      6  C   UNL     1     107.972  88.105  55.315  1.00  0.00    -0.028 C 
ATOM      7  C   UNL     1     106.159  86.936  54.133  1.00  0.00     0.039 C 
ATOM      8  C   UNL     1     107.554  86.978  54.699  1.00  0.00    -0.080 C 
ATOM      9  C   UNL     1     108.453  85.771  54.568  1.00  0.00     0.039 C 
ENDBRANCH   5   6
ENDBRANCH   4   5
ENDBRANCH   1   4
BRANCH   2  10
ATOM     10  C   UNL     1     107.719  84.988  58.917  1.00  0.00     0.035 C 
BRANCH  10  11
ATOM     11  C   UNL     1     107.143  84.067  57.836  1.00  0.00     0.079 C 
BRANCH  11  12
ATOM     12  C   UNL     1     105.645  84.200  57.766  1.00  0.00     0.130 C 
ATOM     13  O   UNL     1     104.996  84.246  58.800  1.00  0.00    -0.300 OA
ATOM     14  C   UNL     1     104.927  84.266  56.450  1.00  0.00     0.087 C 
ENDBRANCH  11  12
ENDBRANCH  10  11
ENDBRANCH   2  10
TORSDOF 6
ENDMDL
MODEL 5
REMARK VINA RESULT:    -2.575      9.194     11.969
REMARK INTER + INTRA:          -4.269
REMARK INTER:                  -2.911
REMARK INTRA:                  -1.358
REMARK UNBOUND:                -0.791
REMARK SMILES CC(=O)CCC=C(C)CCC=C(C)C
REMARK SMILES IDX 7 1 6 2 8 3 9 4 10 5 11 6 13 7 12 8 14 9 5 10 4 11 2 12 3 13
REMARK SMILES IDX 1 14
REMARK H PARENT
REMARK Flexibility Score: inf
ROOT
ATOM      1  C   UNL     1     122.675  87.079  54.993  1.00  0.00    -0.077 C 
ATOM      2  C   UNL     1     122.572  87.709  56.185  1.00  0.00    -0.028 C 
ATOM      3  C   UNL     1     121.526  86.278  54.426  1.00  0.00     0.039 C 
ENDROOT
BRANCH   1   4
ATOM      4  C   UNL     1     123.964  87.186  54.207  1.00  0.00     0.034 C 
BRANCH   4   5
ATOM      5  C   UNL     1     125.121  86.522  54.964  1.00  0.00     0.032 C 
BRANCH   5   6
ATOM      6  C   UNL     1     125.125  85.027  54.754  1.00  0.00    -0.028 C 
ATOM      7  C   UNL     1     124.988  82.670  55.441  1.00  0.00     0.039 C 
ATOM      8  C   UNL     1     124.967  84.141  55.761  1.00  0.00    -0.080 C 
ATOM      9  C   UNL     1     124.774  84.596  57.188  1.00  0.00     0.039 C 
ENDBRANCH   5   6
ENDBRANCH   4   5
ENDBRANCH   1   4
BRANCH   2  10
ATOM     10  C   UNL     1     121.328  87.659  57.038  1.00  0.00     0.035 C 
BRANCH  10  11
ATOM     11  C   UNL     1     121.468  86.628  58.163  1.00  0.00     0.079 C 
BRANCH  11  12
ATOM     12  C   UNL     1     120.564  85.449  57.922  1.00  0.00     0.130 C 
ATOM     13  O   UNL     1     119.370  85.549  58.158  1.00  0.00    -0.300 OA
ATOM     14  C   UNL     1     121.100  84.146  57.406  1.00  0.00     0.087 C 
ENDBRANCH  11  12
ENDBRANCH  10  11
ENDBRANCH   2  10
TORSDOF 6
ENDMDL
MODEL 6
REMARK VINA RESULT:    -2.572      4.908      7.946
REMARK INTER + INTRA:          -4.264
REMARK INTER:                  -3.013
REMARK INTRA:                  -1.252
REMARK UNBOUND:                -0.791
REMARK SMILES CC(=O)CCC=C(C)CCC=C(C)C
REMARK SMILES IDX 7 1 6 2 8 3 9 4 10 5 11 6 13 7 12 8 14 9 5 10 4 11 2 12 3 13
REMARK SMILES IDX 1 14
REMARK H PARENT
REMARK Flexibility Score: inf
ROOT
ATOM      1  C   UNL     1     106.805  86.134  54.456  1.00  0.00    -0.077 C 
ATOM      2  C   UNL     1     105.538  85.879  54.853  1.00  0.00    -0.028 C 
ATOM      3  C   UNL     1     107.805  85.020  54.257  1.00  0.00     0.039 C 
ENDROOT
BRANCH   1   4
ATOM      4  C   UNL     1     107.226  87.565  54.198  1.00  0.00     0.034 C 
BRANCH   4   5
ATOM      5  C   UNL     1     107.284  88.362  55.506  1.00  0.00     0.032 C 
BRANCH   5   6
ATOM      6  C   UNL     1     108.662  88.306  56.121  1.00  0.00    -0.028 C 
ATOM      7  C   UNL     1     110.350  87.626  57.775  1.00  0.00     0.039 C 
ATOM      8  C   UNL     1     108.939  87.614  57.246  1.00  0.00    -0.080 C 
ATOM      9  C   UNL     1     107.871  86.837  57.979  1.00  0.00     0.039 C 
ENDBRANCH   5   6
ENDBRANCH   4   5
ENDBRANCH   1   4
BRANCH   2  10
ATOM     10  C   UNL     1     105.027  84.487  55.134  1.00  0.00     0.035 C 
BRANCH  10  11
ATOM     11  C   UNL     1     104.875  84.246  56.640  1.00  0.00     0.079 C 
BRANCH  11  12
ATOM     12  C   UNL     1     105.673  83.045  57.071  1.00  0.00     0.130 C 
ATOM     13  O   UNL     1     105.138  81.946  57.100  1.00  0.00    -0.300 OA
ATOM     14  C   UNL     1     107.113  83.166  57.477  1.00  0.00     0.087 C 
ENDBRANCH  11  12
ENDBRANCH  10  11
ENDBRANCH   2  10
TORSDOF 6
ENDMDL
MODEL 7
REMARK VINA RESULT:    -2.538      7.596     10.343
REMARK INTER + INTRA:          -4.219
REMARK INTER:                  -2.689
REMARK INTRA:                  -1.530
REMARK UNBOUND:                -0.791
REMARK SMILES CC(=O)CCC=C(C)CCC=C(C)C
REMARK SMILES IDX 7 1 6 2 8 3 9 4 10 5 11 6 13 7 12 8 14 9 5 10 4 11 2 12 3 13
REMARK SMILES IDX 1 14
REMARK H PARENT
REMARK Flexibility Score: inf
ROOT
ATOM      1  C   UNL     1     121.575  87.512  55.739  1.00  0.00    -0.077 C 
ATOM      2  C   UNL     1     121.630  88.015  56.992  1.00  0.00    -0.028 C 
ATOM      3  C   UNL     1     120.254  87.272  55.046  1.00  0.00     0.039 C 
ENDROOT
BRANCH   1   4
ATOM      4  C   UNL     1     122.864  87.192  55.012  1.00  0.00     0.034 C 
BRANCH   4   5
ATOM      5  C   UNL     1     123.690  86.163  55.792  1.00  0.00     0.032 C 
BRANCH   5   6
ATOM      6  C   UNL     1     122.990  84.826  55.845  1.00  0.00    -0.028 C 
ATOM      7  C   UNL     1     121.955  82.882  56.940  1.00  0.00     0.039 C 
ATOM      8  C   UNL     1     122.652  84.216  57.001  1.00  0.00    -0.080 C 
ATOM      9  C   UNL     1     122.958  84.841  58.341  1.00  0.00     0.039 C 
ENDBRANCH   5   6
ENDBRANCH   4   5
ENDBRANCH   1   4
BRANCH   2  10
ATOM     10  C   UNL     1     120.399  88.363  57.795  1.00  0.00     0.035 C 
BRANCH  10  11
ATOM     11  C   UNL     1     120.119  87.305  58.868  1.00  0.00     0.079 C 
BRANCH  11  12
ATOM     12  C   UNL     1     118.928  86.466  58.490  1.00  0.00     0.130 C 
ATOM     13  O   UNL     1     117.802  86.898  58.685  1.00  0.00    -0.300 OA
ATOM     14  C   UNL     1     119.092  85.101  57.888  1.00  0.00     0.087 C 
ENDBRANCH  11  12
ENDBRANCH  10  11
ENDBRANCH   2  10
TORSDOF 6
ENDMDL
MODEL 8
REMARK VINA RESULT:    -2.537      8.653     10.378
REMARK INTER + INTRA:          -4.218
REMARK INTER:                  -3.099
REMARK INTRA:                  -1.119
REMARK UNBOUND:                -0.791
REMARK SMILES CC(=O)CCC=C(C)CCC=C(C)C
REMARK SMILES IDX 7 1 6 2 8 3 9 4 10 5 11 6 13 7 12 8 14 9 5 10 4 11 2 12 3 13
REMARK SMILES IDX 1 14
REMARK H PARENT
REMARK Flexibility Score: inf
ROOT
ATOM      1  C   UNL     1     120.836  87.843  56.311  1.00  0.00    -0.077 C 
ATOM      2  C   UNL     1     122.182  87.918  56.216  1.00  0.00    -0.028 C 
ATOM      3  C   UNL     1     119.999  87.285  55.184  1.00  0.00     0.039 C 
ENDROOT
BRANCH   1   4
ATOM      4  C   UNL     1     120.155  88.318  57.577  1.00  0.00     0.034 C 
BRANCH   4   5
ATOM      5  C   UNL     1     120.443  87.365  58.742  1.00  0.00     0.032 C 
BRANCH   5   6
ATOM      6  C   UNL     1     120.327  85.923  58.311  1.00  0.00    -0.028 C 
ATOM      7  C   UNL     1     121.096  83.606  58.015  1.00  0.00     0.039 C 
ATOM      8  C   UNL     1     121.316  85.021  58.481  1.00  0.00    -0.080 C 
ATOM      9  C   UNL     1     122.629  85.402  59.125  1.00  0.00     0.039 C 
ENDBRANCH   5   6
ENDBRANCH   4   5
ENDBRANCH   1   4
BRANCH   2  10
ATOM     10  C   UNL     1     122.948  87.470  54.995  1.00  0.00     0.035 C 
BRANCH  10  11
ATOM     11  C   UNL     1     124.269  86.798  55.385  1.00  0.00     0.079 C 
BRANCH  11  12
ATOM     12  C   UNL     1     124.057  85.336  55.677  1.00  0.00     0.130 C 
ATOM     13  O   UNL     1     123.057  84.777  55.254  1.00  0.00    -0.300 OA
ATOM     14  C   UNL     1     125.045  84.549  56.488  1.00  0.00     0.087 C 
ENDBRANCH  11  12
ENDBRANCH  10  11
ENDBRANCH   2  10
TORSDOF 6
ENDMDL
MODEL 9
REMARK VINA RESULT:    -2.515      8.788     11.687
REMARK INTER + INTRA:          -4.188
REMARK INTER:                  -2.839
REMARK INTRA:                  -1.349
REMARK UNBOUND:                -0.791
REMARK SMILES CC(=O)CCC=C(C)CCC=C(C)C
REMARK SMILES IDX 7 1 6 2 8 3 9 4 10 5 11 6 13 7 12 8 14 9 5 10 4 11 2 12 3 13
REMARK SMILES IDX 1 14
REMARK H PARENT
REMARK Flexibility Score: inf
ROOT
ATOM      1  C   UNL     1     123.708  85.395  55.181  1.00  0.00    -0.077 C 
ATOM      2  C   UNL     1     123.586  86.621  55.738  1.00  0.00    -0.028 C 
ATOM      3  C   UNL     1     122.614  84.813  54.317  1.00  0.00     0.039 C 
ENDROOT
BRANCH   1   4
ATOM      4  C   UNL     1     124.970  84.595  55.420  1.00  0.00     0.034 C 
BRANCH   4   5
ATOM      5  C   UNL     1     125.124  84.248  56.905  1.00  0.00     0.032 C 
BRANCH   5   6
ATOM      6  C   UNL     1     124.015  83.335  57.370  1.00  0.00    -0.028 C 
ATOM      7  C   UNL     1     122.079  82.681  58.738  1.00  0.00     0.039 C 
ATOM      8  C   UNL     1     123.149  83.668  58.351  1.00  0.00    -0.080 C 
ATOM      9  C   UNL     1     123.233  84.999  59.059  1.00  0.00     0.039 C 
ENDBRANCH   5   6
ENDBRANCH   4   5
ENDBRANCH   1   4
BRANCH   2  10
ATOM     10  C   UNL     1     122.365  87.491  55.557  1.00  0.00     0.035 C 
BRANCH  10  11
ATOM     11  C   UNL     1     121.951  88.147  56.879  1.00  0.00     0.079 C 
BRANCH  11  12
ATOM     12  C   UNL     1     120.745  87.460  57.460  1.00  0.00     0.130 C 
ATOM     13  O   UNL     1     120.118  88.002  58.357  1.00  0.00    -0.300 OA
ATOM     14  C   UNL     1     120.298  86.114  56.968  1.00  0.00     0.087 C 
ENDBRANCH  11  12
ENDBRANCH  10  11
ENDBRANCH   2  10
TORSDOF 6
ENDMDL
