MODEL 1
REMARK VINA RESULT:    -3.052      0.000      0.000
REMARK INTER + INTRA:          -3.402
REMARK INTER:                  -3.230
REMARK INTRA:                  -0.172
REMARK UNBOUND:                -0.172
REMARK SMILES CC(C)[C@@H]1CC[C@H](C)CC1=O
REMARK SMILES IDX 8 1 7 2 6 3 5 4 4 5 10 6 11 7 9 8 2 9 1 10 3 11
REMARK H PARENT
REMARK Flexibility Score: inf
ROOT
ATOM      1  C   UNL     1     149.494 155.663 140.483  1.00  0.00     0.008 C 
ATOM      2  C   UNL     1     148.826 155.860 139.113  1.00  0.00    -0.007 C 
ATOM      3  C   UNL     1     147.359 156.331 139.249  1.00  0.00     0.004 C 
ATOM      4  C   UNL     1     147.236 157.794 139.724  1.00  0.00     0.012 C 
ATOM      5  C   UNL     1     148.022 158.766 138.811  1.00  0.00     0.058 C 
ATOM      6  C   UNL     1     149.441 158.238 138.696  1.00  0.00     0.136 C 
ATOM      7  O   UNL     1     150.408 158.894 139.056  1.00  0.00    -0.299 OA
ATOM      8  C   UNL     1     149.633 156.826 138.225  1.00  0.00     0.079 C 
ENDROOT
BRANCH   5   9
ATOM      9  C   UNL     1     147.963 160.253 139.298  1.00  0.00    -0.007 C 
ATOM     10  C   UNL     1     147.153 161.120 138.314  1.00  0.00     0.008 C 
ATOM     11  C   UNL     1     147.343 160.396 140.699  1.00  0.00     0.008 C 
ENDBRANCH   5   9
TORSDOF 1
ENDMDL
MODEL 2
REMARK VINA RESULT:    -3.052      9.622     11.519
REMARK INTER + INTRA:          -3.402
REMARK INTER:                  -3.228
REMARK INTRA:                  -0.174
REMARK UNBOUND:                -0.172
REMARK SMILES CC(C)[C@@H]1CC[C@H](C)CC1=O
REMARK SMILES IDX 8 1 7 2 6 3 5 4 4 5 10 6 11 7 9 8 2 9 1 10 3 11
REMARK H PARENT
REMARK Flexibility Score: inf
ROOT
ATOM      1  C   UNL     1     155.689 151.770 140.490  1.00  0.00     0.008 C 
ATOM      2  C   UNL     1     155.870 152.412 139.105  1.00  0.00    -0.007 C 
ATOM      3  C   UNL     1     156.317 153.889 139.210  1.00  0.00     0.004 C 
ATOM      4  C   UNL     1     157.780 154.046 139.675  1.00  0.00     0.012 C 
ATOM      5  C   UNL     1     158.761 153.257 138.774  1.00  0.00     0.058 C 
ATOM      6  C   UNL     1     158.256 151.827 138.690  1.00  0.00     0.136 C 
ATOM      7  O   UNL     1     158.929 150.879 139.067  1.00  0.00    -0.299 OA
ATOM      8  C   UNL     1     156.845 151.603 138.230  1.00  0.00     0.079 C 
ENDROOT
BRANCH   5   9
ATOM      9  C   UNL     1     160.249 153.350 139.252  1.00  0.00    -0.007 C 
ATOM     10  C   UNL     1     161.089 154.190 138.270  1.00  0.00     0.008 C 
ATOM     11  C   UNL     1     160.385 153.962 140.658  1.00  0.00     0.008 C 
ENDBRANCH   5   9
TORSDOF 1
ENDMDL
MODEL 3
REMARK VINA RESULT:    -2.968     11.295     12.681
REMARK INTER + INTRA:          -3.313
REMARK INTER:                  -3.149
REMARK INTRA:                  -0.164
REMARK UNBOUND:                -0.172
REMARK SMILES CC(C)[C@@H]1CC[C@H](C)CC1=O
REMARK SMILES IDX 8 1 7 2 6 3 5 4 4 5 10 6 11 7 9 8 2 9 1 10 3 11
REMARK H PARENT
REMARK Flexibility Score: inf
ROOT
ATOM      1  C   UNL     1     142.116 149.132 137.966  1.00  0.00     0.008 C 
ATOM      2  C   UNL     1     141.902 147.645 138.293  1.00  0.00    -0.007 C 
ATOM      3  C   UNL     1     142.417 146.726 137.160  1.00  0.00     0.004 C 
ATOM      4  C   UNL     1     143.956 146.674 137.076  1.00  0.00     0.012 C 
ATOM      5  C   UNL     1     144.595 146.261 138.425  1.00  0.00     0.058 C 
ATOM      6  C   UNL     1     144.034 147.179 139.497  1.00  0.00     0.136 C 
ATOM      7  O   UNL     1     144.752 147.903 140.171  1.00  0.00    -0.299 OA
ATOM      8  C   UNL     1     142.542 147.266 139.641  1.00  0.00     0.079 C 
ENDROOT
BRANCH   5   9
ATOM      9  C   UNL     1     146.160 146.253 138.389  1.00  0.00    -0.007 C 
ATOM     10  C   UNL     1     146.710 144.876 138.810  1.00  0.00     0.008 C 
ATOM     11  C   UNL     1     146.726 146.602 137.001  1.00  0.00     0.008 C 
ENDBRANCH   5   9
TORSDOF 1
ENDMDL
MODEL 4
REMARK VINA RESULT:    -2.948      8.228      9.936
REMARK INTER + INTRA:          -3.293
REMARK INTER:                  -3.128
REMARK INTRA:                  -0.164
REMARK UNBOUND:                -0.172
REMARK SMILES CC(C)[C@@H]1CC[C@H](C)CC1=O
REMARK SMILES IDX 8 1 7 2 6 3 5 4 4 5 10 6 11 7 9 8 2 9 1 10 3 11
REMARK H PARENT
REMARK Flexibility Score: inf
ROOT
ATOM      1  C   UNL     1     159.247 152.106 138.069  1.00  0.00     0.008 C 
ATOM      2  C   UNL     1     159.416 153.604 138.369  1.00  0.00    -0.007 C 
ATOM      3  C   UNL     1     158.923 154.486 137.198  1.00  0.00     0.004 C 
ATOM      4  C   UNL     1     157.386 154.500 137.058  1.00  0.00     0.012 C 
ATOM      5  C   UNL     1     156.690 154.928 138.373  1.00  0.00     0.058 C 
ATOM      6  C   UNL     1     157.233 154.047 139.485  1.00  0.00     0.136 C 
ATOM      7  O   UNL     1     156.507 153.322 140.149  1.00  0.00    -0.299 OA
ATOM      8  C   UNL     1     158.720 153.998 139.685  1.00  0.00     0.079 C 
ENDROOT
BRANCH   5   9
ATOM      9  C   UNL     1     155.128 154.900 138.281  1.00  0.00    -0.007 C 
ATOM     10  C   UNL     1     154.530 156.263 138.680  1.00  0.00     0.008 C 
ATOM     11  C   UNL     1     154.621 154.538 136.874  1.00  0.00     0.008 C 
ENDBRANCH   5   9
TORSDOF 1
ENDMDL
MODEL 5
REMARK VINA RESULT:    -2.939      2.128      4.429
REMARK INTER + INTRA:          -3.282
REMARK INTER:                  -3.118
REMARK INTRA:                  -0.165
REMARK UNBOUND:                -0.172
REMARK SMILES CC(C)[C@@H]1CC[C@H](C)CC1=O
REMARK SMILES IDX 8 1 7 2 6 3 5 4 4 5 10 6 11 7 9 8 2 9 1 10 3 11
REMARK H PARENT
REMARK Flexibility Score: inf
ROOT
ATOM      1  C   UNL     1     149.178 159.245 137.999  1.00  0.00     0.008 C 
ATOM      2  C   UNL     1     147.679 159.431 138.288  1.00  0.00    -0.007 C 
ATOM      3  C   UNL     1     146.800 158.904 137.129  1.00  0.00     0.004 C 
ATOM      4  C   UNL     1     146.778 157.364 137.040  1.00  0.00     0.012 C 
ATOM      5  C   UNL     1     146.342 156.713 138.375  1.00  0.00     0.058 C 
ATOM      6  C   UNL     1     147.221 157.288 139.472  1.00  0.00     0.136 C 
ATOM      7  O   UNL     1     147.940 156.581 140.163  1.00  0.00    -0.299 OA
ATOM      8  C   UNL     1     147.277 158.780 139.624  1.00  0.00     0.079 C 
ENDROOT
BRANCH   5   9
ATOM      9  C   UNL     1     146.362 155.149 138.335  1.00  0.00    -0.007 C 
ATOM     10  C   UNL     1     144.984 154.573 138.711  1.00  0.00     0.008 C 
ATOM     11  C   UNL     1     146.763 154.595 136.956  1.00  0.00     0.008 C 
ENDBRANCH   5   9
TORSDOF 1
ENDMDL
MODEL 6
REMARK VINA RESULT:    -2.931     13.526     15.409
REMARK INTER + INTRA:          -3.274
REMARK INTER:                  -3.110
REMARK INTRA:                  -0.164
REMARK UNBOUND:                -0.172
REMARK SMILES CC(C)[C@@H]1CC[C@H](C)CC1=O
REMARK SMILES IDX 8 1 7 2 6 3 5 4 4 5 10 6 11 7 9 8 2 9 1 10 3 11
REMARK H PARENT
REMARK Flexibility Score: inf
ROOT
ATOM      1  C   UNL     1     152.088 142.081 138.003  1.00  0.00     0.008 C 
ATOM      2  C   UNL     1     153.586 141.896 138.297  1.00  0.00    -0.007 C 
ATOM      3  C   UNL     1     154.468 142.405 137.133  1.00  0.00     0.004 C 
ATOM      4  C   UNL     1     154.494 143.944 137.023  1.00  0.00     0.012 C 
ATOM      5  C   UNL     1     154.929 144.612 138.350  1.00  0.00     0.058 C 
ATOM      6  C   UNL     1     154.047 144.054 139.454  1.00  0.00     0.136 C 
ATOM      7  O   UNL     1     153.328 144.772 140.133  1.00  0.00    -0.299 OA
ATOM      8  C   UNL     1     153.987 142.564 139.625  1.00  0.00     0.079 C 
ENDROOT
BRANCH   5   9
ATOM      9  C   UNL     1     154.912 146.176 138.289  1.00  0.00    -0.007 C 
ATOM     10  C   UNL     1     156.288 146.754 138.673  1.00  0.00     0.008 C 
ATOM     11  C   UNL     1     154.527 146.712 136.899  1.00  0.00     0.008 C 
ENDBRANCH   5   9
TORSDOF 1
ENDMDL
MODEL 7
REMARK VINA RESULT:    -2.904      1.675      4.108
REMARK INTER + INTRA:          -3.245
REMARK INTER:                  -3.081
REMARK INTRA:                  -0.164
REMARK UNBOUND:                -0.172
REMARK SMILES CC(C)[C@@H]1CC[C@H](C)CC1=O
REMARK SMILES IDX 8 1 7 2 6 3 5 4 4 5 10 6 11 7 9 8 2 9 1 10 3 11
REMARK H PARENT
REMARK Flexibility Score: inf
ROOT
ATOM      1  C   UNL     1     149.861 161.072 140.130  1.00  0.00     0.008 C 
ATOM      2  C   UNL     1     148.963 160.936 138.889  1.00  0.00    -0.007 C 
ATOM      3  C   UNL     1     149.428 159.786 137.965  1.00  0.00     0.004 C 
ATOM      4  C   UNL     1     149.142 158.388 138.551  1.00  0.00     0.012 C 
ATOM      5  C   UNL     1     147.647 158.206 138.911  1.00  0.00     0.058 C 
ATOM      6  C   UNL     1     147.245 159.375 139.794  1.00  0.00     0.136 C 
ATOM      7  O   UNL     1     146.824 159.214 140.930  1.00  0.00    -0.299 OA
ATOM      8  C   UNL     1     147.483 160.765 139.278  1.00  0.00     0.079 C 
ENDROOT
BRANCH   5   9
ATOM      9  C   UNL     1     147.333 156.817 139.560  1.00  0.00    -0.007 C 
ATOM     10  C   UNL     1     146.219 156.089 138.783  1.00  0.00     0.008 C 
ATOM     11  C   UNL     1     148.566 155.898 139.623  1.00  0.00     0.008 C 
ENDBRANCH   5   9
TORSDOF 1
ENDMDL
MODEL 8
REMARK VINA RESULT:    -2.896      1.746      3.046
REMARK INTER + INTRA:          -3.237
REMARK INTER:                  -3.094
REMARK INTRA:                  -0.143
REMARK UNBOUND:                -0.172
REMARK SMILES CC(C)[C@@H]1CC[C@H](C)CC1=O
REMARK SMILES IDX 8 1 7 2 6 3 5 4 4 5 10 6 11 7 9 8 2 9 1 10 3 11
REMARK H PARENT
REMARK Flexibility Score: inf
ROOT
ATOM      1  C   UNL     1     146.446 156.601 138.310  1.00  0.00     0.008 C 
ATOM      2  C   UNL     1     147.038 156.889 139.699  1.00  0.00    -0.007 C 
ATOM      3  C   UNL     1     148.525 156.473 139.789  1.00  0.00     0.004 C 
ATOM      4  C   UNL     1     149.463 157.407 138.995  1.00  0.00     0.012 C 
ATOM      5  C   UNL     1     149.299 158.887 139.418  1.00  0.00     0.058 C 
ATOM      6  C   UNL     1     147.821 159.226 139.334  1.00  0.00     0.136 C 
ATOM      7  O   UNL     1     147.400 160.111 138.603  1.00  0.00    -0.299 OA
ATOM      8  C   UNL     1     146.855 158.366 140.095  1.00  0.00     0.079 C 
ENDROOT
BRANCH   5   9
ATOM      9  C   UNL     1     150.197 159.867 138.592  1.00  0.00    -0.007 C 
ATOM     10  C   UNL     1     150.670 161.046 139.466  1.00  0.00     0.008 C 
ATOM     11  C   UNL     1     151.435 159.178 137.991  1.00  0.00     0.008 C 
ENDBRANCH   5   9
TORSDOF 1
ENDMDL
MODEL 9
REMARK VINA RESULT:    -2.894      9.906     12.209
REMARK INTER + INTRA:          -3.235
REMARK INTER:                  -3.085
REMARK INTRA:                  -0.151
REMARK UNBOUND:                -0.172
REMARK SMILES CC(C)[C@@H]1CC[C@H](C)CC1=O
REMARK SMILES IDX 8 1 7 2 6 3 5 4 4 5 10 6 11 7 9 8 2 9 1 10 3 11
REMARK H PARENT
REMARK Flexibility Score: inf
ROOT
ATOM      1  C   UNL     1     156.584 154.826 138.319  1.00  0.00     0.008 C 
ATOM      2  C   UNL     1     156.889 154.238 139.706  1.00  0.00    -0.007 C 
ATOM      3  C   UNL     1     156.501 152.744 139.795  1.00  0.00     0.004 C 
ATOM      4  C   UNL     1     157.447 151.824 138.996  1.00  0.00     0.012 C 
ATOM      5  C   UNL     1     158.926 152.013 139.413  1.00  0.00     0.058 C 
ATOM      6  C   UNL     1     159.238 153.497 139.330  1.00  0.00     0.136 C 
ATOM      7  O   UNL     1     160.112 153.935 138.595  1.00  0.00    -0.299 OA
ATOM      8  C   UNL     1     158.364 154.447 140.096  1.00  0.00     0.079 C 
ENDROOT
BRANCH   5   9
ATOM      9  C   UNL     1     159.918 151.134 138.581  1.00  0.00    -0.007 C 
ATOM     10  C   UNL     1     161.077 150.630 139.464  1.00  0.00     0.008 C 
ATOM     11  C   UNL     1     159.235 149.918 137.931  1.00  0.00     0.008 C 
ENDBRANCH   5   9
TORSDOF 1
ENDMDL
