MODEL 1
REMARK VINA RESULT:    -6.689      0.000      0.000
REMARK INTER + INTRA:          -7.927
REMARK INTER:                  -7.863
REMARK INTRA:                  -0.064
REMARK UNBOUND:                -0.064
REMARK SMILES O=c1c(O)c(-c2ccc(O)cc2)oc2cc(O)cc(O)c12
REMARK SMILES IDX 5 1 3 2 2 3 1 4 21 5 19 6 18 7 16 8 15 9 14 10 13 11 6 12
REMARK SMILES IDX 7 13 8 14 9 15 12 16 11 17 10 18 4 20 20 22 17 24
REMARK H PARENT 10 19 4 21 20 23 17 25
REMARK Flexibility Score: inf
ROOT
ATOM      1  C   UNL     1       2.683  -8.437   6.379  1.00  0.00     0.180 A 
ATOM      2  C   UNL     1       1.878  -9.589   6.349  1.00  0.00     0.208 A 
ATOM      3  C   UNL     1       1.962 -10.451   5.244  1.00  0.00     0.238 A 
ATOM      4  O   UNL     1       1.279 -11.508   5.248  1.00  0.00    -0.285 OA
ATOM      5  C   UNL     1       2.837 -10.142   4.174  1.00  0.00     0.111 A 
ATOM      6  C   UNL     1       2.973 -10.922   2.987  1.00  0.00     0.134 A 
ATOM      7  C   UNL     1       3.963 -10.593   2.054  1.00  0.00     0.093 A 
ATOM      8  C   UNL     1       4.778  -9.475   2.232  1.00  0.00     0.123 A 
ATOM      9  C   UNL     1       4.615  -8.671   3.361  1.00  0.00     0.094 A 
ATOM     10  C   UNL     1       3.659  -8.995   4.327  1.00  0.00     0.146 A 
ATOM     11  O   UNL     1       3.542  -8.209   5.391  1.00  0.00    -0.452 OA
ENDROOT
BRANCH   1  12
ATOM     12  C   UNL     1       2.633  -7.469   7.497  1.00  0.00     0.021 A 
ATOM     13  C   UNL     1       1.427  -6.854   7.881  1.00  0.00     0.016 A 
ATOM     14  C   UNL     1       1.408  -5.924   8.925  1.00  0.00     0.047 A 
ATOM     15  C   UNL     1       2.594  -5.587   9.589  1.00  0.00     0.115 A 
ATOM     16  C   UNL     1       3.821  -7.109   8.156  1.00  0.00     0.016 A 
ATOM     17  C   UNL     1       3.799  -6.180   9.200  1.00  0.00     0.047 A 
BRANCH  15  18
ATOM     18  O   UNL     1       2.588  -4.663  10.632  1.00  0.00    -0.508 OA
ATOM     19  H   UNL     1       3.418  -4.485  11.186  1.00  0.00     0.293 HD
ENDBRANCH  15  18
ENDBRANCH   1  12
BRANCH   2  20
ATOM     20  O   UNL     1       1.037  -9.887   7.425  1.00  0.00    -0.502 OA
ATOM     21  H   UNL     1       1.324  -9.767   8.388  1.00  0.00     0.293 HD
ENDBRANCH   2  20
BRANCH   6  22
ATOM     22  O   UNL     1       2.148 -12.004   2.666  1.00  0.00    -0.507 OA
ATOM     23  H   UNL     1       2.412 -12.974   2.751  1.00  0.00     0.293 HD
ENDBRANCH   6  22
BRANCH   8  24
ATOM     24  O   UNL     1       5.743  -9.169   1.276  1.00  0.00    -0.508 OA
ATOM     25  H   UNL     1       5.951  -8.210   1.020  1.00  0.00     0.293 HD
ENDBRANCH   8  24
TORSDOF 5
ENDMDL
MODEL 2
REMARK VINA RESULT:    -6.648      1.710      7.323
REMARK INTER + INTRA:          -7.878
REMARK INTER:                  -7.771
REMARK INTRA:                  -0.106
REMARK UNBOUND:                -0.064
REMARK SMILES O=c1c(O)c(-c2ccc(O)cc2)oc2cc(O)cc(O)c12
REMARK SMILES IDX 5 1 3 2 2 3 1 4 21 5 19 6 18 7 16 8 15 9 14 10 13 11 6 12
REMARK SMILES IDX 7 13 8 14 9 15 12 16 11 17 10 18 4 20 20 22 17 24
REMARK H PARENT 10 19 4 21 20 23 17 25
REMARK Flexibility Score: inf
ROOT
ATOM      1  C   UNL     1       2.368  -8.037   6.835  1.00  0.00     0.180 A 
ATOM      2  C   UNL     1       3.572  -7.470   7.286  1.00  0.00     0.208 A 
ATOM      3  C   UNL     1       3.535  -6.534   8.331  1.00  0.00     0.238 A 
ATOM      4  O   UNL     1       4.622  -6.069   8.766  1.00  0.00    -0.285 OA
ATOM      5  C   UNL     1       2.293  -6.163   8.901  1.00  0.00     0.111 A 
ATOM      6  C   UNL     1       2.134  -5.193   9.936  1.00  0.00     0.134 A 
ATOM      7  C   UNL     1       0.874  -5.001  10.514  1.00  0.00     0.093 A 
ATOM      8  C   UNL     1      -0.245  -5.694  10.051  1.00  0.00     0.123 A 
ATOM      9  C   UNL     1      -0.111  -6.601   8.999  1.00  0.00     0.094 A 
ATOM     10  C   UNL     1       1.140  -6.840   8.427  1.00  0.00     0.146 A 
ATOM     11  O   UNL     1       1.226  -7.718   7.434  1.00  0.00    -0.452 OA
ENDROOT
BRANCH   1  12
ATOM     12  C   UNL     1       2.323  -9.012   5.722  1.00  0.00     0.021 A 
ATOM     13  C   UNL     1       2.796  -8.682   4.439  1.00  0.00     0.016 A 
ATOM     14  C   UNL     1       2.722  -9.612   3.396  1.00  0.00     0.047 A 
ATOM     15  C   UNL     1       2.163 -10.876   3.620  1.00  0.00     0.115 A 
ATOM     16  C   UNL     1       1.746 -10.276   5.931  1.00  0.00     0.016 A 
ATOM     17  C   UNL     1       1.674 -11.204   4.888  1.00  0.00     0.047 A 
BRANCH  15  18
ATOM     18  O   UNL     1       2.084 -11.811   2.590  1.00  0.00    -0.508 OA
ATOM     19  H   UNL     1       2.821 -12.490   2.435  1.00  0.00     0.293 HD
ENDBRANCH  15  18
ENDBRANCH   1  12
BRANCH   2  20
ATOM     20  O   UNL     1       4.790  -7.866   6.724  1.00  0.00    -0.502 OA
ATOM     21  H   UNL     1       4.891  -8.724   6.197  1.00  0.00     0.293 HD
ENDBRANCH   2  20
BRANCH   6  22
ATOM     22  O   UNL     1       3.168  -4.380  10.409  1.00  0.00    -0.507 OA
ATOM     23  H   UNL     1       3.038  -3.487  10.859  1.00  0.00     0.293 HD
ENDBRANCH   6  22
BRANCH   8  24
ATOM     24  O   UNL     1      -1.486  -5.466  10.640  1.00  0.00    -0.508 OA
ATOM     25  H   UNL     1      -2.036  -6.225  11.027  1.00  0.00     0.293 HD
ENDBRANCH   8  24
TORSDOF 5
ENDMDL
MODEL 3
REMARK VINA RESULT:    -5.891     10.905     13.101
REMARK INTER + INTRA:          -6.988
REMARK INTER:                  -6.722
REMARK INTRA:                  -0.266
REMARK UNBOUND:                -0.064
REMARK SMILES O=c1c(O)c(-c2ccc(O)cc2)oc2cc(O)cc(O)c12
REMARK SMILES IDX 5 1 3 2 2 3 1 4 21 5 19 6 18 7 16 8 15 9 14 10 13 11 6 12
REMARK SMILES IDX 7 13 8 14 9 15 12 16 11 17 10 18 4 20 20 22 17 24
REMARK H PARENT 10 19 4 21 20 23 17 25
REMARK Flexibility Score: inf
ROOT
ATOM      1  C   UNL     1      -1.398   1.682  10.540  1.00  0.00     0.180 A 
ATOM      2  C   UNL     1      -0.523   0.672  10.105  1.00  0.00     0.208 A 
ATOM      3  C   UNL     1       0.739   1.032   9.606  1.00  0.00     0.238 A 
ATOM      4  O   UNL     1       1.539   0.120   9.268  1.00  0.00    -0.285 OA
ATOM      5  C   UNL     1       1.104   2.398   9.532  1.00  0.00     0.111 A 
ATOM      6  C   UNL     1       2.340   2.879   9.006  1.00  0.00     0.134 A 
ATOM      7  C   UNL     1       2.648   4.242   9.102  1.00  0.00     0.093 A 
ATOM      8  C   UNL     1       1.739   5.149   9.645  1.00  0.00     0.123 A 
ATOM      9  C   UNL     1       0.502   4.698  10.109  1.00  0.00     0.094 A 
ATOM     10  C   UNL     1       0.182   3.340  10.059  1.00  0.00     0.146 A 
ATOM     11  O   UNL     1      -1.001   2.950  10.520  1.00  0.00    -0.452 OA
ENDROOT
BRANCH   1  12
ATOM     12  C   UNL     1      -2.753   1.383  11.056  1.00  0.00     0.021 A 
ATOM     13  C   UNL     1      -3.008   1.292  12.436  1.00  0.00     0.016 A 
ATOM     14  C   UNL     1      -4.292   0.985  12.900  1.00  0.00     0.047 A 
ATOM     15  C   UNL     1      -5.331   0.751  11.991  1.00  0.00     0.115 A 
ATOM     16  C   UNL     1      -3.798   1.127  10.151  1.00  0.00     0.016 A 
ATOM     17  C   UNL     1      -5.079   0.820  10.617  1.00  0.00     0.047 A 
BRANCH  15  18
ATOM     18  O   UNL     1      -6.614   0.445  12.440  1.00  0.00    -0.508 OA
ATOM     19  H   UNL     1      -6.765  -0.047  13.314  1.00  0.00     0.293 HD
ENDBRANCH  15  18
ENDBRANCH   1  12
BRANCH   2  20
ATOM     20  O   UNL     1      -0.894  -0.672  10.207  1.00  0.00    -0.502 OA
ATOM     21  H   UNL     1      -0.798  -1.199  11.066  1.00  0.00     0.293 HD
ENDBRANCH   2  20
BRANCH   6  22
ATOM     22  O   UNL     1       3.280   2.072   8.359  1.00  0.00    -0.507 OA
ATOM     23  H   UNL     1       4.176   1.812   8.741  1.00  0.00     0.293 HD
ENDBRANCH   6  22
BRANCH   8  24
ATOM     24  O   UNL     1       2.073   6.500   9.712  1.00  0.00    -0.508 OA
ATOM     25  H   UNL     1       1.406   7.223   9.465  1.00  0.00     0.293 HD
ENDBRANCH   8  24
TORSDOF 5
ENDMDL
MODEL 4
REMARK VINA RESULT:    -5.824      1.389      2.784
REMARK INTER + INTRA:          -6.909
REMARK INTER:                  -7.343
REMARK INTRA:                   0.434
REMARK UNBOUND:                -0.064
REMARK SMILES O=c1c(O)c(-c2ccc(O)cc2)oc2cc(O)cc(O)c12
REMARK SMILES IDX 5 1 3 2 2 3 1 4 21 5 19 6 18 7 16 8 15 9 14 10 13 11 6 12
REMARK SMILES IDX 7 13 8 14 9 15 12 16 11 17 10 18 4 20 20 22 17 24
REMARK H PARENT 10 19 4 21 20 23 17 25
REMARK Flexibility Score: inf
ROOT
ATOM      1  C   UNL     1       2.827  -8.037   6.438  1.00  0.00     0.180 A 
ATOM      2  C   UNL     1       4.121  -8.015   5.889  1.00  0.00     0.208 A 
ATOM      3  C   UNL     1       4.395  -8.800   4.759  1.00  0.00     0.238 A 
ATOM      4  O   UNL     1       5.541  -8.735   4.240  1.00  0.00    -0.285 OA
ATOM      5  C   UNL     1       3.378  -9.611   4.201  1.00  0.00     0.111 A 
ATOM      6  C   UNL     1       3.556 -10.478   3.080  1.00  0.00     0.134 A 
ATOM      7  C   UNL     1       2.447 -11.135   2.533  1.00  0.00     0.093 A 
ATOM      8  C   UNL     1       1.180 -11.008   3.103  1.00  0.00     0.123 A 
ATOM      9  C   UNL     1       1.006 -10.209   4.235  1.00  0.00     0.094 A 
ATOM     10  C   UNL     1       2.087  -9.514   4.781  1.00  0.00     0.146 A 
ATOM     11  O   UNL     1       1.877  -8.757   5.852  1.00  0.00    -0.452 OA
ENDROOT
BRANCH   1  12
ATOM     12  C   UNL     1       2.468  -7.255   7.643  1.00  0.00     0.021 A 
ATOM     13  C   UNL     1       1.139  -6.870   7.897  1.00  0.00     0.016 A 
ATOM     14  C   UNL     1       0.827  -6.111   9.030  1.00  0.00     0.047 A 
ATOM     15  C   UNL     1       1.839  -5.716   9.914  1.00  0.00     0.115 A 
ATOM     16  C   UNL     1       3.480  -6.838   8.525  1.00  0.00     0.016 A 
ATOM     17  C   UNL     1       3.165  -6.080   9.656  1.00  0.00     0.047 A 
BRANCH  15  18
ATOM     18  O   UNL     1       1.541  -4.961  11.046  1.00  0.00    -0.508 OA
ATOM     19  H   UNL     1       2.199  -4.287  11.420  1.00  0.00     0.293 HD
ENDBRANCH  15  18
ENDBRANCH   1  12
BRANCH   2  20
ATOM     20  O   UNL     1       5.105  -7.190   6.442  1.00  0.00    -0.502 OA
ATOM     21  H   UNL     1       5.591  -6.485   5.902  1.00  0.00     0.293 HD
ENDBRANCH   2  20
BRANCH   6  22
ATOM     22  O   UNL     1       4.794 -10.748   2.492  1.00  0.00    -0.507 OA
ATOM     23  H   UNL     1       5.133 -10.321   1.643  1.00  0.00     0.293 HD
ENDBRANCH   6  22
BRANCH   8  24
ATOM     24  O   UNL     1       0.103 -11.688   2.541  1.00  0.00    -0.508 OA
ATOM     25  H   UNL     1      -0.767 -11.813   3.046  1.00  0.00     0.293 HD
ENDBRANCH   8  24
TORSDOF 5
ENDMDL
MODEL 5
REMARK VINA RESULT:    -5.801     11.189     13.203
REMARK INTER + INTRA:          -6.883
REMARK INTER:                  -6.628
REMARK INTRA:                  -0.255
REMARK UNBOUND:                -0.064
REMARK SMILES O=c1c(O)c(-c2ccc(O)cc2)oc2cc(O)cc(O)c12
REMARK SMILES IDX 5 1 3 2 2 3 1 4 21 5 19 6 18 7 16 8 15 9 14 10 13 11 6 12
REMARK SMILES IDX 7 13 8 14 9 15 12 16 11 17 10 18 4 20 20 22 17 24
REMARK H PARENT 10 19 4 21 20 23 17 25
REMARK Flexibility Score: inf
ROOT
ATOM      1  C   UNL     1      -3.298  -0.250  11.635  1.00  0.00     0.180 A 
ATOM      2  C   UNL     1      -4.111   0.845  11.975  1.00  0.00     0.208 A 
ATOM      3  C   UNL     1      -3.608   2.145  11.811  1.00  0.00     0.238 A 
ATOM      4  O   UNL     1      -4.361   3.122  12.067  1.00  0.00    -0.285 OA
ATOM      5  C   UNL     1      -2.291   2.335  11.327  1.00  0.00     0.111 A 
ATOM      6  C   UNL     1      -1.665   3.607  11.161  1.00  0.00     0.134 A 
ATOM      7  C   UNL     1      -0.407   3.682  10.551  1.00  0.00     0.093 A 
ATOM      8  C   UNL     1       0.275   2.529  10.161  1.00  0.00     0.123 A 
ATOM      9  C   UNL     1      -0.303   1.277  10.373  1.00  0.00     0.094 A 
ATOM     10  C   UNL     1      -1.572   1.172  10.946  1.00  0.00     0.146 A 
ATOM     11  O   UNL     1      -2.091  -0.038  11.121  1.00  0.00    -0.452 OA
ENDROOT
BRANCH   1  12
ATOM     12  C   UNL     1      -3.749  -1.650  11.802  1.00  0.00     0.021 A 
ATOM     13  C   UNL     1      -4.619  -2.255  10.876  1.00  0.00     0.016 A 
ATOM     14  C   UNL     1      -5.051  -3.571  11.067  1.00  0.00     0.047 A 
ATOM     15  C   UNL     1      -4.631  -4.294  12.191  1.00  0.00     0.115 A 
ATOM     16  C   UNL     1      -3.350  -2.376  12.937  1.00  0.00     0.016 A 
ATOM     17  C   UNL     1      -3.783  -3.691  13.125  1.00  0.00     0.047 A 
BRANCH  15  18
ATOM     18  O   UNL     1      -5.054  -5.606  12.392  1.00  0.00    -0.508 OA
ATOM     19  H   UNL     1      -5.097  -6.011  13.320  1.00  0.00     0.293 HD
ENDBRANCH  15  18
ENDBRANCH   1  12
BRANCH   2  20
ATOM     20  O   UNL     1      -5.417   0.636  12.431  1.00  0.00    -0.502 OA
ATOM     21  H   UNL     1      -6.207   0.567  11.802  1.00  0.00     0.293 HD
ENDBRANCH   2  20
BRANCH   6  22
ATOM     22  O   UNL     1      -2.218   4.812  11.600  1.00  0.00    -0.507 OA
ATOM     23  H   UNL     1      -2.431   5.599  11.006  1.00  0.00     0.293 HD
ENDBRANCH   6  22
BRANCH   8  24
ATOM     24  O   UNL     1       1.532   2.641   9.571  1.00  0.00    -0.508 OA
ATOM     25  H   UNL     1       2.153   3.413   9.789  1.00  0.00     0.293 HD
ENDBRANCH   8  24
TORSDOF 5
ENDMDL
MODEL 6
REMARK VINA RESULT:    -5.798     11.156     12.575
REMARK INTER + INTRA:          -6.879
REMARK INTER:                  -6.718
REMARK INTRA:                  -0.161
REMARK UNBOUND:                -0.064
REMARK SMILES O=c1c(O)c(-c2ccc(O)cc2)oc2cc(O)cc(O)c12
REMARK SMILES IDX 5 1 3 2 2 3 1 4 21 5 19 6 18 7 16 8 15 9 14 10 13 11 6 12
REMARK SMILES IDX 7 13 8 14 9 15 12 16 11 17 10 18 4 20 20 22 17 24
REMARK H PARENT 10 19 4 21 20 23 17 25
REMARK Flexibility Score: inf
ROOT
ATOM      1  C   UNL     1      -3.338  -0.043  10.751  1.00  0.00     0.180 A 
ATOM      2  C   UNL     1      -4.595   0.415  10.319  1.00  0.00     0.208 A 
ATOM      3  C   UNL     1      -5.712  -0.421  10.469  1.00  0.00     0.238 A 
ATOM      4  O   UNL     1      -6.844   0.015  10.129  1.00  0.00    -0.285 OA
ATOM      5  C   UNL     1      -5.557  -1.711  11.031  1.00  0.00     0.111 A 
ATOM      6  C   UNL     1      -6.614  -2.658  11.192  1.00  0.00     0.134 A 
ATOM      7  C   UNL     1      -6.371  -3.853  11.880  1.00  0.00     0.093 A 
ATOM      8  C   UNL     1      -5.098  -4.165  12.356  1.00  0.00     0.123 A 
ATOM      9  C   UNL     1      -4.044  -3.273  12.152  1.00  0.00     0.094 A 
ATOM     10  C   UNL     1      -4.263  -2.057  11.501  1.00  0.00     0.146 A 
ATOM     11  O   UNL     1      -3.236  -1.231  11.336  1.00  0.00    -0.452 OA
ENDROOT
BRANCH   1  12
ATOM     12  C   UNL     1      -2.110   0.771  10.606  1.00  0.00     0.021 A 
ATOM     13  C   UNL     1      -1.925   1.957  11.340  1.00  0.00     0.016 A 
ATOM     14  C   UNL     1      -0.767   2.722  11.169  1.00  0.00     0.047 A 
ATOM     15  C   UNL     1       0.213   2.320  10.252  1.00  0.00     0.115 A 
ATOM     16  C   UNL     1      -1.130   0.386   9.674  1.00  0.00     0.016 A 
ATOM     17  C   UNL     1       0.026   1.153   9.505  1.00  0.00     0.047 A 
BRANCH  15  18
ATOM     18  O   UNL     1       1.371   3.074  10.073  1.00  0.00    -0.508 OA
ATOM     19  H   UNL     1       1.809   3.562  10.846  1.00  0.00     0.293 HD
ENDBRANCH  15  18
ENDBRANCH   1  12
BRANCH   2  20
ATOM     20  O   UNL     1      -4.730   1.700   9.787  1.00  0.00    -0.502 OA
ATOM     21  H   UNL     1      -4.691   1.883   8.792  1.00  0.00     0.293 HD
ENDBRANCH   2  20
BRANCH   6  22
ATOM     22  O   UNL     1      -7.900  -2.486  10.674  1.00  0.00    -0.507 OA
ATOM     23  H   UNL     1      -8.742  -2.437  11.228  1.00  0.00     0.293 HD
ENDBRANCH   6  22
BRANCH   8  24
ATOM     24  O   UNL     1      -4.890  -5.369  13.023  1.00  0.00    -0.508 OA
ATOM     25  H   UNL     1      -5.454  -6.189  12.826  1.00  0.00     0.293 HD
ENDBRANCH   8  24
TORSDOF 5
ENDMDL
MODEL 7
REMARK VINA RESULT:    -5.730     13.633     15.586
REMARK INTER + INTRA:          -6.799
REMARK INTER:                  -6.501
REMARK INTRA:                  -0.298
REMARK UNBOUND:                -0.064
REMARK SMILES O=c1c(O)c(-c2ccc(O)cc2)oc2cc(O)cc(O)c12
REMARK SMILES IDX 5 1 3 2 2 3 1 4 21 5 19 6 18 7 16 8 15 9 14 10 13 11 6 12
REMARK SMILES IDX 7 13 8 14 9 15 12 16 11 17 10 18 4 20 20 22 17 24
REMARK H PARENT 10 19 4 21 20 23 17 25
REMARK Flexibility Score: inf
ROOT
ATOM      1  C   UNL     1     -10.464 -10.387   1.953  1.00  0.00     0.180 A 
ATOM      2  C   UNL     1     -10.345  -9.060   2.402  1.00  0.00     0.208 A 
ATOM      3  C   UNL     1     -10.591  -8.773   3.754  1.00  0.00     0.238 A 
ATOM      4  O   UNL     1     -10.431  -7.592   4.161  1.00  0.00    -0.285 OA
ATOM      5  C   UNL     1     -10.970  -9.813   4.637  1.00  0.00     0.111 A 
ATOM      6  C   UNL     1     -11.284  -9.630   6.017  1.00  0.00     0.134 A 
ATOM      7  C   UNL     1     -11.520 -10.748   6.827  1.00  0.00     0.093 A 
ATOM      8  C   UNL     1     -11.517 -12.037   6.292  1.00  0.00     0.123 A 
ATOM      9  C   UNL     1     -11.270 -12.223   4.932  1.00  0.00     0.094 A 
ATOM     10  C   UNL     1     -10.997 -11.129   4.107  1.00  0.00     0.146 A 
ATOM     11  O   UNL     1     -10.757 -11.350   2.820  1.00  0.00    -0.452 OA
ENDROOT
BRANCH   1  12
ATOM     12  C   UNL     1     -10.244 -10.763   0.539  1.00  0.00     0.021 A 
ATOM     13  C   UNL     1     -11.283 -10.699  -0.407  1.00  0.00     0.016 A 
ATOM     14  C   UNL     1     -11.058 -11.083  -1.733  1.00  0.00     0.047 A 
ATOM     15  C   UNL     1      -9.797 -11.548  -2.127  1.00  0.00     0.115 A 
ATOM     16  C   UNL     1      -8.987 -11.250   0.139  1.00  0.00     0.016 A 
ATOM     17  C   UNL     1      -8.765 -11.633  -1.187  1.00  0.00     0.047 A 
BRANCH  15  18
ATOM     18  O   UNL     1      -9.560 -11.932  -3.445  1.00  0.00    -0.508 OA
ATOM     19  H   UNL     1      -9.529 -11.253  -4.196  1.00  0.00     0.293 HD
ENDBRANCH  15  18
ENDBRANCH   1  12
BRANCH   2  20
ATOM     20  O   UNL     1      -9.948  -8.052   1.519  1.00  0.00    -0.502 OA
ATOM     21  H   UNL     1      -9.211  -7.394   1.740  1.00  0.00     0.293 HD
ENDBRANCH   2  20
BRANCH   6  22
ATOM     22  O   UNL     1     -11.404  -8.380   6.631  1.00  0.00    -0.507 OA
ATOM     23  H   UNL     1     -12.165  -8.104   7.233  1.00  0.00     0.293 HD
ENDBRANCH   6  22
BRANCH   8  24
ATOM     24  O   UNL     1     -11.770 -13.125   7.124  1.00  0.00    -0.508 OA
ATOM     25  H   UNL     1     -11.913 -13.008   8.121  1.00  0.00     0.293 HD
ENDBRANCH   8  24
TORSDOF 5
ENDMDL
MODEL 8
REMARK VINA RESULT:    -5.367      9.279     12.027
REMARK INTER + INTRA:          -6.373
REMARK INTER:                  -6.108
REMARK INTRA:                  -0.264
REMARK UNBOUND:                -0.064
REMARK SMILES O=c1c(O)c(-c2ccc(O)cc2)oc2cc(O)cc(O)c12
REMARK SMILES IDX 5 1 3 2 2 3 1 4 21 5 19 6 18 7 16 8 15 9 14 10 13 11 6 12
REMARK SMILES IDX 7 13 8 14 9 15 12 16 11 17 10 18 4 20 20 22 17 24
REMARK H PARENT 10 19 4 21 20 23 17 25
REMARK Flexibility Score: inf
ROOT
ATOM      1  C   UNL     1      -2.131   0.363  10.738  1.00  0.00     0.180 A 
ATOM      2  C   UNL     1      -2.041   1.764  10.675  1.00  0.00     0.208 A 
ATOM      3  C   UNL     1      -0.870   2.349  10.168  1.00  0.00     0.238 A 
ATOM      4  O   UNL     1      -0.816   3.603  10.064  1.00  0.00    -0.285 OA
ATOM      5  C   UNL     1       0.203   1.527   9.746  1.00  0.00     0.111 A 
ATOM      6  C   UNL     1       1.451   2.013   9.254  1.00  0.00     0.134 A 
ATOM      7  C   UNL     1       2.391   1.110   8.743  1.00  0.00     0.093 A 
ATOM      8  C   UNL     1       2.155  -0.265   8.765  1.00  0.00     0.123 A 
ATOM      9  C   UNL     1       0.962  -0.755   9.299  1.00  0.00     0.094 A 
ATOM     10  C   UNL     1      -0.009   0.124   9.783  1.00  0.00     0.146 A 
ATOM     11  O   UNL     1      -1.135  -0.382  10.273  1.00  0.00    -0.452 OA
ENDROOT
BRANCH   1  12
ATOM     12  C   UNL     1      -3.323  -0.327  11.282  1.00  0.00     0.021 A 
ATOM     13  C   UNL     1      -3.335  -0.847  12.589  1.00  0.00     0.016 A 
ATOM     14  C   UNL     1      -4.464  -1.516  13.074  1.00  0.00     0.047 A 
ATOM     15  C   UNL     1      -5.588  -1.685  12.255  1.00  0.00     0.115 A 
ATOM     16  C   UNL     1      -4.447  -0.519  10.461  1.00  0.00     0.016 A 
ATOM     17  C   UNL     1      -5.574  -1.187  10.948  1.00  0.00     0.047 A 
BRANCH  15  18
ATOM     18  O   UNL     1      -6.719  -2.348  12.726  1.00  0.00    -0.508 OA
ATOM     19  H   UNL     1      -6.855  -2.522  13.715  1.00  0.00     0.293 HD
ENDBRANCH  15  18
ENDBRANCH   1  12
BRANCH   2  20
ATOM     20  O   UNL     1      -3.120   2.557  11.076  1.00  0.00    -0.502 OA
ATOM     21  H   UNL     1      -3.945   2.170  11.516  1.00  0.00     0.293 HD
ENDBRANCH   2  20
BRANCH   6  22
ATOM     22  O   UNL     1       1.826   3.359   9.271  1.00  0.00    -0.507 OA
ATOM     23  H   UNL     1       2.701   3.709   9.631  1.00  0.00     0.293 HD
ENDBRANCH   6  22
BRANCH   8  24
ATOM     24  O   UNL     1       3.119  -1.136   8.262  1.00  0.00    -0.508 OA
ATOM     25  H   UNL     1       2.867  -1.921   7.671  1.00  0.00     0.293 HD
ENDBRANCH   8  24
TORSDOF 5
ENDMDL
MODEL 9
REMARK VINA RESULT:    -5.320     10.932     12.964
REMARK INTER + INTRA:          -6.318
REMARK INTER:                  -6.027
REMARK INTRA:                  -0.290
REMARK UNBOUND:                -0.064
REMARK SMILES O=c1c(O)c(-c2ccc(O)cc2)oc2cc(O)cc(O)c12
REMARK SMILES IDX 5 1 3 2 2 3 1 4 21 5 19 6 18 7 16 8 15 9 14 10 13 11 6 12
REMARK SMILES IDX 7 13 8 14 9 15 12 16 11 17 10 18 4 20 20 22 17 24
REMARK H PARENT 10 19 4 21 20 23 17 25
REMARK Flexibility Score: inf
ROOT
ATOM      1  C   UNL     1      -5.038  -2.493  11.917  1.00  0.00     0.180 A 
ATOM      2  C   UNL     1      -4.593  -3.786  11.592  1.00  0.00     0.208 A 
ATOM      3  C   UNL     1      -5.508  -4.849  11.621  1.00  0.00     0.238 A 
ATOM      4  O   UNL     1      -5.116  -5.996  11.277  1.00  0.00    -0.285 OA
ATOM      5  C   UNL     1      -6.854  -4.611  11.992  1.00  0.00     0.111 A 
ATOM      6  C   UNL     1      -7.857  -5.621  12.095  1.00  0.00     0.134 A 
ATOM      7  C   UNL     1      -9.185  -5.252  12.343  1.00  0.00     0.093 A 
ATOM      8  C   UNL     1      -9.535  -3.919  12.556  1.00  0.00     0.123 A 
ATOM      9  C   UNL     1      -8.551  -2.929  12.516  1.00  0.00     0.094 A 
ATOM     10  C   UNL     1      -7.224  -3.263  12.235  1.00  0.00     0.146 A 
ATOM     11  O   UNL     1      -6.321  -2.290  12.196  1.00  0.00    -0.452 OA
ENDROOT
BRANCH   1  12
ATOM     12  C   UNL     1      -4.127  -1.326  11.932  1.00  0.00     0.021 A 
ATOM     13  C   UNL     1      -3.489  -0.910  13.115  1.00  0.00     0.016 A 
ATOM     14  C   UNL     1      -2.652   0.211  13.110  1.00  0.00     0.047 A 
ATOM     15  C   UNL     1      -2.453   0.936  11.928  1.00  0.00     0.115 A 
ATOM     16  C   UNL     1      -3.938  -0.580  10.756  1.00  0.00     0.016 A 
ATOM     17  C   UNL     1      -3.100   0.538  10.754  1.00  0.00     0.047 A 
BRANCH  15  18
ATOM     18  O   UNL     1      -1.620   2.052  11.911  1.00  0.00    -0.508 OA
ATOM     19  H   UNL     1      -1.993   2.988  11.799  1.00  0.00     0.293 HD
ENDBRANCH  15  18
ENDBRANCH   1  12
BRANCH   2  20
ATOM     20  O   UNL     1      -3.265  -3.997  11.207  1.00  0.00    -0.502 OA
ATOM     21  H   UNL     1      -2.623  -4.556  11.754  1.00  0.00     0.293 HD
ENDBRANCH   2  20
BRANCH   6  22
ATOM     22  O   UNL     1      -7.599  -6.990  11.992  1.00  0.00    -0.507 OA
ATOM     23  H   UNL     1      -8.218  -7.719  12.314  1.00  0.00     0.293 HD
ENDBRANCH   6  22
BRANCH   8  24
ATOM     24  O   UNL     1     -10.863  -3.590  12.815  1.00  0.00    -0.508 OA
ATOM     25  H   UNL     1     -11.584  -4.300  12.871  1.00  0.00     0.293 HD
ENDBRANCH   8  24
TORSDOF 5
ENDMDL
