MODEL 1
REMARK VINA RESULT:    -6.674      0.000      0.000
REMARK INTER + INTRA:          -8.444
REMARK INTER:                  -8.040
REMARK INTRA:                  -0.404
REMARK UNBOUND:                -0.404
REMARK SMILES O=c1c(O)c(-c2ccc(O)cc2O)oc2cc(O)cc(O)c12
REMARK SMILES IDX 5 1 3 2 2 3 1 4 22 5 20 6 19 7 17 8 16 9 15 10 14 11 6 12
REMARK SMILES IDX 8 13 7 14 9 15 11 16 12 17 10 18 13 20 4 22 21 24 18 26
REMARK H PARENT 10 19 13 21 4 23 21 25 18 27
REMARK Flexibility Score: inf
ROOT
ATOM      1  C   UNL     1      51.903  31.218  48.908  1.00  0.00     0.184 A 
ATOM      2  C   UNL     1      52.303  32.300  48.109  1.00  0.00     0.208 A 
ATOM      3  C   UNL     1      53.464  33.008  48.454  1.00  0.00     0.238 A 
ATOM      4  O   UNL     1      53.775  34.023  47.777  1.00  0.00    -0.285 OA
ATOM      5  C   UNL     1      54.241  32.591  49.562  1.00  0.00     0.111 A 
ATOM      6  C   UNL     1      55.460  33.207  49.977  1.00  0.00     0.134 A 
ATOM      7  C   UNL     1      56.088  32.773  51.152  1.00  0.00     0.093 A 
ATOM      8  C   UNL     1      55.578  31.707  51.890  1.00  0.00     0.123 A 
ATOM      9  C   UNL     1      54.417  31.061  51.463  1.00  0.00     0.094 A 
ATOM     10  C   UNL     1      53.747  31.494  50.318  1.00  0.00     0.146 A 
ATOM     11  O   UNL     1      52.634  30.866  49.959  1.00  0.00    -0.451 OA
ENDROOT
BRANCH   1  12
ATOM     12  C   UNL     1      50.688  30.435  48.604  1.00  0.00     0.063 A 
ATOM     13  C   UNL     1      48.298  30.108  48.911  1.00  0.00     0.047 A 
ATOM     14  C   UNL     1      49.468  30.822  49.182  1.00  0.00     0.020 A 
ATOM     15  C   UNL     1      48.329  29.008  48.051  1.00  0.00     0.119 A 
ATOM     16  C   UNL     1      49.537  28.628  47.451  1.00  0.00     0.093 A 
ATOM     17  C   UNL     1      50.715  29.343  47.713  1.00  0.00     0.130 A 
BRANCH  15  18
ATOM     18  O   UNL     1      47.155  28.303  47.793  1.00  0.00    -0.508 OA
ATOM     19  H   UNL     1      47.102  27.617  47.050  1.00  0.00     0.293 HD
ENDBRANCH  15  18
BRANCH  17  20
ATOM     20  O   UNL     1      51.901  28.985  47.072  1.00  0.00    -0.507 OA
ATOM     21  H   UNL     1      52.802  29.092  47.522  1.00  0.00     0.293 HD
ENDBRANCH  17  20
ENDBRANCH   1  12
BRANCH   2  22
ATOM     22  O   UNL     1      51.557  32.647  46.979  1.00  0.00    -0.502 OA
ATOM     23  H   UNL     1      51.965  32.696  46.053  1.00  0.00     0.293 HD
ENDBRANCH   2  22
BRANCH   6  24
ATOM     24  O   UNL     1      56.107  34.223  49.267  1.00  0.00    -0.507 OA
ATOM     25  H   UNL     1      55.665  34.826  48.591  1.00  0.00     0.293 HD
ENDBRANCH   6  24
BRANCH   8  26
ATOM     26  O   UNL     1      56.238  31.291  53.044  1.00  0.00    -0.508 OA
ATOM     27  H   UNL     1      57.244  31.173  53.067  1.00  0.00     0.293 HD
ENDBRANCH   8  26
TORSDOF 6
ENDMDL
MODEL 2
REMARK VINA RESULT:    -6.376      1.714      6.925
REMARK INTER + INTRA:          -8.085
REMARK INTER:                  -8.113
REMARK INTRA:                   0.027
REMARK UNBOUND:                -0.404
REMARK SMILES O=c1c(O)c(-c2ccc(O)cc2O)oc2cc(O)cc(O)c12
REMARK SMILES IDX 5 1 3 2 2 3 1 4 22 5 20 6 19 7 17 8 16 9 15 10 14 11 6 12
REMARK SMILES IDX 8 13 7 14 9 15 11 16 12 17 10 18 13 20 4 22 21 24 18 26
REMARK H PARENT 10 19 13 21 4 23 21 25 18 27
REMARK Flexibility Score: inf
ROOT
ATOM      1  C   UNL     1      52.727  31.066  49.521  1.00  0.00     0.184 A 
ATOM      2  C   UNL     1      52.466  29.696  49.674  1.00  0.00     0.208 A 
ATOM      3  C   UNL     1      51.383  29.128  48.986  1.00  0.00     0.238 A 
ATOM      4  O   UNL     1      51.110  27.916  49.186  1.00  0.00    -0.285 OA
ATOM      5  C   UNL     1      50.607  29.928  48.111  1.00  0.00     0.111 A 
ATOM      6  C   UNL     1      49.513  29.450  47.329  1.00  0.00     0.134 A 
ATOM      7  C   UNL     1      48.752  30.356  46.579  1.00  0.00     0.093 A 
ATOM      8  C   UNL     1      49.083  31.708  46.531  1.00  0.00     0.123 A 
ATOM      9  C   UNL     1      50.185  32.178  47.248  1.00  0.00     0.094 A 
ATOM     10  C   UNL     1      50.940  31.307  48.036  1.00  0.00     0.146 A 
ATOM     11  O   UNL     1      51.966  31.799  48.719  1.00  0.00    -0.451 OA
ENDROOT
BRANCH   1  12
ATOM     12  C   UNL     1      53.847  31.726  50.222  1.00  0.00     0.063 A 
ATOM     13  C   UNL     1      55.225  31.919  52.217  1.00  0.00     0.047 A 
ATOM     14  C   UNL     1      54.167  31.320  51.528  1.00  0.00     0.020 A 
ATOM     15  C   UNL     1      55.984  32.921  51.608  1.00  0.00     0.119 A 
ATOM     16  C   UNL     1      55.688  33.317  50.297  1.00  0.00     0.093 A 
ATOM     17  C   UNL     1      54.632  32.716  49.596  1.00  0.00     0.130 A 
BRANCH  15  18
ATOM     18  O   UNL     1      57.032  33.511  52.309  1.00  0.00    -0.508 OA
ATOM     19  H   UNL     1      56.899  33.899  53.235  1.00  0.00     0.293 HD
ENDBRANCH  15  18
BRANCH  17  20
ATOM     20  O   UNL     1      54.378  33.086  48.275  1.00  0.00    -0.507 OA
ATOM     21  H   UNL     1      53.960  33.979  48.042  1.00  0.00     0.293 HD
ENDBRANCH  17  20
ENDBRANCH   1  12
BRANCH   2  22
ATOM     22  O   UNL     1      53.290  28.914  50.488  1.00  0.00    -0.502 OA
ATOM     23  H   UNL     1      53.176  28.868  51.494  1.00  0.00     0.293 HD
ENDBRANCH   2  22
BRANCH   6  24
ATOM     24  O   UNL     1      49.147  28.104  47.233  1.00  0.00    -0.507 OA
ATOM     25  H   UNL     1      48.448  27.653  47.805  1.00  0.00     0.293 HD
ENDBRANCH   6  24
BRANCH   8  26
ATOM     26  O   UNL     1      48.314  32.578  45.760  1.00  0.00    -0.508 OA
ATOM     27  H   UNL     1      48.320  33.577  45.924  1.00  0.00     0.293 HD
ENDBRANCH   8  26
TORSDOF 6
ENDMDL
MODEL 3
REMARK VINA RESULT:    -6.360      2.512      6.103
REMARK INTER + INTRA:          -8.066
REMARK INTER:                  -7.668
REMARK INTRA:                  -0.398
REMARK UNBOUND:                -0.404
REMARK SMILES O=c1c(O)c(-c2ccc(O)cc2O)oc2cc(O)cc(O)c12
REMARK SMILES IDX 5 1 3 2 2 3 1 4 22 5 20 6 19 7 17 8 16 9 15 10 14 11 6 12
REMARK SMILES IDX 8 13 7 14 9 15 11 16 12 17 10 18 13 20 4 22 21 24 18 26
REMARK H PARENT 10 19 13 21 4 23 21 25 18 27
REMARK Flexibility Score: inf
ROOT
ATOM      1  C   UNL     1      52.152  32.923  49.011  1.00  0.00     0.184 A 
ATOM      2  C   UNL     1      53.013  32.399  49.987  1.00  0.00     0.208 A 
ATOM      3  C   UNL     1      53.045  31.012  50.192  1.00  0.00     0.238 A 
ATOM      4  O   UNL     1      53.764  30.555  51.119  1.00  0.00    -0.285 OA
ATOM      5  C   UNL     1      52.256  30.161  49.380  1.00  0.00     0.111 A 
ATOM      6  C   UNL     1      52.242  28.736  49.469  1.00  0.00     0.134 A 
ATOM      7  C   UNL     1      51.341  28.004  48.685  1.00  0.00     0.093 A 
ATOM      8  C   UNL     1      50.502  28.637  47.770  1.00  0.00     0.123 A 
ATOM      9  C   UNL     1      50.546  30.025  47.634  1.00  0.00     0.094 A 
ATOM     10  C   UNL     1      51.405  30.787  48.429  1.00  0.00     0.146 A 
ATOM     11  O   UNL     1      51.400  32.106  48.284  1.00  0.00    -0.451 OA
ENDROOT
BRANCH   1  12
ATOM     12  C   UNL     1      52.065  34.375  48.750  1.00  0.00     0.063 A 
ATOM     13  C   UNL     1      51.117  36.537  49.334  1.00  0.00     0.047 A 
ATOM     14  C   UNL     1      51.218  35.159  49.549  1.00  0.00     0.020 A 
ATOM     15  C   UNL     1      51.869  37.148  48.328  1.00  0.00     0.119 A 
ATOM     16  C   UNL     1      52.735  36.378  47.541  1.00  0.00     0.093 A 
ATOM     17  C   UNL     1      52.846  34.996  47.754  1.00  0.00     0.130 A 
BRANCH  15  18
ATOM     18  O   UNL     1      51.755  38.521  48.123  1.00  0.00    -0.508 OA
ATOM     19  H   UNL     1      50.998  39.057  48.532  1.00  0.00     0.293 HD
ENDBRANCH  15  18
BRANCH  17  20
ATOM     20  O   UNL     1      53.747  34.248  46.996  1.00  0.00    -0.507 OA
ATOM     21  H   UNL     1      54.562  33.814  47.413  1.00  0.00     0.293 HD
ENDBRANCH  17  20
ENDBRANCH   1  12
BRANCH   2  22
ATOM     22  O   UNL     1      53.834  33.255  50.726  1.00  0.00    -0.502 OA
ATOM     23  H   UNL     1      53.699  33.417  51.717  1.00  0.00     0.293 HD
ENDBRANCH   2  22
BRANCH   6  24
ATOM     24  O   UNL     1      53.100  27.993  50.285  1.00  0.00    -0.507 OA
ATOM     25  H   UNL     1      53.253  26.998  50.209  1.00  0.00     0.293 HD
ENDBRANCH   6  24
BRANCH   8  26
ATOM     26  O   UNL     1      49.631  27.875  46.994  1.00  0.00    -0.508 OA
ATOM     27  H   UNL     1      49.676  26.863  46.986  1.00  0.00     0.293 HD
ENDBRANCH   8  26
TORSDOF 6
ENDMDL
MODEL 4
REMARK VINA RESULT:    -6.306      4.223      6.771
REMARK INTER + INTRA:          -8.000
REMARK INTER:                  -7.593
REMARK INTRA:                  -0.407
REMARK UNBOUND:                -0.404
REMARK SMILES O=c1c(O)c(-c2ccc(O)cc2O)oc2cc(O)cc(O)c12
REMARK SMILES IDX 5 1 3 2 2 3 1 4 22 5 20 6 19 7 17 8 16 9 15 10 14 11 6 12
REMARK SMILES IDX 8 13 7 14 9 15 11 16 12 17 10 18 13 20 4 22 21 24 18 26
REMARK H PARENT 10 19 13 21 4 23 21 25 18 27
REMARK Flexibility Score: inf
ROOT
ATOM      1  C   UNL     1      54.065  34.598  49.756  1.00  0.00     0.184 A 
ATOM      2  C   UNL     1      53.737  34.437  48.401  1.00  0.00     0.208 A 
ATOM      3  C   UNL     1      52.961  35.419  47.766  1.00  0.00     0.238 A 
ATOM      4  O   UNL     1      52.609  35.231  46.573  1.00  0.00    -0.285 OA
ATOM      5  C   UNL     1      52.568  36.577  48.481  1.00  0.00     0.111 A 
ATOM      6  C   UNL     1      51.817  37.658  47.928  1.00  0.00     0.134 A 
ATOM      7  C   UNL     1      51.396  38.703  48.760  1.00  0.00     0.093 A 
ATOM      8  C   UNL     1      51.751  38.740  50.107  1.00  0.00     0.123 A 
ATOM      9  C   UNL     1      52.532  37.717  50.646  1.00  0.00     0.094 A 
ATOM     10  C   UNL     1      52.935  36.641  49.853  1.00  0.00     0.146 A 
ATOM     11  O   UNL     1      53.658  35.678  50.410  1.00  0.00    -0.451 OA
ENDROOT
BRANCH   1  12
ATOM     12  C   UNL     1      54.873  33.599  50.484  1.00  0.00     0.063 A 
ATOM     13  C   UNL     1      54.953  31.578  51.834  1.00  0.00     0.047 A 
ATOM     14  C   UNL     1      54.218  32.544  51.142  1.00  0.00     0.020 A 
ATOM     15  C   UNL     1      56.348  31.645  51.868  1.00  0.00     0.119 A 
ATOM     16  C   UNL     1      57.011  32.679  51.195  1.00  0.00     0.093 A 
ATOM     17  C   UNL     1      56.281  33.650  50.492  1.00  0.00     0.130 A 
BRANCH  15  18
ATOM     18  O   UNL     1      57.066  30.676  52.566  1.00  0.00    -0.508 OA
ATOM     19  H   UNL     1      56.605  29.886  53.001  1.00  0.00     0.293 HD
ENDBRANCH  15  18
BRANCH  17  20
ATOM     20  O   UNL     1      56.955  34.647  49.787  1.00  0.00    -0.507 OA
ATOM     21  H   UNL     1      56.686  34.907  48.845  1.00  0.00     0.293 HD
ENDBRANCH  17  20
ENDBRANCH   1  12
BRANCH   2  22
ATOM     22  O   UNL     1      54.198  33.320  47.699  1.00  0.00    -0.502 OA
ATOM     23  H   UNL     1      54.985  32.765  48.015  1.00  0.00     0.293 HD
ENDBRANCH   2  22
BRANCH   6  24
ATOM     24  O   UNL     1      51.482  37.767  46.575  1.00  0.00    -0.507 OA
ATOM     25  H   UNL     1      51.843  38.468  45.945  1.00  0.00     0.293 HD
ENDBRANCH   6  24
BRANCH   8  26
ATOM     26  O   UNL     1      51.328  39.805  50.900  1.00  0.00    -0.508 OA
ATOM     27  H   UNL     1      50.496  40.336  50.675  1.00  0.00     0.293 HD
ENDBRANCH   8  26
TORSDOF 6
ENDMDL
MODEL 5
REMARK VINA RESULT:    -6.291      3.211      6.558
REMARK INTER + INTRA:          -7.982
REMARK INTER:                  -7.689
REMARK INTRA:                  -0.293
REMARK UNBOUND:                -0.404
REMARK SMILES O=c1c(O)c(-c2ccc(O)cc2O)oc2cc(O)cc(O)c12
REMARK SMILES IDX 5 1 3 2 2 3 1 4 22 5 20 6 19 7 17 8 16 9 15 10 14 11 6 12
REMARK SMILES IDX 8 13 7 14 9 15 11 16 12 17 10 18 13 20 4 22 21 24 18 26
REMARK H PARENT 10 19 13 21 4 23 21 25 18 27
REMARK Flexibility Score: inf
ROOT
ATOM      1  C   UNL     1      52.844  34.647  48.188  1.00  0.00     0.184 A 
ATOM      2  C   UNL     1      53.493  34.495  49.423  1.00  0.00     0.208 A 
ATOM      3  C   UNL     1      53.537  33.225  50.017  1.00  0.00     0.238 A 
ATOM      4  O   UNL     1      54.055  33.110  51.158  1.00  0.00    -0.285 OA
ATOM      5  C   UNL     1      52.977  32.112  49.342  1.00  0.00     0.111 A 
ATOM      6  C   UNL     1      53.002  30.770  49.830  1.00  0.00     0.134 A 
ATOM      7  C   UNL     1      52.323  29.767  49.125  1.00  0.00     0.093 A 
ATOM      8  C   UNL     1      51.677  30.043  47.922  1.00  0.00     0.123 A 
ATOM      9  C   UNL     1      51.694  31.340  47.407  1.00  0.00     0.094 A 
ATOM     10  C   UNL     1      52.328  32.370  48.105  1.00  0.00     0.146 A 
ATOM     11  O   UNL     1      52.302  33.594  47.592  1.00  0.00    -0.451 OA
ENDROOT
BRANCH   1  12
ATOM     12  C   UNL     1      52.758  35.958  47.512  1.00  0.00     0.063 A 
ATOM     13  C   UNL     1      53.323  37.351  45.601  1.00  0.00     0.047 A 
ATOM     14  C   UNL     1      53.391  36.126  46.270  1.00  0.00     0.020 A 
ATOM     15  C   UNL     1      52.612  38.418  46.156  1.00  0.00     0.119 A 
ATOM     16  C   UNL     1      51.957  38.253  47.384  1.00  0.00     0.093 A 
ATOM     17  C   UNL     1      52.016  37.025  48.060  1.00  0.00     0.130 A 
BRANCH  15  18
ATOM     18  O   UNL     1      52.557  39.634  45.480  1.00  0.00    -0.508 OA
ATOM     19  H   UNL     1      52.584  39.679  44.468  1.00  0.00     0.293 HD
ENDBRANCH  15  18
BRANCH  17  20
ATOM     20  O   UNL     1      51.320  36.858  49.257  1.00  0.00    -0.507 OA
ATOM     21  H   UNL     1      51.656  37.254  50.127  1.00  0.00     0.293 HD
ENDBRANCH  17  20
ENDBRANCH   1  12
BRANCH   2  22
ATOM     22  O   UNL     1      54.100  35.596  50.033  1.00  0.00    -0.502 OA
ATOM     23  H   UNL     1      54.547  35.536  50.942  1.00  0.00     0.293 HD
ENDBRANCH   2  22
BRANCH   6  24
ATOM     24  O   UNL     1      53.692  30.365  50.976  1.00  0.00    -0.507 OA
ATOM     25  H   UNL     1      53.776  29.410  51.292  1.00  0.00     0.293 HD
ENDBRANCH   6  24
BRANCH   8  26
ATOM     26  O   UNL     1      51.027  29.017  47.239  1.00  0.00    -0.508 OA
ATOM     27  H   UNL     1      51.066  28.057  47.562  1.00  0.00     0.293 HD
ENDBRANCH   8  26
TORSDOF 6
ENDMDL
MODEL 6
REMARK VINA RESULT:    -6.199      1.605      6.487
REMARK INTER + INTRA:          -7.872
REMARK INTER:                  -7.521
REMARK INTRA:                  -0.350
REMARK UNBOUND:                -0.404
REMARK SMILES O=c1c(O)c(-c2ccc(O)cc2O)oc2cc(O)cc(O)c12
REMARK SMILES IDX 5 1 3 2 2 3 1 4 22 5 20 6 19 7 17 8 16 9 15 10 14 11 6 12
REMARK SMILES IDX 8 13 7 14 9 15 11 16 12 17 10 18 13 20 4 22 21 24 18 26
REMARK H PARENT 10 19 13 21 4 23 21 25 18 27
REMARK Flexibility Score: inf
ROOT
ATOM      1  C   UNL     1      52.010  31.604  49.187  1.00  0.00     0.184 A 
ATOM      2  C   UNL     1      51.970  31.861  47.808  1.00  0.00     0.208 A 
ATOM      3  C   UNL     1      50.902  31.356  47.052  1.00  0.00     0.238 A 
ATOM      4  O   UNL     1      50.911  31.528  45.805  1.00  0.00    -0.285 OA
ATOM      5  C   UNL     1      49.858  30.646  47.694  1.00  0.00     0.111 A 
ATOM      6  C   UNL     1      48.703  30.126  47.034  1.00  0.00     0.134 A 
ATOM      7  C   UNL     1      47.788  29.348  47.756  1.00  0.00     0.093 A 
ATOM      8  C   UNL     1      47.950  29.126  49.122  1.00  0.00     0.123 A 
ATOM      9  C   UNL     1      49.045  29.676  49.788  1.00  0.00     0.094 A 
ATOM     10  C   UNL     1      49.996  30.423  49.090  1.00  0.00     0.146 A 
ATOM     11  O   UNL     1      51.035  30.910  49.758  1.00  0.00    -0.451 OA
ENDROOT
BRANCH   1  12
ATOM     12  C   UNL     1      53.110  32.101  50.038  1.00  0.00     0.063 A 
ATOM     13  C   UNL     1      54.322  33.991  50.972  1.00  0.00     0.047 A 
ATOM     14  C   UNL     1      53.295  33.487  50.169  1.00  0.00     0.020 A 
ATOM     15  C   UNL     1      55.167  33.120  51.663  1.00  0.00     0.119 A 
ATOM     16  C   UNL     1      54.975  31.736  51.557  1.00  0.00     0.093 A 
ATOM     17  C   UNL     1      53.943  31.222  50.758  1.00  0.00     0.130 A 
BRANCH  15  18
ATOM     18  O   UNL     1      56.189  33.637  52.456  1.00  0.00    -0.508 OA
ATOM     19  H   UNL     1      57.156  33.371  52.314  1.00  0.00     0.293 HD
ENDBRANCH  15  18
BRANCH  17  20
ATOM     20  O   UNL     1      53.732  29.844  50.700  1.00  0.00    -0.507 OA
ATOM     21  H   UNL     1      52.856  29.453  50.374  1.00  0.00     0.293 HD
ENDBRANCH  17  20
ENDBRANCH   1  12
BRANCH   2  22
ATOM     22  O   UNL     1      52.975  32.626  47.210  1.00  0.00    -0.502 OA
ATOM     23  H   UNL     1      52.779  33.485  46.707  1.00  0.00     0.293 HD
ENDBRANCH   2  22
BRANCH   6  24
ATOM     24  O   UNL     1      48.395  30.361  45.691  1.00  0.00    -0.507 OA
ATOM     25  H   UNL     1      48.293  29.644  44.988  1.00  0.00     0.293 HD
ENDBRANCH   6  24
BRANCH   8  26
ATOM     26  O   UNL     1      47.010  28.362  49.810  1.00  0.00    -0.508 OA
ATOM     27  H   UNL     1      46.885  28.451  50.811  1.00  0.00     0.293 HD
ENDBRANCH   8  26
TORSDOF 6
ENDMDL
MODEL 7
REMARK VINA RESULT:    -6.012      3.007      5.150
REMARK INTER + INTRA:          -7.646
REMARK INTER:                  -7.213
REMARK INTRA:                  -0.433
REMARK UNBOUND:                -0.404
REMARK SMILES O=c1c(O)c(-c2ccc(O)cc2O)oc2cc(O)cc(O)c12
REMARK SMILES IDX 5 1 3 2 2 3 1 4 22 5 20 6 19 7 17 8 16 9 15 10 14 11 6 12
REMARK SMILES IDX 8 13 7 14 9 15 11 16 12 17 10 18 13 20 4 22 21 24 18 26
REMARK H PARENT 10 19 13 21 4 23 21 25 18 27
REMARK Flexibility Score: inf
ROOT
ATOM      1  C   UNL     1      52.208  34.263  48.400  1.00  0.00     0.184 A 
ATOM      2  C   UNL     1      51.836  32.940  48.117  1.00  0.00     0.208 A 
ATOM      3  C   UNL     1      52.415  31.897  48.856  1.00  0.00     0.238 A 
ATOM      4  O   UNL     1      52.133  30.710  48.548  1.00  0.00    -0.285 OA
ATOM      5  C   UNL     1      53.319  32.195  49.906  1.00  0.00     0.111 A 
ATOM      6  C   UNL     1      53.933  31.221  50.750  1.00  0.00     0.134 A 
ATOM      7  C   UNL     1      54.892  31.626  51.687  1.00  0.00     0.093 A 
ATOM      8  C   UNL     1      55.211  32.972  51.857  1.00  0.00     0.123 A 
ATOM      9  C   UNL     1      54.576  33.938  51.075  1.00  0.00     0.094 A 
ATOM     10  C   UNL     1      53.644  33.564  50.105  1.00  0.00     0.146 A 
ATOM     11  O   UNL     1      53.080  34.512  49.369  1.00  0.00    -0.451 OA
ENDROOT
BRANCH   1  12
ATOM     12  C   UNL     1      51.641  35.406  47.655  1.00  0.00     0.063 A 
ATOM     13  C   UNL     1      49.789  36.941  47.301  1.00  0.00     0.047 A 
ATOM     14  C   UNL     1      50.353  35.859  47.982  1.00  0.00     0.020 A 
ATOM     15  C   UNL     1      50.508  37.592  46.296  1.00  0.00     0.119 A 
ATOM     16  C   UNL     1      51.804  37.162  45.978  1.00  0.00     0.093 A 
ATOM     17  C   UNL     1      52.379  36.080  46.661  1.00  0.00     0.130 A 
BRANCH  15  18
ATOM     18  O   UNL     1      49.932  38.667  45.623  1.00  0.00    -0.508 OA
ATOM     19  H   UNL     1      50.395  39.566  45.565  1.00  0.00     0.293 HD
ENDBRANCH  15  18
BRANCH  17  20
ATOM     20  O   UNL     1      53.687  35.693  46.369  1.00  0.00    -0.507 OA
ATOM     21  H   UNL     1      54.473  36.014  46.921  1.00  0.00     0.293 HD
ENDBRANCH  17  20
ENDBRANCH   1  12
BRANCH   2  22
ATOM     22  O   UNL     1      50.888  32.678  47.124  1.00  0.00    -0.502 OA
ATOM     23  H   UNL     1      49.891  32.687  47.308  1.00  0.00     0.293 HD
ENDBRANCH   2  22
BRANCH   6  24
ATOM     24  O   UNL     1      53.624  29.858  50.728  1.00  0.00    -0.507 OA
ATOM     25  H   UNL     1      53.414  29.300  51.542  1.00  0.00     0.293 HD
ENDBRANCH   6  24
BRANCH   8  26
ATOM     26  O   UNL     1      56.157  33.340  52.811  1.00  0.00    -0.508 OA
ATOM     27  H   UNL     1      56.427  34.307  52.944  1.00  0.00     0.293 HD
ENDBRANCH   8  26
TORSDOF 6
ENDMDL
MODEL 8
REMARK VINA RESULT:    -6.004      3.628      5.338
REMARK INTER + INTRA:          -7.637
REMARK INTER:                  -7.245
REMARK INTRA:                  -0.392
REMARK UNBOUND:                -0.404
REMARK SMILES O=c1c(O)c(-c2ccc(O)cc2O)oc2cc(O)cc(O)c12
REMARK SMILES IDX 5 1 3 2 2 3 1 4 22 5 20 6 19 7 17 8 16 9 15 10 14 11 6 12
REMARK SMILES IDX 8 13 7 14 9 15 11 16 12 17 10 18 13 20 4 22 21 24 18 26
REMARK H PARENT 10 19 13 21 4 23 21 25 18 27
REMARK Flexibility Score: inf
ROOT
ATOM      1  C   UNL     1      52.889  34.161  49.325  1.00  0.00     0.184 A 
ATOM      2  C   UNL     1      53.160  34.598  48.019  1.00  0.00     0.208 A 
ATOM      3  C   UNL     1      53.086  35.969  47.730  1.00  0.00     0.238 A 
ATOM      4  O   UNL     1      53.258  36.346  46.542  1.00  0.00    -0.285 OA
ATOM      5  C   UNL     1      52.795  36.892  48.765  1.00  0.00     0.111 A 
ATOM      6  C   UNL     1      52.737  38.309  48.597  1.00  0.00     0.134 A 
ATOM      7  C   UNL     1      52.336  39.115  49.671  1.00  0.00     0.093 A 
ATOM      8  C   UNL     1      52.053  38.565  50.919  1.00  0.00     0.123 A 
ATOM      9  C   UNL     1      52.160  37.187  51.110  1.00  0.00     0.094 A 
ATOM     10  C   UNL     1      52.520  36.352  50.050  1.00  0.00     0.146 A 
ATOM     11  O   UNL     1      52.589  35.045  50.268  1.00  0.00    -0.451 OA
ENDROOT
BRANCH   1  12
ATOM     12  C   UNL     1      52.943  32.732  49.692  1.00  0.00     0.063 A 
ATOM     13  C   UNL     1      51.997  30.500  49.497  1.00  0.00     0.047 A 
ATOM     14  C   UNL     1      51.972  31.860  49.174  1.00  0.00     0.020 A 
ATOM     15  C   UNL     1      52.998  29.993  50.328  1.00  0.00     0.119 A 
ATOM     16  C   UNL     1      53.985  30.851  50.831  1.00  0.00     0.093 A 
ATOM     17  C   UNL     1      53.971  32.216  50.508  1.00  0.00     0.130 A 
BRANCH  15  18
ATOM     18  O   UNL     1      53.008  28.636  50.644  1.00  0.00    -0.508 OA
ATOM     19  H   UNL     1      53.863  28.159  50.904  1.00  0.00     0.293 HD
ENDBRANCH  15  18
BRANCH  17  20
ATOM     20  O   UNL     1      54.986  33.051  50.975  1.00  0.00    -0.507 OA
ATOM     21  H   UNL     1      54.938  33.487  51.888  1.00  0.00     0.293 HD
ENDBRANCH  17  20
ENDBRANCH   1  12
BRANCH   2  22
ATOM     22  O   UNL     1      53.515  33.674  47.032  1.00  0.00    -0.502 OA
ATOM     23  H   UNL     1      54.421  33.686  46.577  1.00  0.00     0.293 HD
ENDBRANCH   2  22
BRANCH   6  24
ATOM     24  O   UNL     1      53.084  38.974  47.417  1.00  0.00    -0.507 OA
ATOM     25  H   UNL     1      52.964  38.601  46.488  1.00  0.00     0.293 HD
ENDBRANCH   6  24
BRANCH   8  26
ATOM     26  O   UNL     1      51.674  39.400  51.969  1.00  0.00    -0.508 OA
ATOM     27  H   UNL     1      50.719  39.719  52.073  1.00  0.00     0.293 HD
ENDBRANCH   8  26
TORSDOF 6
ENDMDL
MODEL 9
REMARK VINA RESULT:    -5.873      1.643      6.871
REMARK INTER + INTRA:          -7.479
REMARK INTER:                  -7.074
REMARK INTRA:                  -0.406
REMARK UNBOUND:                -0.404
REMARK SMILES O=c1c(O)c(-c2ccc(O)cc2O)oc2cc(O)cc(O)c12
REMARK SMILES IDX 5 1 3 2 2 3 1 4 22 5 20 6 19 7 17 8 16 9 15 10 14 11 6 12
REMARK SMILES IDX 8 13 7 14 9 15 11 16 12 17 10 18 13 20 4 22 21 24 18 26
REMARK H PARENT 10 19 13 21 4 23 21 25 18 27
REMARK Flexibility Score: inf
ROOT
ATOM      1  C   UNL     1      51.015  30.974  48.830  1.00  0.00     0.184 A 
ATOM      2  C   UNL     1      50.827  29.947  47.894  1.00  0.00     0.208 A 
ATOM      3  C   UNL     1      49.583  29.300  47.834  1.00  0.00     0.238 A 
ATOM      4  O   UNL     1      49.445  28.330  47.043  1.00  0.00    -0.285 OA
ATOM      5  C   UNL     1      48.526  29.726  48.675  1.00  0.00     0.111 A 
ATOM      6  C   UNL     1      47.210  29.171  48.670  1.00  0.00     0.134 A 
ATOM      7  C   UNL     1      46.276  29.602  49.622  1.00  0.00     0.093 A 
ATOM      8  C   UNL     1      46.587  30.609  50.533  1.00  0.00     0.123 A 
ATOM      9  C   UNL     1      47.853  31.197  50.511  1.00  0.00     0.094 A 
ATOM     10  C   UNL     1      48.819  30.763  49.601  1.00  0.00     0.146 A 
ATOM     11  O   UNL     1      50.017  31.333  49.628  1.00  0.00    -0.451 OA
ENDROOT
BRANCH   1  12
ATOM     12  C   UNL     1      52.301  31.691  48.949  1.00  0.00     0.063 A 
ATOM     13  C   UNL     1      53.728  33.528  48.242  1.00  0.00     0.047 A 
ATOM     14  C   UNL     1      52.525  32.823  48.149  1.00  0.00     0.020 A 
ATOM     15  C   UNL     1      54.716  33.120  49.141  1.00  0.00     0.119 A 
ATOM     16  C   UNL     1      54.492  32.005  49.960  1.00  0.00     0.093 A 
ATOM     17  C   UNL     1      53.285  31.295  49.878  1.00  0.00     0.130 A 
BRANCH  15  18
ATOM     18  O   UNL     1      55.912  33.830  49.219  1.00  0.00    -0.508 OA
ATOM     19  H   UNL     1      56.231  34.415  48.456  1.00  0.00     0.293 HD
ENDBRANCH  15  18
BRANCH  17  20
ATOM     20  O   UNL     1      53.055  30.217  50.733  1.00  0.00    -0.507 OA
ATOM     21  H   UNL     1      52.310  30.231  51.419  1.00  0.00     0.293 HD
ENDBRANCH  17  20
ENDBRANCH   1  12
BRANCH   2  22
ATOM     22  O   UNL     1      51.863  29.594  47.025  1.00  0.00    -0.502 OA
ATOM     23  H   UNL     1      52.342  30.274  46.446  1.00  0.00     0.293 HD
ENDBRANCH   2  22
BRANCH   6  24
ATOM     24  O   UNL     1      46.762  28.222  47.746  1.00  0.00    -0.507 OA
ATOM     25  H   UNL     1      46.411  27.307  47.983  1.00  0.00     0.293 HD
ENDBRANCH   6  24
BRANCH   8  26
ATOM     26  O   UNL     1      45.628  31.025  51.454  1.00  0.00    -0.508 OA
ATOM     27  H   UNL     1      44.802  30.470  51.645  1.00  0.00     0.293 HD
ENDBRANCH   8  26
TORSDOF 6
ENDMDL
