MODEL 1
REMARK VINA RESULT:     4.334      0.000      0.000
REMARK INTER + INTRA:           5.292
REMARK INTER:                   6.107
REMARK INTRA:                  -0.816
REMARK UNBOUND:                -0.816
REMARK SMILES OCC1=C[C@H](O)[C@@H]2C=CO[C@@H](O[C@H]3O[C@@H](CO)[C@H](O)[C@@H](O)[C@@H]3O)[C@H]12
REMARK SMILES IDX 12 1 11 2 8 3 9 4 7 5 10 6 24 7 5 8 3 9 4 10 6 11 2 13 1 14
REMARK SMILES IDX 13 16 22 17 14 18 20 19 15 20 18 21 23 22 21 24 16 26 17 27
REMARK SMILES IDX 19 29
REMARK H PARENT 6 12 1 15 23 23 21 25 17 28 19 30
REMARK Flexibility Score: inf
ROOT
ATOM      1  O   UNL     1      12.924 -10.311 -28.649  1.00  0.00    -0.310 OA
ENDROOT
BRANCH   1   2
ATOM      2  C   UNL     1      13.248 -11.251 -27.632  1.00  0.00     0.316 C 
ATOM      3  C   UNL     1      14.594 -13.415 -26.319  1.00  0.00     0.018 C 
ATOM      4  C   UNL     1      15.297 -12.291 -26.461  1.00  0.00     0.186 C 
ATOM      5  C   UNL     1      13.319 -13.735 -27.071  1.00  0.00     0.061 C 
ATOM      6  O   UNL     1      14.699 -11.260 -27.262  1.00  0.00    -0.472 OA
ATOM      7  C   UNL     1      12.828 -12.664 -28.064  1.00  0.00     0.096 C 
ATOM      8  C   UNL     1      12.114 -14.025 -26.154  1.00  0.00     0.145 C 
ATOM      9  C   UNL     1      11.341 -12.818 -28.002  1.00  0.00    -0.036 C 
ATOM     10  C   UNL     1      10.957 -13.543 -26.959  1.00  0.00     0.007 C 
BRANCH   8  11
ATOM     11  O   UNL     1      12.175 -13.282 -24.963  1.00  0.00    -0.388 OA
ATOM     12  H   UNL     1      12.305 -13.937 -24.228  1.00  0.00     0.211 HD
ENDBRANCH   8  11
BRANCH   9  13
ATOM     13  C   UNL     1      10.383 -12.139 -28.937  1.00  0.00     0.187 C 
BRANCH  13  14
ATOM     14  O   UNL     1      11.066 -11.776 -30.105  1.00  0.00    -0.392 OA
ATOM     15  H   UNL     1      11.625 -10.992 -29.866  1.00  0.00     0.211 HD
ENDBRANCH  13  14
ENDBRANCH   9  13
ENDBRANCH   1   2
BRANCH   1  16
ATOM     16  C   UNL     1      13.214  -8.969 -28.306  1.00  0.00     0.286 C 
ATOM     17  C   UNL     1      11.876  -8.218 -28.086  1.00  0.00     0.202 C 
ATOM     18  O   UNL     1      13.932  -8.332 -29.347  1.00  0.00    -0.341 OA
ATOM     19  C   UNL     1      11.993  -6.701 -28.412  1.00  0.00     0.179 C 
ATOM     20  C   UNL     1      14.500  -7.123 -28.870  1.00  0.00     0.178 C 
ATOM     21  C   UNL     1      13.433  -6.164 -28.244  1.00  0.00     0.177 C 
BRANCH  17  22
ATOM     22  O   UNL     1      11.398  -8.427 -26.777  1.00  0.00    -0.385 OA
ATOM     23  H   UNL     1      11.057  -9.359 -26.722  1.00  0.00     0.211 HD
ENDBRANCH  17  22
BRANCH  19  24
ATOM     24  O   UNL     1      11.514  -6.425 -29.705  1.00  0.00    -0.387 OA
ATOM     25  H   UNL     1      12.240  -5.992 -30.224  1.00  0.00     0.211 HD
ENDBRANCH  19  24
BRANCH  20  26
ATOM     26  C   UNL     1      15.271  -6.445 -30.012  1.00  0.00     0.191 C 
BRANCH  26  27
ATOM     27  O   UNL     1      16.155  -7.340 -30.639  1.00  0.00    -0.394 OA
ATOM     28  H   UNL     1      16.410  -8.011 -29.953  1.00  0.00     0.210 HD
ENDBRANCH  26  27
ENDBRANCH  20  26
BRANCH  21  29
ATOM     29  O   UNL     1      13.690  -5.999 -26.873  1.00  0.00    -0.387 OA
ATOM     30  H   UNL     1      14.119  -6.841 -26.561  1.00  0.00     0.211 HD
ENDBRANCH  21  29
ENDBRANCH   1  16
TORSDOF 10
ENDMDL
MODEL 2
REMARK VINA RESULT:     4.724      1.710      3.053
REMARK INTER + INTRA:           5.841
REMARK INTER:                   6.646
REMARK INTRA:                  -0.805
REMARK UNBOUND:                -0.816
REMARK SMILES OCC1=C[C@H](O)[C@@H]2C=CO[C@@H](O[C@H]3O[C@@H](CO)[C@H](O)[C@@H](O)[C@@H]3O)[C@H]12
REMARK SMILES IDX 12 1 11 2 8 3 9 4 7 5 10 6 24 7 5 8 3 9 4 10 6 11 2 13 1 14
REMARK SMILES IDX 13 16 22 17 14 18 20 19 15 20 18 21 23 22 21 24 16 26 17 27
REMARK SMILES IDX 19 29
REMARK H PARENT 6 12 1 15 23 23 21 25 17 28 19 30
REMARK Flexibility Score: inf
ROOT
ATOM      1  O   UNL     1      13.463 -10.849 -25.649  1.00  0.00    -0.310 OA
ENDROOT
BRANCH   1   2
ATOM      2  C   UNL     1      12.452 -11.835 -25.489  1.00  0.00     0.316 C 
ATOM      3  C   UNL     1      10.941 -13.947 -24.272  1.00  0.00     0.018 C 
ATOM      4  C   UNL     1      10.821 -12.745 -23.709  1.00  0.00     0.186 C 
ATOM      5  C   UNL     1      12.032 -14.336 -25.248  1.00  0.00     0.061 C 
ATOM      6  O   UNL     1      11.697 -11.718 -24.200  1.00  0.00    -0.472 OA
ATOM      7  C   UNL     1      13.061 -13.241 -25.592  1.00  0.00     0.096 C 
ATOM      8  C   UNL     1      11.500 -14.837 -26.606  1.00  0.00     0.145 C 
ATOM      9  C   UNL     1      13.419 -13.563 -27.008  1.00  0.00    -0.036 C 
ATOM     10  C   UNL     1      12.564 -14.415 -27.559  1.00  0.00     0.007 C 
BRANCH   8  11
ATOM     11  O   UNL     1      10.299 -14.201 -26.961  1.00  0.00    -0.388 OA
ATOM     12  H   UNL     1       9.700 -14.909 -27.317  1.00  0.00     0.211 HD
ENDBRANCH   8  11
BRANCH   9  13
ATOM     13  C   UNL     1      14.542 -12.912 -27.761  1.00  0.00     0.187 C 
BRANCH  13  14
ATOM     14  O   UNL     1      15.524 -12.499 -26.852  1.00  0.00    -0.392 OA
ATOM     15  H   UNL     1      15.049 -12.298 -26.005  1.00  0.00     0.211 HD
ENDBRANCH  13  14
ENDBRANCH   9  13
ENDBRANCH   1   2
BRANCH   1  16
ATOM     16  C   UNL     1      13.130  -9.824 -26.565  1.00  0.00     0.286 C 
ATOM     17  C   UNL     1      11.793 -10.196 -27.254  1.00  0.00     0.202 C 
ATOM     18  O   UNL     1      14.135  -9.691 -27.553  1.00  0.00    -0.341 OA
ATOM     19  C   UNL     1      11.686  -9.603 -28.689  1.00  0.00     0.179 C 
ATOM     20  C   UNL     1      13.965  -8.468 -28.251  1.00  0.00     0.178 C 
ATOM     21  C   UNL     1      12.535  -8.323 -28.870  1.00  0.00     0.177 C 
BRANCH  17  22
ATOM     22  O   UNL     1      10.697  -9.811 -26.457  1.00  0.00    -0.385 OA
ATOM     23  H   UNL     1      10.178 -10.629 -26.237  1.00  0.00     0.211 HD
ENDBRANCH  17  22
BRANCH  19  24
ATOM     24  O   UNL     1      12.032 -10.562 -29.658  1.00  0.00    -0.387 OA
ATOM     25  H   UNL     1      11.493 -10.395 -30.473  1.00  0.00     0.211 HD
ENDBRANCH  19  24
BRANCH  20  26
ATOM     26  C   UNL     1      15.060  -8.344 -29.320  1.00  0.00     0.191 C 
BRANCH  26  27
ATOM     27  O   UNL     1      15.208  -7.015 -29.754  1.00  0.00    -0.394 OA
ATOM     28  H   UNL     1      16.118  -6.729 -29.483  1.00  0.00     0.210 HD
ENDBRANCH  26  27
ENDBRANCH  20  26
BRANCH  21  29
ATOM     29  O   UNL     1      11.861  -7.252 -28.261  1.00  0.00    -0.387 OA
ATOM     30  H   UNL     1      11.456  -7.609 -27.425  1.00  0.00     0.211 HD
ENDBRANCH  21  29
ENDBRANCH   1  16
TORSDOF 10
ENDMDL
MODEL 3
REMARK VINA RESULT:     4.913      1.474      2.820
REMARK INTER + INTRA:           6.107
REMARK INTER:                   5.581
REMARK INTRA:                   0.526
REMARK UNBOUND:                -0.816
REMARK SMILES OCC1=C[C@H](O)[C@@H]2C=CO[C@@H](O[C@H]3O[C@@H](CO)[C@H](O)[C@@H](O)[C@@H]3O)[C@H]12
REMARK SMILES IDX 12 1 11 2 8 3 9 4 7 5 10 6 24 7 5 8 3 9 4 10 6 11 2 13 1 14
REMARK SMILES IDX 13 16 22 17 14 18 20 19 15 20 18 21 23 22 21 24 16 26 17 27
REMARK SMILES IDX 19 29
REMARK H PARENT 6 12 1 15 23 23 21 25 17 28 19 30
REMARK Flexibility Score: inf
ROOT
ATOM      1  O   UNL     1      13.630 -11.279 -27.160  1.00  0.00    -0.310 OA
ENDROOT
BRANCH   1   2
ATOM      2  C   UNL     1      12.676 -11.982 -27.946  1.00  0.00     0.316 C 
ATOM      3  C   UNL     1      10.336 -12.436 -29.541  1.00  0.00     0.018 C 
ATOM      4  C   UNL     1      11.304 -11.722 -30.115  1.00  0.00     0.186 C 
ATOM      5  C   UNL     1      10.240 -12.720 -28.056  1.00  0.00     0.061 C 
ATOM      6  O   UNL     1      12.405 -11.344 -29.274  1.00  0.00    -0.472 OA
ATOM      7  C   UNL     1      11.355 -12.123 -27.175  1.00  0.00     0.096 C 
ATOM      8  C   UNL     1      10.208 -14.223 -27.712  1.00  0.00     0.145 C 
ATOM      9  C   UNL     1      11.484 -13.135 -26.081  1.00  0.00    -0.036 C 
ATOM     10  C   UNL     1      10.875 -14.276 -26.381  1.00  0.00     0.007 C 
BRANCH   8  11
ATOM     11  O   UNL     1      10.961 -14.982 -28.624  1.00  0.00    -0.388 OA
ATOM     12  H   UNL     1      11.773 -14.449 -28.830  1.00  0.00     0.211 HD
ENDBRANCH   8  11
BRANCH   9  13
ATOM     13  C   UNL     1      12.303 -12.935 -24.840  1.00  0.00     0.187 C 
BRANCH  13  14
ATOM     14  O   UNL     1      12.125 -11.623 -24.382  1.00  0.00    -0.392 OA
ATOM     15  H   UNL     1      11.255 -11.318 -24.747  1.00  0.00     0.211 HD
ENDBRANCH  13  14
ENDBRANCH   9  13
ENDBRANCH   1   2
BRANCH   1  16
ATOM     16  C   UNL     1      13.593  -9.875 -27.328  1.00  0.00     0.286 C 
ATOM     17  C   UNL     1      12.112  -9.423 -27.368  1.00  0.00     0.202 C 
ATOM     18  O   UNL     1      14.221  -9.501 -28.541  1.00  0.00    -0.341 OA
ATOM     19  C   UNL     1      11.912  -8.136 -28.220  1.00  0.00     0.179 C 
ATOM     20  C   UNL     1      14.475  -8.106 -28.541  1.00  0.00     0.178 C 
ATOM     21  C   UNL     1      13.185  -7.259 -28.282  1.00  0.00     0.177 C 
BRANCH  17  22
ATOM     22  O   UNL     1      11.606  -9.259 -26.063  1.00  0.00    -0.385 OA
ATOM     23  H   UNL     1      12.229  -9.711 -25.435  1.00  0.00     0.211 HD
ENDBRANCH  17  22
BRANCH  19  24
ATOM     24  O   UNL     1      11.471  -8.452 -29.517  1.00  0.00    -0.387 OA
ATOM     25  H   UNL     1      12.238  -8.369 -30.139  1.00  0.00     0.211 HD
ENDBRANCH  19  24
BRANCH  20  26
ATOM     26  C   UNL     1      15.151  -7.718 -29.864  1.00  0.00     0.191 C 
BRANCH  26  27
ATOM     27  O   UNL     1      15.879  -6.522 -29.740  1.00  0.00    -0.394 OA
ATOM     28  H   UNL     1      16.834  -6.759 -29.862  1.00  0.00     0.210 HD
ENDBRANCH  26  27
ENDBRANCH  20  26
BRANCH  21  29
ATOM     29  O   UNL     1      13.308  -6.565 -27.067  1.00  0.00    -0.387 OA
ATOM     30  H   UNL     1      12.891  -7.139 -26.368  1.00  0.00     0.211 HD
ENDBRANCH  21  29
ENDBRANCH   1  16
TORSDOF 10
ENDMDL
MODEL 4
REMARK VINA RESULT:     5.270      1.735      3.362
REMARK INTER + INTRA:           6.611
REMARK INTER:                   7.442
REMARK INTRA:                  -0.831
REMARK UNBOUND:                -0.816
REMARK SMILES OCC1=C[C@H](O)[C@@H]2C=CO[C@@H](O[C@H]3O[C@@H](CO)[C@H](O)[C@@H](O)[C@@H]3O)[C@H]12
REMARK SMILES IDX 12 1 11 2 8 3 9 4 7 5 10 6 24 7 5 8 3 9 4 10 6 11 2 13 1 14
REMARK SMILES IDX 13 16 22 17 14 18 20 19 15 20 18 21 23 22 21 24 16 26 17 27
REMARK SMILES IDX 19 29
REMARK H PARENT 6 12 1 15 23 23 21 25 17 28 19 30
REMARK Flexibility Score: inf
ROOT
ATOM      1  O   UNL     1      11.761  -9.325 -27.349  1.00  0.00    -0.310 OA
ENDROOT
BRANCH   1   2
ATOM      2  C   UNL     1      11.836 -10.649 -27.861  1.00  0.00     0.316 C 
ATOM      3  C   UNL     1      11.044 -13.031 -29.247  1.00  0.00     0.018 C 
ATOM      4  C   UNL     1      11.344 -11.983 -30.014  1.00  0.00     0.186 C 
ATOM      5  C   UNL     1      10.770 -12.961 -27.760  1.00  0.00     0.061 C 
ATOM      6  O   UNL     1      11.577 -10.739 -29.334  1.00  0.00    -0.472 OA
ATOM      7  C   UNL     1      10.849 -11.561 -27.118  1.00  0.00     0.096 C 
ATOM      8  C   UNL     1      11.704 -13.851 -26.913  1.00  0.00     0.145 C 
ATOM      9  C   UNL     1      11.340 -11.862 -25.738  1.00  0.00    -0.036 C 
ATOM     10  C   UNL     1      11.816 -13.097 -25.634  1.00  0.00     0.007 C 
BRANCH   8  11
ATOM     11  O   UNL     1      12.982 -13.958 -27.487  1.00  0.00    -0.388 OA
ATOM     12  H   UNL     1      13.275 -13.032 -27.696  1.00  0.00     0.211 HD
ENDBRANCH   8  11
BRANCH   9  13
ATOM     13  C   UNL     1      11.401 -10.855 -24.627  1.00  0.00     0.187 C 
BRANCH  13  14
ATOM     14  O   UNL     1      10.481  -9.831 -24.888  1.00  0.00    -0.392 OA
ATOM     15  H   UNL     1       9.588 -10.261 -24.906  1.00  0.00     0.211 HD
ENDBRANCH  13  14
ENDBRANCH   9  13
ENDBRANCH   1   2
BRANCH   1  16
ATOM     16  C   UNL     1      12.474  -8.370 -28.112  1.00  0.00     0.286 C 
ATOM     17  C   UNL     1      13.655  -7.842 -27.259  1.00  0.00     0.202 C 
ATOM     18  O   UNL     1      11.636  -7.283 -28.460  1.00  0.00    -0.341 OA
ATOM     19  C   UNL     1      14.046  -6.383 -27.635  1.00  0.00     0.179 C 
ATOM     20  C   UNL     1      12.246  -6.514 -29.484  1.00  0.00     0.178 C 
ATOM     21  C   UNL     1      13.681  -6.026 -29.095  1.00  0.00     0.177 C 
BRANCH  17  22
ATOM     22  O   UNL     1      14.762  -8.710 -27.350  1.00  0.00    -0.385 OA
ATOM     23  H   UNL     1      14.661  -9.247 -28.180  1.00  0.00     0.211 HD
ENDBRANCH  17  22
BRANCH  19  24
ATOM     24  O   UNL     1      13.467  -5.461 -26.745  1.00  0.00    -0.387 OA
ATOM     25  H   UNL     1      13.982  -5.475 -25.898  1.00  0.00     0.211 HD
ENDBRANCH  19  24
BRANCH  20  26
ATOM     26  C   UNL     1      11.326  -5.338 -29.845  1.00  0.00     0.191 C 
BRANCH  26  27
ATOM     27  O   UNL     1       9.980  -5.738 -29.905  1.00  0.00    -0.394 OA
ATOM     28  H   UNL     1       9.670  -5.547 -30.828  1.00  0.00     0.210 HD
ENDBRANCH  26  27
ENDBRANCH  20  26
BRANCH  21  29
ATOM     29  O   UNL     1      14.630  -6.614 -29.948  1.00  0.00    -0.387 OA
ATOM     30  H   UNL     1      14.146  -7.304 -30.477  1.00  0.00     0.211 HD
ENDBRANCH  21  29
ENDBRANCH   1  16
TORSDOF 10
ENDMDL
MODEL 5
REMARK VINA RESULT:     6.012      2.490      5.721
REMARK INTER + INTRA:           7.656
REMARK INTER:                   5.255
REMARK INTRA:                   2.401
REMARK UNBOUND:                -0.816
REMARK SMILES OCC1=C[C@H](O)[C@@H]2C=CO[C@@H](O[C@H]3O[C@@H](CO)[C@H](O)[C@@H](O)[C@@H]3O)[C@H]12
REMARK SMILES IDX 12 1 11 2 8 3 9 4 7 5 10 6 24 7 5 8 3 9 4 10 6 11 2 13 1 14
REMARK SMILES IDX 13 16 22 17 14 18 20 19 15 20 18 21 23 22 21 24 16 26 17 27
REMARK SMILES IDX 19 29
REMARK H PARENT 6 12 1 15 23 23 21 25 17 28 19 30
REMARK Flexibility Score: inf
ROOT
ATOM      1  O   UNL     1      10.977 -11.817 -25.785  1.00  0.00    -0.310 OA
ENDROOT
BRANCH   1   2
ATOM      2  C   UNL     1      12.077 -10.988 -26.134  1.00  0.00     0.316 C 
ATOM      3  C   UNL     1      13.812  -9.388 -27.764  1.00  0.00     0.018 C 
ATOM      4  C   UNL     1      12.617  -8.863 -27.493  1.00  0.00     0.186 C 
ATOM      5  C   UNL     1      14.175 -10.846 -27.573  1.00  0.00     0.061 C 
ATOM      6  O   UNL     1      11.679  -9.719 -26.823  1.00  0.00    -0.472 OA
ATOM      7  C   UNL     1      13.061 -11.760 -27.027  1.00  0.00     0.096 C 
ATOM      8  C   UNL     1      15.381 -11.068 -26.636  1.00  0.00     0.145 C 
ATOM      9  C   UNL     1      13.826 -12.766 -26.227  1.00  0.00    -0.036 C 
ATOM     10  C   UNL     1      15.077 -12.382 -26.005  1.00  0.00     0.007 C 
BRANCH   8  11
ATOM     11  O   UNL     1      15.445 -10.089 -25.631  1.00  0.00    -0.388 OA
ATOM     12  H   UNL     1      14.611 -10.176 -25.098  1.00  0.00     0.211 HD
ENDBRANCH   8  11
BRANCH   9  13
ATOM     13  C   UNL     1      13.225 -14.011 -25.642  1.00  0.00     0.187 C 
BRANCH  13  14
ATOM     14  O   UNL     1      13.927 -15.125 -26.119  1.00  0.00    -0.392 OA
ATOM     15  H   UNL     1      13.370 -15.916 -25.899  1.00  0.00     0.211 HD
ENDBRANCH  13  14
ENDBRANCH   9  13
ENDBRANCH   1   2
BRANCH   1  16
ATOM     16  C   UNL     1      10.437 -12.547 -26.871  1.00  0.00     0.286 C 
ATOM     17  C   UNL     1      10.778 -14.045 -26.675  1.00  0.00     0.202 C 
ATOM     18  O   UNL     1      10.995 -12.105 -28.095  1.00  0.00    -0.341 OA
ATOM     19  C   UNL     1      10.899 -14.803 -28.029  1.00  0.00     0.179 C 
ATOM     20  C   UNL     1      10.222 -12.592 -29.180  1.00  0.00     0.178 C 
ATOM     21  C   UNL     1      10.064 -14.149 -29.154  1.00  0.00     0.177 C 
BRANCH  17  22
ATOM     22  O   UNL     1       9.841 -14.662 -25.822  1.00  0.00    -0.385 OA
ATOM     23  H   UNL     1       8.984 -14.742 -26.319  1.00  0.00     0.211 HD
ENDBRANCH  17  22
BRANCH  19  24
ATOM     24  O   UNL     1      12.243 -14.924 -28.422  1.00  0.00    -0.387 OA
ATOM     25  H   UNL     1      12.299 -14.782 -29.401  1.00  0.00     0.211 HD
ENDBRANCH  19  24
BRANCH  20  26
ATOM     26  C   UNL     1      10.844 -12.106 -30.498  1.00  0.00     0.191 C 
BRANCH  26  27
ATOM     27  O   UNL     1      11.734 -11.040 -30.284  1.00  0.00    -0.394 OA
ATOM     28  H   UNL     1      11.447 -10.307 -30.889  1.00  0.00     0.210 HD
ENDBRANCH  26  27
ENDBRANCH  20  26
BRANCH  21  29
ATOM     29  O   UNL     1       8.715 -14.485 -28.962  1.00  0.00    -0.387 OA
ATOM     30  H   UNL     1       8.179 -13.713 -29.290  1.00  0.00     0.211 HD
ENDBRANCH  21  29
ENDBRANCH   1  16
TORSDOF 10
ENDMDL
MODEL 6
REMARK VINA RESULT:     6.134      1.635      3.434
REMARK INTER + INTRA:           7.829
REMARK INTER:                   8.663
REMARK INTRA:                  -0.834
REMARK UNBOUND:                -0.816
REMARK SMILES OCC1=C[C@H](O)[C@@H]2C=CO[C@@H](O[C@H]3O[C@@H](CO)[C@H](O)[C@@H](O)[C@@H]3O)[C@H]12
REMARK SMILES IDX 12 1 11 2 8 3 9 4 7 5 10 6 24 7 5 8 3 9 4 10 6 11 2 13 1 14
REMARK SMILES IDX 13 16 22 17 14 18 20 19 15 20 18 21 23 22 21 24 16 26 17 27
REMARK SMILES IDX 19 29
REMARK H PARENT 6 12 1 15 23 23 21 25 17 28 19 30
REMARK Flexibility Score: inf
ROOT
ATOM      1  O   UNL     1      13.700  -9.678 -27.013  1.00  0.00    -0.310 OA
ENDROOT
BRANCH   1   2
ATOM      2  C   UNL     1      12.584 -10.483 -26.657  1.00  0.00     0.316 C 
ATOM      3  C   UNL     1      10.563 -11.679 -25.011  1.00  0.00     0.018 C 
ATOM      4  C   UNL     1      10.418 -10.378 -25.260  1.00  0.00     0.186 C 
ATOM      5  C   UNL     1      11.840 -12.461 -25.235  1.00  0.00     0.061 C 
ATOM      6  O   UNL     1      11.506  -9.731 -25.939  1.00  0.00    -0.472 OA
ATOM      7  C   UNL     1      13.038 -11.666 -25.789  1.00  0.00     0.096 C 
ATOM      8  C   UNL     1      11.673 -13.664 -26.187  1.00  0.00     0.145 C 
ATOM      9  C   UNL     1      13.754 -12.687 -26.616  1.00  0.00    -0.036 C 
ATOM     10  C   UNL     1      13.007 -13.761 -26.842  1.00  0.00     0.007 C 
BRANCH   8  11
ATOM     11  O   UNL     1      10.703 -13.415 -27.173  1.00  0.00    -0.388 OA
ATOM     12  H   UNL     1       9.893 -13.093 -26.697  1.00  0.00     0.211 HD
ENDBRANCH   8  11
BRANCH   9  13
ATOM     13  C   UNL     1      15.112 -12.480 -27.221  1.00  0.00     0.187 C 
BRANCH  13  14
ATOM     14  O   UNL     1      15.787 -11.487 -26.500  1.00  0.00    -0.392 OA
ATOM     15  H   UNL     1      16.236 -11.949 -25.747  1.00  0.00     0.211 HD
ENDBRANCH  13  14
ENDBRANCH   9  13
ENDBRANCH   1   2
BRANCH   1  16
ATOM     16  C   UNL     1      13.357  -8.479 -27.681  1.00  0.00     0.286 C 
ATOM     17  C   UNL     1      14.001  -8.499 -29.090  1.00  0.00     0.202 C 
ATOM     18  O   UNL     1      13.843  -7.355 -26.969  1.00  0.00    -0.341 OA
ATOM     19  C   UNL     1      14.317  -7.067 -29.613  1.00  0.00     0.179 C 
ATOM     20  C   UNL     1      13.221  -6.175 -27.450  1.00  0.00     0.178 C 
ATOM     21  C   UNL     1      13.395  -5.990 -28.995  1.00  0.00     0.177 C 
BRANCH  17  22
ATOM     22  O   UNL     1      13.192  -9.210 -29.997  1.00  0.00    -0.385 OA
ATOM     23  H   UNL     1      13.603  -9.131 -30.899  1.00  0.00     0.211 HD
ENDBRANCH  17  22
BRANCH  19  24
ATOM     24  O   UNL     1      15.667  -6.738 -29.399  1.00  0.00    -0.387 OA
ATOM     25  H   UNL     1      15.717  -5.793 -29.103  1.00  0.00     0.211 HD
ENDBRANCH  19  24
BRANCH  20  26
ATOM     26  C   UNL     1      13.763  -4.968 -26.671  1.00  0.00     0.191 C 
BRANCH  26  27
ATOM     27  O   UNL     1      13.964  -5.279 -25.315  1.00  0.00    -0.394 OA
ATOM     28  H   UNL     1      13.326  -4.720 -24.799  1.00  0.00     0.210 HD
ENDBRANCH  26  27
ENDBRANCH  20  26
BRANCH  21  29
ATOM     29  O   UNL     1      12.142  -6.061 -29.625  1.00  0.00    -0.387 OA
ATOM     30  H   UNL     1      11.561  -5.385 -29.181  1.00  0.00     0.211 HD
ENDBRANCH  21  29
ENDBRANCH   1  16
TORSDOF 10
ENDMDL
MODEL 7
REMARK VINA RESULT:     6.291      1.489      6.780
REMARK INTER + INTRA:           8.049
REMARK INTER:                   8.610
REMARK INTRA:                  -0.561
REMARK UNBOUND:                -0.816
REMARK SMILES OCC1=C[C@H](O)[C@@H]2C=CO[C@@H](O[C@H]3O[C@@H](CO)[C@H](O)[C@@H](O)[C@@H]3O)[C@H]12
REMARK SMILES IDX 12 1 11 2 8 3 9 4 7 5 10 6 24 7 5 8 3 9 4 10 6 11 2 13 1 14
REMARK SMILES IDX 13 16 22 17 14 18 20 19 15 20 18 21 23 22 21 24 16 26 17 27
REMARK SMILES IDX 19 29
REMARK H PARENT 6 12 1 15 23 23 21 25 17 28 19 30
REMARK Flexibility Score: inf
ROOT
ATOM      1  O   UNL     1      13.642  -8.688 -28.490  1.00  0.00    -0.310 OA
ENDROOT
BRANCH   1   2
ATOM      2  C   UNL     1      12.838  -7.520 -28.587  1.00  0.00     0.316 C 
ATOM      3  C   UNL     1      10.951  -5.652 -29.671  1.00  0.00     0.018 C 
ATOM      4  C   UNL     1      10.443  -6.797 -29.216  1.00  0.00     0.186 C 
ATOM      5  C   UNL     1      12.418  -5.416 -29.962  1.00  0.00     0.061 C 
ATOM      6  O   UNL     1      11.388  -7.807 -28.828  1.00  0.00    -0.472 OA
ATOM      7  C   UNL     1      13.364  -6.606 -29.705  1.00  0.00     0.096 C 
ATOM      8  C   UNL     1      13.025  -4.235 -29.176  1.00  0.00     0.145 C 
ATOM      9  C   UNL     1      14.631  -5.931 -29.286  1.00  0.00    -0.036 C 
ATOM     10  C   UNL     1      14.442  -4.652 -28.987  1.00  0.00     0.007 C 
BRANCH   8  11
ATOM     11  O   UNL     1      12.426  -4.088 -27.914  1.00  0.00    -0.388 OA
ATOM     12  H   UNL     1      12.181  -3.128 -27.829  1.00  0.00     0.211 HD
ENDBRANCH   8  11
BRANCH   9  13
ATOM     13  C   UNL     1      15.944  -6.638 -29.110  1.00  0.00     0.187 C 
BRANCH  13  14
ATOM     14  O   UNL     1      16.160  -7.480 -30.208  1.00  0.00    -0.392 OA
ATOM     15  H   UNL     1      16.249  -6.887 -30.998  1.00  0.00     0.211 HD
ENDBRANCH  13  14
ENDBRANCH   9  13
ENDBRANCH   1   2
BRANCH   1  16
ATOM     16  C   UNL     1      13.008  -9.771 -27.836  1.00  0.00     0.286 C 
ATOM     17  C   UNL     1      14.099 -10.660 -27.188  1.00  0.00     0.202 C 
ATOM     18  O   UNL     1      12.271 -10.550 -28.761  1.00  0.00    -0.341 OA
ATOM     19  C   UNL     1      13.660 -12.150 -27.087  1.00  0.00     0.179 C 
ATOM     20  C   UNL     1      11.386 -11.413 -28.066  1.00  0.00     0.178 C 
ATOM     21  C   UNL     1      12.124 -12.316 -27.022  1.00  0.00     0.177 C 
BRANCH  17  22
ATOM     22  O   UNL     1      14.476 -10.149 -25.931  1.00  0.00    -0.385 OA
ATOM     23  H   UNL     1      14.027  -9.271 -25.812  1.00  0.00     0.211 HD
ENDBRANCH  17  22
BRANCH  19  24
ATOM     24  O   UNL     1      14.190 -12.905 -28.148  1.00  0.00    -0.387 OA
ATOM     25  H   UNL     1      14.965 -12.416 -28.526  1.00  0.00     0.211 HD
ENDBRANCH  19  24
BRANCH  20  26
ATOM     26  C   UNL     1      10.599 -12.251 -29.084  1.00  0.00     0.191 C 
BRANCH  26  27
ATOM     27  O   UNL     1      10.807 -11.795 -30.397  1.00  0.00    -0.394 OA
ATOM     28  H   UNL     1       9.908 -11.650 -30.791  1.00  0.00     0.210 HD
ENDBRANCH  26  27
ENDBRANCH  20  26
BRANCH  21  29
ATOM     29  O   UNL     1      11.695 -11.989 -25.726  1.00  0.00    -0.387 OA
ATOM     30  H   UNL     1      10.709 -12.123 -25.710  1.00  0.00     0.211 HD
ENDBRANCH  21  29
ENDBRANCH   1  16
TORSDOF 10
ENDMDL
MODEL 8
REMARK VINA RESULT:     6.330      1.404      2.465
REMARK INTER + INTRA:           8.105
REMARK INTER:                   3.976
REMARK INTRA:                   4.128
REMARK UNBOUND:                -0.816
REMARK SMILES OCC1=C[C@H](O)[C@@H]2C=CO[C@@H](O[C@H]3O[C@@H](CO)[C@H](O)[C@@H](O)[C@@H]3O)[C@H]12
REMARK SMILES IDX 12 1 11 2 8 3 9 4 7 5 10 6 24 7 5 8 3 9 4 10 6 11 2 13 1 14
REMARK SMILES IDX 13 16 22 17 14 18 20 19 15 20 18 21 23 22 21 24 16 26 17 27
REMARK SMILES IDX 19 29
REMARK H PARENT 6 12 1 15 23 23 21 25 17 28 19 30
REMARK Flexibility Score: inf
ROOT
ATOM      1  O   UNL     1      13.165 -10.403 -28.241  1.00  0.00    -0.310 OA
ENDROOT
BRANCH   1   2
ATOM      2  C   UNL     1      12.368 -11.018 -27.237  1.00  0.00     0.316 C 
ATOM      3  C   UNL     1      11.190 -11.476 -24.663  1.00  0.00     0.018 C 
ATOM      4  C   UNL     1      10.752 -10.403 -25.323  1.00  0.00     0.186 C 
ATOM      5  C   UNL     1      12.451 -12.241 -25.003  1.00  0.00     0.061 C 
ATOM      6  O   UNL     1      11.450 -10.067 -26.532  1.00  0.00    -0.472 OA
ATOM      7  C   UNL     1      13.265 -11.715 -26.202  1.00  0.00     0.096 C 
ATOM      8  C   UNL     1      12.210 -13.736 -25.298  1.00  0.00     0.145 C 
ATOM      9  C   UNL     1      13.857 -12.966 -26.769  1.00  0.00    -0.036 C 
ATOM     10  C   UNL     1      13.275 -14.058 -26.289  1.00  0.00     0.007 C 
BRANCH   8  11
ATOM     11  O   UNL     1      10.957 -13.953 -25.896  1.00  0.00    -0.388 OA
ATOM     12  H   UNL     1      10.329 -13.307 -25.477  1.00  0.00     0.211 HD
ENDBRANCH   8  11
BRANCH   9  13
ATOM     13  C   UNL     1      14.906 -12.990 -27.842  1.00  0.00     0.187 C 
BRANCH  13  14
ATOM     14  O   UNL     1      16.145 -13.292 -27.263  1.00  0.00    -0.392 OA
ATOM     15  H   UNL     1      16.027 -13.183 -26.285  1.00  0.00     0.211 HD
ENDBRANCH  13  14
ENDBRANCH   9  13
ENDBRANCH   1   2
BRANCH   1  16
ATOM     16  C   UNL     1      13.349  -9.012 -28.059  1.00  0.00     0.286 C 
ATOM     17  C   UNL     1      11.956  -8.336 -28.004  1.00  0.00     0.202 C 
ATOM     18  O   UNL     1      14.085  -8.461 -29.137  1.00  0.00    -0.341 OA
ATOM     19  C   UNL     1      11.994  -6.866 -28.516  1.00  0.00     0.179 C 
ATOM     20  C   UNL     1      14.546  -7.165 -28.791  1.00  0.00     0.178 C 
ATOM     21  C   UNL     1      13.386  -6.213 -28.347  1.00  0.00     0.177 C 
BRANCH  17  22
ATOM     22  O   UNL     1      11.416  -8.412 -26.705  1.00  0.00    -0.385 OA
ATOM     23  H   UNL     1      12.064  -8.905 -26.134  1.00  0.00     0.211 HD
ENDBRANCH  17  22
BRANCH  19  24
ATOM     24  O   UNL     1      11.575  -6.788 -29.856  1.00  0.00    -0.387 OA
ATOM     25  H   UNL     1      11.327  -5.849 -30.054  1.00  0.00     0.211 HD
ENDBRANCH  19  24
BRANCH  20  26
ATOM     26  C   UNL     1      15.337  -6.583 -29.972  1.00  0.00     0.191 C 
BRANCH  26  27
ATOM     27  O   UNL     1      16.212  -7.534 -30.524  1.00  0.00    -0.394 OA
ATOM     28  H   UNL     1      15.645  -8.258 -30.895  1.00  0.00     0.210 HD
ENDBRANCH  26  27
ENDBRANCH  20  26
BRANCH  21  29
ATOM     29  O   UNL     1      13.552  -5.860 -26.998  1.00  0.00    -0.387 OA
ATOM     30  H   UNL     1      12.722  -5.384 -26.724  1.00  0.00     0.211 HD
ENDBRANCH  21  29
ENDBRANCH   1  16
TORSDOF 10
ENDMDL
MODEL 9
REMARK VINA RESULT:     6.371      2.560      5.753
REMARK INTER + INTRA:           8.163
REMARK INTER:                   5.301
REMARK INTRA:                   2.861
REMARK UNBOUND:                -0.816
REMARK SMILES OCC1=C[C@H](O)[C@@H]2C=CO[C@@H](O[C@H]3O[C@@H](CO)[C@H](O)[C@@H](O)[C@@H]3O)[C@H]12
REMARK SMILES IDX 12 1 11 2 8 3 9 4 7 5 10 6 24 7 5 8 3 9 4 10 6 11 2 13 1 14
REMARK SMILES IDX 13 16 22 17 14 18 20 19 15 20 18 21 23 22 21 24 16 26 17 27
REMARK SMILES IDX 19 29
REMARK H PARENT 6 12 1 15 23 23 21 25 17 28 19 30
REMARK Flexibility Score: inf
ROOT
ATOM      1  O   UNL     1      13.668 -12.686 -26.385  1.00  0.00    -0.310 OA
ENDROOT
BRANCH   1   2
ATOM      2  C   UNL     1      13.308 -11.765 -27.406  1.00  0.00     0.316 C 
ATOM      3  C   UNL     1      12.176  -9.430 -28.626  1.00  0.00     0.018 C 
ATOM      4  C   UNL     1      13.258  -9.229 -27.873  1.00  0.00     0.186 C 
ATOM      5  C   UNL     1      11.336 -10.689 -28.608  1.00  0.00     0.061 C 
ATOM      6  O   UNL     1      13.733 -10.357 -27.123  1.00  0.00    -0.472 OA
ATOM      7  C   UNL     1      11.789 -11.797 -27.637  1.00  0.00     0.096 C 
ATOM      8  C   UNL     1      11.217 -11.376 -29.984  1.00  0.00     0.145 C 
ATOM      9  C   UNL     1      11.387 -13.046 -28.355  1.00  0.00    -0.036 C 
ATOM     10  C   UNL     1      11.092 -12.817 -29.629  1.00  0.00     0.007 C 
BRANCH   8  11
ATOM     11  O   UNL     1      12.378 -11.201 -30.755  1.00  0.00    -0.388 OA
ATOM     12  H   UNL     1      12.101 -10.708 -31.572  1.00  0.00     0.211 HD
ENDBRANCH   8  11
BRANCH   9  13
ATOM     13  C   UNL     1      11.424 -14.417 -27.746  1.00  0.00     0.187 C 
BRANCH  13  14
ATOM     14  O   UNL     1      10.276 -15.120 -28.133  1.00  0.00    -0.392 OA
ATOM     15  H   UNL     1       9.674 -15.121 -27.346  1.00  0.00     0.211 HD
ENDBRANCH  13  14
ENDBRANCH   9  13
ENDBRANCH   1   2
BRANCH   1  16
ATOM     16  C   UNL     1      12.806 -12.669 -25.262  1.00  0.00     0.286 C 
ATOM     17  C   UNL     1      12.039 -14.014 -25.211  1.00  0.00     0.202 C 
ATOM     18  O   UNL     1      11.871 -11.610 -25.368  1.00  0.00    -0.341 OA
ATOM     19  C   UNL     1      10.641 -13.869 -24.542  1.00  0.00     0.179 C 
ATOM     20  C   UNL     1      11.246 -11.394 -24.113  1.00  0.00     0.178 C 
ATOM     21  C   UNL     1      10.578 -12.689 -23.543  1.00  0.00     0.177 C 
BRANCH  17  22
ATOM     22  O   UNL     1      12.812 -15.004 -24.575  1.00  0.00    -0.385 OA
ATOM     23  H   UNL     1      13.672 -15.082 -25.067  1.00  0.00     0.211 HD
ENDBRANCH  17  22
BRANCH  19  24
ATOM     24  O   UNL     1       9.628 -13.746 -25.509  1.00  0.00    -0.387 OA
ATOM     25  H   UNL     1       9.767 -14.444 -26.200  1.00  0.00     0.211 HD
ENDBRANCH  19  24
BRANCH  20  26
ATOM     26  C   UNL     1      10.234 -10.247 -24.248  1.00  0.00     0.191 C 
BRANCH  26  27
ATOM     27  O   UNL     1      10.259  -9.686 -25.536  1.00  0.00    -0.394 OA
ATOM     28  H   UNL     1      10.699 -10.353 -26.125  1.00  0.00     0.210 HD
ENDBRANCH  26  27
ENDBRANCH  20  26
BRANCH  21  29
ATOM     29  O   UNL     1      11.225 -13.074 -22.358  1.00  0.00    -0.387 OA
ATOM     30  H   UNL     1      11.859 -13.802 -22.602  1.00  0.00     0.211 HD
ENDBRANCH  21  29
ENDBRANCH   1  16
TORSDOF 10
ENDMDL
