MODEL 1
REMARK VINA RESULT:    -3.246      0.000      0.000
REMARK INTER + INTRA:          -3.842
REMARK INTER:                  -3.815
REMARK INTRA:                  -0.027
REMARK UNBOUND:                -0.027
REMARK SMILES CCCCC(=O)[O-]
REMARK SMILES IDX 4 1 5 2 6 3 7 4 3 5 2 6 1 7
REMARK H PARENT
REMARK Flexibility Score: inf
ROOT
ATOM      1  C   UNL     1      36.632  23.487 221.813  1.00  0.00     0.053 C 
ENDROOT
BRANCH   1   2
ATOM      2  C   UNL     1      36.481  23.448 223.303  1.00  0.00     0.041 C 
ATOM      3  O   UNL     1      36.833  22.427 223.949  1.00  0.00    -0.550 OA
ATOM      4  O   UNL     1      35.922  24.528 223.974  1.00  0.00    -0.550 OA
ENDBRANCH   1   2
BRANCH   1   5
ATOM      5  C   UNL     1      35.350  23.972 221.117  1.00  0.00     0.006 C 
BRANCH   5   6
ATOM      6  C   UNL     1      35.528  24.287 219.620  1.00  0.00    -0.003 C 
ATOM      7  C   UNL     1      36.727  23.571 219.001  1.00  0.00     0.004 C 
ENDBRANCH   5   6
ENDBRANCH   1   5
TORSDOF 3
ENDMDL
MODEL 2
REMARK VINA RESULT:    -3.227      0.106      1.229
REMARK INTER + INTRA:          -3.820
REMARK INTER:                  -3.794
REMARK INTRA:                  -0.026
REMARK UNBOUND:                -0.027
REMARK SMILES CCCCC(=O)[O-]
REMARK SMILES IDX 4 1 5 2 6 3 7 4 3 5 2 6 1 7
REMARK H PARENT
REMARK Flexibility Score: inf
ROOT
ATOM      1  C   UNL     1      36.689  23.620 221.883  1.00  0.00     0.053 C 
ENDROOT
BRANCH   1   2
ATOM      2  C   UNL     1      36.490  23.494 223.362  1.00  0.00     0.041 C 
ATOM      3  O   UNL     1      36.008  24.453 224.020  1.00  0.00    -0.550 OA
ATOM      4  O   UNL     1      36.867  22.329 224.019  1.00  0.00    -0.550 OA
ENDBRANCH   1   2
BRANCH   1   5
ATOM      5  C   UNL     1      35.389  24.004 221.158  1.00  0.00     0.006 C 
BRANCH   5   6
ATOM      6  C   UNL     1      35.568  24.286 219.655  1.00  0.00    -0.003 C 
ATOM      7  C   UNL     1      36.794  23.595 219.061  1.00  0.00     0.004 C 
ENDBRANCH   5   6
ENDBRANCH   1   5
TORSDOF 3
ENDMDL
MODEL 3
REMARK VINA RESULT:    -3.133      1.157      1.365
REMARK INTER + INTRA:          -3.709
REMARK INTER:                  -3.645
REMARK INTRA:                  -0.064
REMARK UNBOUND:                -0.027
REMARK SMILES CCCCC(=O)[O-]
REMARK SMILES IDX 4 1 5 2 6 3 7 4 3 5 2 6 1 7
REMARK H PARENT
REMARK Flexibility Score: inf
ROOT
ATOM      1  C   UNL     1      36.299  24.515 222.141  1.00  0.00     0.053 C 
ENDROOT
BRANCH   1   2
ATOM      2  C   UNL     1      37.242  23.502 222.713  1.00  0.00     0.041 C 
ATOM      3  O   UNL     1      36.810  22.587 223.462  1.00  0.00    -0.550 OA
ATOM      4  O   UNL     1      38.602  23.587 222.445  1.00  0.00    -0.550 OA
ENDBRANCH   1   2
BRANCH   1   5
ATOM      5  C   UNL     1      35.235  23.868 221.240  1.00  0.00     0.006 C 
BRANCH   5   6
ATOM      6  C   UNL     1      35.335  24.272 219.758  1.00  0.00    -0.003 C 
ATOM      7  C   UNL     1      36.618  23.777 219.092  1.00  0.00     0.004 C 
ENDBRANCH   5   6
ENDBRANCH   1   5
TORSDOF 3
ENDMDL
MODEL 4
REMARK VINA RESULT:    -3.009      2.813      3.932
REMARK INTER + INTRA:          -3.564
REMARK INTER:                  -3.515
REMARK INTRA:                  -0.049
REMARK UNBOUND:                -0.027
REMARK SMILES CCCCC(=O)[O-]
REMARK SMILES IDX 4 1 5 2 6 3 7 4 3 5 2 6 1 7
REMARK H PARENT
REMARK Flexibility Score: inf
ROOT
ATOM      1  C   UNL     1      36.601  23.865 221.355  1.00  0.00     0.053 C 
ENDROOT
BRANCH   1   2
ATOM      2  C   UNL     1      36.071  23.985 219.960  1.00  0.00     0.041 C 
ATOM      3  O   UNL     1      34.880  24.344 219.765  1.00  0.00    -0.550 OA
ATOM      4  O   UNL     1      36.881  23.668 218.877  1.00  0.00    -0.550 OA
ENDBRANCH   1   2
BRANCH   1   5
ATOM      5  C   UNL     1      35.489  23.999 222.409  1.00  0.00     0.006 C 
BRANCH   5   6
ATOM      6  C   UNL     1      35.946  24.651 223.726  1.00  0.00    -0.003 C 
ATOM      7  C   UNL     1      37.199  25.510 223.561  1.00  0.00     0.004 C 
ENDBRANCH   5   6
ENDBRANCH   1   5
TORSDOF 3
ENDMDL
MODEL 5
REMARK VINA RESULT:    -2.981      2.715      4.088
REMARK INTER + INTRA:          -3.531
REMARK INTER:                  -3.515
REMARK INTRA:                  -0.016
REMARK UNBOUND:                -0.027
REMARK SMILES CCCCC(=O)[O-]
REMARK SMILES IDX 4 1 5 2 6 3 7 4 3 5 2 6 1 7
REMARK H PARENT
REMARK Flexibility Score: inf
ROOT
ATOM      1  C   UNL     1      36.529  23.711 221.341  1.00  0.00     0.053 C 
ENDROOT
BRANCH   1   2
ATOM      2  C   UNL     1      35.871  24.157 220.073  1.00  0.00     0.041 C 
ATOM      3  O   UNL     1      36.561  24.643 219.138  1.00  0.00    -0.550 OA
ATOM      4  O   UNL     1      34.491  24.066 219.934  1.00  0.00    -0.550 OA
ENDBRANCH   1   2
BRANCH   1   5
ATOM      5  C   UNL     1      35.708  24.098 222.583  1.00  0.00     0.006 C 
BRANCH   5   6
ATOM      6  C   UNL     1      36.547  24.270 223.863  1.00  0.00    -0.003 C 
ATOM      7  C   UNL     1      35.979  25.330 224.806  1.00  0.00     0.004 C 
ENDBRANCH   5   6
ENDBRANCH   1   5
TORSDOF 3
ENDMDL
MODEL 6
REMARK VINA RESULT:    -2.869      2.402      3.931
REMARK INTER + INTRA:          -3.399
REMARK INTER:                  -3.363
REMARK INTRA:                  -0.036
REMARK UNBOUND:                -0.027
REMARK SMILES CCCCC(=O)[O-]
REMARK SMILES IDX 4 1 5 2 6 3 7 4 3 5 2 6 1 7
REMARK H PARENT
REMARK Flexibility Score: inf
ROOT
ATOM      1  C   UNL     1      36.106  24.027 221.491  1.00  0.00     0.053 C 
ENDROOT
BRANCH   1   2
ATOM      2  C   UNL     1      34.776  24.020 220.804  1.00  0.00     0.041 C 
ATOM      3  O   UNL     1      34.703  24.228 219.564  1.00  0.00    -0.550 OA
ATOM      4  O   UNL     1      33.614  23.815 221.537  1.00  0.00    -0.550 OA
ENDBRANCH   1   2
BRANCH   1   5
ATOM      5  C   UNL     1      35.964  23.991 223.022  1.00  0.00     0.006 C 
BRANCH   5   6
ATOM      6  C   UNL     1      36.780  22.878 223.704  1.00  0.00    -0.003 C 
ATOM      7  C   UNL     1      37.657  23.396 224.843  1.00  0.00     0.004 C 
ENDBRANCH   5   6
ENDBRANCH   1   5
TORSDOF 3
ENDMDL
MODEL 7
REMARK VINA RESULT:    -2.780      1.967      2.375
REMARK INTER + INTRA:          -3.295
REMARK INTER:                  -3.187
REMARK INTRA:                  -0.108
REMARK UNBOUND:                -0.027
REMARK SMILES CCCCC(=O)[O-]
REMARK SMILES IDX 4 1 5 2 6 3 7 4 3 5 2 6 1 7
REMARK H PARENT
REMARK Flexibility Score: inf
ROOT
ATOM      1  C   UNL     1      37.463  24.166 222.937  1.00  0.00     0.053 C 
ENDROOT
BRANCH   1   2
ATOM      2  C   UNL     1      38.782  23.491 223.154  1.00  0.00     0.041 C 
ATOM      3  O   UNL     1      39.788  23.837 222.480  1.00  0.00    -0.550 OA
ATOM      4  O   UNL     1      38.893  22.459 224.077  1.00  0.00    -0.550 OA
ENDBRANCH   1   2
BRANCH   1   5
ATOM      5  C   UNL     1      36.564  23.376 221.972  1.00  0.00     0.006 C 
BRANCH   5   6
ATOM      6  C   UNL     1      36.558  23.919 220.531  1.00  0.00    -0.003 C 
ATOM      7  C   UNL     1      37.520  23.169 219.610  1.00  0.00     0.004 C 
ENDBRANCH   5   6
ENDBRANCH   1   5
TORSDOF 3
ENDMDL
MODEL 8
REMARK VINA RESULT:    -2.716      2.359      3.837
REMARK INTER + INTRA:          -3.219
REMARK INTER:                  -3.127
REMARK INTRA:                  -0.092
REMARK UNBOUND:                -0.027
REMARK SMILES CCCCC(=O)[O-]
REMARK SMILES IDX 4 1 5 2 6 3 7 4 3 5 2 6 1 7
REMARK H PARENT
REMARK Flexibility Score: inf
ROOT
ATOM      1  C   UNL     1      36.460  23.485 223.493  1.00  0.00     0.053 C 
ENDROOT
BRANCH   1   2
ATOM      2  C   UNL     1      36.273  23.628 222.014  1.00  0.00     0.041 C 
ATOM      3  O   UNL     1      35.139  23.907 221.544  1.00  0.00    -0.550 OA
ATOM      4  O   UNL     1      37.344  23.423 221.154  1.00  0.00    -0.550 OA
ENDBRANCH   1   2
BRANCH   1   5
ATOM      5  C   UNL     1      36.331  24.832 224.224  1.00  0.00     0.006 C 
BRANCH   5   6
ATOM      6  C   UNL     1      37.334  25.901 223.753  1.00  0.00    -0.003 C 
ATOM      7  C   UNL     1      38.507  26.080 224.715  1.00  0.00     0.004 C 
ENDBRANCH   5   6
ENDBRANCH   1   5
TORSDOF 3
ENDMDL
MODEL 9
REMARK VINA RESULT:    -2.693      2.607      3.440
REMARK INTER + INTRA:          -3.193
REMARK INTER:                  -3.116
REMARK INTRA:                  -0.077
REMARK UNBOUND:                -0.027
REMARK SMILES CCCCC(=O)[O-]
REMARK SMILES IDX 4 1 5 2 6 3 7 4 3 5 2 6 1 7
REMARK H PARENT
REMARK Flexibility Score: inf
ROOT
ATOM      1  C   UNL     1      36.822  22.761 223.581  1.00  0.00     0.053 C 
ENDROOT
BRANCH   1   2
ATOM      2  C   UNL     1      35.998  23.957 223.218  1.00  0.00     0.041 C 
ATOM      3  O   UNL     1      35.429  24.017 222.097  1.00  0.00    -0.550 OA
ATOM      4  O   UNL     1      35.883  25.019 224.106  1.00  0.00    -0.550 OA
ENDBRANCH   1   2
BRANCH   1   5
ATOM      5  C   UNL     1      38.277  23.141 223.904  1.00  0.00     0.006 C 
BRANCH   5   6
ATOM      6  C   UNL     1      39.091  23.606 222.683  1.00  0.00    -0.003 C 
ATOM      7  C   UNL     1      40.517  24.021 223.042  1.00  0.00     0.004 C 
ENDBRANCH   5   6
ENDBRANCH   1   5
TORSDOF 3
ENDMDL
