MODEL 1
REMARK VINA RESULT:    -6.796      0.000      0.000
REMARK INTER + INTRA:          -8.754
REMARK INTER:                  -8.386
REMARK INTRA:                  -0.369
REMARK UNBOUND:                -0.369
REMARK SMILES O=c1c(O)c(-c2cc(O)c(O)c(O)c2)oc2cc(O)cc(O)c12
REMARK SMILES IDX 5 1 3 2 2 3 1 4 23 5 21 6 20 7 18 8 17 9 16 10 15 11 6 12
REMARK SMILES IDX 7 13 8 14 14 15 10 16 12 17 9 18 11 20 13 22 4 24 22 26
REMARK SMILES IDX 19 28
REMARK H PARENT 9 19 11 21 13 23 4 25 22 27 19 29
REMARK Flexibility Score: inf
ROOT
ATOM      1  C   UNL     1      -4.816  35.953  59.819  1.00  0.00     0.180 A 
ATOM      2  C   UNL     1      -6.094  35.867  59.239  1.00  0.00     0.208 A 
ATOM      3  C   UNL     1      -6.915  37.005  59.229  1.00  0.00     0.238 A 
ATOM      4  O   UNL     1      -8.036  36.937  58.659  1.00  0.00    -0.285 OA
ATOM      5  C   UNL     1      -6.456  38.211  59.813  1.00  0.00     0.111 A 
ATOM      6  C   UNL     1      -7.221  39.414  59.894  1.00  0.00     0.134 A 
ATOM      7  C   UNL     1      -6.617  40.583  60.375  1.00  0.00     0.093 A 
ATOM      8  C   UNL     1      -5.300  40.576  60.839  1.00  0.00     0.123 A 
ATOM      9  C   UNL     1      -4.566  39.392  60.819  1.00  0.00     0.094 A 
ATOM     10  C   UNL     1      -5.128  38.219  60.311  1.00  0.00     0.146 A 
ATOM     11  O   UNL     1      -4.389  37.116  60.300  1.00  0.00    -0.452 OA
ENDROOT
BRANCH   1  12
ATOM     12  C   UNL     1      -3.903  34.790  59.891  1.00  0.00     0.029 A 
ATOM     13  C   UNL     1      -3.933  33.902  60.980  1.00  0.00     0.062 A 
ATOM     14  C   UNL     1      -3.045  32.820  61.042  1.00  0.00     0.162 A 
ATOM     15  C   UNL     1      -2.947  34.599  58.881  1.00  0.00     0.062 A 
ATOM     16  C   UNL     1      -2.107  32.624  60.014  1.00  0.00     0.200 A 
ATOM     17  C   UNL     1      -2.058  33.517  58.937  1.00  0.00     0.162 A 
BRANCH  14  18
ATOM     18  O   UNL     1      -3.088  31.941  62.124  1.00  0.00    -0.504 OA
ATOM     19  H   UNL     1      -2.341  31.280  62.302  1.00  0.00     0.293 HD
ENDBRANCH  14  18
BRANCH  16  20
ATOM     20  O   UNL     1      -1.216  31.552  60.051  1.00  0.00    -0.502 OA
ATOM     21  H   UNL     1      -1.348  30.762  60.671  1.00  0.00     0.293 HD
ENDBRANCH  16  20
BRANCH  17  22
ATOM     22  O   UNL     1      -1.120  33.325  57.923  1.00  0.00    -0.504 OA
ATOM     23  H   UNL     1      -1.398  33.044  56.990  1.00  0.00     0.293 HD
ENDBRANCH  17  22
ENDBRANCH   1  12
BRANCH   2  24
ATOM     24  O   UNL     1      -6.518  34.673  58.649  1.00  0.00    -0.502 OA
ATOM     25  H   UNL     1      -6.809  33.870  59.195  1.00  0.00     0.293 HD
ENDBRANCH   2  24
BRANCH   6  26
ATOM     26  O   UNL     1      -8.570  39.506  59.543  1.00  0.00    -0.507 OA
ATOM     27  H   UNL     1      -9.256  38.783  59.699  1.00  0.00     0.293 HD
ENDBRANCH   6  26
BRANCH   8  28
ATOM     28  O   UNL     1      -4.714  41.740  61.331  1.00  0.00    -0.508 OA
ATOM     29  H   UNL     1      -5.274  42.516  61.663  1.00  0.00     0.293 HD
ENDBRANCH   8  28
TORSDOF 7
ENDMDL
MODEL 2
REMARK VINA RESULT:    -6.568     14.951     16.920
REMARK INTER + INTRA:          -8.473
REMARK INTER:                  -8.122
REMARK INTRA:                  -0.351
REMARK UNBOUND:                -0.369
REMARK SMILES O=c1c(O)c(-c2cc(O)c(O)c(O)c2)oc2cc(O)cc(O)c12
REMARK SMILES IDX 5 1 3 2 2 3 1 4 23 5 21 6 20 7 18 8 17 9 16 10 15 11 6 12
REMARK SMILES IDX 7 13 8 14 14 15 10 16 12 17 9 18 11 20 13 22 4 24 22 26
REMARK SMILES IDX 19 28
REMARK H PARENT 9 19 11 21 13 23 4 25 22 27 19 29
REMARK Flexibility Score: inf
ROOT
ATOM      1  C   UNL     1     -16.412  27.939  51.991  1.00  0.00     0.180 A 
ATOM      2  C   UNL     1     -15.537  27.830  50.896  1.00  0.00     0.208 A 
ATOM      3  C   UNL     1     -15.763  28.624  49.761  1.00  0.00     0.238 A 
ATOM      4  O   UNL     1     -14.945  28.562  48.807  1.00  0.00    -0.285 OA
ATOM      5  C   UNL     1     -16.870  29.507  49.728  1.00  0.00     0.111 A 
ATOM      6  C   UNL     1     -17.218  30.329  48.614  1.00  0.00     0.134 A 
ATOM      7  C   UNL     1     -18.257  31.259  48.741  1.00  0.00     0.093 A 
ATOM      8  C   UNL     1     -19.003  31.350  49.919  1.00  0.00     0.123 A 
ATOM      9  C   UNL     1     -18.710  30.510  50.990  1.00  0.00     0.094 A 
ATOM     10  C   UNL     1     -17.655  29.597  50.906  1.00  0.00     0.146 A 
ATOM     11  O   UNL     1     -17.403  28.823  51.955  1.00  0.00    -0.452 OA
ENDROOT
BRANCH   1  12
ATOM     12  C   UNL     1     -16.254  27.117  53.212  1.00  0.00     0.029 A 
ATOM     13  C   UNL     1     -16.975  25.923  53.388  1.00  0.00     0.062 A 
ATOM     14  C   UNL     1     -16.830  25.170  54.561  1.00  0.00     0.162 A 
ATOM     15  C   UNL     1     -15.410  27.563  54.241  1.00  0.00     0.062 A 
ATOM     16  C   UNL     1     -15.965  25.614  55.576  1.00  0.00     0.200 A 
ATOM     17  C   UNL     1     -15.259  26.813  55.415  1.00  0.00     0.162 A 
BRANCH  14  18
ATOM     18  O   UNL     1     -17.544  23.983  54.723  1.00  0.00    -0.504 OA
ATOM     19  H   UNL     1     -17.081  23.109  54.942  1.00  0.00     0.293 HD
ENDBRANCH  14  18
BRANCH  16  20
ATOM     20  O   UNL     1     -15.800  24.879  56.750  1.00  0.00    -0.502 OA
ATOM     21  H   UNL     1     -15.382  25.279  57.582  1.00  0.00     0.293 HD
ENDBRANCH  16  20
BRANCH  17  22
ATOM     22  O   UNL     1     -14.410  27.255  56.428  1.00  0.00    -0.504 OA
ATOM     23  H   UNL     1     -14.512  26.934  57.384  1.00  0.00     0.293 HD
ENDBRANCH  17  22
ENDBRANCH   1  12
BRANCH   2  24
ATOM     24  O   UNL     1     -14.438  26.968  50.959  1.00  0.00    -0.502 OA
ATOM     25  H   UNL     1     -14.537  25.968  51.090  1.00  0.00     0.293 HD
ENDBRANCH   2  24
BRANCH   6  26
ATOM     26  O   UNL     1     -16.597  30.253  47.364  1.00  0.00    -0.507 OA
ATOM     27  H   UNL     1     -17.049  30.450  46.484  1.00  0.00     0.293 HD
ENDBRANCH   6  26
BRANCH   8  28
ATOM     28  O   UNL     1     -20.046  32.268  50.030  1.00  0.00    -0.508 OA
ATOM     29  H   UNL     1     -19.975  33.200  49.641  1.00  0.00     0.293 HD
ENDBRANCH   8  28
TORSDOF 7
ENDMDL
MODEL 3
REMARK VINA RESULT:    -6.348     15.736     17.352
REMARK INTER + INTRA:          -8.201
REMARK INTER:                  -8.144
REMARK INTRA:                  -0.057
REMARK UNBOUND:                -0.369
REMARK SMILES O=c1c(O)c(-c2cc(O)c(O)c(O)c2)oc2cc(O)cc(O)c12
REMARK SMILES IDX 5 1 3 2 2 3 1 4 23 5 21 6 20 7 18 8 17 9 16 10 15 11 6 12
REMARK SMILES IDX 7 13 8 14 14 15 10 16 12 17 9 18 11 20 13 22 4 24 22 26
REMARK SMILES IDX 19 28
REMARK H PARENT 9 19 11 21 13 23 4 25 22 27 19 29
REMARK Flexibility Score: inf
ROOT
ATOM      1  C   UNL     1     -16.417  27.974  52.375  1.00  0.00     0.180 A 
ATOM      2  C   UNL     1     -15.435  26.991  52.586  1.00  0.00     0.208 A 
ATOM      3  C   UNL     1     -15.494  26.207  53.749  1.00  0.00     0.238 A 
ATOM      4  O   UNL     1     -14.644  25.292  53.905  1.00  0.00    -0.285 OA
ATOM      5  C   UNL     1     -16.526  26.426  54.694  1.00  0.00     0.111 A 
ATOM      6  C   UNL     1     -16.659  25.716  55.926  1.00  0.00     0.134 A 
ATOM      7  C   UNL     1     -17.792  25.926  56.723  1.00  0.00     0.093 A 
ATOM      8  C   UNL     1     -18.762  26.865  56.365  1.00  0.00     0.123 A 
ATOM      9  C   UNL     1     -18.609  27.605  55.194  1.00  0.00     0.094 A 
ATOM     10  C   UNL     1     -17.509  27.392  54.361  1.00  0.00     0.146 A 
ATOM     11  O   UNL     1     -17.408  28.111  53.249  1.00  0.00    -0.452 OA
ENDROOT
BRANCH   1  12
ATOM     12  C   UNL     1     -16.406  28.857  51.187  1.00  0.00     0.029 A 
ATOM     13  C   UNL     1     -16.347  28.330  49.885  1.00  0.00     0.062 A 
ATOM     14  C   UNL     1     -16.313  29.181  48.772  1.00  0.00     0.162 A 
ATOM     15  C   UNL     1     -16.397  30.250  51.360  1.00  0.00     0.062 A 
ATOM     16  C   UNL     1     -16.328  30.575  48.956  1.00  0.00     0.200 A 
ATOM     17  C   UNL     1     -16.366  31.106  50.251  1.00  0.00     0.162 A 
BRANCH  14  18
ATOM     18  O   UNL     1     -16.262  28.648  47.485  1.00  0.00    -0.504 OA
ATOM     19  H   UNL     1     -16.663  29.134  46.692  1.00  0.00     0.293 HD
ENDBRANCH  14  18
BRANCH  16  20
ATOM     20  O   UNL     1     -16.300  31.442  47.864  1.00  0.00    -0.502 OA
ATOM     21  H   UNL     1     -16.989  31.400  47.124  1.00  0.00     0.293 HD
ENDBRANCH  16  20
BRANCH  17  22
ATOM     22  O   UNL     1     -16.371  32.489  50.430  1.00  0.00    -0.504 OA
ATOM     23  H   UNL     1     -16.103  32.911  51.311  1.00  0.00     0.293 HD
ENDBRANCH  17  22
ENDBRANCH   1  12
BRANCH   2  24
ATOM     24  O   UNL     1     -14.438  26.777  51.629  1.00  0.00    -0.502 OA
ATOM     25  H   UNL     1     -14.352  25.905  51.120  1.00  0.00     0.293 HD
ENDBRANCH   2  24
BRANCH   6  26
ATOM     26  O   UNL     1     -15.704  24.825  56.421  1.00  0.00    -0.507 OA
ATOM     27  H   UNL     1     -15.336  24.035  55.913  1.00  0.00     0.293 HD
ENDBRANCH   6  26
BRANCH   8  28
ATOM     28  O   UNL     1     -19.877  27.077  57.172  1.00  0.00    -0.508 OA
ATOM     29  H   UNL     1     -19.786  27.406  58.126  1.00  0.00     0.293 HD
ENDBRANCH   8  28
TORSDOF 7
ENDMDL
MODEL 4
REMARK VINA RESULT:    -6.205     15.758     17.380
REMARK INTER + INTRA:          -8.025
REMARK INTER:                  -7.961
REMARK INTRA:                  -0.064
REMARK UNBOUND:                -0.369
REMARK SMILES O=c1c(O)c(-c2cc(O)c(O)c(O)c2)oc2cc(O)cc(O)c12
REMARK SMILES IDX 5 1 3 2 2 3 1 4 23 5 21 6 20 7 18 8 17 9 16 10 15 11 6 12
REMARK SMILES IDX 7 13 8 14 14 15 10 16 12 17 9 18 11 20 13 22 4 24 22 26
REMARK SMILES IDX 19 28
REMARK H PARENT 9 19 11 21 13 23 4 25 22 27 19 29
REMARK Flexibility Score: inf
ROOT
ATOM      1  C   UNL     1     -16.478  28.138  52.292  1.00  0.00     0.180 A 
ATOM      2  C   UNL     1     -15.515  27.139  52.514  1.00  0.00     0.208 A 
ATOM      3  C   UNL     1     -15.626  26.326  53.652  1.00  0.00     0.238 A 
ATOM      4  O   UNL     1     -14.792  25.397  53.816  1.00  0.00    -0.285 OA
ATOM      5  C   UNL     1     -16.690  26.532  54.564  1.00  0.00     0.111 A 
ATOM      6  C   UNL     1     -16.876  25.792  55.771  1.00  0.00     0.134 A 
ATOM      7  C   UNL     1     -18.036  25.994  56.531  1.00  0.00     0.093 A 
ATOM      8  C   UNL     1     -18.982  26.953  56.161  1.00  0.00     0.123 A 
ATOM      9  C   UNL     1     -18.778  27.721  55.017  1.00  0.00     0.094 A 
ATOM     10  C   UNL     1     -17.649  27.518  54.220  1.00  0.00     0.146 A 
ATOM     11  O   UNL     1     -17.500  28.264  53.132  1.00  0.00    -0.452 OA
ENDROOT
BRANCH   1  12
ATOM     12  C   UNL     1     -16.414  29.051  51.129  1.00  0.00     0.029 A 
ATOM     13  C   UNL     1     -16.438  30.448  51.292  1.00  0.00     0.062 A 
ATOM     14  C   UNL     1     -16.400  31.296  50.177  1.00  0.00     0.162 A 
ATOM     15  C   UNL     1     -16.385  28.516  49.832  1.00  0.00     0.062 A 
ATOM     16  C   UNL     1     -16.349  30.750  48.883  1.00  0.00     0.200 A 
ATOM     17  C   UNL     1     -16.345  29.359  48.713  1.00  0.00     0.162 A 
BRANCH  14  18
ATOM     18  O   UNL     1     -16.418  32.679  50.350  1.00  0.00    -0.504 OA
ATOM     19  H   UNL     1     -16.282  33.102  51.261  1.00  0.00     0.293 HD
ENDBRANCH  14  18
BRANCH  16  20
ATOM     20  O   UNL     1     -16.306  31.573  47.758  1.00  0.00    -0.502 OA
ATOM     21  H   UNL     1     -15.653  32.343  47.678  1.00  0.00     0.293 HD
ENDBRANCH  16  20
BRANCH  17  22
ATOM     22  O   UNL     1     -16.303  28.821  47.428  1.00  0.00    -0.504 OA
ATOM     23  H   UNL     1     -17.108  28.853  46.813  1.00  0.00     0.293 HD
ENDBRANCH  17  22
ENDBRANCH   1  12
BRANCH   2  24
ATOM     24  O   UNL     1     -14.486  26.938  51.589  1.00  0.00    -0.502 OA
ATOM     25  H   UNL     1     -13.545  27.285  51.738  1.00  0.00     0.293 HD
ENDBRANCH   2  24
BRANCH   6  26
ATOM     26  O   UNL     1     -15.949  24.878  56.278  1.00  0.00    -0.507 OA
ATOM     27  H   UNL     1     -16.187  24.041  56.790  1.00  0.00     0.293 HD
ENDBRANCH   6  26
BRANCH   8  28
ATOM     28  O   UNL     1     -20.125  27.158  56.932  1.00  0.00    -0.508 OA
ATOM     29  H   UNL     1     -20.658  28.017  56.872  1.00  0.00     0.293 HD
ENDBRANCH   8  28
TORSDOF 7
ENDMDL
MODEL 5
REMARK VINA RESULT:    -6.192      1.266      2.847
REMARK INTER + INTRA:          -8.008
REMARK INTER:                  -7.651
REMARK INTRA:                  -0.357
REMARK UNBOUND:                -0.369
REMARK SMILES O=c1c(O)c(-c2cc(O)c(O)c(O)c2)oc2cc(O)cc(O)c12
REMARK SMILES IDX 5 1 3 2 2 3 1 4 23 5 21 6 20 7 18 8 17 9 16 10 15 11 6 12
REMARK SMILES IDX 7 13 8 14 14 15 10 16 12 17 9 18 11 20 13 22 4 24 22 26
REMARK SMILES IDX 19 28
REMARK H PARENT 9 19 11 21 13 23 4 25 22 27 19 29
REMARK Flexibility Score: inf
ROOT
ATOM      1  C   UNL     1      -3.932  35.959  60.186  1.00  0.00     0.180 A 
ATOM      2  C   UNL     1      -3.354  37.144  60.674  1.00  0.00     0.208 A 
ATOM      3  C   UNL     1      -4.130  38.313  60.716  1.00  0.00     0.238 A 
ATOM      4  O   UNL     1      -3.625  39.357  61.205  1.00  0.00    -0.285 OA
ATOM      5  C   UNL     1      -5.469  38.287  60.255  1.00  0.00     0.111 A 
ATOM      6  C   UNL     1      -6.333  39.422  60.214  1.00  0.00     0.134 A 
ATOM      7  C   UNL     1      -7.678  39.252  59.861  1.00  0.00     0.093 A 
ATOM      8  C   UNL     1      -8.172  38.000  59.485  1.00  0.00     0.123 A 
ATOM      9  C   UNL     1      -7.320  36.898  59.464  1.00  0.00     0.094 A 
ATOM     10  C   UNL     1      -5.983  37.030  59.846  1.00  0.00     0.146 A 
ATOM     11  O   UNL     1      -5.209  35.951  59.822  1.00  0.00    -0.452 OA
ENDROOT
BRANCH   1  12
ATOM     12  C   UNL     1      -3.170  34.693  60.088  1.00  0.00     0.029 A 
ATOM     13  C   UNL     1      -3.117  33.785  61.161  1.00  0.00     0.062 A 
ATOM     14  C   UNL     1      -2.371  32.604  61.058  1.00  0.00     0.162 A 
ATOM     15  C   UNL     1      -2.437  34.417  58.923  1.00  0.00     0.062 A 
ATOM     16  C   UNL     1      -1.659  32.325  59.878  1.00  0.00     0.200 A 
ATOM     17  C   UNL     1      -1.692  33.235  58.814  1.00  0.00     0.162 A 
BRANCH  14  18
ATOM     18  O   UNL     1      -2.331  31.707  62.125  1.00  0.00    -0.504 OA
ATOM     19  H   UNL     1      -3.128  31.127  62.361  1.00  0.00     0.293 HD
ENDBRANCH  14  18
BRANCH  16  20
ATOM     20  O   UNL     1      -0.913  31.153  59.750  1.00  0.00    -0.502 OA
ATOM     21  H   UNL     1       0.079  31.165  59.550  1.00  0.00     0.293 HD
ENDBRANCH  16  20
BRANCH  17  22
ATOM     22  O   UNL     1      -0.977  32.959  57.649  1.00  0.00    -0.504 OA
ATOM     23  H   UNL     1      -0.145  33.482  57.401  1.00  0.00     0.293 HD
ENDBRANCH  17  22
ENDBRANCH   1  12
BRANCH   2  24
ATOM     24  O   UNL     1      -2.038  37.141  61.145  1.00  0.00    -0.502 OA
ATOM     25  H   UNL     1      -1.594  37.970  61.522  1.00  0.00     0.293 HD
ENDBRANCH   2  24
BRANCH   6  26
ATOM     26  O   UNL     1      -5.919  40.729  60.482  1.00  0.00    -0.507 OA
ATOM     27  H   UNL     1      -6.171  41.256  61.305  1.00  0.00     0.293 HD
ENDBRANCH   6  26
BRANCH   8  28
ATOM     28  O   UNL     1      -9.508  37.844  59.120  1.00  0.00    -0.508 OA
ATOM     29  H   UNL     1      -9.816  37.058  58.560  1.00  0.00     0.293 HD
ENDBRANCH   8  28
TORSDOF 7
ENDMDL
MODEL 6
REMARK VINA RESULT:    -6.175     16.435     17.746
REMARK INTER + INTRA:          -7.988
REMARK INTER:                  -7.645
REMARK INTRA:                  -0.343
REMARK UNBOUND:                -0.369
REMARK SMILES O=c1c(O)c(-c2cc(O)c(O)c(O)c2)oc2cc(O)cc(O)c12
REMARK SMILES IDX 5 1 3 2 2 3 1 4 23 5 21 6 20 7 18 8 17 9 16 10 15 11 6 12
REMARK SMILES IDX 7 13 8 14 14 15 10 16 12 17 9 18 11 20 13 22 4 24 22 26
REMARK SMILES IDX 19 28
REMARK H PARENT 9 19 11 21 13 23 4 25 22 27 19 29
REMARK Flexibility Score: inf
ROOT
ATOM      1  C   UNL     1     -16.784  27.261  51.726  1.00  0.00     0.180 A 
ATOM      2  C   UNL     1     -17.784  28.156  52.148  1.00  0.00     0.208 A 
ATOM      3  C   UNL     1     -18.169  28.160  53.497  1.00  0.00     0.238 A 
ATOM      4  O   UNL     1     -19.024  29.000  53.879  1.00  0.00    -0.285 OA
ATOM      5  C   UNL     1     -17.562  27.259  54.406  1.00  0.00     0.111 A 
ATOM      6  C   UNL     1     -17.903  27.149  55.788  1.00  0.00     0.134 A 
ATOM      7  C   UNL     1     -17.147  26.315  56.621  1.00  0.00     0.093 A 
ATOM      8  C   UNL     1     -16.105  25.539  56.109  1.00  0.00     0.123 A 
ATOM      9  C   UNL     1     -15.803  25.595  54.750  1.00  0.00     0.094 A 
ATOM     10  C   UNL     1     -16.516  26.444  53.901  1.00  0.00     0.146 A 
ATOM     11  O   UNL     1     -16.188  26.475  52.615  1.00  0.00    -0.452 OA
ENDROOT
BRANCH   1  12
ATOM     12  C   UNL     1     -16.343  27.181  50.315  1.00  0.00     0.029 A 
ATOM     13  C   UNL     1     -17.091  26.478  49.354  1.00  0.00     0.062 A 
ATOM     14  C   UNL     1     -16.645  26.392  48.028  1.00  0.00     0.162 A 
ATOM     15  C   UNL     1     -15.126  27.768  49.937  1.00  0.00     0.062 A 
ATOM     16  C   UNL     1     -15.436  27.003  47.654  1.00  0.00     0.200 A 
ATOM     17  C   UNL     1     -14.677  27.688  48.612  1.00  0.00     0.162 A 
BRANCH  14  18
ATOM     18  O   UNL     1     -17.398  25.698  47.081  1.00  0.00    -0.504 OA
ATOM     19  H   UNL     1     -17.140  25.688  46.101  1.00  0.00     0.293 HD
ENDBRANCH  14  18
BRANCH  16  20
ATOM     20  O   UNL     1     -14.974  26.936  46.340  1.00  0.00    -0.502 OA
ATOM     21  H   UNL     1     -15.211  27.638  45.649  1.00  0.00     0.293 HD
ENDBRANCH  16  20
BRANCH  17  22
ATOM     22  O   UNL     1     -13.474  28.285  48.239  1.00  0.00    -0.504 OA
ATOM     23  H   UNL     1     -12.740  27.758  47.780  1.00  0.00     0.293 HD
ENDBRANCH  17  22
ENDBRANCH   1  12
BRANCH   2  24
ATOM     24  O   UNL     1     -18.354  29.052  51.238  1.00  0.00    -0.502 OA
ATOM     25  H   UNL     1     -18.466  30.038  51.443  1.00  0.00     0.293 HD
ENDBRANCH   2  24
BRANCH   6  26
ATOM     26  O   UNL     1     -18.983  27.811  56.380  1.00  0.00    -0.507 OA
ATOM     27  H   UNL     1     -19.206  27.782  57.364  1.00  0.00     0.293 HD
ENDBRANCH   6  26
BRANCH   8  28
ATOM     28  O   UNL     1     -15.368  24.700  56.943  1.00  0.00    -0.508 OA
ATOM     29  H   UNL     1     -15.647  23.741  57.110  1.00  0.00     0.293 HD
ENDBRANCH   8  28
TORSDOF 7
ENDMDL
MODEL 7
REMARK VINA RESULT:    -6.124     15.469     17.193
REMARK INTER + INTRA:          -7.925
REMARK INTER:                  -7.934
REMARK INTRA:                   0.008
REMARK UNBOUND:                -0.369
REMARK SMILES O=c1c(O)c(-c2cc(O)c(O)c(O)c2)oc2cc(O)cc(O)c12
REMARK SMILES IDX 5 1 3 2 2 3 1 4 23 5 21 6 20 7 18 8 17 9 16 10 15 11 6 12
REMARK SMILES IDX 7 13 8 14 14 15 10 16 12 17 9 18 11 20 13 22 4 24 22 26
REMARK SMILES IDX 19 28
REMARK H PARENT 9 19 11 21 13 23 4 25 22 27 19 29
REMARK Flexibility Score: inf
ROOT
ATOM      1  C   UNL     1     -16.537  28.675  50.389  1.00  0.00     0.180 A 
ATOM      2  C   UNL     1     -16.399  28.218  49.067  1.00  0.00     0.208 A 
ATOM      3  C   UNL     1     -16.467  29.144  48.015  1.00  0.00     0.238 A 
ATOM      4  O   UNL     1     -16.288  28.737  46.838  1.00  0.00    -0.285 OA
ATOM      5  C   UNL     1     -16.688  30.515  48.296  1.00  0.00     0.111 A 
ATOM      6  C   UNL     1     -16.814  31.535  47.306  1.00  0.00     0.134 A 
ATOM      7  C   UNL     1     -16.900  32.875  47.703  1.00  0.00     0.093 A 
ATOM      8  C   UNL     1     -16.930  33.226  49.055  1.00  0.00     0.123 A 
ATOM      9  C   UNL     1     -16.868  32.231  50.029  1.00  0.00     0.094 A 
ATOM     10  C   UNL     1     -16.745  30.889  49.663  1.00  0.00     0.146 A 
ATOM     11  O   UNL     1     -16.678  29.975  50.624  1.00  0.00    -0.452 OA
ENDROOT
BRANCH   1  12
ATOM     12  C   UNL     1     -16.502  27.755  51.549  1.00  0.00     0.029 A 
ATOM     13  C   UNL     1     -17.225  26.549  51.548  1.00  0.00     0.062 A 
ATOM     14  C   UNL     1     -17.199  25.702  52.664  1.00  0.00     0.162 A 
ATOM     15  C   UNL     1     -15.780  28.117  52.697  1.00  0.00     0.062 A 
ATOM     16  C   UNL     1     -16.455  26.063  53.800  1.00  0.00     0.200 A 
ATOM     17  C   UNL     1     -15.749  27.273  53.815  1.00  0.00     0.162 A 
BRANCH  14  18
ATOM     18  O   UNL     1     -17.914  24.505  52.650  1.00  0.00    -0.504 OA
ATOM     19  H   UNL     1     -18.168  24.028  53.507  1.00  0.00     0.293 HD
ENDBRANCH  14  18
BRANCH  16  20
ATOM     20  O   UNL     1     -16.410  25.235  54.922  1.00  0.00    -0.502 OA
ATOM     21  H   UNL     1     -15.546  25.040  55.414  1.00  0.00     0.293 HD
ENDBRANCH  16  20
BRANCH  17  22
ATOM     22  O   UNL     1     -15.019  27.632  54.947  1.00  0.00    -0.504 OA
ATOM     23  H   UNL     1     -15.430  28.185  55.690  1.00  0.00     0.293 HD
ENDBRANCH  17  22
ENDBRANCH   1  12
BRANCH   2  24
ATOM     24  O   UNL     1     -16.160  26.864  48.814  1.00  0.00    -0.502 OA
ATOM     25  H   UNL     1     -16.904  26.211  48.595  1.00  0.00     0.293 HD
ENDBRANCH   2  24
BRANCH   6  26
ATOM     26  O   UNL     1     -16.886  31.285  45.933  1.00  0.00    -0.507 OA
ATOM     27  H   UNL     1     -16.749  30.382  45.504  1.00  0.00     0.293 HD
ENDBRANCH   6  26
BRANCH   8  28
ATOM     28  O   UNL     1     -17.032  34.561  49.441  1.00  0.00    -0.508 OA
ATOM     29  H   UNL     1     -17.916  34.963  49.730  1.00  0.00     0.293 HD
ENDBRANCH   8  28
TORSDOF 7
ENDMDL
MODEL 8
REMARK VINA RESULT:    -6.118     15.796     17.524
REMARK INTER + INTRA:          -7.918
REMARK INTER:                  -7.624
REMARK INTRA:                  -0.295
REMARK UNBOUND:                -0.369
REMARK SMILES O=c1c(O)c(-c2cc(O)c(O)c(O)c2)oc2cc(O)cc(O)c12
REMARK SMILES IDX 5 1 3 2 2 3 1 4 23 5 21 6 20 7 18 8 17 9 16 10 15 11 6 12
REMARK SMILES IDX 7 13 8 14 14 15 10 16 12 17 9 18 11 20 13 22 4 24 22 26
REMARK SMILES IDX 19 28
REMARK H PARENT 9 19 11 21 13 23 4 25 22 27 19 29
REMARK Flexibility Score: inf
ROOT
ATOM      1  C   UNL     1     -17.705  28.674  52.813  1.00  0.00     0.180 A 
ATOM      2  C   UNL     1     -18.847  29.079  53.526  1.00  0.00     0.208 A 
ATOM      3  C   UNL     1     -19.122  28.482  54.766  1.00  0.00     0.238 A 
ATOM      4  O   UNL     1     -20.115  28.888  55.425  1.00  0.00    -0.285 OA
ATOM      5  C   UNL     1     -18.261  27.478  55.272  1.00  0.00     0.111 A 
ATOM      6  C   UNL     1     -18.466  26.778  56.500  1.00  0.00     0.134 A 
ATOM      7  C   UNL     1     -17.480  25.898  56.964  1.00  0.00     0.093 A 
ATOM      8  C   UNL     1     -16.330  25.643  56.213  1.00  0.00     0.123 A 
ATOM      9  C   UNL     1     -16.151  26.276  54.985  1.00  0.00     0.094 A 
ATOM     10  C   UNL     1     -17.099  27.187  54.513  1.00  0.00     0.146 A 
ATOM     11  O   UNL     1     -16.882  27.777  53.344  1.00  0.00    -0.452 OA
ENDROOT
BRANCH   1  12
ATOM     12  C   UNL     1     -17.363  29.238  51.487  1.00  0.00     0.029 A 
ATOM     13  C   UNL     1     -17.549  28.497  50.307  1.00  0.00     0.062 A 
ATOM     14  C   UNL     1     -17.197  29.038  49.063  1.00  0.00     0.162 A 
ATOM     15  C   UNL     1     -16.789  30.516  51.408  1.00  0.00     0.062 A 
ATOM     16  C   UNL     1     -16.643  30.328  48.992  1.00  0.00     0.200 A 
ATOM     17  C   UNL     1     -16.437  31.063  50.166  1.00  0.00     0.162 A 
BRANCH  14  18
ATOM     18  O   UNL     1     -17.392  28.297  47.898  1.00  0.00    -0.504 OA
ATOM     19  H   UNL     1     -17.299  27.289  47.888  1.00  0.00     0.293 HD
ENDBRANCH  14  18
BRANCH  16  20
ATOM     20  O   UNL     1     -16.290  30.890  47.765  1.00  0.00    -0.502 OA
ATOM     21  H   UNL     1     -16.318  31.889  47.602  1.00  0.00     0.293 HD
ENDBRANCH  16  20
BRANCH  17  22
ATOM     22  O   UNL     1     -15.879  32.339  50.092  1.00  0.00    -0.504 OA
ATOM     23  H   UNL     1     -15.422  32.765  50.890  1.00  0.00     0.293 HD
ENDBRANCH  17  22
ENDBRANCH   1  12
BRANCH   2  24
ATOM     24  O   UNL     1     -19.671  30.088  53.019  1.00  0.00    -0.502 OA
ATOM     25  H   UNL     1     -20.681  30.057  53.099  1.00  0.00     0.293 HD
ENDBRANCH   2  24
BRANCH   6  26
ATOM     26  O   UNL     1     -19.620  26.891  57.279  1.00  0.00    -0.507 OA
ATOM     27  H   UNL     1     -19.660  26.731  58.275  1.00  0.00     0.293 HD
ENDBRANCH   6  26
BRANCH   8  28
ATOM     28  O   UNL     1     -15.363  24.753  56.676  1.00  0.00    -0.508 OA
ATOM     29  H   UNL     1     -15.327  23.794  56.351  1.00  0.00     0.293 HD
ENDBRANCH   8  28
TORSDOF 7
ENDMDL
MODEL 9
REMARK VINA RESULT:    -6.065     15.532     17.655
REMARK INTER + INTRA:          -7.852
REMARK INTER:                  -7.641
REMARK INTRA:                  -0.211
REMARK UNBOUND:                -0.369
REMARK SMILES O=c1c(O)c(-c2cc(O)c(O)c(O)c2)oc2cc(O)cc(O)c12
REMARK SMILES IDX 5 1 3 2 2 3 1 4 23 5 21 6 20 7 18 8 17 9 16 10 15 11 6 12
REMARK SMILES IDX 7 13 8 14 14 15 10 16 12 17 9 18 11 20 13 22 4 24 22 26
REMARK SMILES IDX 19 28
REMARK H PARENT 9 19 11 21 13 23 4 25 22 27 19 29
REMARK Flexibility Score: inf
ROOT
ATOM      1  C   UNL     1     -16.557  27.481  51.745  1.00  0.00     0.180 A 
ATOM      2  C   UNL     1     -17.075  28.782  51.619  1.00  0.00     0.208 A 
ATOM      3  C   UNL     1     -17.157  29.363  50.344  1.00  0.00     0.238 A 
ATOM      4  O   UNL     1     -17.672  30.506  50.232  1.00  0.00    -0.285 OA
ATOM      5  C   UNL     1     -16.705  28.642  49.212  1.00  0.00     0.111 A 
ATOM      6  C   UNL     1     -16.704  29.149  47.877  1.00  0.00     0.134 A 
ATOM      7  C   UNL     1     -16.356  28.301  46.818  1.00  0.00     0.093 A 
ATOM      8  C   UNL     1     -15.947  26.986  47.052  1.00  0.00     0.123 A 
ATOM      9  C   UNL     1     -15.888  26.502  48.357  1.00  0.00     0.094 A 
ATOM     10  C   UNL     1     -16.263  27.312  49.430  1.00  0.00     0.146 A 
ATOM     11  O   UNL     1     -16.202  26.807  50.657  1.00  0.00    -0.452 OA
ENDROOT
BRANCH   1  12
ATOM     12  C   UNL     1     -16.415  26.813  53.058  1.00  0.00     0.029 A 
ATOM     13  C   UNL     1     -17.203  25.700  53.401  1.00  0.00     0.062 A 
ATOM     14  C   UNL     1     -17.073  25.094  54.658  1.00  0.00     0.162 A 
ATOM     15  C   UNL     1     -15.519  27.332  54.005  1.00  0.00     0.062 A 
ATOM     16  C   UNL     1     -16.155  25.608  55.591  1.00  0.00     0.200 A 
ATOM     17  C   UNL     1     -15.382  26.729  55.262  1.00  0.00     0.162 A 
BRANCH  14  18
ATOM     18  O   UNL     1     -17.854  23.987  54.985  1.00  0.00    -0.504 OA
ATOM     19  H   UNL     1     -18.783  23.860  54.601  1.00  0.00     0.293 HD
ENDBRANCH  14  18
BRANCH  16  20
ATOM     20  O   UNL     1     -16.004  25.020  56.847  1.00  0.00    -0.502 OA
ATOM     21  H   UNL     1     -16.315  24.076  57.041  1.00  0.00     0.293 HD
ENDBRANCH  16  20
BRANCH  17  22
ATOM     22  O   UNL     1     -14.480  27.241  56.194  1.00  0.00    -0.504 OA
ATOM     23  H   UNL     1     -13.807  26.646  56.663  1.00  0.00     0.293 HD
ENDBRANCH  17  22
ENDBRANCH   1  12
BRANCH   2  24
ATOM     24  O   UNL     1     -17.536  29.466  52.748  1.00  0.00    -0.502 OA
ATOM     25  H   UNL     1     -18.476  29.840  52.812  1.00  0.00     0.293 HD
ENDBRANCH   2  24
BRANCH   6  26
ATOM     26  O   UNL     1     -17.007  30.472  47.544  1.00  0.00    -0.507 OA
ATOM     27  H   UNL     1     -17.123  31.221  48.210  1.00  0.00     0.293 HD
ENDBRANCH   6  26
BRANCH   8  28
ATOM     28  O   UNL     1     -15.588  26.155  45.993  1.00  0.00    -0.508 OA
ATOM     29  H   UNL     1     -14.842  25.475  46.082  1.00  0.00     0.293 HD
ENDBRANCH   8  28
TORSDOF 7
ENDMDL
