MODEL 1
REMARK VINA RESULT:    -3.912      0.000      0.000
REMARK INTER + INTRA:          -6.474
REMARK INTER:                  -5.970
REMARK INTRA:                  -0.504
REMARK UNBOUND:                -0.504
REMARK SMILES O=C([O-])CCCCCCCCC(=O)[O-]
REMARK SMILES IDX 7 1 6 2 5 3 4 4 2 5 1 6 3 7 8 8 9 9 10 10 11 11 12 12 13 13
REMARK SMILES IDX 14 14
REMARK H PARENT
REMARK Flexibility Score: inf
ROOT
ATOM      1  C   UNL     1     119.630 109.838 109.867  1.00  0.00     0.000 C 
ENDROOT
BRANCH   1   2
ATOM      2  C   UNL     1     119.084 110.346 111.208  1.00  0.00     0.000 C 
BRANCH   2   3
ATOM      3  C   UNL     1     120.161 110.281 112.301  1.00  0.00     0.006 C 
BRANCH   3   4
ATOM      4  C   UNL     1     121.075 111.514 112.288  1.00  0.00     0.053 C 
BRANCH   4   5
ATOM      5  C   UNL     1     120.291 112.786 112.394  1.00  0.00     0.041 C 
ATOM      6  O   UNL     1     119.812 113.145 113.501  1.00  0.00    -0.550 OA
ATOM      7  O   UNL     1     120.118 113.592 111.275  1.00  0.00    -0.550 OA
ENDBRANCH   4   5
ENDBRANCH   3   4
ENDBRANCH   2   3
ENDBRANCH   1   2
BRANCH   1   8
ATOM      8  C   UNL     1     119.790 110.988 108.867  1.00  0.00     0.000 C 
BRANCH   8   9
ATOM      9  C   UNL     1     120.152 110.460 107.473  1.00  0.00     0.000 C 
BRANCH   9  10
ATOM     10  C   UNL     1     120.279 108.933 107.479  1.00  0.00     0.006 C 
BRANCH  10  11
ATOM     11  C   UNL     1     119.230 108.290 106.567  1.00  0.00     0.053 C 
BRANCH  11  12
ATOM     12  C   UNL     1     119.835 107.169 105.781  1.00  0.00     0.041 C 
ATOM     13  O   UNL     1     120.778 107.394 104.978  1.00  0.00    -0.550 OA
ATOM     14  O   UNL     1     119.324 105.882 105.900  1.00  0.00    -0.550 OA
ENDBRANCH  11  12
ENDBRANCH  10  11
ENDBRANCH   9  10
ENDBRANCH   8   9
ENDBRANCH   1   8
TORSDOF 9
ENDMDL
MODEL 2
REMARK VINA RESULT:    -3.805      3.983      5.225
REMARK INTER + INTRA:          -6.310
REMARK INTER:                  -5.885
REMARK INTRA:                  -0.425
REMARK UNBOUND:                -0.504
REMARK SMILES O=C([O-])CCCCCCCCC(=O)[O-]
REMARK SMILES IDX 7 1 6 2 5 3 4 4 2 5 1 6 3 7 8 8 9 9 10 10 11 11 12 12 13 13
REMARK SMILES IDX 14 14
REMARK H PARENT
REMARK Flexibility Score: inf
ROOT
ATOM      1  C   UNL     1     122.239 111.638 106.951  1.00  0.00     0.000 C 
ENDROOT
BRANCH   1   2
ATOM      2  C   UNL     1     121.040 112.594 106.901  1.00  0.00     0.000 C 
BRANCH   2   3
ATOM      3  C   UNL     1     121.049 113.421 105.607  1.00  0.00     0.006 C 
BRANCH   3   4
ATOM      4  C   UNL     1     120.422 114.808 105.801  1.00  0.00     0.053 C 
BRANCH   4   5
ATOM      5  C   UNL     1     121.259 115.886 105.183  1.00  0.00     0.041 C 
ATOM      6  O   UNL     1     121.228 116.077 103.939  1.00  0.00    -0.550 OA
ATOM      7  O   UNL     1     122.048 116.701 105.985  1.00  0.00    -0.550 OA
ENDBRANCH   4   5
ENDBRANCH   3   4
ENDBRANCH   2   3
ENDBRANCH   1   2
BRANCH   1   8
ATOM      8  C   UNL     1     121.784 110.199 107.217  1.00  0.00     0.000 C 
BRANCH   8   9
ATOM      9  C   UNL     1     120.278 110.139 107.499  1.00  0.00     0.000 C 
BRANCH   9  10
ATOM     10  C   UNL     1     119.661 108.859 106.926  1.00  0.00     0.006 C 
BRANCH  10  11
ATOM     11  C   UNL     1     120.723 107.997 106.236  1.00  0.00     0.053 C 
BRANCH  11  12
ATOM     12  C   UNL     1     120.078 107.003 105.323  1.00  0.00     0.041 C 
ATOM     13  O   UNL     1     119.295 106.132 105.785  1.00  0.00    -0.550 OA
ATOM     14  O   UNL     1     120.381 107.006 103.967  1.00  0.00    -0.550 OA
ENDBRANCH  11  12
ENDBRANCH  10  11
ENDBRANCH   9  10
ENDBRANCH   8   9
ENDBRANCH   1   8
TORSDOF 9
ENDMDL
MODEL 3
REMARK VINA RESULT:    -3.801      1.366      7.260
REMARK INTER + INTRA:          -6.305
REMARK INTER:                  -5.840
REMARK INTRA:                  -0.465
REMARK UNBOUND:                -0.504
REMARK SMILES O=C([O-])CCCCCCCCC(=O)[O-]
REMARK SMILES IDX 7 1 6 2 5 3 4 4 2 5 1 6 3 7 8 8 9 9 10 10 11 11 12 12 13 13
REMARK SMILES IDX 14 14
REMARK H PARENT
REMARK Flexibility Score: inf
ROOT
ATOM      1  C   UNL     1     121.206 109.937 108.699  1.00  0.00     0.000 C 
ENDROOT
BRANCH   1   2
ATOM      2  C   UNL     1     120.191 110.123 107.566  1.00  0.00     0.000 C 
BRANCH   2   3
ATOM      3  C   UNL     1     119.865 108.781 106.892  1.00  0.00     0.006 C 
BRANCH   3   4
ATOM      4  C   UNL     1     121.116 108.103 106.317  1.00  0.00     0.053 C 
BRANCH   4   5
ATOM      5  C   UNL     1     120.766 106.900 105.496  1.00  0.00     0.041 C 
ATOM      6  O   UNL     1     121.610 106.405 104.704  1.00  0.00    -0.550 OA
ATOM      7  O   UNL     1     119.518 106.305 105.630  1.00  0.00    -0.550 OA
ENDBRANCH   4   5
ENDBRANCH   3   4
ENDBRANCH   2   3
ENDBRANCH   1   2
BRANCH   1   8
ATOM      8  C   UNL     1     120.550 109.296 109.927  1.00  0.00     0.000 C 
BRANCH   8   9
ATOM      9  C   UNL     1     119.261 110.034 110.311  1.00  0.00     0.000 C 
BRANCH   9  10
ATOM     10  C   UNL     1     119.351 110.597 111.733  1.00  0.00     0.006 C 
BRANCH  10  11
ATOM     11  C   UNL     1     120.543 109.999 112.487  1.00  0.00     0.053 C 
BRANCH  11  12
ATOM     12  C   UNL     1     121.132 111.008 113.422  1.00  0.00     0.041 C 
ATOM     13  O   UNL     1     122.170 110.733 114.079  1.00  0.00    -0.550 OA
ATOM     14  O   UNL     1     120.506 112.235 113.605  1.00  0.00    -0.550 OA
ENDBRANCH  11  12
ENDBRANCH  10  11
ENDBRANCH   9  10
ENDBRANCH   8   9
ENDBRANCH   1   8
TORSDOF 9
ENDMDL
MODEL 4
REMARK VINA RESULT:    -3.737      4.000      6.213
REMARK INTER + INTRA:          -6.207
REMARK INTER:                  -5.684
REMARK INTRA:                  -0.522
REMARK UNBOUND:                -0.504
REMARK SMILES O=C([O-])CCCCCCCCC(=O)[O-]
REMARK SMILES IDX 7 1 6 2 5 3 4 4 2 5 1 6 3 7 8 8 9 9 10 10 11 11 12 12 13 13
REMARK SMILES IDX 14 14
REMARK H PARENT
REMARK Flexibility Score: inf
ROOT
ATOM      1  C   UNL     1     121.243 112.108 116.528  1.00  0.00     0.000 C 
ENDROOT
BRANCH   1   2
ATOM      2  C   UNL     1     120.584 111.388 117.711  1.00  0.00     0.000 C 
BRANCH   2   3
ATOM      3  C   UNL     1     119.087 111.719 117.793  1.00  0.00     0.006 C 
BRANCH   3   4
ATOM      4  C   UNL     1     118.837 113.197 118.124  1.00  0.00     0.053 C 
BRANCH   4   5
ATOM      5  C   UNL     1     118.027 113.873 117.061  1.00  0.00     0.041 C 
ATOM      6  O   UNL     1     118.593 114.375 116.054  1.00  0.00    -0.550 OA
ATOM      7  O   UNL     1     116.642 113.922 117.167  1.00  0.00    -0.550 OA
ENDBRANCH   4   5
ENDBRANCH   3   4
ENDBRANCH   2   3
ENDBRANCH   1   2
BRANCH   1   8
ATOM      8  C   UNL     1     120.979 111.363 115.215  1.00  0.00     0.000 C 
BRANCH   8   9
ATOM      9  C   UNL     1     120.968 112.331 114.025  1.00  0.00     0.000 C 
BRANCH   9  10
ATOM     10  C   UNL     1     120.127 111.775 112.870  1.00  0.00     0.006 C 
BRANCH  10  11
ATOM     11  C   UNL     1     120.562 110.351 112.510  1.00  0.00     0.053 C 
BRANCH  11  12
ATOM     12  C   UNL     1     119.925 109.918 111.227  1.00  0.00     0.041 C 
ATOM     13  O   UNL     1     120.574 109.226 110.399  1.00  0.00    -0.550 OA
ATOM     14  O   UNL     1     118.630 110.319 110.924  1.00  0.00    -0.550 OA
ENDBRANCH  11  12
ENDBRANCH  10  11
ENDBRANCH   9  10
ENDBRANCH   8   9
ENDBRANCH   1   8
TORSDOF 9
ENDMDL
MODEL 5
REMARK VINA RESULT:    -3.731      3.506      4.908
REMARK INTER + INTRA:          -6.197
REMARK INTER:                  -5.812
REMARK INTRA:                  -0.385
REMARK UNBOUND:                -0.504
REMARK SMILES O=C([O-])CCCCCCCCC(=O)[O-]
REMARK SMILES IDX 7 1 6 2 5 3 4 4 2 5 1 6 3 7 8 8 9 9 10 10 11 11 12 12 13 13
REMARK SMILES IDX 14 14
REMARK H PARENT
REMARK Flexibility Score: inf
ROOT
ATOM      1  C   UNL     1     120.836 109.470 108.242  1.00  0.00     0.000 C 
ENDROOT
BRANCH   1   2
ATOM      2  C   UNL     1     120.403 109.300 109.703  1.00  0.00     0.000 C 
BRANCH   2   3
ATOM      3  C   UNL     1     119.418 110.404 110.117  1.00  0.00     0.006 C 
BRANCH   3   4
ATOM      4  C   UNL     1     119.019 110.300 111.595  1.00  0.00     0.053 C 
BRANCH   4   5
ATOM      5  C   UNL     1     120.079 110.855 112.496  1.00  0.00     0.041 C 
ATOM      6  O   UNL     1     120.146 112.094 112.708  1.00  0.00    -0.550 OA
ATOM      7  O   UNL     1     120.972 110.000 113.129  1.00  0.00    -0.550 OA
ENDBRANCH   4   5
ENDBRANCH   3   4
ENDBRANCH   2   3
ENDBRANCH   1   2
BRANCH   1   8
ATOM      8  C   UNL     1     120.239 110.745 107.635  1.00  0.00     0.000 C 
BRANCH   8   9
ATOM      9  C   UNL     1     121.320 111.583 106.942  1.00  0.00     0.000 C 
BRANCH   9  10
ATOM     10  C   UNL     1     120.881 113.046 106.808  1.00  0.00     0.006 C 
BRANCH  10  11
ATOM     11  C   UNL     1     121.299 113.623 105.452  1.00  0.00     0.053 C 
BRANCH  11  12
ATOM     12  C   UNL     1     120.834 115.039 105.319  1.00  0.00     0.041 C 
ATOM     13  O   UNL     1     119.707 115.381 105.767  1.00  0.00    -0.550 OA
ATOM     14  O   UNL     1     121.623 115.971 104.656  1.00  0.00    -0.550 OA
ENDBRANCH  11  12
ENDBRANCH  10  11
ENDBRANCH   9  10
ENDBRANCH   8   9
ENDBRANCH   1   8
TORSDOF 9
ENDMDL
MODEL 6
REMARK VINA RESULT:    -3.680      1.949      2.284
REMARK INTER + INTRA:          -6.120
REMARK INTER:                  -5.593
REMARK INTRA:                  -0.527
REMARK UNBOUND:                -0.504
REMARK SMILES O=C([O-])CCCCCCCCC(=O)[O-]
REMARK SMILES IDX 7 1 6 2 5 3 4 4 2 5 1 6 3 7 8 8 9 9 10 10 11 11 12 12 13 13
REMARK SMILES IDX 14 14
REMARK H PARENT
REMARK Flexibility Score: inf
ROOT
ATOM      1  C   UNL     1     119.696 109.858 109.788  1.00  0.00     0.000 C 
ENDROOT
BRANCH   1   2
ATOM      2  C   UNL     1     118.815 110.260 110.977  1.00  0.00     0.000 C 
BRANCH   2   3
ATOM      3  C   UNL     1     119.635 111.001 112.044  1.00  0.00     0.006 C 
BRANCH   3   4
ATOM      4  C   UNL     1     120.670 110.089 112.717  1.00  0.00     0.053 C 
BRANCH   4   5
ATOM      5  C   UNL     1     121.480 110.827 113.737  1.00  0.00     0.041 C 
ATOM      6  O   UNL     1     120.957 111.185 114.825  1.00  0.00    -0.550 OA
ATOM      7  O   UNL     1     122.823 111.092 113.500  1.00  0.00    -0.550 OA
ENDBRANCH   4   5
ENDBRANCH   3   4
ENDBRANCH   2   3
ENDBRANCH   1   2
BRANCH   1   8
ATOM      8  C   UNL     1     119.980 111.061 108.881  1.00  0.00     0.000 C 
BRANCH   8   9
ATOM      9  C   UNL     1     120.210 110.616 107.431  1.00  0.00     0.000 C 
BRANCH   9  10
ATOM     10  C   UNL     1     119.887 109.128 107.254  1.00  0.00     0.006 C 
BRANCH  10  11
ATOM     11  C   UNL     1     121.004 108.411 106.488  1.00  0.00     0.053 C 
BRANCH  11  12
ATOM     12  C   UNL     1     121.732 107.464 107.389  1.00  0.00     0.041 C 
ATOM     13  O   UNL     1     121.729 106.228 107.146  1.00  0.00    -0.550 OA
ATOM     14  O   UNL     1     122.374 107.940 108.525  1.00  0.00    -0.550 OA
ENDBRANCH  11  12
ENDBRANCH  10  11
ENDBRANCH   9  10
ENDBRANCH   8   9
ENDBRANCH   1   8
TORSDOF 9
ENDMDL
MODEL 7
REMARK VINA RESULT:    -3.666      0.894      7.251
REMARK INTER + INTRA:          -6.099
REMARK INTER:                  -5.573
REMARK INTRA:                  -0.526
REMARK UNBOUND:                -0.504
REMARK SMILES O=C([O-])CCCCCCCCC(=O)[O-]
REMARK SMILES IDX 7 1 6 2 5 3 4 4 2 5 1 6 3 7 8 8 9 9 10 10 11 11 12 12 13 13
REMARK SMILES IDX 14 14
REMARK H PARENT
REMARK Flexibility Score: inf
ROOT
ATOM      1  C   UNL     1     119.612 111.221 109.286  1.00  0.00     0.000 C 
ENDROOT
BRANCH   1   2
ATOM      2  C   UNL     1     120.222 110.793 107.946  1.00  0.00     0.000 C 
BRANCH   2   3
ATOM      3  C   UNL     1     120.548 109.293 107.943  1.00  0.00     0.006 C 
BRANCH   3   4
ATOM      4  C   UNL     1     119.812 108.542 106.825  1.00  0.00     0.053 C 
BRANCH   4   5
ATOM      5  C   UNL     1     120.758 107.765 105.962  1.00  0.00     0.041 C 
ATOM      6  O   UNL     1     120.379 107.317 104.848  1.00  0.00    -0.550 OA
ATOM      7  O   UNL     1     122.070 107.565 106.373  1.00  0.00    -0.550 OA
ENDBRANCH   4   5
ENDBRANCH   3   4
ENDBRANCH   2   3
ENDBRANCH   1   2
BRANCH   1   8
ATOM      8  C   UNL     1     119.323 110.004 110.173  1.00  0.00     0.000 C 
BRANCH   8   9
ATOM      9  C   UNL     1     119.488 110.353 111.657  1.00  0.00     0.000 C 
BRANCH   9  10
ATOM     10  C   UNL     1     120.691 111.277 111.876  1.00  0.00     0.006 C 
BRANCH  10  11
ATOM     11  C   UNL     1     120.565 112.040 113.198  1.00  0.00     0.053 C 
BRANCH  11  12
ATOM     12  C   UNL     1     120.019 113.413 112.961  1.00  0.00     0.041 C 
ATOM     13  O   UNL     1     119.494 114.059 113.906  1.00  0.00    -0.550 OA
ATOM     14  O   UNL     1     120.046 113.960 111.684  1.00  0.00    -0.550 OA
ENDBRANCH  11  12
ENDBRANCH  10  11
ENDBRANCH   9  10
ENDBRANCH   8   9
ENDBRANCH   1   8
TORSDOF 9
ENDMDL
MODEL 8
REMARK VINA RESULT:    -3.655      5.028      6.762
REMARK INTER + INTRA:          -6.082
REMARK INTER:                  -5.759
REMARK INTRA:                  -0.322
REMARK UNBOUND:                -0.504
REMARK SMILES O=C([O-])CCCCCCCCC(=O)[O-]
REMARK SMILES IDX 7 1 6 2 5 3 4 4 2 5 1 6 3 7 8 8 9 9 10 10 11 11 12 12 13 13
REMARK SMILES IDX 14 14
REMARK H PARENT
REMARK Flexibility Score: inf
ROOT
ATOM      1  C   UNL     1     121.288 113.430 106.688  1.00  0.00     0.000 C 
ENDROOT
BRANCH   1   2
ATOM      2  C   UNL     1     120.713 114.055 105.411  1.00  0.00     0.000 C 
BRANCH   2   3
ATOM      3  C   UNL     1     120.511 115.568 105.581  1.00  0.00     0.006 C 
BRANCH   3   4
ATOM      4  C   UNL     1     121.194 116.373 104.467  1.00  0.00     0.053 C 
BRANCH   4   5
ATOM      5  C   UNL     1     120.587 117.734 104.314  1.00  0.00     0.041 C 
ATOM      6  O   UNL     1     121.317 118.759 104.329  1.00  0.00    -0.550 OA
ATOM      7  O   UNL     1     119.217 117.867 104.122  1.00  0.00    -0.550 OA
ENDBRANCH   4   5
ENDBRANCH   3   4
ENDBRANCH   2   3
ENDBRANCH   1   2
BRANCH   1   8
ATOM      8  C   UNL     1     122.318 112.345 106.354  1.00  0.00     0.000 C 
BRANCH   8   9
ATOM      9  C   UNL     1     121.907 110.993 106.950  1.00  0.00     0.000 C 
BRANCH   9  10
ATOM     10  C   UNL     1     120.418 110.981 107.312  1.00  0.00     0.006 C 
BRANCH  10  11
ATOM     11  C   UNL     1     120.073 109.765 108.178  1.00  0.00     0.053 C 
BRANCH  11  12
ATOM     12  C   UNL     1     119.898 110.171 109.607  1.00  0.00     0.041 C 
ATOM     13  O   UNL     1     119.339 111.263 109.892  1.00  0.00    -0.550 OA
ATOM     14  O   UNL     1     120.397 109.367 110.624  1.00  0.00    -0.550 OA
ENDBRANCH  11  12
ENDBRANCH  10  11
ENDBRANCH   9  10
ENDBRANCH   8   9
ENDBRANCH   1   8
TORSDOF 9
ENDMDL
MODEL 9
REMARK VINA RESULT:    -3.641      3.918      7.282
REMARK INTER + INTRA:          -6.060
REMARK INTER:                  -5.735
REMARK INTRA:                  -0.325
REMARK UNBOUND:                -0.504
REMARK SMILES O=C([O-])CCCCCCCCC(=O)[O-]
REMARK SMILES IDX 7 1 6 2 5 3 4 4 2 5 1 6 3 7 8 8 9 9 10 10 11 11 12 12 13 13
REMARK SMILES IDX 14 14
REMARK H PARENT
REMARK Flexibility Score: inf
ROOT
ATOM      1  C   UNL     1     120.531 111.182 108.470  1.00  0.00     0.000 C 
ENDROOT
BRANCH   1   2
ATOM      2  C   UNL     1     120.038 109.730 108.412  1.00  0.00     0.000 C 
BRANCH   2   3
ATOM      3  C   UNL     1     120.547 109.026 107.146  1.00  0.00     0.006 C 
BRANCH   3   4
ATOM      4  C   UNL     1     119.462 108.163 106.487  1.00  0.00     0.053 C 
BRANCH   4   5
ATOM      5  C   UNL     1     120.053 107.018 105.723  1.00  0.00     0.041 C 
ATOM      6  O   UNL     1     119.351 106.009 105.451  1.00  0.00    -0.550 OA
ATOM      7  O   UNL     1     121.370 107.079 105.284  1.00  0.00    -0.550 OA
ENDBRANCH   4   5
ENDBRANCH   3   4
ENDBRANCH   2   3
ENDBRANCH   1   2
BRANCH   1   8
ATOM      8  C   UNL     1     120.936 111.682 107.079  1.00  0.00     0.000 C 
BRANCH   8   9
ATOM      9  C   UNL     1     121.069 113.209 107.060  1.00  0.00     0.000 C 
BRANCH   9  10
ATOM     10  C   UNL     1     120.718 113.776 105.679  1.00  0.00     0.006 C 
BRANCH  10  11
ATOM     11  C   UNL     1     120.239 115.227 105.786  1.00  0.00     0.053 C 
BRANCH  11  12
ATOM     12  C   UNL     1     121.018 116.106 104.859  1.00  0.00     0.041 C 
ATOM     13  O   UNL     1     122.091 115.693 104.346  1.00  0.00    -0.550 OA
ATOM     14  O   UNL     1     120.584 117.400 104.600  1.00  0.00    -0.550 OA
ENDBRANCH  11  12
ENDBRANCH  10  11
ENDBRANCH   9  10
ENDBRANCH   8   9
ENDBRANCH   1   8
TORSDOF 9
ENDMDL
