MODEL 1
REMARK VINA RESULT:    -4.545      0.000      0.000
REMARK INTER + INTRA:          -6.566
REMARK INTER:                  -5.874
REMARK INTRA:                  -0.693
REMARK UNBOUND:                -0.693
REMARK SMILES CCO[C@@H]1O[C@H](CO)[C@H](O)[C@H](O)[C@H]1O
REMARK SMILES IDX 4 1 13 2 11 3 9 4 6 5 5 6 3 7 2 8 1 9 14 10 12 12 7 14 8 15
REMARK SMILES IDX 10 17
REMARK H PARENT 14 11 12 13 8 16 10 18
REMARK Flexibility Score: inf
ROOT
ATOM      1  C   UNL     1      23.666   3.132  38.098  1.00  0.00     0.281 C 
ATOM      2  C   UNL     1      23.330   3.166  39.606  1.00  0.00     0.202 C 
ATOM      3  C   UNL     1      22.264   4.228  39.925  1.00  0.00     0.179 C 
ATOM      4  C   UNL     1      21.068   4.111  38.961  1.00  0.00     0.177 C 
ATOM      5  C   UNL     1      21.483   3.892  37.479  1.00  0.00     0.178 C 
ATOM      6  O   UNL     1      22.512   2.925  37.298  1.00  0.00    -0.341 OA
ENDROOT
BRANCH   1   7
ATOM      7  O   UNL     1      24.337   4.317  37.695  1.00  0.00    -0.350 OA
BRANCH   7   8
ATOM      8  C   UNL     1      25.607   4.046  37.131  1.00  0.00     0.160 C 
ATOM      9  C   UNL     1      25.463   3.678  35.658  1.00  0.00     0.035 C 
ENDBRANCH   7   8
ENDBRANCH   1   7
BRANCH   2  10
ATOM     10  O   UNL     1      22.926   1.898  40.064  1.00  0.00    -0.385 OA
ATOM     11  H   UNL     1      22.815   1.303  39.278  1.00  0.00     0.211 HD
ENDBRANCH   2  10
BRANCH   3  12
ATOM     12  O   UNL     1      22.823   5.516  39.859  1.00  0.00    -0.387 OA
ATOM     13  H   UNL     1      22.114   6.154  40.134  1.00  0.00     0.211 HD
ENDBRANCH   3  12
BRANCH   5  14
ATOM     14  C   UNL     1      21.703   5.166  36.626  1.00  0.00     0.191 C 
BRANCH  14  15
ATOM     15  O   UNL     1      22.087   6.265  37.402  1.00  0.00    -0.394 OA
ATOM     16  H   UNL     1      23.058   6.391  37.242  1.00  0.00     0.210 HD
ENDBRANCH  14  15
ENDBRANCH   5  14
BRANCH   4  17
ATOM     17  O   UNL     1      20.230   5.235  39.072  1.00  0.00    -0.387 OA
ATOM     18  H   UNL     1      20.761   5.948  39.511  1.00  0.00     0.211 HD
ENDBRANCH   4  17
TORSDOF 7
ENDMDL
MODEL 2
REMARK VINA RESULT:    -4.536      2.515      3.976
REMARK INTER + INTRA:          -6.555
REMARK INTER:                  -5.907
REMARK INTRA:                  -0.648
REMARK UNBOUND:                -0.693
REMARK SMILES CCO[C@@H]1O[C@H](CO)[C@H](O)[C@H](O)[C@H]1O
REMARK SMILES IDX 4 1 13 2 11 3 9 4 6 5 5 6 3 7 2 8 1 9 14 10 12 12 7 14 8 15
REMARK SMILES IDX 10 17
REMARK H PARENT 14 11 12 13 8 16 10 18
REMARK Flexibility Score: inf
ROOT
ATOM      1  C   UNL     1      22.771   3.804  42.123  1.00  0.00     0.281 C 
ATOM      2  C   UNL     1      21.441   3.267  42.700  1.00  0.00     0.202 C 
ATOM      3  C   UNL     1      20.330   3.249  41.637  1.00  0.00     0.179 C 
ATOM      4  C   UNL     1      20.826   2.589  40.336  1.00  0.00     0.177 C 
ATOM      5  C   UNL     1      22.253   3.041  39.915  1.00  0.00     0.178 C 
ATOM      6  O   UNL     1      23.193   3.071  40.984  1.00  0.00    -0.341 OA
ENDROOT
BRANCH   1   7
ATOM      7  O   UNL     1      22.674   5.186  41.811  1.00  0.00    -0.350 OA
BRANCH   7   8
ATOM      8  C   UNL     1      23.363   5.994  42.746  1.00  0.00     0.160 C 
ATOM      9  C   UNL     1      24.050   7.155  42.035  1.00  0.00     0.035 C 
ENDBRANCH   7   8
ENDBRANCH   1   7
BRANCH   2  10
ATOM     10  O   UNL     1      21.613   1.990  43.266  1.00  0.00    -0.385 OA
ATOM     11  H   UNL     1      21.215   1.996  44.175  1.00  0.00     0.211 HD
ENDBRANCH   2  10
BRANCH   3  12
ATOM     12  O   UNL     1      19.876   4.554  41.383  1.00  0.00    -0.387 OA
ATOM     13  H   UNL     1      19.674   4.608  40.412  1.00  0.00     0.211 HD
ENDBRANCH   3  12
BRANCH   5  14
ATOM     14  C   UNL     1      22.343   4.288  39.002  1.00  0.00     0.191 C 
BRANCH  14  15
ATOM     15  O   UNL     1      21.352   5.232  39.292  1.00  0.00    -0.394 OA
ATOM     16  H   UNL     1      20.494   4.735  39.314  1.00  0.00     0.210 HD
ENDBRANCH  14  15
ENDBRANCH   5  14
BRANCH   4  17
ATOM     17  O   UNL     1      19.915   2.813  39.288  1.00  0.00    -0.387 OA
ATOM     18  H   UNL     1      19.387   1.980  39.181  1.00  0.00     0.211 HD
ENDBRANCH   4  17
TORSDOF 7
ENDMDL
MODEL 3
REMARK VINA RESULT:    -4.404     14.865     16.605
REMARK INTER + INTRA:          -6.384
REMARK INTER:                  -5.692
REMARK INTRA:                  -0.692
REMARK UNBOUND:                -0.693
REMARK SMILES CCO[C@@H]1O[C@H](CO)[C@H](O)[C@H](O)[C@H]1O
REMARK SMILES IDX 4 1 13 2 11 3 9 4 6 5 5 6 3 7 2 8 1 9 14 10 12 12 7 14 8 15
REMARK SMILES IDX 10 17
REMARK H PARENT 14 11 12 13 8 16 10 18
REMARK Flexibility Score: inf
ROOT
ATOM      1  C   UNL     1      36.820   0.423  44.236  1.00  0.00     0.281 C 
ATOM      2  C   UNL     1      35.800   1.527  44.598  1.00  0.00     0.202 C 
ATOM      3  C   UNL     1      36.495   2.773  45.171  1.00  0.00     0.179 C 
ATOM      4  C   UNL     1      37.676   3.202  44.278  1.00  0.00     0.177 C 
ATOM      5  C   UNL     1      38.554   2.012  43.798  1.00  0.00     0.178 C 
ATOM      6  O   UNL     1      37.812   0.889  43.334  1.00  0.00    -0.341 OA
ENDROOT
BRANCH   1   7
ATOM      7  O   UNL     1      37.427  -0.117  45.399  1.00  0.00    -0.350 OA
BRANCH   7   8
ATOM      8  C   UNL     1      37.677  -1.505  45.276  1.00  0.00     0.160 C 
ATOM      9  C   UNL     1      36.372  -2.258  45.041  1.00  0.00     0.035 C 
ENDBRANCH   7   8
ENDBRANCH   1   7
BRANCH   2  10
ATOM     10  O   UNL     1      35.001   1.863  43.489  1.00  0.00    -0.385 OA
ATOM     11  H   UNL     1      35.488   1.606  42.664  1.00  0.00     0.211 HD
ENDBRANCH   2  10
BRANCH   3  12
ATOM     12  O   UNL     1      36.935   2.528  46.482  1.00  0.00    -0.387 OA
ATOM     13  H   UNL     1      36.267   2.936  47.094  1.00  0.00     0.211 HD
ENDBRANCH   3  12
BRANCH   5  14
ATOM     14  C   UNL     1      39.738   1.613  44.712  1.00  0.00     0.191 C 
BRANCH  14  15
ATOM     15  O   UNL     1      39.410   1.690  46.070  1.00  0.00    -0.394 OA
ATOM     16  H   UNL     1      39.057   2.605  46.219  1.00  0.00     0.210 HD
ENDBRANCH  14  15
ENDBRANCH   5  14
BRANCH   4  17
ATOM     17  O   UNL     1      38.469   4.161  44.932  1.00  0.00    -0.387 OA
ATOM     18  H   UNL     1      39.263   3.684  45.289  1.00  0.00     0.211 HD
ENDBRANCH   4  17
TORSDOF 7
ENDMDL
MODEL 4
REMARK VINA RESULT:    -4.400     12.904     14.829
REMARK INTER + INTRA:          -6.379
REMARK INTER:                  -5.654
REMARK INTRA:                  -0.725
REMARK UNBOUND:                -0.693
REMARK SMILES CCO[C@@H]1O[C@H](CO)[C@H](O)[C@H](O)[C@H]1O
REMARK SMILES IDX 4 1 13 2 11 3 9 4 6 5 5 6 3 7 2 8 1 9 14 10 12 12 7 14 8 15
REMARK SMILES IDX 10 17
REMARK H PARENT 14 11 12 13 8 16 10 18
REMARK Flexibility Score: inf
ROOT
ATOM      1  C   UNL     1      35.050   3.609  43.062  1.00  0.00     0.281 C 
ATOM      2  C   UNL     1      35.275   5.139  43.076  1.00  0.00     0.202 C 
ATOM      3  C   UNL     1      36.399   5.536  44.047  1.00  0.00     0.179 C 
ATOM      4  C   UNL     1      37.650   4.665  43.824  1.00  0.00     0.177 C 
ATOM      5  C   UNL     1      37.329   3.155  43.633  1.00  0.00     0.178 C 
ATOM      6  O   UNL     1      36.239   2.898  42.754  1.00  0.00    -0.341 OA
ENDROOT
BRANCH   1   7
ATOM      7  O   UNL     1      34.513   3.158  44.296  1.00  0.00    -0.350 OA
BRANCH   7   8
ATOM      8  C   UNL     1      33.601   2.090  44.122  1.00  0.00     0.160 C 
ATOM      9  C   UNL     1      32.700   2.355  42.920  1.00  0.00     0.035 C 
ENDBRANCH   7   8
ENDBRANCH   1   7
BRANCH   2  10
ATOM     10  O   UNL     1      35.536   5.625  41.781  1.00  0.00    -0.385 OA
ATOM     11  H   UNL     1      35.265   6.579  41.746  1.00  0.00     0.211 HD
ENDBRANCH   2  10
BRANCH   3  12
ATOM     12  O   UNL     1      35.957   5.429  45.377  1.00  0.00    -0.387 OA
ATOM     13  H   UNL     1      36.707   5.045  45.902  1.00  0.00     0.211 HD
ENDBRANCH   3  12
BRANCH   5  14
ATOM     14  C   UNL     1      37.282   2.290  44.915  1.00  0.00     0.191 C 
BRANCH  14  15
ATOM     15  O   UNL     1      36.752   2.985  46.007  1.00  0.00    -0.394 OA
ATOM     16  H   UNL     1      36.632   3.923  45.707  1.00  0.00     0.210 HD
ENDBRANCH  14  15
ENDBRANCH   5  14
BRANCH   4  17
ATOM     17  O   UNL     1      38.569   4.838  44.875  1.00  0.00    -0.387 OA
ATOM     18  H   UNL     1      38.917   3.938  45.105  1.00  0.00     0.211 HD
ENDBRANCH   4  17
TORSDOF 7
ENDMDL
MODEL 5
REMARK VINA RESULT:    -4.376      1.408      2.946
REMARK INTER + INTRA:          -6.348
REMARK INTER:                  -5.615
REMARK INTRA:                  -0.734
REMARK UNBOUND:                -0.693
REMARK SMILES CCO[C@@H]1O[C@H](CO)[C@H](O)[C@H](O)[C@H]1O
REMARK SMILES IDX 4 1 13 2 11 3 9 4 6 5 5 6 3 7 2 8 1 9 14 10 12 12 7 14 8 15
REMARK SMILES IDX 10 17
REMARK H PARENT 14 11 12 13 8 16 10 18
REMARK Flexibility Score: inf
ROOT
ATOM      1  C   UNL     1      22.474   3.165  37.010  1.00  0.00     0.281 C 
ATOM      2  C   UNL     1      23.715   4.082  37.097  1.00  0.00     0.202 C 
ATOM      3  C   UNL     1      23.548   5.157  38.184  1.00  0.00     0.179 C 
ATOM      4  C   UNL     1      23.069   4.530  39.507  1.00  0.00     0.177 C 
ATOM      5  C   UNL     1      21.941   3.476  39.322  1.00  0.00     0.178 C 
ATOM      6  O   UNL     1      22.170   2.559  38.257  1.00  0.00    -0.341 OA
ENDROOT
BRANCH   1   7
ATOM      7  O   UNL     1      21.346   3.873  36.519  1.00  0.00    -0.350 OA
BRANCH   7   8
ATOM      8  C   UNL     1      21.291   3.876  35.104  1.00  0.00     0.160 C 
ATOM      9  C   UNL     1      21.306   5.307  34.578  1.00  0.00     0.035 C 
ENDBRANCH   7   8
ENDBRANCH   1   7
BRANCH   2  10
ATOM     10  O   UNL     1      24.887   3.331  37.310  1.00  0.00    -0.385 OA
ATOM     11  H   UNL     1      25.419   3.340  36.473  1.00  0.00     0.211 HD
ENDBRANCH   2  10
BRANCH   3  12
ATOM     12  O   UNL     1      22.649   6.149  37.756  1.00  0.00    -0.387 OA
ATOM     13  H   UNL     1      21.748   5.732  37.733  1.00  0.00     0.211 HD
ENDBRANCH   3  12
BRANCH   5  14
ATOM     14  C   UNL     1      20.487   4.006  39.356  1.00  0.00     0.191 C 
BRANCH  14  15
ATOM     15  O   UNL     1      20.380   5.300  38.836  1.00  0.00    -0.394 OA
ATOM     16  H   UNL     1      20.260   5.196  37.857  1.00  0.00     0.210 HD
ENDBRANCH  14  15
ENDBRANCH   5  14
BRANCH   4  17
ATOM     17  O   UNL     1      22.660   5.529  40.409  1.00  0.00    -0.387 OA
ATOM     18  H   UNL     1      22.337   6.294  39.866  1.00  0.00     0.211 HD
ENDBRANCH   4  17
TORSDOF 7
ENDMDL
MODEL 6
REMARK VINA RESULT:    -4.309      2.904      5.048
REMARK INTER + INTRA:          -6.262
REMARK INTER:                  -5.529
REMARK INTRA:                  -0.733
REMARK UNBOUND:                -0.693
REMARK SMILES CCO[C@@H]1O[C@H](CO)[C@H](O)[C@H](O)[C@H]1O
REMARK SMILES IDX 4 1 13 2 11 3 9 4 6 5 5 6 3 7 2 8 1 9 14 10 12 12 7 14 8 15
REMARK SMILES IDX 10 17
REMARK H PARENT 14 11 12 13 8 16 10 18
REMARK Flexibility Score: inf
ROOT
ATOM      1  C   UNL     1      22.112   2.239  41.528  1.00  0.00     0.281 C 
ATOM      2  C   UNL     1      22.685   2.850  40.229  1.00  0.00     0.202 C 
ATOM      3  C   UNL     1      22.640   4.387  40.259  1.00  0.00     0.179 C 
ATOM      4  C   UNL     1      23.222   4.926  41.581  1.00  0.00     0.177 C 
ATOM      5  C   UNL     1      22.744   4.141  42.835  1.00  0.00     0.178 C 
ATOM      6  O   UNL     1      22.776   2.726  42.684  1.00  0.00    -0.341 OA
ENDROOT
BRANCH   1   7
ATOM      7  O   UNL     1      20.715   2.467  41.631  1.00  0.00    -0.350 OA
BRANCH   7   8
ATOM      8  C   UNL     1      20.046   1.402  42.282  1.00  0.00     0.160 C 
ATOM      9  C   UNL     1      20.651   0.066  41.865  1.00  0.00     0.035 C 
ENDBRANCH   7   8
ENDBRANCH   1   7
BRANCH   2  10
ATOM     10  O   UNL     1      23.993   2.390  39.986  1.00  0.00    -0.385 OA
ATOM     11  H   UNL     1      24.301   2.768  39.122  1.00  0.00     0.211 HD
ENDBRANCH   2  10
BRANCH   3  12
ATOM     12  O   UNL     1      21.323   4.841  40.080  1.00  0.00    -0.387 OA
ATOM     13  H   UNL     1      21.268   5.216  39.163  1.00  0.00     0.211 HD
ENDBRANCH   3  12
BRANCH   5  14
ATOM     14  C   UNL     1      21.444   4.643  43.511  1.00  0.00     0.191 C 
BRANCH  14  15
ATOM     15  O   UNL     1      20.573   5.252  42.603  1.00  0.00    -0.394 OA
ATOM     16  H   UNL     1      21.142   5.633  41.885  1.00  0.00     0.210 HD
ENDBRANCH  14  15
ENDBRANCH   5  14
BRANCH   4  17
ATOM     17  O   UNL     1      22.937   6.295  41.725  1.00  0.00    -0.387 OA
ATOM     18  H   UNL     1      23.548   6.783  41.114  1.00  0.00     0.211 HD
ENDBRANCH   4  17
TORSDOF 7
ENDMDL
MODEL 7
REMARK VINA RESULT:    -4.285      1.647      3.641
REMARK INTER + INTRA:          -6.230
REMARK INTER:                  -5.493
REMARK INTRA:                  -0.736
REMARK UNBOUND:                -0.693
REMARK SMILES CCO[C@@H]1O[C@H](CO)[C@H](O)[C@H](O)[C@H]1O
REMARK SMILES IDX 4 1 13 2 11 3 9 4 6 5 5 6 3 7 2 8 1 9 14 10 12 12 7 14 8 15
REMARK SMILES IDX 10 17
REMARK H PARENT 14 11 12 13 8 16 10 18
REMARK Flexibility Score: inf
ROOT
ATOM      1  C   UNL     1      21.635   2.548  38.638  1.00  0.00     0.281 C 
ATOM      2  C   UNL     1      20.488   3.148  37.794  1.00  0.00     0.202 C 
ATOM      3  C   UNL     1      20.623   4.674  37.659  1.00  0.00     0.179 C 
ATOM      4  C   UNL     1      22.054   5.063  37.239  1.00  0.00     0.177 C 
ATOM      5  C   UNL     1      23.159   4.281  38.004  1.00  0.00     0.178 C 
ATOM      6  O   UNL     1      22.912   2.883  38.116  1.00  0.00    -0.341 OA
ENDROOT
BRANCH   1   7
ATOM      7  O   UNL     1      21.538   2.949  39.996  1.00  0.00    -0.350 OA
BRANCH   7   8
ATOM      8  C   UNL     1      22.040   1.965  40.880  1.00  0.00     0.160 C 
ATOM      9  C   UNL     1      22.508   2.612  42.180  1.00  0.00     0.035 C 
ENDBRANCH   7   8
ENDBRANCH   1   7
BRANCH   2  10
ATOM     10  O   UNL     1      20.416   2.537  36.528  1.00  0.00    -0.385 OA
ATOM     11  H   UNL     1      19.570   2.022  36.477  1.00  0.00     0.211 HD
ENDBRANCH   2  10
BRANCH   3  12
ATOM     12  O   UNL     1      20.277   5.303  38.866  1.00  0.00    -0.387 OA
ATOM     13  H   UNL     1      20.626   6.232  38.820  1.00  0.00     0.211 HD
ENDBRANCH   3  12
BRANCH   5  14
ATOM     14  C   UNL     1      23.662   4.909  39.326  1.00  0.00     0.191 C 
BRANCH  14  15
ATOM     15  O   UNL     1      22.642   5.561  40.027  1.00  0.00    -0.394 OA
ATOM     16  H   UNL     1      22.534   6.448  39.597  1.00  0.00     0.210 HD
ENDBRANCH  14  15
ENDBRANCH   5  14
BRANCH   4  17
ATOM     17  O   UNL     1      22.252   6.448  37.378  1.00  0.00    -0.387 OA
ATOM     18  H   UNL     1      23.066   6.569  37.932  1.00  0.00     0.211 HD
ENDBRANCH   4  17
TORSDOF 7
ENDMDL
MODEL 8
REMARK VINA RESULT:    -4.270     14.294     16.154
REMARK INTER + INTRA:          -6.211
REMARK INTER:                  -5.460
REMARK INTRA:                  -0.751
REMARK UNBOUND:                -0.693
REMARK SMILES CCO[C@@H]1O[C@H](CO)[C@H](O)[C@H](O)[C@H]1O
REMARK SMILES IDX 4 1 13 2 11 3 9 4 6 5 5 6 3 7 2 8 1 9 14 10 12 12 7 14 8 15
REMARK SMILES IDX 10 17
REMARK H PARENT 14 11 12 13 8 16 10 18
REMARK Flexibility Score: inf
ROOT
ATOM      1  C   UNL     1      37.564   4.701  42.237  1.00  0.00     0.281 C 
ATOM      2  C   UNL     1      36.202   5.009  42.900  1.00  0.00     0.202 C 
ATOM      3  C   UNL     1      36.366   5.899  44.143  1.00  0.00     0.179 C 
ATOM      4  C   UNL     1      37.264   7.112  43.833  1.00  0.00     0.177 C 
ATOM      5  C   UNL     1      38.527   6.753  43.001  1.00  0.00     0.178 C 
ATOM      6  O   UNL     1      38.274   5.883  41.903  1.00  0.00    -0.341 OA
ENDROOT
BRANCH   1   7
ATOM      7  O   UNL     1      38.360   3.866  43.064  1.00  0.00    -0.350 OA
BRANCH   7   8
ATOM      8  C   UNL     1      37.879   2.535  43.099  1.00  0.00     0.160 C 
ATOM      9  C   UNL     1      38.165   1.907  44.460  1.00  0.00     0.035 C 
ENDBRANCH   7   8
ENDBRANCH   1   7
BRANCH   2  10
ATOM     10  O   UNL     1      35.310   5.592  41.979  1.00  0.00    -0.385 OA
ATOM     11  H   UNL     1      34.408   5.208  42.132  1.00  0.00     0.211 HD
ENDBRANCH   2  10
BRANCH   3  12
ATOM     12  O   UNL     1      36.896   5.155  45.210  1.00  0.00    -0.387 OA
ATOM     13  H   UNL     1      37.694   4.677  44.862  1.00  0.00     0.211 HD
ENDBRANCH   3  12
BRANCH   5  14
ATOM     14  C   UNL     1      39.793   6.358  43.799  1.00  0.00     0.191 C 
BRANCH  14  15
ATOM     15  O   UNL     1      39.488   5.621  44.949  1.00  0.00    -0.394 OA
ATOM     16  H   UNL     1      38.618   5.968  45.277  1.00  0.00     0.210 HD
ENDBRANCH  14  15
ENDBRANCH   5  14
BRANCH   4  17
ATOM     17  O   UNL     1      37.633   7.771  45.020  1.00  0.00    -0.387 OA
ATOM     18  H   UNL     1      38.439   7.309  45.367  1.00  0.00     0.211 HD
ENDBRANCH   4  17
TORSDOF 7
ENDMDL
MODEL 9
REMARK VINA RESULT:    -4.200     15.730     17.319
REMARK INTER + INTRA:          -6.121
REMARK INTER:                  -5.581
REMARK INTRA:                  -0.540
REMARK UNBOUND:                -0.693
REMARK SMILES CCO[C@@H]1O[C@H](CO)[C@H](O)[C@H](O)[C@H]1O
REMARK SMILES IDX 4 1 13 2 11 3 9 4 6 5 5 6 3 7 2 8 1 9 14 10 12 12 7 14 8 15
REMARK SMILES IDX 10 17
REMARK H PARENT 14 11 12 13 8 16 10 18
REMARK Flexibility Score: inf
ROOT
ATOM      1  C   UNL     1      38.604   3.050  43.439  1.00  0.00     0.281 C 
ATOM      2  C   UNL     1      39.800   2.090  43.631  1.00  0.00     0.202 C 
ATOM      3  C   UNL     1      39.593   1.162  44.841  1.00  0.00     0.179 C 
ATOM      4  C   UNL     1      38.196   0.513  44.800  1.00  0.00     0.177 C 
ATOM      5  C   UNL     1      37.061   1.505  44.417  1.00  0.00     0.178 C 
ATOM      6  O   UNL     1      37.375   2.352  43.317  1.00  0.00    -0.341 OA
ENDROOT
BRANCH   1   7
ATOM      7  O   UNL     1      38.530   3.995  44.495  1.00  0.00    -0.350 OA
BRANCH   7   8
ATOM      8  C   UNL     1      38.770   5.317  44.047  1.00  0.00     0.160 C 
ATOM      9  C   UNL     1      40.125   5.807  44.546  1.00  0.00     0.035 C 
ENDBRANCH   7   8
ENDBRANCH   1   7
BRANCH   2  10
ATOM     10  O   UNL     1      40.044   1.343  42.463  1.00  0.00    -0.385 OA
ATOM     11  H   UNL     1      39.174   1.154  42.026  1.00  0.00     0.211 HD
ENDBRANCH   2  10
BRANCH   3  12
ATOM     12  O   UNL     1      39.769   1.875  46.038  1.00  0.00    -0.387 OA
ATOM     13  H   UNL     1      38.866   2.150  46.348  1.00  0.00     0.211 HD
ENDBRANCH   3  12
BRANCH   5  14
ATOM     14  C   UNL     1      36.382   2.263  45.584  1.00  0.00     0.191 C 
BRANCH  14  15
ATOM     15  O   UNL     1      37.156   2.249  46.749  1.00  0.00    -0.394 OA
ATOM     16  H   UNL     1      37.937   2.833  46.570  1.00  0.00     0.210 HD
ENDBRANCH  14  15
ENDBRANCH   5  14
BRANCH   4  17
ATOM     17  O   UNL     1      37.905  -0.112  46.026  1.00  0.00    -0.387 OA
ATOM     18  H   UNL     1      37.387   0.540  46.566  1.00  0.00     0.211 HD
ENDBRANCH   4  17
TORSDOF 7
ENDMDL
