MODEL 1
REMARK VINA RESULT:    -4.191      0.000      0.000
REMARK INTER + INTRA:          -8.651
REMARK INTER:                  -7.622
REMARK INTRA:                  -1.030
REMARK UNBOUND:                -1.030
REMARK SMILES CCCCCCCCCCCCCCCC(=O)[O-]
REMARK SMILES IDX 9 1 10 2 11 3 12 4 13 5 14 6 15 7 16 8 17 9 18 10 8 11 7 12
REMARK SMILES IDX 6 13 5 14 4 15 3 16 2 17 1 18
REMARK H PARENT
REMARK Flexibility Score: inf
ROOT
ATOM      1  C   UNL     1     -33.152 -21.493 -35.346  1.00  0.00     0.000 C 
ENDROOT
BRANCH   1   2
ATOM      2  C   UNL     1     -33.022 -20.116 -34.685  1.00  0.00     0.000 C 
BRANCH   2   3
ATOM      3  C   UNL     1     -31.850 -20.090 -33.693  1.00  0.00     0.000 C 
BRANCH   3   4
ATOM      4  C   UNL     1     -31.051 -21.406 -33.676  1.00  0.00     0.000 C 
BRANCH   4   5
ATOM      5  C   UNL     1     -29.696 -21.339 -32.943  1.00  0.00     0.000 C 
BRANCH   5   6
ATOM      6  C   UNL     1     -29.340 -19.962 -32.353  1.00  0.00     0.006 C 
BRANCH   6   7
ATOM      7  C   UNL     1     -29.140 -20.000 -30.833  1.00  0.00     0.053 C 
BRANCH   7   8
ATOM      8  C   UNL     1     -30.353 -20.561 -30.161  1.00  0.00     0.041 C 
ATOM      9  O   UNL     1     -30.275 -21.633 -29.505  1.00  0.00    -0.550 OA
ATOM     10  O   UNL     1     -31.559 -19.875 -30.218  1.00  0.00    -0.550 OA
ENDBRANCH   7   8
ENDBRANCH   6   7
ENDBRANCH   5   6
ENDBRANCH   4   5
ENDBRANCH   3   4
ENDBRANCH   2   3
ENDBRANCH   1   2
BRANCH   1  11
ATOM     11  C   UNL     1     -33.470 -21.359 -36.843  1.00  0.00     0.000 C 
BRANCH  11  12
ATOM     12  C   UNL     1     -33.370 -22.709 -37.585  1.00  0.00    -0.000 C 
BRANCH  12  13
ATOM     13  C   UNL     1     -32.714 -23.822 -36.750  1.00  0.00    -0.000 C 
BRANCH  13  14
ATOM     14  C   UNL     1     -31.212 -23.981 -37.042  1.00  0.00    -0.000 C 
BRANCH  14  15
ATOM     15  C   UNL     1     -30.906 -25.183 -37.949  1.00  0.00    -0.000 C 
BRANCH  15  16
ATOM     16  C   UNL     1     -32.181 -25.880 -38.453  1.00  0.00    -0.000 C 
BRANCH  16  17
ATOM     17  C   UNL     1     -32.015 -27.405 -38.561  1.00  0.00    -0.003 C 
ATOM     18  C   UNL     1     -33.318 -28.163 -38.300  1.00  0.00     0.004 C 
ENDBRANCH  16  17
ENDBRANCH  15  16
ENDBRANCH  14  15
ENDBRANCH  13  14
ENDBRANCH  12  13
ENDBRANCH  11  12
ENDBRANCH   1  11
TORSDOF 14
ENDMDL
MODEL 2
REMARK VINA RESULT:    -3.854      4.090      8.037
REMARK INTER + INTRA:          -8.038
REMARK INTER:                  -6.982
REMARK INTRA:                  -1.056
REMARK UNBOUND:                -1.030
REMARK SMILES CCCCCCCCCCCCCCCC(=O)[O-]
REMARK SMILES IDX 9 1 10 2 11 3 12 4 13 5 14 6 15 7 16 8 17 9 18 10 8 11 7 12
REMARK SMILES IDX 6 13 5 14 4 15 3 16 2 17 1 18
REMARK H PARENT
REMARK Flexibility Score: inf
ROOT
ATOM      1  C   UNL     1     -32.384 -23.282 -34.955  1.00  0.00     0.000 C 
ENDROOT
BRANCH   1   2
ATOM      2  C   UNL     1     -33.244 -22.457 -35.920  1.00  0.00     0.000 C 
BRANCH   2   3
ATOM      3  C   UNL     1     -32.647 -22.466 -37.334  1.00  0.00     0.000 C 
BRANCH   3   4
ATOM      4  C   UNL     1     -31.451 -23.425 -37.473  1.00  0.00     0.000 C 
BRANCH   4   5
ATOM      5  C   UNL     1     -31.463 -24.308 -38.737  1.00  0.00     0.000 C 
BRANCH   5   6
ATOM      6  C   UNL     1     -31.427 -25.824 -38.474  1.00  0.00     0.006 C 
BRANCH   6   7
ATOM      7  C   UNL     1     -32.770 -26.373 -37.976  1.00  0.00     0.053 C 
BRANCH   7   8
ATOM      8  C   UNL     1     -32.969 -27.777 -38.456  1.00  0.00     0.041 C 
ATOM      9  O   UNL     1     -34.125 -28.276 -38.495  1.00  0.00    -0.550 OA
ATOM     10  O   UNL     1     -31.885 -28.518 -38.906  1.00  0.00    -0.550 OA
ENDBRANCH   7   8
ENDBRANCH   6   7
ENDBRANCH   5   6
ENDBRANCH   4   5
ENDBRANCH   3   4
ENDBRANCH   2   3
ENDBRANCH   1   2
BRANCH   1  11
ATOM     11  C   UNL     1     -31.347 -22.397 -34.247  1.00  0.00     0.000 C 
BRANCH  11  12
ATOM     12  C   UNL     1     -31.959 -21.078 -33.732  1.00  0.00    -0.000 C 
BRANCH  12  13
ATOM     13  C   UNL     1     -30.912 -20.069 -33.229  1.00  0.00    -0.000 C 
BRANCH  13  14
ATOM     14  C   UNL     1     -29.489 -20.651 -33.198  1.00  0.00    -0.000 C 
BRANCH  14  15
ATOM     15  C   UNL     1     -28.861 -20.609 -31.796  1.00  0.00    -0.000 C 
BRANCH  15  16
ATOM     16  C   UNL     1     -29.833 -20.075 -30.730  1.00  0.00    -0.000 C 
BRANCH  16  17
ATOM     17  C   UNL     1     -30.440 -21.197 -29.872  1.00  0.00    -0.003 C 
ATOM     18  C   UNL     1     -30.338 -22.571 -30.534  1.00  0.00     0.004 C 
ENDBRANCH  16  17
ENDBRANCH  15  16
ENDBRANCH  14  15
ENDBRANCH  13  14
ENDBRANCH  12  13
ENDBRANCH  11  12
ENDBRANCH   1  11
TORSDOF 14
ENDMDL
MODEL 3
REMARK VINA RESULT:    -3.830      3.992      7.859
REMARK INTER + INTRA:          -7.994
REMARK INTER:                  -6.920
REMARK INTRA:                  -1.074
REMARK UNBOUND:                -1.030
REMARK SMILES CCCCCCCCCCCCCCCC(=O)[O-]
REMARK SMILES IDX 9 1 10 2 11 3 12 4 13 5 14 6 15 7 16 8 17 9 18 10 8 11 7 12
REMARK SMILES IDX 6 13 5 14 4 15 3 16 2 17 1 18
REMARK H PARENT
REMARK Flexibility Score: inf
ROOT
ATOM      1  C   UNL     1     -31.497 -22.428 -34.067  1.00  0.00     0.000 C 
ENDROOT
BRANCH   1   2
ATOM      2  C   UNL     1     -32.433 -23.306 -34.907  1.00  0.00     0.000 C 
BRANCH   2   3
ATOM      3  C   UNL     1     -32.868 -22.578 -36.187  1.00  0.00     0.000 C 
BRANCH   3   4
ATOM      4  C   UNL     1     -32.207 -23.149 -37.454  1.00  0.00     0.000 C 
BRANCH   4   5
ATOM      5  C   UNL     1     -31.076 -24.167 -37.200  1.00  0.00     0.000 C 
BRANCH   5   6
ATOM      6  C   UNL     1     -31.183 -25.474 -38.007  1.00  0.00     0.006 C 
BRANCH   6   7
ATOM      7  C   UNL     1     -32.629 -25.959 -38.166  1.00  0.00     0.053 C 
BRANCH   7   8
ATOM      8  C   UNL     1     -32.659 -27.434 -38.415  1.00  0.00     0.041 C 
ATOM      9  O   UNL     1     -33.748 -28.065 -38.356  1.00  0.00    -0.550 OA
ATOM     10  O   UNL     1     -31.493 -28.105 -38.760  1.00  0.00    -0.550 OA
ENDBRANCH   7   8
ENDBRANCH   6   7
ENDBRANCH   5   6
ENDBRANCH   4   5
ENDBRANCH   3   4
ENDBRANCH   2   3
ENDBRANCH   1   2
BRANCH   1  11
ATOM     11  C   UNL     1     -31.927 -20.954 -34.121  1.00  0.00     0.000 C 
BRANCH  11  12
ATOM     12  C   UNL     1     -30.993 -20.043 -33.297  1.00  0.00    -0.000 C 
BRANCH  12  13
ATOM     13  C   UNL     1     -29.525 -20.502 -33.300  1.00  0.00    -0.000 C 
BRANCH  13  14
ATOM     14  C   UNL     1     -28.845 -20.335 -31.930  1.00  0.00    -0.000 C 
BRANCH  14  15
ATOM     15  C   UNL     1     -29.822 -19.882 -30.834  1.00  0.00    -0.000 C 
BRANCH  15  16
ATOM     16  C   UNL     1     -30.738 -21.020 -30.353  1.00  0.00    -0.000 C 
BRANCH  16  17
ATOM     17  C   UNL     1     -29.982 -22.346 -30.169  1.00  0.00    -0.003 C 
ATOM     18  C   UNL     1     -30.730 -23.542 -30.759  1.00  0.00     0.004 C 
ENDBRANCH  16  17
ENDBRANCH  15  16
ENDBRANCH  14  15
ENDBRANCH  13  14
ENDBRANCH  12  13
ENDBRANCH  11  12
ENDBRANCH   1  11
TORSDOF 14
ENDMDL
MODEL 4
REMARK VINA RESULT:    -3.524      1.366      1.776
REMARK INTER + INTRA:          -7.437
REMARK INTER:                  -6.754
REMARK INTRA:                  -0.684
REMARK UNBOUND:                -1.030
REMARK SMILES CCCCCCCCCCCCCCCC(=O)[O-]
REMARK SMILES IDX 9 1 10 2 11 3 12 4 13 5 14 6 15 7 16 8 17 9 18 10 8 11 7 12
REMARK SMILES IDX 6 13 5 14 4 15 3 16 2 17 1 18
REMARK H PARENT
REMARK Flexibility Score: inf
ROOT
ATOM      1  C   UNL     1     -31.317 -22.265 -34.517  1.00  0.00     0.000 C 
ENDROOT
BRANCH   1   2
ATOM      2  C   UNL     1     -32.047 -21.078 -33.878  1.00  0.00     0.000 C 
BRANCH   2   3
ATOM      3  C   UNL     1     -31.051 -20.014 -33.396  1.00  0.00     0.000 C 
BRANCH   3   4
ATOM      4  C   UNL     1     -29.586 -20.477 -33.495  1.00  0.00     0.000 C 
BRANCH   4   5
ATOM      5  C   UNL     1     -28.869 -20.673 -32.144  1.00  0.00     0.000 C 
BRANCH   5   6
ATOM      6  C   UNL     1     -29.531 -19.969 -30.946  1.00  0.00     0.006 C 
BRANCH   6   7
ATOM      7  C   UNL     1     -30.719 -20.755 -30.377  1.00  0.00     0.053 C 
BRANCH   7   8
ATOM      8  C   UNL     1     -30.341 -22.186 -30.157  1.00  0.00     0.041 C 
ATOM      9  O   UNL     1     -30.661 -23.063 -31.003  1.00  0.00    -0.550 OA
ATOM     10  O   UNL     1     -29.592 -22.544 -29.044  1.00  0.00    -0.550 OA
ENDBRANCH   7   8
ENDBRANCH   6   7
ENDBRANCH   5   6
ENDBRANCH   4   5
ENDBRANCH   3   4
ENDBRANCH   2   3
ENDBRANCH   1   2
BRANCH   1  11
ATOM     11  C   UNL     1     -32.309 -23.356 -34.946  1.00  0.00     0.000 C 
BRANCH  11  12
ATOM     12  C   UNL     1     -32.668 -23.263 -36.444  1.00  0.00    -0.000 C 
BRANCH  12  13
ATOM     13  C   UNL     1     -31.443 -23.116 -37.363  1.00  0.00    -0.000 C 
BRANCH  13  14
ATOM     14  C   UNL     1     -31.336 -24.246 -38.401  1.00  0.00    -0.000 C 
BRANCH  14  15
ATOM     15  C   UNL     1     -31.521 -25.640 -37.783  1.00  0.00    -0.000 C 
BRANCH  15  16
ATOM     16  C   UNL     1     -32.189 -26.631 -38.752  1.00  0.00    -0.000 C 
BRANCH  16  17
ATOM     17  C   UNL     1     -33.294 -27.460 -38.077  1.00  0.00    -0.003 C 
ATOM     18  C   UNL     1     -33.605 -28.755 -38.828  1.00  0.00     0.004 C 
ENDBRANCH  16  17
ENDBRANCH  15  16
ENDBRANCH  14  15
ENDBRANCH  13  14
ENDBRANCH  12  13
ENDBRANCH  11  12
ENDBRANCH   1  11
TORSDOF 14
ENDMDL
MODEL 5
REMARK VINA RESULT:    -3.485      1.559      2.729
REMARK INTER + INTRA:          -7.368
REMARK INTER:                  -6.089
REMARK INTRA:                  -1.278
REMARK UNBOUND:                -1.030
REMARK SMILES CCCCCCCCCCCCCCCC(=O)[O-]
REMARK SMILES IDX 9 1 10 2 11 3 12 4 13 5 14 6 15 7 16 8 17 9 18 10 8 11 7 12
REMARK SMILES IDX 6 13 5 14 4 15 3 16 2 17 1 18
REMARK H PARENT
REMARK Flexibility Score: inf
ROOT
ATOM      1  C   UNL     1     -31.657 -22.428 -34.343  1.00  0.00     0.000 C 
ENDROOT
BRANCH   1   2
ATOM      2  C   UNL     1     -31.128 -21.107 -33.772  1.00  0.00     0.000 C 
BRANCH   2   3
ATOM      3  C   UNL     1     -29.626 -21.200 -33.470  1.00  0.00     0.000 C 
BRANCH   3   4
ATOM      4  C   UNL     1     -29.074 -19.939 -32.781  1.00  0.00     0.000 C 
BRANCH   4   5
ATOM      5  C   UNL     1     -28.508 -20.163 -31.364  1.00  0.00     0.000 C 
BRANCH   5   6
ATOM      6  C   UNL     1     -29.495 -19.883 -30.216  1.00  0.00     0.006 C 
BRANCH   6   7
ATOM      7  C   UNL     1     -30.719 -20.807 -30.245  1.00  0.00     0.053 C 
BRANCH   7   8
ATOM      8  C   UNL     1     -30.311 -22.220 -29.973  1.00  0.00     0.041 C 
ATOM      9  O   UNL     1     -29.646 -22.501 -28.942  1.00  0.00    -0.550 OA
ATOM     10  O   UNL     1     -30.708 -23.236 -30.833  1.00  0.00    -0.550 OA
ENDBRANCH   7   8
ENDBRANCH   6   7
ENDBRANCH   5   6
ENDBRANCH   4   5
ENDBRANCH   3   4
ENDBRANCH   2   3
ENDBRANCH   1   2
BRANCH   1  11
ATOM     11  C   UNL     1     -33.111 -22.282 -34.815  1.00  0.00     0.000 C 
BRANCH  11  12
ATOM     12  C   UNL     1     -33.411 -20.868 -35.355  1.00  0.00    -0.000 C 
BRANCH  12  13
ATOM     13  C   UNL     1     -33.992 -20.862 -36.780  1.00  0.00    -0.000 C 
BRANCH  13  14
ATOM     14  C   UNL     1     -33.778 -22.196 -37.516  1.00  0.00    -0.000 C 
BRANCH  14  15
ATOM     15  C   UNL     1     -32.926 -22.043 -38.785  1.00  0.00    -0.000 C 
BRANCH  15  16
ATOM     16  C   UNL     1     -31.843 -23.130 -38.903  1.00  0.00    -0.000 C 
BRANCH  16  17
ATOM     17  C   UNL     1     -31.912 -24.155 -37.759  1.00  0.00    -0.003 C 
ATOM     18  C   UNL     1     -30.945 -25.324 -37.953  1.00  0.00     0.004 C 
ENDBRANCH  16  17
ENDBRANCH  15  16
ENDBRANCH  14  15
ENDBRANCH  13  14
ENDBRANCH  12  13
ENDBRANCH  11  12
ENDBRANCH   1  11
TORSDOF 14
ENDMDL
MODEL 6
REMARK VINA RESULT:    -3.016      3.508      7.560
REMARK INTER + INTRA:          -6.514
REMARK INTER:                  -5.347
REMARK INTRA:                  -1.167
REMARK UNBOUND:                -1.030
REMARK SMILES CCCCCCCCCCCCCCCC(=O)[O-]
REMARK SMILES IDX 9 1 10 2 11 3 12 4 13 5 14 6 15 7 16 8 17 9 18 10 8 11 7 12
REMARK SMILES IDX 6 13 5 14 4 15 3 16 2 17 1 18
REMARK H PARENT
REMARK Flexibility Score: inf
ROOT
ATOM      1  C   UNL     1     -31.149 -21.706 -33.495  1.00  0.00     0.000 C 
ENDROOT
BRANCH   1   2
ATOM      2  C   UNL     1     -32.055 -20.579 -34.006  1.00  0.00     0.000 C 
BRANCH   2   3
ATOM      3  C   UNL     1     -33.309 -21.146 -34.686  1.00  0.00     0.000 C 
BRANCH   3   4
ATOM      4  C   UNL     1     -33.394 -20.786 -36.180  1.00  0.00     0.000 C 
BRANCH   4   5
ATOM      5  C   UNL     1     -33.933 -21.906 -37.094  1.00  0.00     0.000 C 
BRANCH   5   6
ATOM      6  C   UNL     1     -33.432 -23.321 -36.756  1.00  0.00     0.006 C 
BRANCH   6   7
ATOM      7  C   UNL     1     -31.928 -23.495 -37.005  1.00  0.00     0.053 C 
BRANCH   7   8
ATOM      8  C   UNL     1     -31.692 -24.514 -38.075  1.00  0.00     0.041 C 
ATOM      9  O   UNL     1     -31.071 -24.198 -39.125  1.00  0.00    -0.550 OA
ATOM     10  O   UNL     1     -32.113 -25.824 -37.893  1.00  0.00    -0.550 OA
ENDBRANCH   7   8
ENDBRANCH   6   7
ENDBRANCH   5   6
ENDBRANCH   4   5
ENDBRANCH   3   4
ENDBRANCH   2   3
ENDBRANCH   1   2
BRANCH   1  11
ATOM     11  C   UNL     1     -29.669 -21.380 -33.746  1.00  0.00     0.000 C 
BRANCH  11  12
ATOM     12  C   UNL     1     -29.263 -20.015 -33.152  1.00  0.00    -0.000 C 
BRANCH  12  13
ATOM     13  C   UNL     1     -28.245 -20.121 -32.004  1.00  0.00    -0.000 C 
BRANCH  13  14
ATOM     14  C   UNL     1     -28.876 -19.875 -30.622  1.00  0.00    -0.000 C 
BRANCH  14  15
ATOM     15  C   UNL     1     -30.412 -19.908 -30.657  1.00  0.00    -0.000 C 
BRANCH  15  16
ATOM     16  C   UNL     1     -31.008 -20.770 -29.531  1.00  0.00    -0.000 C 
BRANCH  16  17
ATOM     17  C   UNL     1     -30.248 -22.092 -29.336  1.00  0.00    -0.003 C 
ATOM     18  C   UNL     1     -30.330 -23.009 -30.557  1.00  0.00     0.004 C 
ENDBRANCH  16  17
ENDBRANCH  15  16
ENDBRANCH  14  15
ENDBRANCH  13  14
ENDBRANCH  12  13
ENDBRANCH  11  12
ENDBRANCH   1  11
TORSDOF 14
ENDMDL
MODEL 7
REMARK VINA RESULT:    -2.428      1.252      2.243
REMARK INTER + INTRA:          -5.444
REMARK INTER:                  -5.019
REMARK INTRA:                  -0.426
REMARK UNBOUND:                -1.030
REMARK SMILES CCCCCCCCCCCCCCCC(=O)[O-]
REMARK SMILES IDX 9 1 10 2 11 3 12 4 13 5 14 6 15 7 16 8 17 9 18 10 8 11 7 12
REMARK SMILES IDX 6 13 5 14 4 15 3 16 2 17 1 18
REMARK H PARENT
REMARK Flexibility Score: inf
ROOT
ATOM      1  C   UNL     1     -31.440 -22.922 -36.394  1.00  0.00     0.000 C 
ENDROOT
BRANCH   1   2
ATOM      2  C   UNL     1     -31.773 -22.820 -34.901  1.00  0.00     0.000 C 
BRANCH   2   3
ATOM      3  C   UNL     1     -32.189 -21.390 -34.527  1.00  0.00     0.000 C 
BRANCH   3   4
ATOM      4  C   UNL     1     -31.410 -20.836 -33.321  1.00  0.00     0.000 C 
BRANCH   4   5
ATOM      5  C   UNL     1     -29.932 -21.269 -33.242  1.00  0.00     0.000 C 
BRANCH   5   6
ATOM      6  C   UNL     1     -29.233 -20.961 -31.905  1.00  0.00     0.006 C 
BRANCH   6   7
ATOM      7  C   UNL     1     -30.005 -19.950 -31.049  1.00  0.00     0.053 C 
BRANCH   7   8
ATOM      8  C   UNL     1     -30.667 -20.639 -29.899  1.00  0.00     0.041 C 
ATOM      9  O   UNL     1     -30.264 -21.771 -29.520  1.00  0.00    -0.550 OA
ATOM     10  O   UNL     1     -31.699 -20.012 -29.212  1.00  0.00    -0.550 OA
ENDBRANCH   7   8
ENDBRANCH   6   7
ENDBRANCH   5   6
ENDBRANCH   4   5
ENDBRANCH   3   4
ENDBRANCH   2   3
ENDBRANCH   1   2
BRANCH   1  11
ATOM     11  C   UNL     1     -32.317 -23.978 -37.084  1.00  0.00     0.000 C 
BRANCH  11  12
ATOM     12  C   UNL     1     -31.941 -24.171 -38.568  1.00  0.00    -0.000 C 
BRANCH  12  13
ATOM     13  C   UNL     1     -32.266 -25.574 -39.109  1.00  0.00    -0.000 C 
BRANCH  13  14
ATOM     14  C   UNL     1     -32.701 -26.552 -38.004  1.00  0.00    -0.000 C 
BRANCH  14  15
ATOM     15  C   UNL     1     -33.716 -27.595 -38.500  1.00  0.00    -0.000 C 
BRANCH  15  16
ATOM     16  C   UNL     1     -33.041 -28.883 -39.001  1.00  0.00    -0.000 C 
BRANCH  16  17
ATOM     17  C   UNL     1     -31.515 -28.738 -39.125  1.00  0.00    -0.003 C 
ATOM     18  C   UNL     1     -30.789 -30.084 -39.110  1.00  0.00     0.004 C 
ENDBRANCH  16  17
ENDBRANCH  15  16
ENDBRANCH  14  15
ENDBRANCH  13  14
ENDBRANCH  12  13
ENDBRANCH  11  12
ENDBRANCH   1  11
TORSDOF 14
ENDMDL
MODEL 8
REMARK VINA RESULT:    -1.781      3.365      7.677
REMARK INTER + INTRA:          -4.268
REMARK INTER:                  -3.996
REMARK INTRA:                  -0.272
REMARK UNBOUND:                -1.030
REMARK SMILES CCCCCCCCCCCCCCCC(=O)[O-]
REMARK SMILES IDX 9 1 10 2 11 3 12 4 13 5 14 6 15 7 16 8 17 9 18 10 8 11 7 12
REMARK SMILES IDX 6 13 5 14 4 15 3 16 2 17 1 18
REMARK H PARENT
REMARK Flexibility Score: inf
ROOT
ATOM      1  C   UNL     1     -30.803 -22.168 -34.763  1.00  0.00     0.000 C 
ENDROOT
BRANCH   1   2
ATOM      2  C   UNL     1     -32.164 -22.872 -34.812  1.00  0.00     0.000 C 
BRANCH   2   3
ATOM      3  C   UNL     1     -33.290 -21.872 -35.111  1.00  0.00     0.000 C 
BRANCH   3   4
ATOM      4  C   UNL     1     -33.280 -21.377 -36.568  1.00  0.00     0.000 C 
BRANCH   4   5
ATOM      5  C   UNL     1     -33.514 -22.470 -37.632  1.00  0.00     0.000 C 
BRANCH   5   6
ATOM      6  C   UNL     1     -32.360 -22.663 -38.632  1.00  0.00     0.006 C 
BRANCH   6   7
ATOM      7  C   UNL     1     -31.227 -23.533 -38.073  1.00  0.00     0.053 C 
BRANCH   7   8
ATOM      8  C   UNL     1     -31.674 -24.956 -37.953  1.00  0.00     0.041 C 
ATOM      9  O   UNL     1     -31.005 -25.878 -38.492  1.00  0.00    -0.550 OA
ATOM     10  O   UNL     1     -32.801 -25.271 -37.206  1.00  0.00    -0.550 OA
ENDBRANCH   7   8
ENDBRANCH   6   7
ENDBRANCH   5   6
ENDBRANCH   4   5
ENDBRANCH   3   4
ENDBRANCH   2   3
ENDBRANCH   1   2
BRANCH   1  11
ATOM     11  C   UNL     1     -30.538 -21.576 -33.371  1.00  0.00     0.000 C 
BRANCH  11  12
ATOM     12  C   UNL     1     -31.340 -22.297 -32.267  1.00  0.00    -0.000 C 
BRANCH  12  13
ATOM     13  C   UNL     1     -30.461 -23.101 -31.294  1.00  0.00    -0.000 C 
BRANCH  13  14
ATOM     14  C   UNL     1     -30.086 -22.306 -30.032  1.00  0.00    -0.000 C 
BRANCH  14  15
ATOM     15  C   UNL     1     -30.452 -20.817 -30.138  1.00  0.00    -0.000 C 
BRANCH  15  16
ATOM     16  C   UNL     1     -29.271 -19.894 -29.793  1.00  0.00    -0.000 C 
BRANCH  16  17
ATOM     17  C   UNL     1     -28.059 -20.120 -30.712  1.00  0.00    -0.003 C 
ATOM     18  C   UNL     1     -28.380 -19.880 -32.187  1.00  0.00     0.004 C 
ENDBRANCH  16  17
ENDBRANCH  15  16
ENDBRANCH  14  15
ENDBRANCH  13  14
ENDBRANCH  12  13
ENDBRANCH  11  12
ENDBRANCH   1  11
TORSDOF 14
ENDMDL
