MODEL 1
REMARK VINA RESULT:    -3.325      0.000      0.000
REMARK INTER + INTRA:          -3.691
REMARK INTER:                  -3.519
REMARK INTRA:                  -0.172
REMARK UNBOUND:                -0.172
REMARK SMILES CC(C)[C@@H]1CC[C@@H](C)CC1=O
REMARK SMILES IDX 8 1 7 2 6 3 5 4 4 5 10 6 11 7 9 8 2 9 1 10 3 11
REMARK H PARENT
REMARK Flexibility Score: inf
ROOT
ATOM      1  C   UNL     1     140.203 149.668 141.989  1.00  0.00     0.008 C 
ATOM      2  C   UNL     1     140.956 149.635 140.654  1.00  0.00    -0.007 C 
ATOM      3  C   UNL     1     140.582 148.371 139.852  1.00  0.00     0.004 C 
ATOM      4  C   UNL     1     141.339 148.306 138.511  1.00  0.00     0.012 C 
ATOM      5  C   UNL     1     142.874 148.349 138.715  1.00  0.00     0.058 C 
ATOM      6  C   UNL     1     143.185 149.565 139.574  1.00  0.00     0.136 C 
ATOM      7  O   UNL     1     143.924 150.458 139.188  1.00  0.00    -0.299 OA
ATOM      8  C   UNL     1     142.475 149.701 140.889  1.00  0.00     0.079 C 
ENDROOT
BRANCH   5   9
ATOM      9  C   UNL     1     143.676 148.332 137.372  1.00  0.00    -0.007 C 
ATOM     10  C   UNL     1     142.770 148.468 136.135  1.00  0.00     0.008 C 
ATOM     11  C   UNL     1     144.493 147.032 137.238  1.00  0.00     0.008 C 
ENDBRANCH   5   9
TORSDOF 1
ENDMDL
MODEL 2
REMARK VINA RESULT:    -3.309     15.988     16.952
REMARK INTER + INTRA:          -3.675
REMARK INTER:                  -3.502
REMARK INTRA:                  -0.173
REMARK UNBOUND:                -0.172
REMARK SMILES CC(C)[C@@H]1CC[C@@H](C)CC1=O
REMARK SMILES IDX 8 1 7 2 6 3 5 4 4 5 10 6 11 7 9 8 2 9 1 10 3 11
REMARK H PARENT
REMARK Flexibility Score: inf
ROOT
ATOM      1  C   UNL     1     141.464 131.871 142.032  1.00  0.00     0.008 C 
ATOM      2  C   UNL     1     140.701 131.880 140.703  1.00  0.00    -0.007 C 
ATOM      3  C   UNL     1     141.055 133.138 139.882  1.00  0.00     0.004 C 
ATOM      4  C   UNL     1     140.288 133.179 138.547  1.00  0.00     0.012 C 
ATOM      5  C   UNL     1     138.755 133.123 138.763  1.00  0.00     0.058 C 
ATOM      6  C   UNL     1     138.464 131.914 139.638  1.00  0.00     0.136 C 
ATOM      7  O   UNL     1     137.731 131.009 139.269  1.00  0.00    -0.299 OA
ATOM      8  C   UNL     1     139.184 131.802 140.950  1.00  0.00     0.079 C 
ENDROOT
BRANCH   5   9
ATOM      9  C   UNL     1     137.943 133.115 137.425  1.00  0.00    -0.007 C 
ATOM     10  C   UNL     1     138.833 132.894 136.189  1.00  0.00     0.008 C 
ATOM     11  C   UNL     1     137.175 134.438 137.243  1.00  0.00     0.008 C 
ENDBRANCH   5   9
TORSDOF 1
ENDMDL
MODEL 3
REMARK VINA RESULT:    -3.300     10.323     11.622
REMARK INTER + INTRA:          -3.665
REMARK INTER:                  -3.495
REMARK INTRA:                  -0.170
REMARK UNBOUND:                -0.172
REMARK SMILES CC(C)[C@@H]1CC[C@@H](C)CC1=O
REMARK SMILES IDX 8 1 7 2 6 3 5 4 4 5 10 6 11 7 9 8 2 9 1 10 3 11
REMARK H PARENT
REMARK Flexibility Score: inf
ROOT
ATOM      1  C   UNL     1     131.973 140.242 141.842  1.00  0.00     0.008 C 
ATOM      2  C   UNL     1     132.125 141.022 140.531  1.00  0.00    -0.007 C 
ATOM      3  C   UNL     1     133.473 140.691 139.856  1.00  0.00     0.004 C 
ATOM      4  C   UNL     1     133.657 141.476 138.543  1.00  0.00     0.012 C 
ATOM      5  C   UNL     1     133.558 143.005 138.768  1.00  0.00     0.058 C 
ATOM      6  C   UNL     1     132.254 143.273 139.503  1.00  0.00     0.136 C 
ATOM      7  O   UNL     1     131.388 144.000 139.040  1.00  0.00    -0.299 OA
ATOM      8  C   UNL     1     132.000 142.534 140.784  1.00  0.00     0.079 C 
ENDROOT
BRANCH   5   9
ATOM      9  C   UNL     1     133.693 143.834 137.448  1.00  0.00    -0.007 C 
ATOM     10  C   UNL     1     133.821 142.945 136.197  1.00  0.00     0.008 C 
ATOM     11  C   UNL     1     134.918 144.766 137.510  1.00  0.00     0.008 C 
ENDBRANCH   5   9
TORSDOF 1
ENDMDL
MODEL 4
REMARK VINA RESULT:    -3.282     10.709     12.029
REMARK INTER + INTRA:          -3.646
REMARK INTER:                  -3.475
REMARK INTRA:                  -0.171
REMARK UNBOUND:                -0.172
REMARK SMILES CC(C)[C@@H]1CC[C@@H](C)CC1=O
REMARK SMILES IDX 8 1 7 2 6 3 5 4 4 5 10 6 11 7 9 8 2 9 1 10 3 11
REMARK H PARENT
REMARK Flexibility Score: inf
ROOT
ATOM      1  C   UNL     1     149.660 141.376 142.001  1.00  0.00     0.008 C 
ATOM      2  C   UNL     1     149.701 140.611 140.673  1.00  0.00    -0.007 C 
ATOM      3  C   UNL     1     148.477 140.966 139.803  1.00  0.00     0.004 C 
ATOM      4  C   UNL     1     148.487 140.197 138.468  1.00  0.00     0.012 C 
ATOM      5  C   UNL     1     148.532 138.665 138.688  1.00  0.00     0.058 C 
ATOM      6  C   UNL     1     149.704 138.372 139.610  1.00  0.00     0.136 C 
ATOM      7  O   UNL     1     150.622 137.637 139.277  1.00  0.00    -0.299 OA
ATOM      8  C   UNL     1     149.767 139.094 140.925  1.00  0.00     0.079 C 
ENDROOT
BRANCH   5   9
ATOM      9  C   UNL     1     148.590 137.851 137.353  1.00  0.00    -0.007 C 
ATOM     10  C   UNL     1     148.719 138.752 136.111  1.00  0.00     0.008 C 
ATOM     11  C   UNL     1     147.334 136.974 137.191  1.00  0.00     0.008 C 
ENDBRANCH   5   9
TORSDOF 1
ENDMDL
MODEL 5
REMARK VINA RESULT:    -3.170      8.371      9.759
REMARK INTER + INTRA:          -3.528
REMARK INTER:                  -3.358
REMARK INTRA:                  -0.170
REMARK UNBOUND:                -0.172
REMARK SMILES CC(C)[C@@H]1CC[C@@H](C)CC1=O
REMARK SMILES IDX 8 1 7 2 6 3 5 4 4 5 10 6 11 7 9 8 2 9 1 10 3 11
REMARK H PARENT
REMARK Flexibility Score: inf
ROOT
ATOM      1  C   UNL     1     144.788 139.871 140.196  1.00  0.00     0.008 C 
ATOM      2  C   UNL     1     143.289 139.850 140.521  1.00  0.00    -0.007 C 
ATOM      3  C   UNL     1     142.598 141.119 139.981  1.00  0.00     0.004 C 
ATOM      4  C   UNL     1     141.093 141.129 140.310  1.00  0.00     0.012 C 
ATOM      5  C   UNL     1     140.837 141.015 141.833  1.00  0.00     0.058 C 
ATOM      6  C   UNL     1     141.599 139.797 142.332  1.00  0.00     0.136 C 
ATOM      7  O   UNL     1     141.036 138.864 142.886  1.00  0.00    -0.299 OA
ATOM      8  C   UNL     1     143.068 139.714 142.038  1.00  0.00     0.079 C 
ENDROOT
BRANCH   5   9
ATOM      9  C   UNL     1     139.316 140.974 142.202  1.00  0.00    -0.007 C 
ATOM     10  C   UNL     1     138.402 141.017 140.965  1.00  0.00     0.008 C 
ATOM     11  C   UNL     1     138.945 142.152 143.124  1.00  0.00     0.008 C 
ENDBRANCH   5   9
TORSDOF 1
ENDMDL
MODEL 6
REMARK VINA RESULT:    -3.159      9.602     10.828
REMARK INTER + INTRA:          -3.516
REMARK INTER:                  -3.344
REMARK INTRA:                  -0.173
REMARK UNBOUND:                -0.172
REMARK SMILES CC(C)[C@@H]1CC[C@@H](C)CC1=O
REMARK SMILES IDX 8 1 7 2 6 3 5 4 4 5 10 6 11 7 9 8 2 9 1 10 3 11
REMARK H PARENT
REMARK Flexibility Score: inf
ROOT
ATOM      1  C   UNL     1     140.005 136.722 138.556  1.00  0.00     0.008 C 
ATOM      2  C   UNL     1     139.471 137.756 139.554  1.00  0.00    -0.007 C 
ATOM      3  C   UNL     1     139.559 139.178 138.962  1.00  0.00     0.004 C 
ATOM      4  C   UNL     1     139.042 140.238 139.954  1.00  0.00     0.012 C 
ATOM      5  C   UNL     1     139.813 140.193 141.296  1.00  0.00     0.058 C 
ATOM      6  C   UNL     1     139.765 138.760 141.801  1.00  0.00     0.136 C 
ATOM      7  O   UNL     1     139.279 138.471 142.884  1.00  0.00    -0.299 OA
ATOM      8  C   UNL     1     140.241 137.671 140.883  1.00  0.00     0.079 C 
ENDROOT
BRANCH   5   9
ATOM      9  C   UNL     1     139.284 141.225 142.347  1.00  0.00    -0.007 C 
ATOM     10  C   UNL     1     137.977 141.908 141.905  1.00  0.00     0.008 C 
ATOM     11  C   UNL     1     140.337 142.317 142.620  1.00  0.00     0.008 C 
ENDBRANCH   5   9
TORSDOF 1
ENDMDL
MODEL 7
REMARK VINA RESULT:    -3.127     14.949     15.939
REMARK INTER + INTRA:          -3.482
REMARK INTER:                  -3.315
REMARK INTRA:                  -0.167
REMARK UNBOUND:                -0.172
REMARK SMILES CC(C)[C@@H]1CC[C@@H](C)CC1=O
REMARK SMILES IDX 8 1 7 2 6 3 5 4 4 5 10 6 11 7 9 8 2 9 1 10 3 11
REMARK H PARENT
REMARK Flexibility Score: inf
ROOT
ATOM      1  C   UNL     1     139.348 131.317 142.031  1.00  0.00     0.008 C 
ATOM      2  C   UNL     1     139.675 131.849 140.631  1.00  0.00    -0.007 C 
ATOM      3  C   UNL     1     141.055 132.538 140.620  1.00  0.00     0.004 C 
ATOM      4  C   UNL     1     141.399 133.096 139.225  1.00  0.00     0.012 C 
ATOM      5  C   UNL     1     140.325 134.092 138.724  1.00  0.00     0.058 C 
ATOM      6  C   UNL     1     138.977 133.397 138.826  1.00  0.00     0.136 C 
ATOM      7  O   UNL     1     138.259 133.230 137.851  1.00  0.00    -0.299 OA
ATOM      8  C   UNL     1     138.579 132.818 140.152  1.00  0.00     0.079 C 
ENDROOT
BRANCH   5   9
ATOM      9  C   UNL     1     140.617 134.645 137.289  1.00  0.00    -0.007 C 
ATOM     10  C   UNL     1     141.970 134.168 136.731  1.00  0.00     0.008 C 
ATOM     11  C   UNL     1     140.602 136.186 137.282  1.00  0.00     0.008 C 
ENDBRANCH   5   9
TORSDOF 1
ENDMDL
MODEL 8
REMARK VINA RESULT:    -3.061      8.191      9.166
REMARK INTER + INTRA:          -3.412
REMARK INTER:                  -3.239
REMARK INTRA:                  -0.173
REMARK UNBOUND:                -0.172
REMARK SMILES CC(C)[C@@H]1CC[C@@H](C)CC1=O
REMARK SMILES IDX 8 1 7 2 6 3 5 4 4 5 10 6 11 7 9 8 2 9 1 10 3 11
REMARK H PARENT
REMARK Flexibility Score: inf
ROOT
ATOM      1  C   UNL     1     141.830 144.274 140.182  1.00  0.00     0.008 C 
ATOM      2  C   UNL     1     141.104 143.098 140.846  1.00  0.00    -0.007 C 
ATOM      3  C   UNL     1     142.107 141.992 141.238  1.00  0.00     0.004 C 
ATOM      4  C   UNL     1     141.399 140.791 141.893  1.00  0.00     0.012 C 
ATOM      5  C   UNL     1     140.310 140.191 140.970  1.00  0.00     0.058 C 
ATOM      6  C   UNL     1     139.394 141.329 140.549  1.00  0.00     0.136 C 
ATOM      7  O   UNL     1     138.195 141.316 140.787  1.00  0.00    -0.299 OA
ATOM      8  C   UNL     1     140.015 142.539 139.914  1.00  0.00     0.079 C 
ENDROOT
BRANCH   5   9
ATOM      9  C   UNL     1     139.537 138.997 141.622  1.00  0.00    -0.007 C 
ATOM     10  C   UNL     1     139.836 138.843 143.124  1.00  0.00     0.008 C 
ATOM     11  C   UNL     1     139.883 137.671 140.916  1.00  0.00     0.008 C 
ENDBRANCH   5   9
TORSDOF 1
ENDMDL
MODEL 9
REMARK VINA RESULT:    -3.037      9.659     11.249
REMARK INTER + INTRA:          -3.387
REMARK INTER:                  -3.220
REMARK INTRA:                  -0.167
REMARK UNBOUND:                -0.172
REMARK SMILES CC(C)[C@@H]1CC[C@@H](C)CC1=O
REMARK SMILES IDX 8 1 7 2 6 3 5 4 4 5 10 6 11 7 9 8 2 9 1 10 3 11
REMARK H PARENT
REMARK Flexibility Score: inf
ROOT
ATOM      1  C   UNL     1     150.374 139.177 141.990  1.00  0.00     0.008 C 
ATOM      2  C   UNL     1     149.815 139.496 140.599  1.00  0.00    -0.007 C 
ATOM      3  C   UNL     1     149.086 140.856 140.604  1.00  0.00     0.004 C 
ATOM      4  C   UNL     1     148.500 141.192 139.220  1.00  0.00     0.012 C 
ATOM      5  C   UNL     1     147.528 140.093 138.726  1.00  0.00     0.058 C 
ATOM      6  C   UNL     1     148.262 138.764 138.811  1.00  0.00     0.136 C 
ATOM      7  O   UNL     1     148.436 138.056 137.830  1.00  0.00    -0.299 OA
ATOM      8  C   UNL     1     148.870 138.376 140.127  1.00  0.00     0.079 C 
ENDROOT
BRANCH   5   9
ATOM      9  C   UNL     1     146.948 140.376 137.300  1.00  0.00    -0.007 C 
ATOM     10  C   UNL     1     147.365 141.752 136.751  1.00  0.00     0.008 C 
ATOM     11  C   UNL     1     145.408 140.302 137.311  1.00  0.00     0.008 C 
ENDBRANCH   5   9
TORSDOF 1
ENDMDL
