MODEL 1
REMARK VINA RESULT:    -3.575      0.000      0.000
REMARK INTER + INTRA:          -4.916
REMARK INTER:                  -4.621
REMARK INTRA:                  -0.295
REMARK UNBOUND:                -0.295
REMARK SMILES C=CC(=O)CCCCC
REMARK SMILES IDX 6 1 7 2 8 3 9 4 5 5 3 6 4 7 2 8 1 9
REMARK H PARENT
REMARK Flexibility Score: inf
ROOT
ATOM      1  C   UNL     1       4.919   4.455 109.610  1.00  0.00     0.008 C 
ENDROOT
BRANCH   1   2
ATOM      2  C   UNL     1       4.641   4.935 108.175  1.00  0.00     0.000 C 
BRANCH   2   3
ATOM      3  C   UNL     1       3.214   5.474 107.999  1.00  0.00    -0.003 C 
ATOM      4  C   UNL     1       3.175   6.992 107.823  1.00  0.00     0.004 C 
ENDBRANCH   2   3
ENDBRANCH   1   2
BRANCH   1   5
ATOM      5  C   UNL     1       5.935   3.305 109.650  1.00  0.00     0.080 C 
BRANCH   5   6
ATOM      6  C   UNL     1       5.304   2.015 110.090  1.00  0.00     0.155 C 
ATOM      7  O   UNL     1       5.028   1.845 111.309  1.00  0.00    -0.295 OA
BRANCH   6   8
ATOM      8  C   UNL     1       4.983   0.973 109.096  1.00  0.00     0.039 C 
ATOM      9  C   UNL     1       4.107   1.169 108.112  1.00  0.00     0.012 C 
ENDBRANCH   6   8
ENDBRANCH   5   6
ENDBRANCH   1   5
TORSDOF 5
ENDMDL
MODEL 2
REMARK VINA RESULT:    -3.555      2.454      4.661
REMARK INTER + INTRA:          -4.889
REMARK INTER:                  -4.554
REMARK INTRA:                  -0.335
REMARK UNBOUND:                -0.295
REMARK SMILES C=CC(=O)CCCCC
REMARK SMILES IDX 6 1 7 2 8 3 9 4 5 5 3 6 4 7 2 8 1 9
REMARK H PARENT
REMARK Flexibility Score: inf
ROOT
ATOM      1  C   UNL     1       5.582   3.818 107.566  1.00  0.00     0.008 C 
ENDROOT
BRANCH   1   2
ATOM      2  C   UNL     1       6.250   3.235 108.823  1.00  0.00     0.000 C 
BRANCH   2   3
ATOM      3  C   UNL     1       5.370   3.367 110.075  1.00  0.00    -0.003 C 
ATOM      4  C   UNL     1       5.249   2.057 110.852  1.00  0.00     0.004 C 
ENDBRANCH   2   3
ENDBRANCH   1   2
BRANCH   1   5
ATOM      5  C   UNL     1       4.066   3.573 107.549  1.00  0.00     0.080 C 
BRANCH   5   6
ATOM      6  C   UNL     1       3.297   4.836 107.288  1.00  0.00     0.155 C 
ATOM      7  O   UNL     1       2.179   4.770 106.708  1.00  0.00    -0.295 OA
BRANCH   6   8
ATOM      8  C   UNL     1       3.835   6.134 107.737  1.00  0.00     0.039 C 
ATOM      9  C   UNL     1       3.085   7.232 107.810  1.00  0.00     0.012 C 
ENDBRANCH   6   8
ENDBRANCH   5   6
ENDBRANCH   1   5
TORSDOF 5
ENDMDL
MODEL 3
REMARK VINA RESULT:    -3.519      2.225      3.111
REMARK INTER + INTRA:          -4.843
REMARK INTER:                  -4.264
REMARK INTRA:                  -0.580
REMARK UNBOUND:                -0.295
REMARK SMILES C=CC(=O)CCCCC
REMARK SMILES IDX 6 1 7 2 8 3 9 4 5 5 3 6 4 7 2 8 1 9
REMARK H PARENT
REMARK Flexibility Score: inf
ROOT
ATOM      1  C   UNL     1       3.234   3.398 106.428  1.00  0.00     0.008 C 
ENDROOT
BRANCH   1   2
ATOM      2  C   UNL     1       2.385   4.513 107.064  1.00  0.00     0.000 C 
BRANCH   2   3
ATOM      3  C   UNL     1       2.824   5.915 106.617  1.00  0.00    -0.003 C 
ATOM      4  C   UNL     1       3.301   6.783 107.781  1.00  0.00     0.004 C 
ENDBRANCH   2   3
ENDBRANCH   1   2
BRANCH   1   5
ATOM      5  C   UNL     1       4.144   2.707 107.453  1.00  0.00     0.080 C 
BRANCH   5   6
ATOM      6  C   UNL     1       5.367   3.525 107.757  1.00  0.00     0.155 C 
ATOM      7  O   UNL     1       5.979   4.097 106.815  1.00  0.00    -0.295 OA
BRANCH   6   8
ATOM      8  C   UNL     1       5.824   3.679 109.152  1.00  0.00     0.039 C 
ATOM      9  C   UNL     1       5.042   4.175 110.110  1.00  0.00     0.012 C 
ENDBRANCH   6   8
ENDBRANCH   5   6
ENDBRANCH   1   5
TORSDOF 5
ENDMDL
MODEL 4
REMARK VINA RESULT:    -3.518      2.297      4.240
REMARK INTER + INTRA:          -4.841
REMARK INTER:                  -4.489
REMARK INTRA:                  -0.352
REMARK UNBOUND:                -0.295
REMARK SMILES C=CC(=O)CCCCC
REMARK SMILES IDX 6 1 7 2 8 3 9 4 5 5 3 6 4 7 2 8 1 9
REMARK H PARENT
REMARK Flexibility Score: inf
ROOT
ATOM      1  C   UNL     1       4.978   4.375 109.587  1.00  0.00     0.008 C 
ENDROOT
BRANCH   1   2
ATOM      2  C   UNL     1       6.007   3.277 109.910  1.00  0.00     0.000 C 
BRANCH   2   3
ATOM      3  C   UNL     1       5.368   2.047 110.570  1.00  0.00    -0.003 C 
ATOM      4  C   UNL     1       4.760   1.081 109.554  1.00  0.00     0.004 C 
ENDBRANCH   2   3
ENDBRANCH   1   2
BRANCH   1   5
ATOM      5  C   UNL     1       4.961   4.731 108.094  1.00  0.00     0.080 C 
BRANCH   5   6
ATOM      6  C   UNL     1       3.638   5.302 107.669  1.00  0.00     0.155 C 
ATOM      7  O   UNL     1       3.440   6.544 107.766  1.00  0.00    -0.295 OA
BRANCH   6   8
ATOM      8  C   UNL     1       2.596   4.417 107.114  1.00  0.00     0.039 C 
ATOM      9  C   UNL     1       2.830   3.143 106.805  1.00  0.00     0.012 C 
ENDBRANCH   6   8
ENDBRANCH   5   6
ENDBRANCH   1   5
TORSDOF 5
ENDMDL
MODEL 5
REMARK VINA RESULT:    -3.486      1.844      4.628
REMARK INTER + INTRA:          -4.801
REMARK INTER:                  -4.594
REMARK INTRA:                  -0.206
REMARK UNBOUND:                -0.295
REMARK SMILES C=CC(=O)CCCCC
REMARK SMILES IDX 6 1 7 2 8 3 9 4 5 5 3 6 4 7 2 8 1 9
REMARK H PARENT
REMARK Flexibility Score: inf
ROOT
ATOM      1  C   UNL     1       4.932   4.336 109.401  1.00  0.00     0.008 C 
ENDROOT
BRANCH   1   2
ATOM      2  C   UNL     1       6.019   3.342 109.848  1.00  0.00     0.000 C 
BRANCH   2   3
ATOM      3  C   UNL     1       5.439   2.123 110.580  1.00  0.00    -0.003 C 
ATOM      4  C   UNL     1       4.854   1.084 109.624  1.00  0.00     0.004 C 
ENDBRANCH   2   3
ENDBRANCH   1   2
BRANCH   1   5
ATOM      5  C   UNL     1       4.960   4.582 107.886  1.00  0.00     0.080 C 
BRANCH   5   6
ATOM      6  C   UNL     1       3.583   4.805 107.329  1.00  0.00     0.155 C 
ATOM      7  O   UNL     1       2.796   3.827 107.216  1.00  0.00    -0.295 OA
BRANCH   6   8
ATOM      8  C   UNL     1       3.152   6.164 106.949  1.00  0.00     0.039 C 
ATOM      9  C   UNL     1       3.062   7.158 107.831  1.00  0.00     0.012 C 
ENDBRANCH   6   8
ENDBRANCH   5   6
ENDBRANCH   1   5
TORSDOF 5
ENDMDL
MODEL 6
REMARK VINA RESULT:    -3.434      1.701      4.105
REMARK INTER + INTRA:          -4.734
REMARK INTER:                  -4.314
REMARK INTRA:                  -0.420
REMARK UNBOUND:                -0.295
REMARK SMILES C=CC(=O)CCCCC
REMARK SMILES IDX 6 1 7 2 8 3 9 4 5 5 3 6 4 7 2 8 1 9
REMARK H PARENT
REMARK Flexibility Score: inf
ROOT
ATOM      1  C   UNL     1       5.976   3.208 109.964  1.00  0.00     0.008 C 
ENDROOT
BRANCH   1   2
ATOM      2  C   UNL     1       5.297   1.895 110.392  1.00  0.00     0.000 C 
BRANCH   2   3
ATOM      3  C   UNL     1       5.284   0.845 109.271  1.00  0.00    -0.003 C 
ATOM      4  C   UNL     1       4.138   1.055 108.281  1.00  0.00     0.004 C 
ENDBRANCH   2   3
ENDBRANCH   1   2
BRANCH   1   5
ATOM      5  C   UNL     1       4.973   4.363 109.834  1.00  0.00     0.080 C 
BRANCH   5   6
ATOM      6  C   UNL     1       4.725   4.731 108.400  1.00  0.00     0.155 C 
ATOM      7  O   UNL     1       5.657   4.608 107.559  1.00  0.00    -0.295 OA
BRANCH   6   8
ATOM      8  C   UNL     1       3.391   5.201 107.978  1.00  0.00     0.039 C 
ATOM      9  C   UNL     1       2.600   4.484 107.181  1.00  0.00     0.012 C 
ENDBRANCH   6   8
ENDBRANCH   5   6
ENDBRANCH   1   5
TORSDOF 5
ENDMDL
MODEL 7
REMARK VINA RESULT:    -3.405      2.049      4.038
REMARK INTER + INTRA:          -4.696
REMARK INTER:                  -4.090
REMARK INTRA:                  -0.606
REMARK UNBOUND:                -0.295
REMARK SMILES C=CC(=O)CCCCC
REMARK SMILES IDX 6 1 7 2 8 3 9 4 5 5 3 6 4 7 2 8 1 9
REMARK H PARENT
REMARK Flexibility Score: inf
ROOT
ATOM      1  C   UNL     1       3.674   3.653 106.493  1.00  0.00     0.008 C 
ENDROOT
BRANCH   1   2
ATOM      2  C   UNL     1       3.107   2.361 107.107  1.00  0.00     0.000 C 
BRANCH   2   3
ATOM      3  C   UNL     1       4.152   1.238 107.187  1.00  0.00    -0.003 C 
ATOM      4  C   UNL     1       4.246   0.618 108.581  1.00  0.00     0.004 C 
ENDBRANCH   2   3
ENDBRANCH   1   2
BRANCH   1   5
ATOM      5  C   UNL     1       4.869   4.196 107.288  1.00  0.00     0.080 C 
BRANCH   5   6
ATOM      6  C   UNL     1       4.463   4.676 108.652  1.00  0.00     0.155 C 
ATOM      7  O   UNL     1       3.532   5.520 108.760  1.00  0.00    -0.295 OA
BRANCH   6   8
ATOM      8  C   UNL     1       5.131   4.137 109.853  1.00  0.00     0.039 C 
ATOM      9  C   UNL     1       6.268   3.447 109.790  1.00  0.00     0.012 C 
ENDBRANCH   6   8
ENDBRANCH   5   6
ENDBRANCH   1   5
TORSDOF 5
ENDMDL
MODEL 8
REMARK VINA RESULT:    -3.382      1.080      1.443
REMARK INTER + INTRA:          -4.666
REMARK INTER:                  -4.203
REMARK INTRA:                  -0.464
REMARK UNBOUND:                -0.295
REMARK SMILES C=CC(=O)CCCCC
REMARK SMILES IDX 6 1 7 2 8 3 9 4 5 5 3 6 4 7 2 8 1 9
REMARK H PARENT
REMARK Flexibility Score: inf
ROOT
ATOM      1  C   UNL     1       5.640   4.021 108.337  1.00  0.00     0.008 C 
ENDROOT
BRANCH   1   2
ATOM      2  C   UNL     1       4.501   5.042 108.172  1.00  0.00     0.000 C 
BRANCH   2   3
ATOM      3  C   UNL     1       3.667   4.795 106.906  1.00  0.00    -0.003 C 
ATOM      4  C   UNL     1       2.897   3.476 106.954  1.00  0.00     0.004 C 
ENDBRANCH   2   3
ENDBRANCH   1   2
BRANCH   1   5
ATOM      5  C   UNL     1       5.861   3.632 109.806  1.00  0.00     0.080 C 
BRANCH   5   6
ATOM      6  C   UNL     1       5.392   2.235 110.093  1.00  0.00     0.155 C 
ATOM      7  O   UNL     1       5.012   1.936 111.258  1.00  0.00    -0.295 OA
BRANCH   6   8
ATOM      8  C   UNL     1       5.347   1.234 109.010  1.00  0.00     0.039 C 
ATOM      9  C   UNL     1       4.268   0.491 108.766  1.00  0.00     0.012 C 
ENDBRANCH   6   8
ENDBRANCH   5   6
ENDBRANCH   1   5
TORSDOF 5
ENDMDL
MODEL 9
REMARK VINA RESULT:    -3.374      3.593      5.096
REMARK INTER + INTRA:          -4.656
REMARK INTER:                  -4.228
REMARK INTRA:                  -0.428
REMARK UNBOUND:                -0.295
REMARK SMILES C=CC(=O)CCCCC
REMARK SMILES IDX 6 1 7 2 8 3 9 4 5 5 3 6 4 7 2 8 1 9
REMARK H PARENT
REMARK Flexibility Score: inf
ROOT
ATOM      1  C   UNL     1       3.101   4.841 105.232  1.00  0.00     0.008 C 
ENDROOT
BRANCH   1   2
ATOM      2  C   UNL     1       3.511   5.798 104.099  1.00  0.00     0.000 C 
BRANCH   2   3
ATOM      3  C   UNL     1       4.810   5.367 103.404  1.00  0.00    -0.003 C 
ATOM      4  C   UNL     1       5.759   4.617 104.339  1.00  0.00     0.004 C 
ENDBRANCH   2   3
ENDBRANCH   1   2
BRANCH   1   5
ATOM      5  C   UNL     1       2.326   5.560 106.346  1.00  0.00     0.080 C 
BRANCH   5   6
ATOM      6  C   UNL     1       3.243   6.273 107.297  1.00  0.00     0.155 C 
ATOM      7  O   UNL     1       2.923   7.414 107.727  1.00  0.00    -0.295 OA
BRANCH   6   8
ATOM      8  C   UNL     1       4.491   5.625 107.745  1.00  0.00     0.039 C 
ATOM      9  C   UNL     1       4.516   4.721 108.724  1.00  0.00     0.012 C 
ENDBRANCH   6   8
ENDBRANCH   5   6
ENDBRANCH   1   5
TORSDOF 5
ENDMDL
