MODEL 1
REMARK VINA RESULT:    -4.003      0.000      0.000
REMARK INTER + INTRA:          -6.036
REMARK INTER:                  -6.226
REMARK INTRA:                   0.190
REMARK UNBOUND:                 0.190
REMARK SMILES COc1cc(CNC(=O)CCCCC=CC(C)C)ccc1O
REMARK SMILES IDX 11 1 12 2 13 3 14 4 15 5 16 6 17 7 18 8 10 9 8 10 9 11 7 12
REMARK SMILES IDX 6 14 5 15 4 16 19 17 3 18 20 19 21 20 2 21 1 22 22 23
REMARK H PARENT 7 13 22 24
REMARK Flexibility Score: inf
ROOT
ATOM      1  C   UNL     1     -22.326 -17.080 -13.333  1.00  0.00     0.010 C 
ENDROOT
BRANCH   1   2
ATOM      2  C   UNL     1     -21.539 -15.804 -13.012  1.00  0.00     0.005 C 
BRANCH   2   3
ATOM      3  C   UNL     1     -21.105 -15.089 -14.298  1.00  0.00     0.027 C 
BRANCH   3   4
ATOM      4  C   UNL     1     -21.959 -13.876 -14.557  1.00  0.00    -0.031 C 
ATOM      5  C   UNL     1     -23.146 -13.895 -15.193  1.00  0.00    -0.028 C 
BRANCH   5   6
ATOM      6  C   UNL     1     -23.778 -15.125 -15.811  1.00  0.00     0.005 C 
ATOM      7  C   UNL     1     -23.899 -14.940 -17.325  1.00  0.00     0.012 C 
ATOM      8  C   UNL     1     -25.154 -15.371 -15.185  1.00  0.00     0.012 C 
ENDBRANCH   5   6
ENDBRANCH   3   4
ENDBRANCH   2   3
ENDBRANCH   1   2
BRANCH   1   9
ATOM      9  C   UNL     1     -21.680 -18.304 -12.675  1.00  0.00     0.100 C 
BRANCH   9  10
ATOM     10  C   UNL     1     -22.306 -19.565 -13.189  1.00  0.00     0.220 C 
ATOM     11  O   UNL     1     -23.360 -19.497 -13.876  1.00  0.00    -0.275 OA
ATOM     12  N   UNL     1     -21.682 -20.832 -12.940  1.00  0.00    -0.352 N 
ATOM     13  H   UNL     1     -20.783 -20.859 -12.407  1.00  0.00     0.163 HD
BRANCH  12  14
ATOM     14  C   UNL     1     -22.238 -22.090 -13.430  1.00  0.00     0.151 C 
BRANCH  14  15
ATOM     15  C   UNL     1     -23.655 -22.258 -12.954  1.00  0.00    -0.025 A 
ATOM     16  C   UNL     1     -24.096 -21.577 -11.810  1.00  0.00     0.056 A 
ATOM     17  C   UNL     1     -24.553 -23.072 -13.659  1.00  0.00     0.009 A 
ATOM     18  C   UNL     1     -25.428 -21.710 -11.364  1.00  0.00     0.160 A 
ATOM     19  C   UNL     1     -25.872 -23.208 -13.222  1.00  0.00     0.050 A 
ATOM     20  C   UNL     1     -26.313 -22.534 -12.081  1.00  0.00     0.157 A 
BRANCH  18  21
ATOM     21  O   UNL     1     -25.899 -21.042 -10.224  1.00  0.00    -0.493 OA
ATOM     22  C   UNL     1     -25.540 -19.714  -9.860  1.00  0.00     0.278 C 
ENDBRANCH  18  21
BRANCH  20  23
ATOM     23  O   UNL     1     -27.637 -22.695 -11.674  1.00  0.00    -0.504 OA
ATOM     24  H   UNL     1     -28.086 -22.057 -11.029  1.00  0.00     0.293 HD
ENDBRANCH  20  23
ENDBRANCH  14  15
ENDBRANCH  12  14
ENDBRANCH   9  10
ENDBRANCH   1   9
TORSDOF 10
ENDMDL
MODEL 2
REMARK VINA RESULT:    -3.951      1.412      2.508
REMARK INTER + INTRA:          -5.955
REMARK INTER:                  -5.271
REMARK INTRA:                  -0.684
REMARK UNBOUND:                 0.190
REMARK SMILES COc1cc(CNC(=O)CCCCC=CC(C)C)ccc1O
REMARK SMILES IDX 11 1 12 2 13 3 14 4 15 5 16 6 17 7 18 8 10 9 8 10 9 11 7 12
REMARK SMILES IDX 6 14 5 15 4 16 19 17 3 18 20 19 21 20 2 21 1 22 22 23
REMARK H PARENT 7 13 22 24
REMARK Flexibility Score: inf
ROOT
ATOM      1  C   UNL     1     -20.856 -16.211 -13.375  1.00  0.00     0.010 C 
ENDROOT
BRANCH   1   2
ATOM      2  C   UNL     1     -20.987 -14.807 -12.774  1.00  0.00     0.005 C 
BRANCH   2   3
ATOM      3  C   UNL     1     -22.081 -14.003 -13.488  1.00  0.00     0.027 C 
BRANCH   3   4
ATOM      4  C   UNL     1     -21.786 -13.875 -14.959  1.00  0.00    -0.031 C 
ATOM      5  C   UNL     1     -22.631 -14.230 -15.945  1.00  0.00    -0.028 C 
BRANCH   5   6
ATOM      6  C   UNL     1     -23.983 -14.880 -15.736  1.00  0.00     0.005 C 
ATOM      7  C   UNL     1     -24.526 -15.388 -17.074  1.00  0.00     0.012 C 
ATOM      8  C   UNL     1     -24.951 -13.875 -15.106  1.00  0.00     0.012 C 
ENDBRANCH   5   6
ENDBRANCH   3   4
ENDBRANCH   2   3
ENDBRANCH   1   2
BRANCH   1   9
ATOM      9  C   UNL     1     -22.206 -16.934 -13.383  1.00  0.00     0.100 C 
BRANCH   9  10
ATOM     10  C   UNL     1     -22.087 -18.271 -12.716  1.00  0.00     0.220 C 
ATOM     11  O   UNL     1     -22.063 -18.336 -11.458  1.00  0.00    -0.275 OA
ATOM     12  N   UNL     1     -22.048 -19.468 -13.506  1.00  0.00    -0.352 N 
ATOM     13  H   UNL     1     -22.115 -19.392 -14.546  1.00  0.00     0.163 HD
BRANCH  12  14
ATOM     14  C   UNL     1     -21.949 -20.798 -12.910  1.00  0.00     0.151 C 
BRANCH  14  15
ATOM     15  C   UNL     1     -23.314 -21.417 -12.779  1.00  0.00    -0.025 A 
ATOM     16  C   UNL     1     -23.791 -22.282 -13.775  1.00  0.00     0.056 A 
ATOM     17  C   UNL     1     -24.109 -21.159 -11.654  1.00  0.00     0.009 A 
ATOM     18  C   UNL     1     -25.060 -22.885 -13.655  1.00  0.00     0.160 A 
ATOM     19  C   UNL     1     -25.367 -21.752 -11.529  1.00  0.00     0.050 A 
ATOM     20  C   UNL     1     -25.846 -22.611 -12.521  1.00  0.00     0.157 A 
BRANCH  18  21
ATOM     21  O   UNL     1     -25.566 -23.754 -14.633  1.00  0.00    -0.493 OA
ATOM     22  C   UNL     1     -24.766 -24.602 -15.450  1.00  0.00     0.278 C 
ENDBRANCH  18  21
BRANCH  20  23
ATOM     23  O   UNL     1     -27.107 -23.184 -12.363  1.00  0.00    -0.504 OA
ATOM     24  H   UNL     1     -27.610 -23.151 -11.485  1.00  0.00     0.293 HD
ENDBRANCH  20  23
ENDBRANCH  14  15
ENDBRANCH  12  14
ENDBRANCH   9  10
ENDBRANCH   1   9
TORSDOF 10
ENDMDL
MODEL 3
REMARK VINA RESULT:    -3.858      2.224      7.489
REMARK INTER + INTRA:          -5.810
REMARK INTER:                  -5.792
REMARK INTRA:                  -0.018
REMARK UNBOUND:                 0.190
REMARK SMILES COc1cc(CNC(=O)CCCCC=CC(C)C)ccc1O
REMARK SMILES IDX 11 1 12 2 13 3 14 4 15 5 16 6 17 7 18 8 10 9 8 10 9 11 7 12
REMARK SMILES IDX 6 14 5 15 4 16 19 17 3 18 20 19 21 20 2 21 1 22 22 23
REMARK H PARENT 7 13 22 24
REMARK Flexibility Score: inf
ROOT
ATOM      1  C   UNL     1     -22.762 -22.729 -12.829  1.00  0.00     0.010 C 
ENDROOT
BRANCH   1   2
ATOM      2  C   UNL     1     -23.148 -23.477 -14.111  1.00  0.00     0.005 C 
BRANCH   2   3
ATOM      3  C   UNL     1     -24.671 -23.620 -14.226  1.00  0.00     0.027 C 
BRANCH   3   4
ATOM      4  C   UNL     1     -25.340 -22.271 -14.257  1.00  0.00    -0.031 C 
ATOM      5  C   UNL     1     -25.741 -21.588 -13.168  1.00  0.00    -0.028 C 
BRANCH   5   6
ATOM      6  C   UNL     1     -25.649 -22.096 -11.744  1.00  0.00     0.005 C 
ATOM      7  C   UNL     1     -26.828 -23.026 -11.449  1.00  0.00     0.012 C 
ATOM      8  C   UNL     1     -25.637 -20.914 -10.770  1.00  0.00     0.012 C 
ENDBRANCH   5   6
ENDBRANCH   3   4
ENDBRANCH   2   3
ENDBRANCH   1   2
BRANCH   1   9
ATOM      9  C   UNL     1     -21.849 -21.540 -13.140  1.00  0.00     0.100 C 
BRANCH   9  10
ATOM     10  C   UNL     1     -22.507 -20.256 -12.733  1.00  0.00     0.220 C 
ATOM     11  O   UNL     1     -22.281 -19.779 -11.589  1.00  0.00    -0.275 OA
ATOM     12  N   UNL     1     -23.349 -19.554 -13.659  1.00  0.00    -0.352 N 
ATOM     13  H   UNL     1     -23.486 -19.946 -14.618  1.00  0.00     0.163 HD
BRANCH  12  14
ATOM     14  C   UNL     1     -24.003 -18.292 -13.323  1.00  0.00     0.151 C 
BRANCH  14  15
ATOM     15  C   UNL     1     -23.089 -17.134 -13.615  1.00  0.00    -0.025 A 
ATOM     16  C   UNL     1     -23.509 -16.108 -14.475  1.00  0.00     0.056 A 
ATOM     17  C   UNL     1     -21.825 -17.053 -13.015  1.00  0.00     0.009 A 
ATOM     18  C   UNL     1     -22.670 -15.006 -14.742  1.00  0.00     0.160 A 
ATOM     19  C   UNL     1     -20.989 -15.966 -13.276  1.00  0.00     0.050 A 
ATOM     20  C   UNL     1     -21.403 -14.945 -14.134  1.00  0.00     0.157 A 
BRANCH  18  21
ATOM     21  O   UNL     1     -23.060 -13.965 -15.597  1.00  0.00    -0.493 OA
ATOM     22  C   UNL     1     -24.315 -13.897 -16.264  1.00  0.00     0.278 C 
ENDBRANCH  18  21
BRANCH  20  23
ATOM     23  O   UNL     1     -20.541 -13.875 -14.372  1.00  0.00    -0.504 OA
ATOM     24  H   UNL     1     -19.570 -14.009 -14.624  1.00  0.00     0.293 HD
ENDBRANCH  20  23
ENDBRANCH  14  15
ENDBRANCH  12  14
ENDBRANCH   9  10
ENDBRANCH   1   9
TORSDOF 10
ENDMDL
MODEL 4
REMARK VINA RESULT:    -3.391      2.615      7.017
REMARK INTER + INTRA:          -5.085
REMARK INTER:                  -5.386
REMARK INTRA:                   0.302
REMARK UNBOUND:                 0.190
REMARK SMILES COc1cc(CNC(=O)CCCCC=CC(C)C)ccc1O
REMARK SMILES IDX 11 1 12 2 13 3 14 4 15 5 16 6 17 7 18 8 10 9 8 10 9 11 7 12
REMARK SMILES IDX 6 14 5 15 4 16 19 17 3 18 20 19 21 20 2 21 1 22 22 23
REMARK H PARENT 7 13 22 24
REMARK Flexibility Score: inf
ROOT
ATOM      1  C   UNL     1     -22.827 -22.507 -12.900  1.00  0.00     0.010 C 
ENDROOT
BRANCH   1   2
ATOM      2  C   UNL     1     -23.495 -23.369 -13.977  1.00  0.00     0.005 C 
BRANCH   2   3
ATOM      3  C   UNL     1     -24.912 -22.867 -14.282  1.00  0.00     0.027 C 
BRANCH   3   4
ATOM      4  C   UNL     1     -25.017 -21.380 -14.066  1.00  0.00    -0.031 C 
ATOM      5  C   UNL     1     -25.171 -20.787 -12.868  1.00  0.00    -0.028 C 
BRANCH   5   6
ATOM      6  C   UNL     1     -25.335 -21.520 -11.553  1.00  0.00     0.005 C 
ATOM      7  C   UNL     1     -26.553 -22.445 -11.624  1.00  0.00     0.012 C 
ATOM      8  C   UNL     1     -25.489 -20.512 -10.411  1.00  0.00     0.012 C 
ENDBRANCH   5   6
ENDBRANCH   3   4
ENDBRANCH   2   3
ENDBRANCH   1   2
BRANCH   1   9
ATOM      9  C   UNL     1     -21.470 -21.981 -13.379  1.00  0.00     0.100 C 
BRANCH   9  10
ATOM     10  C   UNL     1     -21.208 -20.618 -12.814  1.00  0.00     0.220 C 
ATOM     11  O   UNL     1     -20.023 -20.199 -12.732  1.00  0.00    -0.275 OA
ATOM     12  N   UNL     1     -22.304 -19.782 -12.416  1.00  0.00    -0.352 N 
ATOM     13  H   UNL     1     -23.280 -20.133 -12.536  1.00  0.00     0.163 HD
BRANCH  12  14
ATOM     14  C   UNL     1     -22.109 -18.440 -11.874  1.00  0.00     0.151 C 
BRANCH  14  15
ATOM     15  C   UNL     1     -22.421 -17.402 -12.918  1.00  0.00    -0.025 A 
ATOM     16  C   UNL     1     -21.657 -16.227 -12.991  1.00  0.00     0.056 A 
ATOM     17  C   UNL     1     -23.456 -17.608 -13.841  1.00  0.00     0.009 A 
ATOM     18  C   UNL     1     -21.926 -15.256 -13.977  1.00  0.00     0.160 A 
ATOM     19  C   UNL     1     -23.728 -16.649 -14.819  1.00  0.00     0.050 A 
ATOM     20  C   UNL     1     -22.971 -15.478 -14.893  1.00  0.00     0.157 A 
BRANCH  18  21
ATOM     21  O   UNL     1     -21.181 -14.072 -14.077  1.00  0.00    -0.493 OA
ATOM     22  C   UNL     1     -19.897 -13.876 -13.495  1.00  0.00     0.278 C 
ENDBRANCH  18  21
BRANCH  20  23
ATOM     23  O   UNL     1     -23.273 -14.543 -15.882  1.00  0.00    -0.504 OA
ATOM     24  H   UNL     1     -24.224 -14.278 -16.104  1.00  0.00     0.293 HD
ENDBRANCH  20  23
ENDBRANCH  14  15
ENDBRANCH  12  14
ENDBRANCH   9  10
ENDBRANCH   1   9
TORSDOF 10
ENDMDL
MODEL 5
REMARK VINA RESULT:    -3.315      2.244      7.167
REMARK INTER + INTRA:          -4.967
REMARK INTER:                  -3.642
REMARK INTRA:                  -1.325
REMARK UNBOUND:                 0.190
REMARK SMILES COc1cc(CNC(=O)CCCCC=CC(C)C)ccc1O
REMARK SMILES IDX 11 1 12 2 13 3 14 4 15 5 16 6 17 7 18 8 10 9 8 10 9 11 7 12
REMARK SMILES IDX 6 14 5 15 4 16 19 17 3 18 20 19 21 20 2 21 1 22 22 23
REMARK H PARENT 7 13 22 24
REMARK Flexibility Score: inf
ROOT
ATOM      1  C   UNL     1     -24.666 -20.096 -11.690  1.00  0.00     0.010 C 
ENDROOT
BRANCH   1   2
ATOM      2  C   UNL     1     -25.673 -20.934 -10.893  1.00  0.00     0.005 C 
BRANCH   2   3
ATOM      3  C   UNL     1     -25.560 -22.420 -11.257  1.00  0.00     0.027 C 
BRANCH   3   4
ATOM      4  C   UNL     1     -26.510 -22.779 -12.369  1.00  0.00    -0.031 C 
ATOM      5  C   UNL     1     -26.149 -23.002 -13.646  1.00  0.00    -0.028 C 
BRANCH   5   6
ATOM      6  C   UNL     1     -24.740 -22.859 -14.186  1.00  0.00     0.005 C 
ATOM      7  C   UNL     1     -24.657 -21.632 -15.097  1.00  0.00     0.012 C 
ATOM      8  C   UNL     1     -24.345 -24.126 -14.949  1.00  0.00     0.012 C 
ENDBRANCH   5   6
ENDBRANCH   3   4
ENDBRANCH   2   3
ENDBRANCH   1   2
BRANCH   1   9
ATOM      9  C   UNL     1     -23.313 -20.806 -11.785  1.00  0.00     0.100 C 
BRANCH   9  10
ATOM     10  C   UNL     1     -22.303 -19.917 -12.448  1.00  0.00     0.220 C 
ATOM     11  O   UNL     1     -21.484 -20.414 -13.267  1.00  0.00    -0.275 OA
ATOM     12  N   UNL     1     -22.302 -18.507 -12.185  1.00  0.00    -0.352 N 
ATOM     13  H   UNL     1     -23.020 -18.112 -11.536  1.00  0.00     0.163 HD
BRANCH  12  14
ATOM     14  C   UNL     1     -21.353 -17.592 -12.813  1.00  0.00     0.151 C 
BRANCH  14  15
ATOM     15  C   UNL     1     -22.074 -16.626 -13.713  1.00  0.00    -0.025 A 
ATOM     16  C   UNL     1     -23.433 -16.817 -14.004  1.00  0.00     0.056 A 
ATOM     17  C   UNL     1     -21.406 -15.515 -14.248  1.00  0.00     0.009 A 
ATOM     18  C   UNL     1     -24.125 -15.908 -14.830  1.00  0.00     0.160 A 
ATOM     19  C   UNL     1     -22.085 -14.612 -15.067  1.00  0.00     0.050 A 
ATOM     20  C   UNL     1     -23.438 -14.801 -15.361  1.00  0.00     0.157 A 
BRANCH  18  21
ATOM     21  O   UNL     1     -25.484 -16.071 -15.139  1.00  0.00    -0.493 OA
ATOM     22  C   UNL     1     -26.547 -15.381 -14.492  1.00  0.00     0.278 C 
ENDBRANCH  18  21
BRANCH  20  23
ATOM     23  O   UNL     1     -24.084 -13.879 -16.184  1.00  0.00    -0.504 OA
ATOM     24  H   UNL     1     -24.991 -14.062 -16.593  1.00  0.00     0.293 HD
ENDBRANCH  20  23
ENDBRANCH  14  15
ENDBRANCH  12  14
ENDBRANCH   9  10
ENDBRANCH   1   9
TORSDOF 10
ENDMDL
MODEL 6
REMARK VINA RESULT:    -3.262      1.421      2.121
REMARK INTER + INTRA:          -4.883
REMARK INTER:                  -4.402
REMARK INTRA:                  -0.481
REMARK UNBOUND:                 0.190
REMARK SMILES COc1cc(CNC(=O)CCCCC=CC(C)C)ccc1O
REMARK SMILES IDX 11 1 12 2 13 3 14 4 15 5 16 6 17 7 18 8 10 9 8 10 9 11 7 12
REMARK SMILES IDX 6 14 5 15 4 16 19 17 3 18 20 19 21 20 2 21 1 22 22 23
REMARK H PARENT 7 13 22 24
REMARK Flexibility Score: inf
ROOT
ATOM      1  C   UNL     1     -22.078 -16.912 -13.212  1.00  0.00     0.010 C 
ENDROOT
BRANCH   1   2
ATOM      2  C   UNL     1     -21.250 -15.623 -13.131  1.00  0.00     0.005 C 
BRANCH   2   3
ATOM      3  C   UNL     1     -21.153 -14.946 -14.504  1.00  0.00     0.027 C 
BRANCH   3   4
ATOM      4  C   UNL     1     -22.202 -13.875 -14.654  1.00  0.00    -0.031 C 
ATOM      5  C   UNL     1     -23.411 -14.059 -15.217  1.00  0.00    -0.028 C 
BRANCH   5   6
ATOM      6  C   UNL     1     -23.884 -15.350 -15.854  1.00  0.00     0.005 C 
ATOM      7  C   UNL     1     -24.093 -15.140 -17.355  1.00  0.00     0.012 C 
ATOM      8  C   UNL     1     -25.182 -15.813 -15.187  1.00  0.00     0.012 C 
ENDBRANCH   5   6
ENDBRANCH   3   4
ENDBRANCH   2   3
ENDBRANCH   1   2
BRANCH   1   9
ATOM      9  C   UNL     1     -21.193 -18.147 -13.017  1.00  0.00     0.100 C 
BRANCH   9  10
ATOM     10  C   UNL     1     -21.940 -19.213 -12.275  1.00  0.00     0.220 C 
ATOM     11  O   UNL     1     -21.346 -20.278 -11.957  1.00  0.00    -0.275 OA
ATOM     12  N   UNL     1     -23.304 -18.999 -11.888  1.00  0.00    -0.352 N 
ATOM     13  H   UNL     1     -23.762 -18.089 -12.122  1.00  0.00     0.163 HD
BRANCH  12  14
ATOM     14  C   UNL     1     -24.076 -19.995 -11.149  1.00  0.00     0.151 C 
BRANCH  14  15
ATOM     15  C   UNL     1     -24.614 -21.042 -12.086  1.00  0.00    -0.025 A 
ATOM     16  C   UNL     1     -25.695 -21.846 -11.694  1.00  0.00     0.056 A 
ATOM     17  C   UNL     1     -24.062 -21.207 -13.364  1.00  0.00     0.009 A 
ATOM     18  C   UNL     1     -26.222 -22.817 -12.570  1.00  0.00     0.160 A 
ATOM     19  C   UNL     1     -24.579 -22.167 -14.236  1.00  0.00     0.050 A 
ATOM     20  C   UNL     1     -25.653 -22.972 -13.847  1.00  0.00     0.157 A 
BRANCH  18  21
ATOM     21  O   UNL     1     -27.301 -23.637 -12.208  1.00  0.00    -0.493 OA
ATOM     22  C   UNL     1     -28.193 -23.368 -11.131  1.00  0.00     0.278 C 
ENDBRANCH  18  21
BRANCH  20  23
ATOM     23  O   UNL     1     -26.141 -23.921 -14.744  1.00  0.00    -0.504 OA
ATOM     24  H   UNL     1     -25.542 -24.605 -15.187  1.00  0.00     0.293 HD
ENDBRANCH  20  23
ENDBRANCH  14  15
ENDBRANCH  12  14
ENDBRANCH   9  10
ENDBRANCH   1   9
TORSDOF 10
ENDMDL
MODEL 7
REMARK VINA RESULT:    -3.142      2.228      7.495
REMARK INTER + INTRA:          -4.696
REMARK INTER:                  -5.288
REMARK INTRA:                   0.591
REMARK UNBOUND:                 0.190
REMARK SMILES COc1cc(CNC(=O)CCCCC=CC(C)C)ccc1O
REMARK SMILES IDX 11 1 12 2 13 3 14 4 15 5 16 6 17 7 18 8 10 9 8 10 9 11 7 12
REMARK SMILES IDX 6 14 5 15 4 16 19 17 3 18 20 19 21 20 2 21 1 22 22 23
REMARK H PARENT 7 13 22 24
REMARK Flexibility Score: inf
ROOT
ATOM      1  C   UNL     1     -25.280 -21.426 -10.620  1.00  0.00     0.010 C 
ENDROOT
BRANCH   1   2
ATOM      2  C   UNL     1     -26.377 -22.127 -11.430  1.00  0.00     0.005 C 
BRANCH   2   3
ATOM      3  C   UNL     1     -25.774 -23.160 -12.391  1.00  0.00     0.027 C 
BRANCH   3   4
ATOM      4  C   UNL     1     -26.160 -22.862 -13.816  1.00  0.00    -0.031 C 
ATOM      5  C   UNL     1     -25.371 -23.074 -14.886  1.00  0.00    -0.028 C 
BRANCH   5   6
ATOM      6  C   UNL     1     -23.943 -23.578 -14.823  1.00  0.00     0.005 C 
ATOM      7  C   UNL     1     -23.928 -25.105 -14.924  1.00  0.00     0.012 C 
ATOM      8  C   UNL     1     -23.286 -23.116 -13.519  1.00  0.00     0.012 C 
ENDBRANCH   5   6
ENDBRANCH   3   4
ENDBRANCH   2   3
ENDBRANCH   1   2
BRANCH   1   9
ATOM      9  C   UNL     1     -25.246 -19.925 -10.924  1.00  0.00     0.100 C 
BRANCH   9  10
ATOM     10  C   UNL     1     -24.250 -19.634 -12.005  1.00  0.00     0.220 C 
ATOM     11  O   UNL     1     -24.552 -19.870 -13.206  1.00  0.00    -0.275 OA
ATOM     12  N   UNL     1     -22.982 -19.048 -11.677  1.00  0.00    -0.352 N 
ATOM     13  H   UNL     1     -22.772 -18.820 -10.679  1.00  0.00     0.163 HD
BRANCH  12  14
ATOM     14  C   UNL     1     -21.980 -18.728 -12.690  1.00  0.00     0.151 C 
BRANCH  14  15
ATOM     15  C   UNL     1     -22.331 -17.442 -13.388  1.00  0.00    -0.025 A 
ATOM     16  C   UNL     1     -21.488 -16.327 -13.270  1.00  0.00     0.056 A 
ATOM     17  C   UNL     1     -23.484 -17.352 -14.180  1.00  0.00     0.009 A 
ATOM     18  C   UNL     1     -21.795 -15.122 -13.934  1.00  0.00     0.160 A 
ATOM     19  C   UNL     1     -23.794 -16.161 -14.839  1.00  0.00     0.050 A 
ATOM     20  C   UNL     1     -22.959 -15.048 -14.721  1.00  0.00     0.157 A 
BRANCH  18  21
ATOM     21  O   UNL     1     -20.973 -13.989 -13.837  1.00  0.00    -0.493 OA
ATOM     22  C   UNL     1     -19.784 -13.920 -13.057  1.00  0.00     0.278 C 
ENDBRANCH  18  21
BRANCH  20  23
ATOM     23  O   UNL     1     -23.301 -13.875 -15.394  1.00  0.00    -0.504 OA
ATOM     24  H   UNL     1     -23.180 -12.960 -14.979  1.00  0.00     0.293 HD
ENDBRANCH  20  23
ENDBRANCH  14  15
ENDBRANCH  12  14
ENDBRANCH   9  10
ENDBRANCH   1   9
TORSDOF 10
ENDMDL
MODEL 8
REMARK VINA RESULT:    -2.828      2.054      7.311
REMARK INTER + INTRA:          -4.208
REMARK INTER:                  -4.927
REMARK INTRA:                   0.719
REMARK UNBOUND:                 0.190
REMARK SMILES COc1cc(CNC(=O)CCCCC=CC(C)C)ccc1O
REMARK SMILES IDX 11 1 12 2 13 3 14 4 15 5 16 6 17 7 18 8 10 9 8 10 9 11 7 12
REMARK SMILES IDX 6 14 5 15 4 16 19 17 3 18 20 19 21 20 2 21 1 22 22 23
REMARK H PARENT 7 13 22 24
REMARK Flexibility Score: inf
ROOT
ATOM      1  C   UNL     1     -25.712 -21.333 -10.849  1.00  0.00     0.010 C 
ENDROOT
BRANCH   1   2
ATOM      2  C   UNL     1     -25.253 -22.355 -11.896  1.00  0.00     0.005 C 
BRANCH   2   3
ATOM      3  C   UNL     1     -23.910 -22.982 -11.499  1.00  0.00     0.027 C 
BRANCH   3   4
ATOM      4  C   UNL     1     -22.922 -22.906 -12.633  1.00  0.00    -0.031 C 
ATOM      5  C   UNL     1     -23.201 -23.205 -13.916  1.00  0.00    -0.028 C 
BRANCH   5   6
ATOM      6  C   UNL     1     -24.530 -23.735 -14.413  1.00  0.00     0.005 C 
ATOM      7  C   UNL     1     -24.309 -25.021 -15.212  1.00  0.00     0.012 C 
ATOM      8  C   UNL     1     -25.221 -22.676 -15.277  1.00  0.00     0.012 C 
ENDBRANCH   5   6
ENDBRANCH   3   4
ENDBRANCH   2   3
ENDBRANCH   1   2
BRANCH   1   9
ATOM      9  C   UNL     1     -25.650 -19.908 -11.406  1.00  0.00     0.100 C 
BRANCH   9  10
ATOM     10  C   UNL     1     -24.474 -19.757 -12.323  1.00  0.00     0.220 C 
ATOM     11  O   UNL     1     -24.625 -19.942 -13.560  1.00  0.00    -0.275 OA
ATOM     12  N   UNL     1     -23.199 -19.358 -11.799  1.00  0.00    -0.352 N 
ATOM     13  H   UNL     1     -23.109 -19.166 -10.776  1.00  0.00     0.163 HD
BRANCH  12  14
ATOM     14  C   UNL     1     -22.024 -19.179 -12.647  1.00  0.00     0.151 C 
BRANCH  14  15
ATOM     15  C   UNL     1     -21.997 -17.788 -13.221  1.00  0.00    -0.025 A 
ATOM     16  C   UNL     1     -23.109 -17.297 -13.922  1.00  0.00     0.056 A 
ATOM     17  C   UNL     1     -20.879 -16.963 -13.039  1.00  0.00     0.009 A 
ATOM     18  C   UNL     1     -23.104 -15.988 -14.447  1.00  0.00     0.160 A 
ATOM     19  C   UNL     1     -20.868 -15.667 -13.557  1.00  0.00     0.050 A 
ATOM     20  C   UNL     1     -21.971 -15.176 -14.259  1.00  0.00     0.157 A 
BRANCH  18  21
ATOM     21  O   UNL     1     -24.199 -15.467 -15.153  1.00  0.00    -0.493 OA
ATOM     22  C   UNL     1     -24.155 -15.042 -16.511  1.00  0.00     0.278 C 
ENDBRANCH  18  21
BRANCH  20  23
ATOM     23  O   UNL     1     -21.924 -13.877 -14.764  1.00  0.00    -0.504 OA
ATOM     24  H   UNL     1     -21.268 -13.599 -15.482  1.00  0.00     0.293 HD
ENDBRANCH  20  23
ENDBRANCH  14  15
ENDBRANCH  12  14
ENDBRANCH   9  10
ENDBRANCH   1   9
TORSDOF 10
ENDMDL
