MODEL 1
REMARK VINA RESULT:     8.346      0.000      0.000
REMARK INTER + INTRA:          13.723
REMARK INTER:                  14.200
REMARK INTRA:                  -0.478
REMARK UNBOUND:                -0.478
REMARK SMILES CCCCCCCCCCCCCC(=O)[O-]
REMARK SMILES IDX 8 1 9 2 10 3 11 4 12 5 13 6 14 7 15 8 16 9 7 10 6 11 5 12
REMARK SMILES IDX 4 13 3 14 2 15 1 16
REMARK H PARENT
REMARK Flexibility Score: inf
ROOT
ATOM      1  C   UNL     1      14.660  14.302  17.387  1.00  0.00     0.000 C 
ENDROOT
BRANCH   1   2
ATOM      2  C   UNL     1      13.803  13.250  16.666  1.00  0.00     0.000 C 
BRANCH   2   3
ATOM      3  C   UNL     1      13.415  12.071  17.575  1.00  0.00     0.000 C 
BRANCH   3   4
ATOM      4  C   UNL     1      11.889  11.980  17.789  1.00  0.00     0.000 C 
BRANCH   4   5
ATOM      5  C   UNL     1      11.068  12.416  16.563  1.00  0.00     0.006 C 
BRANCH   5   6
ATOM      6  C   UNL     1       9.829  11.543  16.334  1.00  0.00     0.053 C 
BRANCH   6   7
ATOM      7  C   UNL     1       8.773  12.316  15.607  1.00  0.00     0.041 C 
ATOM      8  O   UNL     1       7.957  13.029  16.249  1.00  0.00    -0.550 OA
ATOM      9  O   UNL     1       8.660  12.211  14.227  1.00  0.00    -0.550 OA
ENDBRANCH   6   7
ENDBRANCH   5   6
ENDBRANCH   4   5
ENDBRANCH   3   4
ENDBRANCH   2   3
ENDBRANCH   1   2
BRANCH   1  10
ATOM     10  C   UNL     1      14.158  15.738  17.151  1.00  0.00     0.000 C 
BRANCH  10  11
ATOM     11  C   UNL     1      14.606  16.708  18.257  1.00  0.00    -0.000 C 
BRANCH  11  12
ATOM     12  C   UNL     1      16.124  16.957  18.241  1.00  0.00    -0.000 C 
BRANCH  12  13
ATOM     13  C   UNL     1      16.487  18.446  18.399  1.00  0.00    -0.000 C 
BRANCH  13  14
ATOM     14  C   UNL     1      16.789  18.899  19.841  1.00  0.00    -0.000 C 
BRANCH  14  15
ATOM     15  C   UNL     1      16.464  20.373  20.141  1.00  0.00    -0.003 C 
ATOM     16  C   UNL     1      16.998  21.329  19.075  1.00  0.00     0.004 C 
ENDBRANCH  14  15
ENDBRANCH  13  14
ENDBRANCH  12  13
ENDBRANCH  11  12
ENDBRANCH  10  11
ENDBRANCH   1  10
TORSDOF 12
ENDMDL
MODEL 2
REMARK VINA RESULT:     9.258      4.488      9.124
REMARK INTER + INTRA:          15.274
REMARK INTER:                  15.695
REMARK INTRA:                  -0.420
REMARK UNBOUND:                -0.478
REMARK SMILES CCCCCCCCCCCCCC(=O)[O-]
REMARK SMILES IDX 8 1 9 2 10 3 11 4 12 5 13 6 14 7 15 8 16 9 7 10 6 11 5 12
REMARK SMILES IDX 4 13 3 14 2 15 1 16
REMARK H PARENT
REMARK Flexibility Score: inf
ROOT
ATOM      1  C   UNL     1      14.222  14.737  16.746  1.00  0.00     0.000 C 
ENDROOT
BRANCH   1   2
ATOM      2  C   UNL     1      14.177  16.086  17.480  1.00  0.00     0.000 C 
BRANCH   2   3
ATOM      3  C   UNL     1      15.525  16.465  18.116  1.00  0.00     0.000 C 
BRANCH   3   4
ATOM      4  C   UNL     1      15.695  17.994  18.249  1.00  0.00     0.000 C 
BRANCH   4   5
ATOM      5  C   UNL     1      16.958  18.407  19.026  1.00  0.00     0.006 C 
BRANCH   5   6
ATOM      6  C   UNL     1      16.665  19.410  20.148  1.00  0.00     0.053 C 
BRANCH   6   7
ATOM      7  C   UNL     1      16.649  20.806  19.608  1.00  0.00     0.041 C 
ATOM      8  O   UNL     1      15.627  21.529  19.753  1.00  0.00    -0.550 OA
ATOM      9  O   UNL     1      17.742  21.292  18.903  1.00  0.00    -0.550 OA
ENDBRANCH   6   7
ENDBRANCH   5   6
ENDBRANCH   4   5
ENDBRANCH   3   4
ENDBRANCH   2   3
ENDBRANCH   1   2
BRANCH   1  10
ATOM     10  C   UNL     1      14.166  13.537  17.710  1.00  0.00     0.000 C 
BRANCH  10  11
ATOM     11  C   UNL     1      13.475  12.313  17.085  1.00  0.00    -0.000 C 
BRANCH  11  12
ATOM     12  C   UNL     1      12.013  12.165  17.540  1.00  0.00    -0.000 C 
BRANCH  12  13
ATOM     13  C   UNL     1      11.005  12.468  16.417  1.00  0.00    -0.000 C 
BRANCH  13  14
ATOM     14  C   UNL     1       9.549  12.058  16.714  1.00  0.00    -0.000 C 
BRANCH  14  15
ATOM     15  C   UNL     1       8.517  12.525  15.672  1.00  0.00    -0.003 C 
ATOM     16  C   UNL     1       8.833  12.033  14.259  1.00  0.00     0.004 C 
ENDBRANCH  14  15
ENDBRANCH  13  14
ENDBRANCH  12  13
ENDBRANCH  11  12
ENDBRANCH  10  11
ENDBRANCH   1  10
TORSDOF 12
ENDMDL
MODEL 3
REMARK VINA RESULT:     9.281      4.279      8.960
REMARK INTER + INTRA:          15.314
REMARK INTER:                  15.677
REMARK INTRA:                  -0.363
REMARK UNBOUND:                -0.478
REMARK SMILES CCCCCCCCCCCCCC(=O)[O-]
REMARK SMILES IDX 8 1 9 2 10 3 11 4 12 5 13 6 14 7 15 8 16 9 7 10 6 11 5 12
REMARK SMILES IDX 4 13 3 14 2 15 1 16
REMARK H PARENT
REMARK Flexibility Score: inf
ROOT
ATOM      1  C   UNL     1      14.200  13.767  17.730  1.00  0.00     0.000 C 
ENDROOT
BRANCH   1   2
ATOM      2  C   UNL     1      13.996  14.912  16.725  1.00  0.00     0.000 C 
BRANCH   2   3
ATOM      3  C   UNL     1      14.077  16.302  17.380  1.00  0.00     0.000 C 
BRANCH   3   4
ATOM      4  C   UNL     1      15.448  16.553  18.043  1.00  0.00     0.000 C 
BRANCH   4   5
ATOM      5  C   UNL     1      15.856  18.037  18.069  1.00  0.00     0.006 C 
BRANCH   5   6
ATOM      6  C   UNL     1      16.887  18.353  19.158  1.00  0.00     0.053 C 
BRANCH   6   7
ATOM      7  C   UNL     1      16.623  19.701  19.751  1.00  0.00     0.041 C 
ATOM      8  O   UNL     1      17.260  20.708  19.343  1.00  0.00    -0.550 OA
ATOM      9  O   UNL     1      15.708  19.838  20.787  1.00  0.00    -0.550 OA
ENDBRANCH   6   7
ENDBRANCH   5   6
ENDBRANCH   4   5
ENDBRANCH   3   4
ENDBRANCH   2   3
ENDBRANCH   1   2
BRANCH   1  10
ATOM     10  C   UNL     1      13.895  12.386  17.124  1.00  0.00     0.000 C 
BRANCH  10  11
ATOM     11  C   UNL     1      12.472  11.901  17.451  1.00  0.00    -0.000 C 
BRANCH  11  12
ATOM     12  C   UNL     1      11.398  12.615  16.612  1.00  0.00    -0.000 C 
BRANCH  12  13
ATOM     13  C   UNL     1      10.045  11.881  16.625  1.00  0.00    -0.000 C 
BRANCH  13  14
ATOM     14  C   UNL     1       8.830  12.739  16.220  1.00  0.00    -0.000 C 
BRANCH  14  15
ATOM     15  C   UNL     1       8.118  12.290  14.931  1.00  0.00    -0.003 C 
ATOM     16  C   UNL     1       9.085  11.769  13.867  1.00  0.00     0.004 C 
ENDBRANCH  14  15
ENDBRANCH  13  14
ENDBRANCH  12  13
ENDBRANCH  11  12
ENDBRANCH  10  11
ENDBRANCH   1  10
TORSDOF 12
ENDMDL
MODEL 4
REMARK VINA RESULT:     9.423      2.171      2.534
REMARK INTER + INTRA:          15.556
REMARK INTER:                  16.083
REMARK INTRA:                  -0.527
REMARK UNBOUND:                -0.478
REMARK SMILES CCCCCCCCCCCCCC(=O)[O-]
REMARK SMILES IDX 8 1 9 2 10 3 11 4 12 5 13 6 14 7 15 8 16 9 7 10 6 11 5 12
REMARK SMILES IDX 4 13 3 14 2 15 1 16
REMARK H PARENT
REMARK Flexibility Score: inf
ROOT
ATOM      1  C   UNL     1      14.572  14.974  17.716  1.00  0.00     0.000 C 
ENDROOT
BRANCH   1   2
ATOM      2  C   UNL     1      13.785  14.070  16.754  1.00  0.00     0.000 C 
BRANCH   2   3
ATOM      3  C   UNL     1      13.765  12.598  17.202  1.00  0.00     0.000 C 
BRANCH   3   4
ATOM      4  C   UNL     1      12.337  12.110  17.529  1.00  0.00     0.000 C 
BRANCH   4   5
ATOM      5  C   UNL     1      11.276  12.598  16.529  1.00  0.00     0.006 C 
BRANCH   5   6
ATOM      6  C   UNL     1      10.125  11.601  16.346  1.00  0.00     0.053 C 
BRANCH   6   7
ATOM      7  C   UNL     1       8.970  12.258  15.658  1.00  0.00     0.041 C 
ATOM      8  O   UNL     1       8.177  12.988  16.311  1.00  0.00    -0.550 OA
ATOM      9  O   UNL     1       8.740  12.027  14.308  1.00  0.00    -0.550 OA
ENDBRANCH   6   7
ENDBRANCH   5   6
ENDBRANCH   4   5
ENDBRANCH   3   4
ENDBRANCH   2   3
ENDBRANCH   1   2
BRANCH   1  10
ATOM     10  C   UNL     1      14.329  16.471  17.452  1.00  0.00     0.000 C 
BRANCH  10  11
ATOM     11  C   UNL     1      13.643  16.726  16.099  1.00  0.00    -0.000 C 
BRANCH  11  12
ATOM     12  C   UNL     1      13.179  18.185  15.940  1.00  0.00    -0.000 C 
BRANCH  12  13
ATOM     13  C   UNL     1      14.296  19.113  15.427  1.00  0.00    -0.000 C 
BRANCH  13  14
ATOM     14  C   UNL     1      14.059  20.618  15.664  1.00  0.00    -0.000 C 
BRANCH  14  15
ATOM     15  C   UNL     1      15.309  21.415  16.078  1.00  0.00    -0.003 C 
ATOM     16  C   UNL     1      16.290  21.624  14.925  1.00  0.00     0.004 C 
ENDBRANCH  14  15
ENDBRANCH  13  14
ENDBRANCH  12  13
ENDBRANCH  11  12
ENDBRANCH  10  11
ENDBRANCH   1  10
TORSDOF 12
ENDMDL
MODEL 5
REMARK VINA RESULT:    10.897      2.441      2.924
REMARK INTER + INTRA:          18.064
REMARK INTER:                  18.934
REMARK INTRA:                  -0.870
REMARK UNBOUND:                -0.478
REMARK SMILES CCCCCCCCCCCCCC(=O)[O-]
REMARK SMILES IDX 8 1 9 2 10 3 11 4 12 5 13 6 14 7 15 8 16 9 7 10 6 11 5 12
REMARK SMILES IDX 4 13 3 14 2 15 1 16
REMARK H PARENT
REMARK Flexibility Score: inf
ROOT
ATOM      1  C   UNL     1      13.919  12.549  16.744  1.00  0.00     0.000 C 
ENDROOT
BRANCH   1   2
ATOM      2  C   UNL     1      13.333  12.413  18.158  1.00  0.00     0.000 C 
BRANCH   2   3
ATOM      3  C   UNL     1      11.799  12.295  18.159  1.00  0.00     0.000 C 
BRANCH   3   4
ATOM      4  C   UNL     1      11.227  12.137  16.733  1.00  0.00     0.000 C 
BRANCH   4   5
ATOM      5  C   UNL     1       9.815  11.527  16.701  1.00  0.00     0.006 C 
BRANCH   5   6
ATOM      6  C   UNL     1       8.803  12.405  15.955  1.00  0.00     0.053 C 
BRANCH   6   7
ATOM      7  C   UNL     1       8.927  12.202  14.478  1.00  0.00     0.041 C 
ATOM      8  O   UNL     1       9.413  13.111  13.753  1.00  0.00    -0.550 OA
ATOM      9  O   UNL     1       8.461  11.031  13.894  1.00  0.00    -0.550 OA
ENDBRANCH   6   7
ENDBRANCH   5   6
ENDBRANCH   4   5
ENDBRANCH   3   4
ENDBRANCH   2   3
ENDBRANCH   1   2
BRANCH   1  10
ATOM     10  C   UNL     1      14.631  13.896  16.526  1.00  0.00     0.000 C 
BRANCH  10  11
ATOM     11  C   UNL     1      14.640  14.769  17.793  1.00  0.00    -0.000 C 
BRANCH  11  12
ATOM     12  C   UNL     1      14.320  16.244  17.494  1.00  0.00    -0.000 C 
BRANCH  12  13
ATOM     13  C   UNL     1      13.415  16.420  16.261  1.00  0.00    -0.000 C 
BRANCH  13  14
ATOM     14  C   UNL     1      13.163  17.880  15.834  1.00  0.00    -0.000 C 
BRANCH  14  15
ATOM     15  C   UNL     1      14.424  18.760  15.753  1.00  0.00    -0.003 C 
ATOM     16  C   UNL     1      14.109  20.222  15.438  1.00  0.00     0.004 C 
ENDBRANCH  14  15
ENDBRANCH  13  14
ENDBRANCH  12  13
ENDBRANCH  11  12
ENDBRANCH  10  11
ENDBRANCH   1  10
TORSDOF 12
ENDMDL
