MODEL 1
REMARK VINA RESULT:    -6.417      0.000      0.000
REMARK INTER + INTRA:          -7.062
REMARK INTER:                  -6.793
REMARK INTRA:                  -0.270
REMARK UNBOUND:                -0.270
REMARK SMILES CC1=CC[C@@H]2[C@H]3[C@H](C(C)C)CC[C@]2(C)[C@@H]13
REMARK SMILES IDX 1 1 2 2 3 3 4 4 5 5 6 6 15 7 13 8 12 9 11 10 7 11 14 12 8 13
REMARK SMILES IDX 9 14 10 15
REMARK H PARENT
REMARK Flexibility Score: inf
ROOT
ATOM      1  C   UNL     1       5.274   6.016  10.875  1.00  0.00     0.039 C 
ATOM      2  C   UNL     1       6.110   6.109  12.116  1.00  0.00    -0.073 C 
ATOM      3  C   UNL     1       7.137   5.247  12.341  1.00  0.00    -0.027 C 
ATOM      4  C   UNL     1       7.971   5.405  13.618  1.00  0.00     0.031 C 
ATOM      5  C   UNL     1       7.418   6.583  14.487  1.00  0.00     0.003 C 
ATOM      6  C   UNL     1       5.882   6.430  14.555  1.00  0.00     0.004 C 
ATOM      7  C   UNL     1       5.838   7.164  13.193  1.00  0.00     0.024 C 
ATOM      8  C   UNL     1       7.162   7.843  13.628  1.00  0.00    -0.022 C 
ATOM      9  C   UNL     1       6.888   9.043  14.579  1.00  0.00     0.008 C 
ATOM     10  C   UNL     1       5.642   8.816  15.472  1.00  0.00     0.005 C 
ATOM     11  C   UNL     1       5.306   7.306  15.712  1.00  0.00    -0.005 C 
ATOM     12  C   UNL     1       8.198   8.227  12.543  1.00  0.00     0.012 C 
ENDROOT
BRANCH  11  13
ATOM     13  C   UNL     1       3.771   7.092  15.924  1.00  0.00    -0.014 C 
ATOM     14  C   UNL     1       3.373   7.126  17.411  1.00  0.00     0.007 C 
ATOM     15  C   UNL     1       2.951   8.158  15.170  1.00  0.00     0.007 C 
ENDBRANCH  11  13
TORSDOF 1
ENDMDL
MODEL 2
REMARK VINA RESULT:    -6.219     13.608     15.574
REMARK INTER + INTRA:          -6.852
REMARK INTER:                  -6.756
REMARK INTRA:                  -0.096
REMARK UNBOUND:                -0.270
REMARK SMILES CC1=CC[C@@H]2[C@H]3[C@H](C(C)C)CC[C@]2(C)[C@@H]13
REMARK SMILES IDX 1 1 2 2 3 3 4 4 5 5 6 6 15 7 13 8 12 9 11 10 7 11 14 12 8 13
REMARK SMILES IDX 9 14 10 15
REMARK H PARENT
REMARK Flexibility Score: inf
ROOT
ATOM      1  C   UNL     1      11.944   4.362  30.993  1.00  0.00     0.039 C 
ATOM      2  C   UNL     1      11.095   4.597  29.781  1.00  0.00    -0.073 C 
ATOM      3  C   UNL     1      10.088   3.745  29.449  1.00  0.00    -0.027 C 
ATOM      4  C   UNL     1       9.239   4.050  28.210  1.00  0.00     0.031 C 
ATOM      5  C   UNL     1       9.753   5.346  27.502  1.00  0.00     0.003 C 
ATOM      6  C   UNL     1      11.293   5.243  27.405  1.00  0.00     0.004 C 
ATOM      7  C   UNL     1      11.330   5.791  28.852  1.00  0.00     0.024 C 
ATOM      8  C   UNL     1       9.986   6.487  28.518  1.00  0.00    -0.022 C 
ATOM      9  C   UNL     1      10.222   7.809  27.733  1.00  0.00     0.008 C 
ATOM     10  C   UNL     1      11.465   7.735  26.811  1.00  0.00     0.005 C 
ATOM     11  C   UNL     1      11.836   6.280  26.370  1.00  0.00    -0.005 C 
ATOM     12  C   UNL     1       8.952   6.697  29.650  1.00  0.00     0.012 C 
ENDROOT
BRANCH  11  13
ATOM     13  C   UNL     1      13.374   6.135  26.123  1.00  0.00    -0.014 C 
ATOM     14  C   UNL     1      13.878   7.062  25.002  1.00  0.00     0.007 C 
ATOM     15  C   UNL     1      14.174   6.433  27.406  1.00  0.00     0.007 C 
ENDBRANCH  11  13
TORSDOF 1
ENDMDL
MODEL 3
REMARK VINA RESULT:    -5.737      1.265      4.856
REMARK INTER + INTRA:          -6.342
REMARK INTER:                  -6.209
REMARK INTRA:                  -0.134
REMARK UNBOUND:                -0.270
REMARK SMILES CC1=CC[C@@H]2[C@H]3[C@H](C(C)C)CC[C@]2(C)[C@@H]13
REMARK SMILES IDX 1 1 2 2 3 3 4 4 5 5 6 6 15 7 13 8 12 9 11 10 7 11 14 12 8 13
REMARK SMILES IDX 9 14 10 15
REMARK H PARENT
REMARK Flexibility Score: inf
ROOT
ATOM      1  C   UNL     1       5.806  10.125  17.006  1.00  0.00     0.039 C 
ATOM      2  C   UNL     1       5.267   8.754  16.727  1.00  0.00    -0.073 C 
ATOM      3  C   UNL     1       4.748   7.985  17.720  1.00  0.00    -0.027 C 
ATOM      4  C   UNL     1       4.191   6.600  17.370  1.00  0.00     0.031 C 
ATOM      5  C   UNL     1       4.373   6.309  15.844  1.00  0.00     0.003 C 
ATOM      6  C   UNL     1       5.819   6.703  15.465  1.00  0.00     0.004 C 
ATOM      7  C   UNL     1       5.290   8.151  15.319  1.00  0.00     0.024 C 
ATOM      8  C   UNL     1       3.918   7.512  14.985  1.00  0.00    -0.022 C 
ATOM      9  C   UNL     1       3.860   7.063  13.496  1.00  0.00     0.008 C 
ATOM     10  C   UNL     1       5.239   6.595  12.966  1.00  0.00     0.005 C 
ATOM     11  C   UNL     1       6.202   6.077  14.086  1.00  0.00    -0.005 C 
ATOM     12  C   UNL     1       2.625   8.263  15.383  1.00  0.00     0.012 C 
ENDROOT
BRANCH  11  13
ATOM     13  C   UNL     1       7.699   6.324  13.707  1.00  0.00    -0.014 C 
ATOM     14  C   UNL     1       7.882   6.630  12.209  1.00  0.00     0.007 C 
ATOM     15  C   UNL     1       8.295   7.488  14.524  1.00  0.00     0.007 C 
ENDBRANCH  11  13
TORSDOF 1
ENDMDL
MODEL 4
REMARK VINA RESULT:    -5.413     12.402     13.672
REMARK INTER + INTRA:          -5.999
REMARK INTER:                  -5.695
REMARK INTRA:                  -0.304
REMARK UNBOUND:                -0.270
REMARK SMILES CC1=CC[C@@H]2[C@H]3[C@H](C(C)C)CC[C@]2(C)[C@@H]13
REMARK SMILES IDX 1 1 2 2 3 3 4 4 5 5 6 6 15 7 13 8 12 9 11 10 7 11 14 12 8 13
REMARK SMILES IDX 9 14 10 15
REMARK H PARENT
REMARK Flexibility Score: inf
ROOT
ATOM      1  C   UNL     1      17.221   7.113  24.006  1.00  0.00     0.039 C 
ATOM      2  C   UNL     1      16.018   7.975  24.247  1.00  0.00    -0.073 C 
ATOM      3  C   UNL     1      16.145   9.289  24.569  1.00  0.00    -0.027 C 
ATOM      4  C   UNL     1      14.878  10.125  24.782  1.00  0.00     0.031 C 
ATOM      5  C   UNL     1      13.603   9.234  24.613  1.00  0.00     0.003 C 
ATOM      6  C   UNL     1      13.838   7.930  25.408  1.00  0.00     0.004 C 
ATOM      7  C   UNL     1      14.595   7.413  24.161  1.00  0.00     0.024 C 
ATOM      8  C   UNL     1      13.690   8.364  23.338  1.00  0.00    -0.022 C 
ATOM      9  C   UNL     1      12.296   7.723  23.079  1.00  0.00     0.008 C 
ATOM     10  C   UNL     1      11.840   6.811  24.246  1.00  0.00     0.005 C 
ATOM     11  C   UNL     1      12.484   7.181  25.624  1.00  0.00    -0.005 C 
ATOM     12  C   UNL     1      14.252   8.997  22.043  1.00  0.00     0.012 C 
ENDROOT
BRANCH  11  13
ATOM     13  C   UNL     1      12.631   5.922  26.540  1.00  0.00    -0.014 C 
ATOM     14  C   UNL     1      13.869   6.002  27.453  1.00  0.00     0.007 C 
ATOM     15  C   UNL     1      11.382   5.725  27.420  1.00  0.00     0.007 C 
ENDBRANCH  11  13
TORSDOF 1
ENDMDL
MODEL 5
REMARK VINA RESULT:    -5.404     10.074     11.490
REMARK INTER + INTRA:          -5.990
REMARK INTER:                  -5.696
REMARK INTRA:                  -0.294
REMARK UNBOUND:                -0.270
REMARK SMILES CC1=CC[C@@H]2[C@H]3[C@H](C(C)C)CC[C@]2(C)[C@@H]13
REMARK SMILES IDX 1 1 2 2 3 3 4 4 5 5 6 6 15 7 13 8 12 9 11 10 7 11 14 12 8 13
REMARK SMILES IDX 9 14 10 15
REMARK H PARENT
REMARK Flexibility Score: inf
ROOT
ATOM      1  C   UNL     1       9.459   8.838  23.496  1.00  0.00     0.039 C 
ATOM      2  C   UNL     1      10.598   8.340  22.657  1.00  0.00    -0.073 C 
ATOM      3  C   UNL     1      10.484   7.207  21.915  1.00  0.00    -0.027 C 
ATOM      4  C   UNL     1      11.675   6.759  21.060  1.00  0.00     0.031 C 
ATOM      5  C   UNL     1      12.881   7.738  21.250  1.00  0.00     0.003 C 
ATOM      6  C   UNL     1      13.040   7.989  22.767  1.00  0.00     0.004 C 
ATOM      7  C   UNL     1      11.943   9.070  22.612  1.00  0.00     0.024 C 
ATOM      8  C   UNL     1      12.429   9.213  21.147  1.00  0.00    -0.022 C 
ATOM      9  C   UNL     1      13.695  10.113  21.064  1.00  0.00     0.008 C 
ATOM     10  C   UNL     1      14.598   9.980  22.317  1.00  0.00     0.005 C 
ATOM     11  C   UNL     1      14.442   8.613  23.063  1.00  0.00    -0.005 C 
ATOM     12  C   UNL     1      11.405   9.602  20.054  1.00  0.00     0.012 C 
ENDROOT
BRANCH  11  13
ATOM     13  C   UNL     1      14.721   8.767  24.594  1.00  0.00    -0.014 C 
ATOM     14  C   UNL     1      13.788   7.891  25.452  1.00  0.00     0.007 C 
ATOM     15  C   UNL     1      16.182   8.407  24.932  1.00  0.00     0.007 C 
ENDBRANCH  11  13
TORSDOF 1
ENDMDL
MODEL 6
REMARK VINA RESULT:    -5.386      1.682      2.994
REMARK INTER + INTRA:          -5.970
REMARK INTER:                  -5.728
REMARK INTRA:                  -0.242
REMARK UNBOUND:                -0.270
REMARK SMILES CC1=CC[C@@H]2[C@H]3[C@H](C(C)C)CC[C@]2(C)[C@@H]13
REMARK SMILES IDX 1 1 2 2 3 3 4 4 5 5 6 6 15 7 13 8 12 9 11 10 7 11 14 12 8 13
REMARK SMILES IDX 9 14 10 15
REMARK H PARENT
REMARK Flexibility Score: inf
ROOT
ATOM      1  C   UNL     1       7.881   4.091  14.497  1.00  0.00     0.039 C 
ATOM      2  C   UNL     1       7.546   5.537  14.284  1.00  0.00    -0.073 C 
ATOM      3  C   UNL     1       8.233   6.295  13.388  1.00  0.00    -0.027 C 
ATOM      4  C   UNL     1       7.830   7.762  13.197  1.00  0.00     0.031 C 
ATOM      5  C   UNL     1       6.654   8.134  14.160  1.00  0.00     0.003 C 
ATOM      6  C   UNL     1       7.008   7.582  15.560  1.00  0.00     0.004 C 
ATOM      7  C   UNL     1       6.432   6.230  15.074  1.00  0.00     0.024 C 
ATOM      8  C   UNL     1       5.538   7.066  14.123  1.00  0.00    -0.022 C 
ATOM      9  C   UNL     1       4.294   7.623  14.873  1.00  0.00     0.008 C 
ATOM     10  C   UNL     1       4.595   7.943  16.359  1.00  0.00     0.005 C 
ATOM     11  C   UNL     1       6.103   8.250  16.645  1.00  0.00    -0.005 C 
ATOM     12  C   UNL     1       5.131   6.463  12.757  1.00  0.00     0.012 C 
ENDROOT
BRANCH  11  13
ATOM     13  C   UNL     1       6.502   7.837  18.099  1.00  0.00    -0.014 C 
ATOM     14  C   UNL     1       7.269   8.951  18.836  1.00  0.00     0.007 C 
ATOM     15  C   UNL     1       5.260   7.460  18.931  1.00  0.00     0.007 C 
ENDBRANCH  11  13
TORSDOF 1
ENDMDL
MODEL 7
REMARK VINA RESULT:    -5.384      1.225      2.500
REMARK INTER + INTRA:          -5.968
REMARK INTER:                  -5.695
REMARK INTRA:                  -0.274
REMARK UNBOUND:                -0.270
REMARK SMILES CC1=CC[C@@H]2[C@H]3[C@H](C(C)C)CC[C@]2(C)[C@@H]13
REMARK SMILES IDX 1 1 2 2 3 3 4 4 5 5 6 6 15 7 13 8 12 9 11 10 7 11 14 12 8 13
REMARK SMILES IDX 9 14 10 15
REMARK H PARENT
REMARK Flexibility Score: inf
ROOT
ATOM      1  C   UNL     1       7.956   9.077  11.631  1.00  0.00     0.039 C 
ATOM      2  C   UNL     1       7.090   7.886  11.910  1.00  0.00    -0.073 C 
ATOM      3  C   UNL     1       6.607   7.113  10.901  1.00  0.00    -0.027 C 
ATOM      4  C   UNL     1       5.743   5.895  11.250  1.00  0.00     0.031 C 
ATOM      5  C   UNL     1       5.544   5.794  12.798  1.00  0.00     0.003 C 
ATOM      6  C   UNL     1       5.174   7.204  13.312  1.00  0.00     0.004 C 
ATOM      7  C   UNL     1       6.694   7.496  13.337  1.00  0.00     0.024 C 
ATOM      8  C   UNL     1       6.883   5.972  13.550  1.00  0.00    -0.022 C 
ATOM      9  C   UNL     1       6.668   5.586  15.042  1.00  0.00     0.008 C 
ATOM     10  C   UNL     1       5.610   6.481  15.737  1.00  0.00     0.005 C 
ATOM     11  C   UNL     1       4.571   7.110  14.750  1.00  0.00    -0.005 C 
ATOM     12  C   UNL     1       8.150   5.289  12.983  1.00  0.00     0.012 C 
ENDROOT
BRANCH  11  13
ATOM     13  C   UNL     1       4.049   8.487  15.276  1.00  0.00    -0.014 C 
ATOM     14  C   UNL     1       2.584   8.419  15.746  1.00  0.00     0.007 C 
ATOM     15  C   UNL     1       4.916   9.004  16.441  1.00  0.00     0.007 C 
ENDBRANCH  11  13
TORSDOF 1
ENDMDL
MODEL 8
REMARK VINA RESULT:    -5.352     12.153     13.610
REMARK INTER + INTRA:          -5.935
REMARK INTER:                  -5.629
REMARK INTRA:                  -0.306
REMARK UNBOUND:                -0.270
REMARK SMILES CC1=CC[C@@H]2[C@H]3[C@H](C(C)C)CC[C@]2(C)[C@@H]13
REMARK SMILES IDX 1 1 2 2 3 3 4 4 5 5 6 6 15 7 13 8 12 9 11 10 7 11 14 12 8 13
REMARK SMILES IDX 9 14 10 15
REMARK H PARENT
REMARK Flexibility Score: inf
ROOT
ATOM      1  C   UNL     1      10.836   6.762  23.050  1.00  0.00     0.039 C 
ATOM      2  C   UNL     1      11.568   6.933  24.347  1.00  0.00    -0.073 C 
ATOM      3  C   UNL     1      12.927   6.907  24.398  1.00  0.00    -0.027 C 
ATOM      4  C   UNL     1      13.620   7.110  25.751  1.00  0.00     0.031 C 
ATOM      5  C   UNL     1      12.558   7.281  26.887  1.00  0.00     0.003 C 
ATOM      6  C   UNL     1      11.492   6.178  26.698  1.00  0.00     0.004 C 
ATOM      7  C   UNL     1      10.824   7.126  25.672  1.00  0.00     0.024 C 
ATOM      8  C   UNL     1      11.457   8.287  26.480  1.00  0.00    -0.022 C 
ATOM      9  C   UNL     1      10.604   8.622  27.737  1.00  0.00     0.008 C 
ATOM     10  C   UNL     1       9.908   7.371  28.329  1.00  0.00     0.005 C 
ATOM     11  C   UNL     1      10.639   6.027  27.998  1.00  0.00    -0.005 C 
ATOM     12  C   UNL     1      11.869   9.580  25.735  1.00  0.00     0.012 C 
ENDROOT
BRANCH  11  13
ATOM     13  C   UNL     1       9.631   4.834  27.921  1.00  0.00    -0.014 C 
ATOM     14  C   UNL     1      10.078   3.751  26.921  1.00  0.00     0.007 C 
ATOM     15  C   UNL     1       9.438   4.179  29.303  1.00  0.00     0.007 C 
ENDBRANCH  11  13
TORSDOF 1
ENDMDL
MODEL 9
REMARK VINA RESULT:    -5.193     11.944     13.520
REMARK INTER + INTRA:          -5.767
REMARK INTER:                  -5.488
REMARK INTRA:                  -0.278
REMARK UNBOUND:                -0.270
REMARK SMILES CC1=CC[C@@H]2[C@H]3[C@H](C(C)C)CC[C@]2(C)[C@@H]13
REMARK SMILES IDX 1 1 2 2 3 3 4 4 5 5 6 6 15 7 13 8 12 9 11 10 7 11 14 12 8 13
REMARK SMILES IDX 9 14 10 15
REMARK H PARENT
REMARK Flexibility Score: inf
ROOT
ATOM      1  C   UNL     1      11.288   6.755  22.022  1.00  0.00     0.039 C 
ATOM      2  C   UNL     1      11.486   7.589  23.253  1.00  0.00    -0.073 C 
ATOM      3  C   UNL     1      10.615   8.579  23.582  1.00  0.00    -0.027 C 
ATOM      4  C   UNL     1      10.858   9.383  24.864  1.00  0.00     0.031 C 
ATOM      5  C   UNL     1      12.168   8.899  25.570  1.00  0.00     0.003 C 
ATOM      6  C   UNL     1      13.264   8.780  24.487  1.00  0.00     0.004 C 
ATOM      7  C   UNL     1      12.684   7.377  24.183  1.00  0.00     0.024 C 
ATOM      8  C   UNL     1      12.220   7.357  25.662  1.00  0.00    -0.022 C 
ATOM      9  C   UNL     1      13.388   6.956  26.608  1.00  0.00     0.008 C 
ATOM     10  C   UNL     1      14.763   7.448  26.089  1.00  0.00     0.005 C 
ATOM     11  C   UNL     1      14.673   8.701  25.155  1.00  0.00    -0.005 C 
ATOM     12  C   UNL     1      10.927   6.590  26.030  1.00  0.00     0.012 C 
ENDROOT
BRANCH  11  13
ATOM     13  C   UNL     1      15.837   8.716  24.111  1.00  0.00    -0.014 C 
ATOM     14  C   UNL     1      16.913   9.766  24.447  1.00  0.00     0.007 C 
ATOM     15  C   UNL     1      16.512   7.334  24.009  1.00  0.00     0.007 C 
ENDBRANCH  11  13
TORSDOF 1
ENDMDL
