MODEL 1
REMARK VINA RESULT:    -2.948      0.000      0.000
REMARK INTER + INTRA:         -12.478
REMARK INTER:                  -7.430
REMARK INTRA:                  -5.048
REMARK UNBOUND:                -5.048
REMARK SMILES CCCCCCCCCCCCCCCCCCCCCCCCCCCC(=O)[O-]
REMARK SMILES IDX 15 1 16 2 17 3 18 4 19 5 20 6 21 7 22 8 23 9 24 10 25 11
REMARK SMILES IDX 26 12 27 13 28 14 29 15 30 16 14 17 13 18 12 19 11 20 10 21
REMARK SMILES IDX 9 22 8 23 7 24 6 25 5 26 4 27 3 28 2 29 1 30
REMARK H PARENT
REMARK Flexibility Score: inf
ROOT
ATOM      1  C   UNL     1      63.206  29.016  61.537  1.00  0.00     0.000 C 
ENDROOT
BRANCH   1   2
ATOM      2  C   UNL     1      64.417  29.955  61.388  1.00  0.00     0.000 C 
BRANCH   2   3
ATOM      3  C   UNL     1      65.722  29.268  60.947  1.00  0.00     0.000 C 
BRANCH   3   4
ATOM      4  C   UNL     1      65.900  29.251  59.420  1.00  0.00     0.000 C 
BRANCH   4   5
ATOM      5  C   UNL     1      66.637  27.998  58.910  1.00  0.00     0.000 C 
BRANCH   5   6
ATOM      6  C   UNL     1      65.735  26.850  58.421  1.00  0.00     0.000 C 
BRANCH   6   7
ATOM      7  C   UNL     1      64.241  27.218  58.412  1.00  0.00     0.000 C 
BRANCH   7   8
ATOM      8  C   UNL     1      63.366  26.170  59.124  1.00  0.00     0.000 C 
BRANCH   8   9
ATOM      9  C   UNL     1      63.846  25.762  60.531  1.00  0.00     0.000 C 
BRANCH   9  10
ATOM     10  C   UNL     1      62.832  24.945  61.358  1.00  0.00     0.000 C 
BRANCH  10  11
ATOM     11  C   UNL     1      62.456  25.564  62.716  1.00  0.00     0.000 C 
BRANCH  11  12
ATOM     12  C   UNL     1      60.952  25.457  63.025  1.00  0.00     0.006 C 
BRANCH  12  13
ATOM     13  C   UNL     1      60.127  25.095  61.783  1.00  0.00     0.053 C 
BRANCH  13  14
ATOM     14  C   UNL     1      58.655  25.243  62.020  1.00  0.00     0.041 C 
ATOM     15  O   UNL     1      57.940  24.226  62.225  1.00  0.00    -0.550 OA
ATOM     16  O   UNL     1      58.073  26.504  62.018  1.00  0.00    -0.550 OA
ENDBRANCH  13  14
ENDBRANCH  12  13
ENDBRANCH  11  12
ENDBRANCH  10  11
ENDBRANCH   9  10
ENDBRANCH   8   9
ENDBRANCH   7   8
ENDBRANCH   6   7
ENDBRANCH   5   6
ENDBRANCH   4   5
ENDBRANCH   3   4
ENDBRANCH   2   3
ENDBRANCH   1   2
BRANCH   1  17
ATOM     17  C   UNL     1      62.046  29.384  60.599  1.00  0.00     0.000 C 
BRANCH  17  18
ATOM     18  C   UNL     1      60.828  28.479  60.844  1.00  0.00     0.000 C 
BRANCH  18  19
ATOM     19  C   UNL     1      59.954  28.318  59.589  1.00  0.00     0.000 C 
BRANCH  19  20
ATOM     20  C   UNL     1      60.726  28.610  58.291  1.00  0.00     0.000 C 
BRANCH  20  21
ATOM     21  C   UNL     1      60.076  29.722  57.448  1.00  0.00     0.000 C 
BRANCH  21  22
ATOM     22  C   UNL     1      60.923  31.002  57.306  1.00  0.00    -0.000 C 
BRANCH  22  23
ATOM     23  C   UNL     1      60.511  32.104  58.297  1.00  0.00    -0.000 C 
BRANCH  23  24
ATOM     24  C   UNL     1      61.688  33.001  58.708  1.00  0.00    -0.000 C 
BRANCH  24  25
ATOM     25  C   UNL     1      63.010  32.222  58.825  1.00  0.00    -0.000 C 
BRANCH  25  26
ATOM     26  C   UNL     1      64.197  32.983  58.213  1.00  0.00    -0.000 C 
BRANCH  26  27
ATOM     27  C   UNL     1      65.352  33.176  59.210  1.00  0.00    -0.000 C 
BRANCH  27  28
ATOM     28  C   UNL     1      64.866  33.397  60.653  1.00  0.00    -0.000 C 
BRANCH  28  29
ATOM     29  C   UNL     1      64.816  34.869  61.100  1.00  0.00    -0.003 C 
ATOM     30  C   UNL     1      63.414  35.472  61.013  1.00  0.00     0.004 C 
ENDBRANCH  28  29
ENDBRANCH  27  28
ENDBRANCH  26  27
ENDBRANCH  25  26
ENDBRANCH  24  25
ENDBRANCH  23  24
ENDBRANCH  22  23
ENDBRANCH  21  22
ENDBRANCH  20  21
ENDBRANCH  19  20
ENDBRANCH  18  19
ENDBRANCH  17  18
ENDBRANCH   1  17
TORSDOF 26
ENDMDL
MODEL 2
REMARK VINA RESULT:    -2.857      9.893     12.844
REMARK INTER + INTRA:         -12.248
REMARK INTER:                  -6.865
REMARK INTRA:                  -5.383
REMARK UNBOUND:                -5.048
REMARK SMILES CCCCCCCCCCCCCCCCCCCCCCCCCCCC(=O)[O-]
REMARK SMILES IDX 15 1 16 2 17 3 18 4 19 5 20 6 21 7 22 8 23 9 24 10 25 11
REMARK SMILES IDX 26 12 27 13 28 14 29 15 30 16 14 17 13 18 12 19 11 20 10 21
REMARK SMILES IDX 9 22 8 23 7 24 6 25 5 26 4 27 3 28 2 29 1 30
REMARK H PARENT
REMARK Flexibility Score: inf
ROOT
ATOM      1  C   UNL     1      64.219  25.753  51.731  1.00  0.00     0.000 C 
ENDROOT
BRANCH   1   2
ATOM      2  C   UNL     1      62.919  25.884  52.544  1.00  0.00     0.000 C 
BRANCH   2   3
ATOM      3  C   UNL     1      62.017  24.636  52.534  1.00  0.00     0.000 C 
BRANCH   3   4
ATOM      4  C   UNL     1      62.321  23.692  51.358  1.00  0.00     0.000 C 
BRANCH   4   5
ATOM      5  C   UNL     1      61.369  23.888  50.164  1.00  0.00     0.000 C 
BRANCH   5   6
ATOM      6  C   UNL     1      60.016  24.547  50.495  1.00  0.00     0.000 C 
BRANCH   6   7
ATOM      7  C   UNL     1      59.640  25.675  49.519  1.00  0.00     0.000 C 
BRANCH   7   8
ATOM      8  C   UNL     1      60.699  26.790  49.461  1.00  0.00     0.000 C 
BRANCH   8   9
ATOM      9  C   UNL     1      60.497  27.939  50.469  1.00  0.00     0.000 C 
BRANCH   9  10
ATOM     10  C   UNL     1      61.345  29.200  50.203  1.00  0.00     0.000 C 
BRANCH  10  11
ATOM     11  C   UNL     1      62.248  29.632  51.372  1.00  0.00     0.000 C 
BRANCH  11  12
ATOM     12  C   UNL     1      62.943  30.983  51.122  1.00  0.00     0.006 C 
BRANCH  12  13
ATOM     13  C   UNL     1      62.873  31.409  49.650  1.00  0.00     0.053 C 
BRANCH  13  14
ATOM     14  C   UNL     1      63.206  32.858  49.465  1.00  0.00     0.041 C 
ATOM     15  O   UNL     1      63.529  33.567  50.455  1.00  0.00    -0.550 OA
ATOM     16  O   UNL     1      63.161  33.427  48.198  1.00  0.00    -0.550 OA
ENDBRANCH  13  14
ENDBRANCH  12  13
ENDBRANCH  11  12
ENDBRANCH  10  11
ENDBRANCH   9  10
ENDBRANCH   8   9
ENDBRANCH   7   8
ENDBRANCH   6   7
ENDBRANCH   5   6
ENDBRANCH   4   5
ENDBRANCH   3   4
ENDBRANCH   2   3
ENDBRANCH   1   2
BRANCH   1  17
ATOM     17  C   UNL     1      64.387  26.869  50.689  1.00  0.00     0.000 C 
BRANCH  17  18
ATOM     18  C   UNL     1      64.137  26.341  49.267  1.00  0.00     0.000 C 
BRANCH  18  19
ATOM     19  C   UNL     1      64.186  27.455  48.209  1.00  0.00     0.000 C 
BRANCH  19  20
ATOM     20  C   UNL     1      64.780  28.764  48.758  1.00  0.00     0.000 C 
BRANCH  20  21
ATOM     21  C   UNL     1      66.191  29.054  48.216  1.00  0.00     0.000 C 
BRANCH  21  22
ATOM     22  C   UNL     1      67.287  29.154  49.294  1.00  0.00    -0.000 C 
BRANCH  22  23
ATOM     23  C   UNL     1      68.378  28.081  49.139  1.00  0.00    -0.000 C 
BRANCH  23  24
ATOM     24  C   UNL     1      67.878  26.673  49.496  1.00  0.00    -0.000 C 
BRANCH  24  25
ATOM     25  C   UNL     1      68.241  25.629  48.424  1.00  0.00    -0.000 C 
BRANCH  25  26
ATOM     26  C   UNL     1      67.012  25.134  47.646  1.00  0.00    -0.000 C 
BRANCH  26  27
ATOM     27  C   UNL     1      67.146  25.350  46.129  1.00  0.00    -0.000 C 
BRANCH  27  28
ATOM     28  C   UNL     1      67.114  26.837  45.732  1.00  0.00    -0.000 C 
BRANCH  28  29
ATOM     29  C   UNL     1      68.460  27.405  45.245  1.00  0.00    -0.003 C 
ATOM     30  C   UNL     1      68.625  28.893  45.548  1.00  0.00     0.004 C 
ENDBRANCH  28  29
ENDBRANCH  27  28
ENDBRANCH  26  27
ENDBRANCH  25  26
ENDBRANCH  24  25
ENDBRANCH  23  24
ENDBRANCH  22  23
ENDBRANCH  21  22
ENDBRANCH  20  21
ENDBRANCH  19  20
ENDBRANCH  18  19
ENDBRANCH  17  18
ENDBRANCH   1  17
TORSDOF 26
ENDMDL
MODEL 3
REMARK VINA RESULT:    -2.838      4.147      5.754
REMARK INTER + INTRA:         -12.199
REMARK INTER:                  -7.657
REMARK INTRA:                  -4.543
REMARK UNBOUND:                -5.048
REMARK SMILES CCCCCCCCCCCCCCCCCCCCCCCCCCCC(=O)[O-]
REMARK SMILES IDX 15 1 16 2 17 3 18 4 19 5 20 6 21 7 22 8 23 9 24 10 25 11
REMARK SMILES IDX 26 12 27 13 28 14 29 15 30 16 14 17 13 18 12 19 11 20 10 21
REMARK SMILES IDX 9 22 8 23 7 24 6 25 5 26 4 27 3 28 2 29 1 30
REMARK H PARENT
REMARK Flexibility Score: inf
ROOT
ATOM      1  C   UNL     1      63.238  29.394  60.986  1.00  0.00     0.000 C 
ENDROOT
BRANCH   1   2
ATOM      2  C   UNL     1      64.608  29.913  61.459  1.00  0.00     0.000 C 
BRANCH   2   3
ATOM      3  C   UNL     1      65.197  31.058  60.613  1.00  0.00     0.000 C 
BRANCH   3   4
ATOM      4  C   UNL     1      64.689  31.047  59.161  1.00  0.00     0.000 C 
BRANCH   4   5
ATOM      5  C   UNL     1      65.516  30.133  58.238  1.00  0.00     0.000 C 
BRANCH   5   6
ATOM      6  C   UNL     1      64.709  29.094  57.436  1.00  0.00     0.000 C 
BRANCH   6   7
ATOM      7  C   UNL     1      64.801  27.675  58.021  1.00  0.00     0.000 C 
BRANCH   7   8
ATOM      8  C   UNL     1      66.224  27.313  58.483  1.00  0.00     0.000 C 
BRANCH   8   9
ATOM      9  C   UNL     1      66.373  27.036  59.992  1.00  0.00     0.000 C 
BRANCH   9  10
ATOM     10  C   UNL     1      67.772  27.323  60.576  1.00  0.00     0.000 C 
BRANCH  10  11
ATOM     11  C   UNL     1      68.088  28.813  60.796  1.00  0.00     0.000 C 
BRANCH  11  12
ATOM     12  C   UNL     1      68.919  29.423  59.653  1.00  0.00     0.006 C 
BRANCH  12  13
ATOM     13  C   UNL     1      70.239  28.674  59.429  1.00  0.00     0.053 C 
BRANCH  13  14
ATOM     14  C   UNL     1      71.375  29.295  60.182  1.00  0.00     0.041 C 
ATOM     15  O   UNL     1      71.566  30.539  60.132  1.00  0.00    -0.550 OA
ATOM     16  O   UNL     1      72.222  28.499  60.944  1.00  0.00    -0.550 OA
ENDBRANCH  13  14
ENDBRANCH  12  13
ENDBRANCH  11  12
ENDBRANCH  10  11
ENDBRANCH   9  10
ENDBRANCH   8   9
ENDBRANCH   7   8
ENDBRANCH   6   7
ENDBRANCH   5   6
ENDBRANCH   4   5
ENDBRANCH   3   4
ENDBRANCH   2   3
ENDBRANCH   1   2
BRANCH   1  17
ATOM     17  C   UNL     1      62.821  28.090  61.682  1.00  0.00     0.000 C 
BRANCH  17  18
ATOM     18  C   UNL     1      62.039  27.177  60.724  1.00  0.00     0.000 C 
BRANCH  18  19
ATOM     19  C   UNL     1      61.669  27.884  59.409  1.00  0.00     0.000 C 
BRANCH  19  20
ATOM     20  C   UNL     1      60.149  27.929  59.172  1.00  0.00     0.000 C 
BRANCH  20  21
ATOM     21  C   UNL     1      59.713  29.138  58.326  1.00  0.00     0.000 C 
BRANCH  21  22
ATOM     22  C   UNL     1      60.835  30.148  58.017  1.00  0.00    -0.000 C 
BRANCH  22  23
ATOM     23  C   UNL     1      60.771  31.403  58.904  1.00  0.00    -0.000 C 
BRANCH  23  24
ATOM     24  C   UNL     1      61.604  32.566  58.346  1.00  0.00    -0.000 C 
BRANCH  24  25
ATOM     25  C   UNL     1      61.040  33.941  58.745  1.00  0.00    -0.000 C 
BRANCH  25  26
ATOM     26  C   UNL     1      62.100  35.052  58.682  1.00  0.00    -0.000 C 
BRANCH  26  27
ATOM     27  C   UNL     1      62.832  35.247  60.021  1.00  0.00    -0.000 C 
BRANCH  27  28
ATOM     28  C   UNL     1      64.219  34.580  60.047  1.00  0.00    -0.000 C 
BRANCH  28  29
ATOM     29  C   UNL     1      64.927  34.614  61.414  1.00  0.00    -0.003 C 
ATOM     30  C   UNL     1      64.526  35.819  62.264  1.00  0.00     0.004 C 
ENDBRANCH  28  29
ENDBRANCH  27  28
ENDBRANCH  26  27
ENDBRANCH  25  26
ENDBRANCH  24  25
ENDBRANCH  23  24
ENDBRANCH  22  23
ENDBRANCH  21  22
ENDBRANCH  20  21
ENDBRANCH  19  20
ENDBRANCH  18  19
ENDBRANCH  17  18
ENDBRANCH   1  17
TORSDOF 26
ENDMDL
MODEL 4
REMARK VINA RESULT:    -2.830      3.278      5.776
REMARK INTER + INTRA:         -12.180
REMARK INTER:                  -6.967
REMARK INTRA:                  -5.213
REMARK UNBOUND:                -5.048
REMARK SMILES CCCCCCCCCCCCCCCCCCCCCCCCCCCC(=O)[O-]
REMARK SMILES IDX 15 1 16 2 17 3 18 4 19 5 20 6 21 7 22 8 23 9 24 10 25 11
REMARK SMILES IDX 26 12 27 13 28 14 29 15 30 16 14 17 13 18 12 19 11 20 10 21
REMARK SMILES IDX 9 22 8 23 7 24 6 25 5 26 4 27 3 28 2 29 1 30
REMARK H PARENT
REMARK Flexibility Score: inf
ROOT
ATOM      1  C   UNL     1      65.734  30.435  60.242  1.00  0.00     0.000 C 
ENDROOT
BRANCH   1   2
ATOM      2  C   UNL     1      66.490  30.902  58.985  1.00  0.00     0.000 C 
BRANCH   2   3
ATOM      3  C   UNL     1      66.115  30.161  57.688  1.00  0.00     0.000 C 
BRANCH   3   4
ATOM      4  C   UNL     1      64.631  29.758  57.641  1.00  0.00     0.000 C 
BRANCH   4   5
ATOM      5  C   UNL     1      63.732  30.832  57.001  1.00  0.00     0.000 C 
BRANCH   5   6
ATOM      6  C   UNL     1      62.267  30.841  57.477  1.00  0.00     0.000 C 
BRANCH   6   7
ATOM      7  C   UNL     1      62.129  30.774  59.008  1.00  0.00     0.000 C 
BRANCH   7   8
ATOM      8  C   UNL     1      61.372  29.521  59.483  1.00  0.00     0.000 C 
BRANCH   8   9
ATOM      9  C   UNL     1      61.519  29.196  60.983  1.00  0.00     0.000 C 
BRANCH   9  10
ATOM     10  C   UNL     1      62.845  28.513  61.377  1.00  0.00     0.000 C 
BRANCH  10  11
ATOM     11  C   UNL     1      63.399  27.524  60.336  1.00  0.00     0.000 C 
BRANCH  11  12
ATOM     12  C   UNL     1      64.750  26.914  60.751  1.00  0.00     0.006 C 
BRANCH  12  13
ATOM     13  C   UNL     1      65.615  26.537  59.541  1.00  0.00     0.053 C 
BRANCH  13  14
ATOM     14  C   UNL     1      67.014  27.059  59.663  1.00  0.00     0.041 C 
ATOM     15  O   UNL     1      67.435  27.495  60.767  1.00  0.00    -0.550 OA
ATOM     16  O   UNL     1      67.855  27.060  58.557  1.00  0.00    -0.550 OA
ENDBRANCH  13  14
ENDBRANCH  12  13
ENDBRANCH  11  12
ENDBRANCH  10  11
ENDBRANCH   9  10
ENDBRANCH   8   9
ENDBRANCH   7   8
ENDBRANCH   6   7
ENDBRANCH   5   6
ENDBRANCH   4   5
ENDBRANCH   3   4
ENDBRANCH   2   3
ENDBRANCH   1   2
BRANCH   1  17
ATOM     17  C   UNL     1      65.062  31.591  60.998  1.00  0.00     0.000 C 
BRANCH  17  18
ATOM     18  C   UNL     1      64.994  32.856  60.129  1.00  0.00     0.000 C 
BRANCH  18  19
ATOM     19  C   UNL     1      64.813  34.135  60.963  1.00  0.00     0.000 C 
BRANCH  19  20
ATOM     20  C   UNL     1      63.732  35.067  60.387  1.00  0.00     0.000 C 
BRANCH  20  21
ATOM     21  C   UNL     1      62.768  34.344  59.429  1.00  0.00     0.000 C 
BRANCH  21  22
ATOM     22  C   UNL     1      63.095  34.517  57.933  1.00  0.00    -0.000 C 
BRANCH  22  23
ATOM     23  C   UNL     1      61.897  35.029  57.115  1.00  0.00    -0.000 C 
BRANCH  23  24
ATOM     24  C   UNL     1      61.702  34.254  55.803  1.00  0.00    -0.000 C 
BRANCH  24  25
ATOM     25  C   UNL     1      60.275  34.390  55.244  1.00  0.00    -0.000 C 
BRANCH  25  26
ATOM     26  C   UNL     1      59.389  35.300  56.110  1.00  0.00    -0.000 C 
BRANCH  26  27
ATOM     27  C   UNL     1      58.193  34.552  56.721  1.00  0.00    -0.000 C 
BRANCH  27  28
ATOM     28  C   UNL     1      58.394  34.216  58.209  1.00  0.00    -0.000 C 
BRANCH  28  29
ATOM     29  C   UNL     1      59.216  32.943  58.479  1.00  0.00    -0.003 C 
ATOM     30  C   UNL     1      58.729  31.737  57.678  1.00  0.00     0.004 C 
ENDBRANCH  28  29
ENDBRANCH  27  28
ENDBRANCH  26  27
ENDBRANCH  25  26
ENDBRANCH  24  25
ENDBRANCH  23  24
ENDBRANCH  22  23
ENDBRANCH  21  22
ENDBRANCH  20  21
ENDBRANCH  19  20
ENDBRANCH  18  19
ENDBRANCH  17  18
ENDBRANCH   1  17
TORSDOF 26
ENDMDL
MODEL 5
REMARK VINA RESULT:    -2.820      3.407      8.097
REMARK INTER + INTRA:         -12.154
REMARK INTER:                  -7.610
REMARK INTRA:                  -4.543
REMARK UNBOUND:                -5.048
REMARK SMILES CCCCCCCCCCCCCCCCCCCCCCCCCCCC(=O)[O-]
REMARK SMILES IDX 15 1 16 2 17 3 18 4 19 5 20 6 21 7 22 8 23 9 24 10 25 11
REMARK SMILES IDX 26 12 27 13 28 14 29 15 30 16 14 17 13 18 12 19 11 20 10 21
REMARK SMILES IDX 9 22 8 23 7 24 6 25 5 26 4 27 3 28 2 29 1 30
REMARK H PARENT
REMARK Flexibility Score: inf
ROOT
ATOM      1  C   UNL     1      60.567  30.983  58.746  1.00  0.00     0.000 C 
ENDROOT
BRANCH   1   2
ATOM      2  C   UNL     1      60.604  32.522  58.708  1.00  0.00     0.000 C 
BRANCH   2   3
ATOM      3  C   UNL     1      61.821  33.125  57.982  1.00  0.00     0.000 C 
BRANCH   3   4
ATOM      4  C   UNL     1      61.589  34.579  57.538  1.00  0.00     0.000 C 
BRANCH   4   5
ATOM      5  C   UNL     1      62.321  35.605  58.422  1.00  0.00     0.000 C 
BRANCH   5   6
ATOM      6  C   UNL     1      61.814  35.714  59.873  1.00  0.00     0.000 C 
BRANCH   6   7
ATOM      7  C   UNL     1      62.950  35.733  60.909  1.00  0.00     0.000 C 
BRANCH   7   8
ATOM      8  C   UNL     1      64.279  35.200  60.345  1.00  0.00     0.000 C 
BRANCH   8   9
ATOM      9  C   UNL     1      64.802  33.910  61.009  1.00  0.00     0.000 C 
BRANCH   9  10
ATOM     10  C   UNL     1      65.000  32.715  60.052  1.00  0.00     0.000 C 
BRANCH  10  11
ATOM     11  C   UNL     1      65.028  31.336  60.736  1.00  0.00     0.000 C 
BRANCH  11  12
ATOM     12  C   UNL     1      66.205  30.462  60.267  1.00  0.00     0.006 C 
BRANCH  12  13
ATOM     13  C   UNL     1      66.080  30.060  58.792  1.00  0.00     0.053 C 
BRANCH  13  14
ATOM     14  C   UNL     1      67.247  30.529  57.978  1.00  0.00     0.041 C 
ATOM     15  O   UNL     1      67.158  31.578  57.286  1.00  0.00    -0.550 OA
ATOM     16  O   UNL     1      68.435  29.809  57.986  1.00  0.00    -0.550 OA
ENDBRANCH  13  14
ENDBRANCH  12  13
ENDBRANCH  11  12
ENDBRANCH  10  11
ENDBRANCH   9  10
ENDBRANCH   8   9
ENDBRANCH   7   8
ENDBRANCH   6   7
ENDBRANCH   5   6
ENDBRANCH   4   5
ENDBRANCH   3   4
ENDBRANCH   2   3
ENDBRANCH   1   2
BRANCH   1  17
ATOM     17  C   UNL     1      61.821  30.340  58.135  1.00  0.00     0.000 C 
BRANCH  17  18
ATOM     18  C   UNL     1      62.437  29.309  59.094  1.00  0.00     0.000 C 
BRANCH  18  19
ATOM     19  C   UNL     1      61.866  29.415  60.517  1.00  0.00     0.000 C 
BRANCH  19  20
ATOM     20  C   UNL     1      62.528  28.426  61.493  1.00  0.00     0.000 C 
BRANCH  20  21
ATOM     21  C   UNL     1      63.903  27.935  61.005  1.00  0.00     0.000 C 
BRANCH  21  22
ATOM     22  C   UNL     1      64.084  26.405  61.019  1.00  0.00    -0.000 C 
BRANCH  22  23
ATOM     23  C   UNL     1      62.961  25.664  60.273  1.00  0.00    -0.000 C 
BRANCH  23  24
ATOM     24  C   UNL     1      62.322  24.553  61.119  1.00  0.00    -0.000 C 
BRANCH  24  25
ATOM     25  C   UNL     1      62.424  24.829  62.630  1.00  0.00    -0.000 C 
BRANCH  25  26
ATOM     26  C   UNL     1      61.122  25.400  63.212  1.00  0.00    -0.000 C 
BRANCH  26  27
ATOM     27  C   UNL     1      59.953  25.344  62.213  1.00  0.00    -0.000 C 
BRANCH  27  28
ATOM     28  C   UNL     1      59.356  26.731  61.914  1.00  0.00    -0.000 C 
BRANCH  28  29
ATOM     29  C   UNL     1      58.541  26.815  60.610  1.00  0.00    -0.003 C 
ATOM     30  C   UNL     1      59.417  26.960  59.367  1.00  0.00     0.004 C 
ENDBRANCH  28  29
ENDBRANCH  27  28
ENDBRANCH  26  27
ENDBRANCH  25  26
ENDBRANCH  24  25
ENDBRANCH  23  24
ENDBRANCH  22  23
ENDBRANCH  21  22
ENDBRANCH  20  21
ENDBRANCH  19  20
ENDBRANCH  18  19
ENDBRANCH  17  18
ENDBRANCH   1  17
TORSDOF 26
ENDMDL
MODEL 6
REMARK VINA RESULT:    -2.800      4.643      7.637
REMARK INTER + INTRA:         -12.105
REMARK INTER:                  -7.974
REMARK INTRA:                  -4.130
REMARK UNBOUND:                -5.048
REMARK SMILES CCCCCCCCCCCCCCCCCCCCCCCCCCCC(=O)[O-]
REMARK SMILES IDX 15 1 16 2 17 3 18 4 19 5 20 6 21 7 22 8 23 9 24 10 25 11
REMARK SMILES IDX 26 12 27 13 28 14 29 15 30 16 14 17 13 18 12 19 11 20 10 21
REMARK SMILES IDX 9 22 8 23 7 24 6 25 5 26 4 27 3 28 2 29 1 30
REMARK H PARENT
REMARK Flexibility Score: inf
ROOT
ATOM      1  C   UNL     1      65.602  29.173  61.013  1.00  0.00     0.000 C 
ENDROOT
BRANCH   1   2
ATOM      2  C   UNL     1      66.655  28.103  60.675  1.00  0.00     0.000 C 
BRANCH   2   3
ATOM      3  C   UNL     1      66.125  26.901  59.871  1.00  0.00     0.000 C 
BRANCH   3   4
ATOM      4  C   UNL     1      65.483  27.316  58.536  1.00  0.00     0.000 C 
BRANCH   4   5
ATOM      5  C   UNL     1      66.373  27.010  57.316  1.00  0.00     0.000 C 
BRANCH   5   6
ATOM      6  C   UNL     1      66.681  28.211  56.401  1.00  0.00     0.000 C 
BRANCH   6   7
ATOM      7  C   UNL     1      65.964  29.500  56.837  1.00  0.00     0.000 C 
BRANCH   7   8
ATOM      8  C   UNL     1      66.940  30.655  57.126  1.00  0.00     0.000 C 
BRANCH   8   9
ATOM      9  C   UNL     1      68.434  30.279  57.071  1.00  0.00     0.000 C 
BRANCH   9  10
ATOM     10  C   UNL     1      69.155  30.256  58.435  1.00  0.00     0.000 C 
BRANCH  10  11
ATOM     11  C   UNL     1      70.678  30.052  58.360  1.00  0.00     0.000 C 
BRANCH  11  12
ATOM     12  C   UNL     1      71.462  31.105  59.164  1.00  0.00     0.006 C 
BRANCH  12  13
ATOM     13  C   UNL     1      72.694  30.509  59.858  1.00  0.00     0.053 C 
BRANCH  13  14
ATOM     14  C   UNL     1      72.379  30.003  61.232  1.00  0.00     0.041 C 
ATOM     15  O   UNL     1      71.212  30.109  61.696  1.00  0.00    -0.550 OA
ATOM     16  O   UNL     1      73.373  29.410  62.000  1.00  0.00    -0.550 OA
ENDBRANCH  13  14
ENDBRANCH  12  13
ENDBRANCH  11  12
ENDBRANCH  10  11
ENDBRANCH   9  10
ENDBRANCH   8   9
ENDBRANCH   7   8
ENDBRANCH   6   7
ENDBRANCH   5   6
ENDBRANCH   4   5
ENDBRANCH   3   4
ENDBRANCH   2   3
ENDBRANCH   1   2
BRANCH   1  17
ATOM     17  C   UNL     1      65.905  30.534  60.368  1.00  0.00     0.000 C 
BRANCH  17  18
ATOM     18  C   UNL     1      65.062  31.650  61.006  1.00  0.00     0.000 C 
BRANCH  18  19
ATOM     19  C   UNL     1      65.107  32.956  60.198  1.00  0.00     0.000 C 
BRANCH  19  20
ATOM     20  C   UNL     1      64.823  34.196  61.064  1.00  0.00     0.000 C 
BRANCH  20  21
ATOM     21  C   UNL     1      63.590  34.985  60.592  1.00  0.00     0.000 C 
BRANCH  21  22
ATOM     22  C   UNL     1      63.081  34.606  59.188  1.00  0.00    -0.000 C 
BRANCH  22  23
ATOM     23  C   UNL     1      61.546  34.567  59.099  1.00  0.00    -0.000 C 
BRANCH  23  24
ATOM     24  C   UNL     1      61.022  33.275  58.454  1.00  0.00    -0.000 C 
BRANCH  24  25
ATOM     25  C   UNL     1      62.084  32.161  58.421  1.00  0.00    -0.000 C 
BRANCH  25  26
ATOM     26  C   UNL     1      61.496  30.780  58.749  1.00  0.00    -0.000 C 
BRANCH  26  27
ATOM     27  C   UNL     1      62.582  29.714  58.975  1.00  0.00    -0.000 C 
BRANCH  27  28
ATOM     28  C   UNL     1      62.034  28.428  59.619  1.00  0.00    -0.000 C 
BRANCH  28  29
ATOM     29  C   UNL     1      62.083  28.405  61.158  1.00  0.00    -0.003 C 
ATOM     30  C   UNL     1      62.675  27.113  61.717  1.00  0.00     0.004 C 
ENDBRANCH  28  29
ENDBRANCH  27  28
ENDBRANCH  26  27
ENDBRANCH  25  26
ENDBRANCH  24  25
ENDBRANCH  23  24
ENDBRANCH  22  23
ENDBRANCH  21  22
ENDBRANCH  20  21
ENDBRANCH  19  20
ENDBRANCH  18  19
ENDBRANCH  17  18
ENDBRANCH   1  17
TORSDOF 26
ENDMDL
MODEL 7
REMARK VINA RESULT:    -2.775      2.215      5.677
REMARK INTER + INTRA:         -12.040
REMARK INTER:                  -6.367
REMARK INTRA:                  -5.673
REMARK UNBOUND:                -5.048
REMARK SMILES CCCCCCCCCCCCCCCCCCCCCCCCCCCC(=O)[O-]
REMARK SMILES IDX 15 1 16 2 17 3 18 4 19 5 20 6 21 7 22 8 23 9 24 10 25 11
REMARK SMILES IDX 26 12 27 13 28 14 29 15 30 16 14 17 13 18 12 19 11 20 10 21
REMARK SMILES IDX 9 22 8 23 7 24 6 25 5 26 4 27 3 28 2 29 1 30
REMARK H PARENT
REMARK Flexibility Score: inf
ROOT
ATOM      1  C   UNL     1      65.778  27.759  60.203  1.00  0.00     0.000 C 
ENDROOT
BRANCH   1   2
ATOM      2  C   UNL     1      66.040  29.274  60.282  1.00  0.00     0.000 C 
BRANCH   2   3
ATOM      3  C   UNL     1      64.969  30.080  61.040  1.00  0.00     0.000 C 
BRANCH   3   4
ATOM      4  C   UNL     1      65.116  31.599  60.843  1.00  0.00     0.000 C 
BRANCH   4   5
ATOM      5  C   UNL     1      65.607  31.981  59.434  1.00  0.00     0.000 C 
BRANCH   5   6
ATOM      6  C   UNL     1      64.687  32.933  58.646  1.00  0.00     0.000 C 
BRANCH   6   7
ATOM      7  C   UNL     1      63.228  32.903  59.133  1.00  0.00     0.000 C 
BRANCH   7   8
ATOM      8  C   UNL     1      62.571  34.295  59.132  1.00  0.00     0.000 C 
BRANCH   8   9
ATOM      9  C   UNL     1      61.073  34.313  58.771  1.00  0.00     0.000 C 
BRANCH   9  10
ATOM     10  C   UNL     1      60.616  33.190  57.816  1.00  0.00     0.000 C 
BRANCH  10  11
ATOM     11  C   UNL     1      59.635  32.176  58.431  1.00  0.00     0.000 C 
BRANCH  11  12
ATOM     12  C   UNL     1      58.906  31.332  57.370  1.00  0.00     0.006 C 
BRANCH  12  13
ATOM     13  C   UNL     1      58.594  29.915  57.869  1.00  0.00     0.053 C 
BRANCH  13  14
ATOM     14  C   UNL     1      57.129  29.607  57.816  1.00  0.00     0.041 C 
ATOM     15  O   UNL     1      56.681  28.556  58.348  1.00  0.00    -0.550 OA
ATOM     16  O   UNL     1      56.256  30.483  57.184  1.00  0.00    -0.550 OA
ENDBRANCH  13  14
ENDBRANCH  12  13
ENDBRANCH  11  12
ENDBRANCH  10  11
ENDBRANCH   9  10
ENDBRANCH   8   9
ENDBRANCH   7   8
ENDBRANCH   6   7
ENDBRANCH   5   6
ENDBRANCH   4   5
ENDBRANCH   3   4
ENDBRANCH   2   3
ENDBRANCH   1   2
BRANCH   1  17
ATOM     17  C   UNL     1      64.483  27.340  60.915  1.00  0.00     0.000 C 
BRANCH  17  18
ATOM     18  C   UNL     1      64.109  25.888  60.574  1.00  0.00     0.000 C 
BRANCH  18  19
ATOM     19  C   UNL     1      62.659  25.549  60.956  1.00  0.00     0.000 C 
BRANCH  19  20
ATOM     20  C   UNL     1      62.022  26.617  61.861  1.00  0.00     0.000 C 
BRANCH  20  21
ATOM     21  C   UNL     1      60.524  26.824  61.578  1.00  0.00     0.000 C 
BRANCH  21  22
ATOM     22  C   UNL     1      60.202  27.996  60.631  1.00  0.00    -0.000 C 
BRANCH  22  23
ATOM     23  C   UNL     1      61.232  29.135  60.720  1.00  0.00    -0.000 C 
BRANCH  23  24
ATOM     24  C   UNL     1      61.912  29.424  59.373  1.00  0.00    -0.000 C 
BRANCH  24  25
ATOM     25  C   UNL     1      61.911  28.203  58.437  1.00  0.00    -0.000 C 
BRANCH  25  26
ATOM     26  C   UNL     1      62.800  28.408  57.201  1.00  0.00    -0.000 C 
BRANCH  26  27
ATOM     27  C   UNL     1      63.670  29.673  57.303  1.00  0.00    -0.000 C 
BRANCH  27  28
ATOM     28  C   UNL     1      63.914  30.342  55.938  1.00  0.00    -0.000 C 
BRANCH  28  29
ATOM     29  C   UNL     1      62.794  31.292  55.475  1.00  0.00    -0.003 C 
ATOM     30  C   UNL     1      63.271  32.731  55.288  1.00  0.00     0.004 C 
ENDBRANCH  28  29
ENDBRANCH  27  28
ENDBRANCH  26  27
ENDBRANCH  25  26
ENDBRANCH  24  25
ENDBRANCH  23  24
ENDBRANCH  22  23
ENDBRANCH  21  22
ENDBRANCH  20  21
ENDBRANCH  19  20
ENDBRANCH  18  19
ENDBRANCH  17  18
ENDBRANCH   1  17
TORSDOF 26
ENDMDL
MODEL 8
REMARK VINA RESULT:    -2.750      3.065      7.058
REMARK INTER + INTRA:         -11.978
REMARK INTER:                  -6.435
REMARK INTRA:                  -5.543
REMARK UNBOUND:                -5.048
REMARK SMILES CCCCCCCCCCCCCCCCCCCCCCCCCCCC(=O)[O-]
REMARK SMILES IDX 15 1 16 2 17 3 18 4 19 5 20 6 21 7 22 8 23 9 24 10 25 11
REMARK SMILES IDX 26 12 27 13 28 14 29 15 30 16 14 17 13 18 12 19 11 20 10 21
REMARK SMILES IDX 9 22 8 23 7 24 6 25 5 26 4 27 3 28 2 29 1 30
REMARK H PARENT
REMARK Flexibility Score: inf
ROOT
ATOM      1  C   UNL     1      65.039  31.092  60.199  1.00  0.00     0.000 C 
ENDROOT
BRANCH   1   2
ATOM      2  C   UNL     1      65.067  32.583  60.584  1.00  0.00     0.000 C 
BRANCH   2   3
ATOM      3  C   UNL     1      64.080  33.473  59.807  1.00  0.00     0.000 C 
BRANCH   3   4
ATOM      4  C   UNL     1      63.678  32.872  58.449  1.00  0.00     0.000 C 
BRANCH   4   5
ATOM      5  C   UNL     1      62.162  32.631  58.319  1.00  0.00     0.000 C 
BRANCH   5   6
ATOM      6  C   UNL     1      61.745  31.566  57.287  1.00  0.00     0.000 C 
BRANCH   6   7
ATOM      7  C   UNL     1      62.941  30.926  56.564  1.00  0.00     0.000 C 
BRANCH   7   8
ATOM      8  C   UNL     1      62.718  29.436  56.248  1.00  0.00     0.000 C 
BRANCH   8   9
ATOM      9  C   UNL     1      63.976  28.550  56.344  1.00  0.00     0.000 C 
BRANCH   9  10
ATOM     10  C   UNL     1      64.973  28.947  57.452  1.00  0.00     0.000 C 
BRANCH  10  11
ATOM     11  C   UNL     1      66.096  27.926  57.710  1.00  0.00     0.000 C 
BRANCH  11  12
ATOM     12  C   UNL     1      65.692  26.838  58.721  1.00  0.00     0.006 C 
BRANCH  12  13
ATOM     13  C   UNL     1      66.251  27.111  60.124  1.00  0.00     0.053 C 
BRANCH  13  14
ATOM     14  C   UNL     1      67.702  27.483  60.091  1.00  0.00     0.041 C 
ATOM     15  O   UNL     1      68.573  26.618  59.807  1.00  0.00    -0.550 OA
ATOM     16  O   UNL     1      68.093  28.786  60.370  1.00  0.00    -0.550 OA
ENDBRANCH  13  14
ENDBRANCH  12  13
ENDBRANCH  11  12
ENDBRANCH  10  11
ENDBRANCH   9  10
ENDBRANCH   8   9
ENDBRANCH   7   8
ENDBRANCH   6   7
ENDBRANCH   5   6
ENDBRANCH   4   5
ENDBRANCH   3   4
ENDBRANCH   2   3
ENDBRANCH   1   2
BRANCH   1  17
ATOM     17  C   UNL     1      64.938  30.162  61.417  1.00  0.00     0.000 C 
BRANCH  17  18
ATOM     18  C   UNL     1      63.582  29.441  61.452  1.00  0.00     0.000 C 
BRANCH  18  19
ATOM     19  C   UNL     1      62.821  29.554  60.120  1.00  0.00     0.000 C 
BRANCH  19  20
ATOM     20  C   UNL     1      61.327  29.213  60.264  1.00  0.00     0.000 C 
BRANCH  20  21
ATOM     21  C   UNL     1      60.903  28.012  59.399  1.00  0.00     0.000 C 
BRANCH  21  22
ATOM     22  C   UNL     1      62.046  27.045  59.036  1.00  0.00    -0.000 C 
BRANCH  22  23
ATOM     23  C   UNL     1      62.004  25.738  59.847  1.00  0.00    -0.000 C 
BRANCH  23  24
ATOM     24  C   UNL     1      62.947  25.763  61.059  1.00  0.00    -0.000 C 
BRANCH  24  25
ATOM     25  C   UNL     1      62.212  26.086  62.372  1.00  0.00    -0.000 C 
BRANCH  25  26
ATOM     26  C   UNL     1      62.254  24.919  63.371  1.00  0.00    -0.000 C 
BRANCH  26  27
ATOM     27  C   UNL     1      60.857  24.358  63.683  1.00  0.00    -0.000 C 
BRANCH  27  28
ATOM     28  C   UNL     1      60.054  24.009  62.417  1.00  0.00    -0.000 C 
BRANCH  28  29
ATOM     29  C   UNL     1      58.660  24.656  62.337  1.00  0.00    -0.003 C 
ATOM     30  C   UNL     1      58.647  25.949  61.523  1.00  0.00     0.004 C 
ENDBRANCH  28  29
ENDBRANCH  27  28
ENDBRANCH  26  27
ENDBRANCH  25  26
ENDBRANCH  24  25
ENDBRANCH  23  24
ENDBRANCH  22  23
ENDBRANCH  21  22
ENDBRANCH  20  21
ENDBRANCH  19  20
ENDBRANCH  18  19
ENDBRANCH  17  18
ENDBRANCH   1  17
TORSDOF 26
ENDMDL
MODEL 9
REMARK VINA RESULT:    -2.745      8.888     11.760
REMARK INTER + INTRA:         -11.965
REMARK INTER:                  -6.454
REMARK INTRA:                  -5.511
REMARK UNBOUND:                -5.048
REMARK SMILES CCCCCCCCCCCCCCCCCCCCCCCCCCCC(=O)[O-]
REMARK SMILES IDX 15 1 16 2 17 3 18 4 19 5 20 6 21 7 22 8 23 9 24 10 25 11
REMARK SMILES IDX 26 12 27 13 28 14 29 15 30 16 14 17 13 18 12 19 11 20 10 21
REMARK SMILES IDX 9 22 8 23 7 24 6 25 5 26 4 27 3 28 2 29 1 30
REMARK H PARENT
REMARK Flexibility Score: inf
ROOT
ATOM      1  C   UNL     1      59.980  26.298  49.754  1.00  0.00     0.000 C 
ENDROOT
BRANCH   1   2
ATOM      2  C   UNL     1      61.116  27.253  49.345  1.00  0.00     0.000 C 
BRANCH   2   3
ATOM      3  C   UNL     1      60.962  28.700  49.850  1.00  0.00     0.000 C 
BRANCH   3   4
ATOM      4  C   UNL     1      61.523  28.898  51.268  1.00  0.00     0.000 C 
BRANCH   4   5
ATOM      5  C   UNL     1      63.050  28.712  51.346  1.00  0.00     0.000 C 
BRANCH   5   6
ATOM      6  C   UNL     1      63.596  28.265  52.716  1.00  0.00     0.000 C 
BRANCH   6   7
ATOM      7  C   UNL     1      63.381  29.311  53.822  1.00  0.00     0.000 C 
BRANCH   7   8
ATOM      8  C   UNL     1      64.563  30.288  53.956  1.00  0.00     0.000 C 
BRANCH   8   9
ATOM      9  C   UNL     1      64.358  31.660  53.284  1.00  0.00     0.000 C 
BRANCH   9  10
ATOM     10  C   UNL     1      62.888  32.105  53.136  1.00  0.00     0.000 C 
BRANCH  10  11
ATOM     11  C   UNL     1      62.437  32.380  51.690  1.00  0.00     0.000 C 
BRANCH  11  12
ATOM     12  C   UNL     1      63.604  32.362  50.687  1.00  0.00     0.006 C 
BRANCH  12  13
ATOM     13  C   UNL     1      63.121  32.427  49.232  1.00  0.00     0.053 C 
BRANCH  13  14
ATOM     14  C   UNL     1      62.991  33.836  48.742  1.00  0.00     0.041 C 
ATOM     15  O   UNL     1      62.355  34.688  49.419  1.00  0.00    -0.550 OA
ATOM     16  O   UNL     1      63.575  34.212  47.539  1.00  0.00    -0.550 OA
ENDBRANCH  13  14
ENDBRANCH  12  13
ENDBRANCH  11  12
ENDBRANCH  10  11
ENDBRANCH   9  10
ENDBRANCH   8   9
ENDBRANCH   7   8
ENDBRANCH   6   7
ENDBRANCH   5   6
ENDBRANCH   4   5
ENDBRANCH   3   4
ENDBRANCH   2   3
ENDBRANCH   1   2
BRANCH   1  17
ATOM     17  C   UNL     1      60.387  25.332  50.877  1.00  0.00     0.000 C 
BRANCH  17  18
ATOM     18  C   UNL     1      60.710  23.938  50.317  1.00  0.00     0.000 C 
BRANCH  18  19
ATOM     19  C   UNL     1      62.207  23.601  50.405  1.00  0.00     0.000 C 
BRANCH  19  20
ATOM     20  C   UNL     1      62.983  24.590  51.292  1.00  0.00     0.000 C 
BRANCH  20  21
ATOM     21  C   UNL     1      64.397  24.886  50.761  1.00  0.00     0.000 C 
BRANCH  21  22
ATOM     22  C   UNL     1      64.472  26.027  49.729  1.00  0.00    -0.000 C 
BRANCH  22  23
ATOM     23  C   UNL     1      65.759  25.987  48.886  1.00  0.00    -0.000 C 
BRANCH  23  24
ATOM     24  C   UNL     1      65.726  26.972  47.708  1.00  0.00    -0.000 C 
BRANCH  24  25
ATOM     25  C   UNL     1      64.474  27.868  47.723  1.00  0.00    -0.000 C 
BRANCH  25  26
ATOM     26  C   UNL     1      64.789  29.312  48.140  1.00  0.00    -0.000 C 
BRANCH  26  27
ATOM     27  C   UNL     1      66.259  29.500  48.554  1.00  0.00    -0.000 C 
BRANCH  27  28
ATOM     28  C   UNL     1      66.419  30.372  49.812  1.00  0.00    -0.000 C 
BRANCH  28  29
ATOM     29  C   UNL     1      66.684  29.590  51.111  1.00  0.00    -0.003 C 
ATOM     30  C   UNL     1      67.561  28.357  50.898  1.00  0.00     0.004 C 
ENDBRANCH  28  29
ENDBRANCH  27  28
ENDBRANCH  26  27
ENDBRANCH  25  26
ENDBRANCH  24  25
ENDBRANCH  23  24
ENDBRANCH  22  23
ENDBRANCH  21  22
ENDBRANCH  20  21
ENDBRANCH  19  20
ENDBRANCH  18  19
ENDBRANCH  17  18
ENDBRANCH   1  17
TORSDOF 26
ENDMDL
