MODEL 1
REMARK VINA RESULT:    -5.310      0.000      0.000
REMARK INTER + INTRA:          -8.657
REMARK INTER:                  -8.104
REMARK INTRA:                  -0.553
REMARK UNBOUND:                -0.553
REMARK SMILES CCCCCCCCCCC(=O)[O-]
REMARK SMILES IDX 7 1 8 2 9 3 10 4 11 5 12 6 13 7 6 8 5 9 4 10 3 11 2 12 1 13
REMARK H PARENT
REMARK Flexibility Score: inf
ROOT
ATOM      1  C   UNL     1     -13.344   2.652 -15.249  1.00  0.00     0.000 C 
ENDROOT
BRANCH   1   2
ATOM      2  C   UNL     1     -13.049   3.435 -16.541  1.00  0.00     0.000 C 
BRANCH   2   3
ATOM      3  C   UNL     1     -14.280   3.527 -17.467  1.00  0.00     0.006 C 
BRANCH   3   4
ATOM      4  C   UNL     1     -14.055   2.895 -18.850  1.00  0.00     0.053 C 
BRANCH   4   5
ATOM      5  C   UNL     1     -14.552   1.485 -18.921  1.00  0.00     0.041 C 
ATOM      6  O   UNL     1     -15.553   1.201 -19.630  1.00  0.00    -0.550 OA
ATOM      7  O   UNL     1     -13.893   0.480 -18.226  1.00  0.00    -0.550 OA
ENDBRANCH   4   5
ENDBRANCH   3   4
ENDBRANCH   2   3
ENDBRANCH   1   2
BRANCH   1   8
ATOM      8  C   UNL     1     -14.825   2.258 -15.121  1.00  0.00     0.000 C 
BRANCH   8   9
ATOM      9  C   UNL     1     -15.431   2.656 -13.767  1.00  0.00    -0.000 C 
BRANCH   9  10
ATOM     10  C   UNL     1     -15.252   1.532 -12.736  1.00  0.00    -0.000 C 
BRANCH  10  11
ATOM     11  C   UNL     1     -15.819   1.893 -11.351  1.00  0.00    -0.000 C 
BRANCH  11  12
ATOM     12  C   UNL     1     -17.262   1.416 -11.099  1.00  0.00    -0.003 C 
ATOM     13  C   UNL     1     -17.736   0.383 -12.119  1.00  0.00     0.004 C 
ENDBRANCH  11  12
ENDBRANCH  10  11
ENDBRANCH   9  10
ENDBRANCH   8   9
ENDBRANCH   1   8
TORSDOF 9
ENDMDL
MODEL 2
REMARK VINA RESULT:    -5.296      1.240      1.794
REMARK INTER + INTRA:          -8.635
REMARK INTER:                  -8.199
REMARK INTRA:                  -0.435
REMARK UNBOUND:                -0.553
REMARK SMILES CCCCCCCCCCC(=O)[O-]
REMARK SMILES IDX 7 1 8 2 9 3 10 4 11 5 12 6 13 7 6 8 5 9 4 10 3 11 2 12 1 13
REMARK H PARENT
REMARK Flexibility Score: inf
ROOT
ATOM      1  C   UNL     1     -13.407   3.752 -16.913  1.00  0.00     0.000 C 
ENDROOT
BRANCH   1   2
ATOM      2  C   UNL     1     -13.228   3.292 -18.372  1.00  0.00     0.000 C 
BRANCH   2   3
ATOM      3  C   UNL     1     -13.669   1.829 -18.585  1.00  0.00     0.006 C 
BRANCH   3   4
ATOM      4  C   UNL     1     -14.755   1.667 -19.660  1.00  0.00     0.053 C 
BRANCH   4   5
ATOM      5  C   UNL     1     -15.930   0.879 -19.171  1.00  0.00     0.041 C 
ATOM      6  O   UNL     1     -16.247  -0.201 -19.735  1.00  0.00    -0.550 OA
ATOM      7  O   UNL     1     -16.658   1.324 -18.076  1.00  0.00    -0.550 OA
ENDBRANCH   4   5
ENDBRANCH   3   4
ENDBRANCH   2   3
ENDBRANCH   1   2
BRANCH   1   8
ATOM      8  C   UNL     1     -13.552   2.574 -15.936  1.00  0.00     0.000 C 
BRANCH   8   9
ATOM      9  C   UNL     1     -14.882   2.600 -15.168  1.00  0.00    -0.000 C 
BRANCH   9  10
ATOM     10  C   UNL     1     -14.725   1.963 -13.779  1.00  0.00    -0.000 C 
BRANCH  10  11
ATOM     11  C   UNL     1     -15.668   2.578 -12.728  1.00  0.00    -0.000 C 
BRANCH  11  12
ATOM     12  C   UNL     1     -15.779   1.780 -11.415  1.00  0.00    -0.003 C 
ATOM     13  C   UNL     1     -17.222   1.593 -10.950  1.00  0.00     0.004 C 
ENDBRANCH  11  12
ENDBRANCH  10  11
ENDBRANCH   9  10
ENDBRANCH   8   9
ENDBRANCH   1   8
TORSDOF 9
ENDMDL
MODEL 3
REMARK VINA RESULT:    -5.280      2.957      5.451
REMARK INTER + INTRA:          -8.611
REMARK INTER:                  -7.743
REMARK INTRA:                  -0.868
REMARK UNBOUND:                -0.553
REMARK SMILES CCCCCCCCCCC(=O)[O-]
REMARK SMILES IDX 7 1 8 2 9 3 10 4 11 5 12 6 13 7 6 8 5 9 4 10 3 11 2 12 1 13
REMARK H PARENT
REMARK Flexibility Score: inf
ROOT
ATOM      1  C   UNL     1     -14.484   3.061 -17.740  1.00  0.00     0.000 C 
ENDROOT
BRANCH   1   2
ATOM      2  C   UNL     1     -13.212   3.458 -16.968  1.00  0.00     0.000 C 
BRANCH   2   3
ATOM      3  C   UNL     1     -13.225   2.946 -15.512  1.00  0.00     0.006 C 
BRANCH   3   4
ATOM      4  C   UNL     1     -14.495   2.159 -15.151  1.00  0.00     0.053 C 
BRANCH   4   5
ATOM      5  C   UNL     1     -14.781   2.179 -13.682  1.00  0.00     0.041 C 
ATOM      6  O   UNL     1     -15.241   3.219 -13.141  1.00  0.00    -0.550 OA
ATOM      7  O   UNL     1     -14.566   1.041 -12.915  1.00  0.00    -0.550 OA
ENDBRANCH   4   5
ENDBRANCH   3   4
ENDBRANCH   2   3
ENDBRANCH   1   2
BRANCH   1   8
ATOM      8  C   UNL     1     -14.184   2.162 -18.951  1.00  0.00     0.000 C 
BRANCH   8   9
ATOM      9  C   UNL     1     -13.857   0.716 -18.550  1.00  0.00    -0.000 C 
BRANCH   9  10
ATOM     10  C   UNL     1     -14.890  -0.260 -19.133  1.00  0.00    -0.000 C 
BRANCH  10  11
ATOM     11  C   UNL     1     -16.138   0.449 -19.689  1.00  0.00    -0.000 C 
BRANCH  11  12
ATOM     12  C   UNL     1     -17.448   0.131 -18.945  1.00  0.00    -0.003 C 
ATOM     13  C   UNL     1     -17.690   1.043 -17.744  1.00  0.00     0.004 C 
ENDBRANCH  11  12
ENDBRANCH  10  11
ENDBRANCH   9  10
ENDBRANCH   8   9
ENDBRANCH   1   8
TORSDOF 9
ENDMDL
MODEL 4
REMARK VINA RESULT:    -5.272      0.899      1.777
REMARK INTER + INTRA:          -8.599
REMARK INTER:                  -7.897
REMARK INTRA:                  -0.702
REMARK UNBOUND:                -0.553
REMARK SMILES CCCCCCCCCCC(=O)[O-]
REMARK SMILES IDX 7 1 8 2 9 3 10 4 11 5 12 6 13 7 6 8 5 9 4 10 3 11 2 12 1 13
REMARK H PARENT
REMARK Flexibility Score: inf
ROOT
ATOM      1  C   UNL     1     -14.691   2.098 -14.179  1.00  0.00     0.000 C 
ENDROOT
BRANCH   1   2
ATOM      2  C   UNL     1     -14.903   2.597 -15.620  1.00  0.00     0.000 C 
BRANCH   2   3
ATOM      3  C   UNL     1     -13.575   2.748 -16.391  1.00  0.00     0.006 C 
BRANCH   3   4
ATOM      4  C   UNL     1     -13.751   2.768 -17.918  1.00  0.00     0.053 C 
BRANCH   4   5
ATOM      5  C   UNL     1     -14.295   1.479 -18.447  1.00  0.00     0.041 C 
ATOM      6  O   UNL     1     -15.315   1.477 -19.185  1.00  0.00    -0.550 OA
ATOM      7  O   UNL     1     -13.659   0.281 -18.149  1.00  0.00    -0.550 OA
ENDBRANCH   4   5
ENDBRANCH   3   4
ENDBRANCH   2   3
ENDBRANCH   1   2
BRANCH   1   8
ATOM      8  C   UNL     1     -15.500   2.903 -13.149  1.00  0.00     0.000 C 
BRANCH   8   9
ATOM      9  C   UNL     1     -15.588   2.203 -11.785  1.00  0.00    -0.000 C 
BRANCH   9  10
ATOM     10  C   UNL     1     -17.051   1.933 -11.402  1.00  0.00    -0.000 C 
BRANCH  10  11
ATOM     11  C   UNL     1     -17.445   0.452 -11.548  1.00  0.00    -0.000 C 
BRANCH  11  12
ATOM     12  C   UNL     1     -18.127   0.093 -12.882  1.00  0.00    -0.003 C 
ATOM     13  C   UNL     1     -17.188  -0.603 -13.865  1.00  0.00     0.004 C 
ENDBRANCH  11  12
ENDBRANCH  10  11
ENDBRANCH   9  10
ENDBRANCH   8   9
ENDBRANCH   1   8
TORSDOF 9
ENDMDL
MODEL 5
REMARK VINA RESULT:    -5.224      1.835      3.421
REMARK INTER + INTRA:          -8.525
REMARK INTER:                  -7.547
REMARK INTRA:                  -0.978
REMARK UNBOUND:                -0.553
REMARK SMILES CCCCCCCCCCC(=O)[O-]
REMARK SMILES IDX 7 1 8 2 9 3 10 4 11 5 12 6 13 7 6 8 5 9 4 10 3 11 2 12 1 13
REMARK H PARENT
REMARK Flexibility Score: inf
ROOT
ATOM      1  C   UNL     1     -15.034   1.567 -12.825  1.00  0.00     0.000 C 
ENDROOT
BRANCH   1   2
ATOM      2  C   UNL     1     -15.483   2.683 -13.786  1.00  0.00     0.000 C 
BRANCH   2   3
ATOM      3  C   UNL     1     -15.078   2.397 -15.247  1.00  0.00     0.006 C 
BRANCH   3   4
ATOM      4  C   UNL     1     -13.598   2.688 -15.542  1.00  0.00     0.053 C 
BRANCH   4   5
ATOM      5  C   UNL     1     -13.342   2.931 -16.997  1.00  0.00     0.041 C 
ATOM      6  O   UNL     1     -12.875   4.034 -17.382  1.00  0.00    -0.550 OA
ATOM      7  O   UNL     1     -13.593   1.928 -17.924  1.00  0.00    -0.550 OA
ENDBRANCH   4   5
ENDBRANCH   3   4
ENDBRANCH   2   3
ENDBRANCH   1   2
BRANCH   1   8
ATOM      8  C   UNL     1     -15.881   1.515 -11.543  1.00  0.00     0.000 C 
BRANCH   8   9
ATOM      9  C   UNL     1     -17.342   1.124 -11.812  1.00  0.00    -0.000 C 
BRANCH   9  10
ATOM     10  C   UNL     1     -17.427  -0.268 -12.456  1.00  0.00    -0.000 C 
BRANCH  10  11
ATOM     11  C   UNL     1     -18.489  -0.350 -13.568  1.00  0.00    -0.000 C 
BRANCH  11  12
ATOM     12  C   UNL     1     -17.965  -0.049 -14.985  1.00  0.00    -0.003 C 
ATOM     13  C   UNL     1     -16.766  -0.911 -15.374  1.00  0.00     0.004 C 
ENDBRANCH  11  12
ENDBRANCH  10  11
ENDBRANCH   9  10
ENDBRANCH   8   9
ENDBRANCH   1   8
TORSDOF 9
ENDMDL
MODEL 6
REMARK VINA RESULT:    -5.220      3.230      6.243
REMARK INTER + INTRA:          -8.520
REMARK INTER:                  -7.184
REMARK INTRA:                  -1.336
REMARK UNBOUND:                -0.553
REMARK SMILES CCCCCCCCCCC(=O)[O-]
REMARK SMILES IDX 7 1 8 2 9 3 10 4 11 5 12 6 13 7 6 8 5 9 4 10 3 11 2 12 1 13
REMARK H PARENT
REMARK Flexibility Score: inf
ROOT
ATOM      1  C   UNL     1     -17.737  -1.759 -17.428  1.00  0.00     0.000 C 
ENDROOT
BRANCH   1   2
ATOM      2  C   UNL     1     -16.578  -1.548 -16.436  1.00  0.00     0.000 C 
BRANCH   2   3
ATOM      3  C   UNL     1     -16.958  -0.597 -15.282  1.00  0.00     0.006 C 
BRANCH   3   4
ATOM      4  C   UNL     1     -16.769   0.889 -15.625  1.00  0.00     0.053 C 
BRANCH   4   5
ATOM      5  C   UNL     1     -15.651   1.515 -14.851  1.00  0.00     0.041 C 
ATOM      6  O   UNL     1     -15.225   0.970 -13.800  1.00  0.00    -0.550 OA
ATOM      7  O   UNL     1     -15.060   2.686 -15.307  1.00  0.00    -0.550 OA
ENDBRANCH   4   5
ENDBRANCH   3   4
ENDBRANCH   2   3
ENDBRANCH   1   2
BRANCH   1   8
ATOM      8  C   UNL     1     -17.324  -1.495 -18.885  1.00  0.00     0.000 C 
BRANCH   8   9
ATOM      9  C   UNL     1     -17.293   0.001 -19.233  1.00  0.00    -0.000 C 
BRANCH   9  10
ATOM     10  C   UNL     1     -15.944   0.390 -19.855  1.00  0.00    -0.000 C 
BRANCH  10  11
ATOM     11  C   UNL     1     -15.111   1.316 -18.950  1.00  0.00    -0.000 C 
BRANCH  11  12
ATOM     12  C   UNL     1     -14.001   0.611 -18.151  1.00  0.00    -0.003 C 
ATOM     13  C   UNL     1     -13.641  -0.764 -18.712  1.00  0.00     0.004 C 
ENDBRANCH  11  12
ENDBRANCH  10  11
ENDBRANCH   9  10
ENDBRANCH   8   9
ENDBRANCH   1   8
TORSDOF 9
ENDMDL
MODEL 7
REMARK VINA RESULT:    -5.190      2.858      5.236
REMARK INTER + INTRA:          -8.473
REMARK INTER:                  -7.528
REMARK INTRA:                  -0.945
REMARK UNBOUND:                -0.553
REMARK SMILES CCCCCCCCCCC(=O)[O-]
REMARK SMILES IDX 7 1 8 2 9 3 10 4 11 5 12 6 13 7 6 8 5 9 4 10 3 11 2 12 1 13
REMARK H PARENT
REMARK Flexibility Score: inf
ROOT
ATOM      1  C   UNL     1     -14.375   2.170 -19.505  1.00  0.00     0.000 C 
ENDROOT
BRANCH   1   2
ATOM      2  C   UNL     1     -13.868   3.241 -18.521  1.00  0.00     0.000 C 
BRANCH   2   3
ATOM      3  C   UNL     1     -14.068   2.827 -17.048  1.00  0.00     0.006 C 
BRANCH   3   4
ATOM      4  C   UNL     1     -15.543   2.776 -16.621  1.00  0.00     0.053 C 
BRANCH   4   5
ATOM      5  C   UNL     1     -15.783   1.803 -15.509  1.00  0.00     0.041 C 
ATOM      6  O   UNL     1     -15.889   0.573 -15.755  1.00  0.00    -0.550 OA
ATOM      7  O   UNL     1     -15.859   2.252 -14.197  1.00  0.00    -0.550 OA
ENDBRANCH   4   5
ENDBRANCH   3   4
ENDBRANCH   2   3
ENDBRANCH   1   2
BRANCH   1   8
ATOM      8  C   UNL     1     -13.937   0.750 -19.111  1.00  0.00     0.000 C 
BRANCH   8   9
ATOM      9  C   UNL     1     -15.039  -0.296 -19.337  1.00  0.00    -0.000 C 
BRANCH   9  10
ATOM     10  C   UNL     1     -16.409   0.379 -19.502  1.00  0.00    -0.000 C 
BRANCH  10  11
ATOM     11  C   UNL     1     -17.540  -0.378 -18.784  1.00  0.00    -0.000 C 
BRANCH  11  12
ATOM     12  C   UNL     1     -17.321  -1.896 -18.653  1.00  0.00    -0.003 C 
ATOM     13  C   UNL     1     -17.356  -2.383 -17.205  1.00  0.00     0.004 C 
ENDBRANCH  11  12
ENDBRANCH  10  11
ENDBRANCH   9  10
ENDBRANCH   8   9
ENDBRANCH   1   8
TORSDOF 9
ENDMDL
MODEL 8
REMARK VINA RESULT:    -5.188      3.287      5.810
REMARK INTER + INTRA:          -8.470
REMARK INTER:                  -7.361
REMARK INTRA:                  -1.109
REMARK UNBOUND:                -0.553
REMARK SMILES CCCCCCCCCCC(=O)[O-]
REMARK SMILES IDX 7 1 8 2 9 3 10 4 11 5 12 6 13 7 6 8 5 9 4 10 3 11 2 12 1 13
REMARK H PARENT
REMARK Flexibility Score: inf
ROOT
ATOM      1  C   UNL     1     -15.398  -0.631 -19.039  1.00  0.00     0.000 C 
ENDROOT
BRANCH   1   2
ATOM      2  C   UNL     1     -16.851  -1.117 -18.881  1.00  0.00     0.000 C 
BRANCH   2   3
ATOM      3  C   UNL     1     -17.863   0.048 -18.896  1.00  0.00     0.006 C 
BRANCH   3   4
ATOM      4  C   UNL     1     -17.645   1.065 -17.765  1.00  0.00     0.053 C 
BRANCH   4   5
ATOM      5  C   UNL     1     -18.183   0.584 -16.453  1.00  0.00     0.041 C 
ATOM      6  O   UNL     1     -17.397   0.311 -15.508  1.00  0.00    -0.550 OA
ATOM      7  O   UNL     1     -19.553   0.464 -16.265  1.00  0.00    -0.550 OA
ENDBRANCH   4   5
ENDBRANCH   3   4
ENDBRANCH   2   3
ENDBRANCH   1   2
BRANCH   1   8
ATOM      8  C   UNL     1     -15.147   0.055 -20.391  1.00  0.00     0.000 C 
BRANCH   8   9
ATOM      9  C   UNL     1     -14.683   1.512 -20.241  1.00  0.00    -0.000 C 
BRANCH   9  10
ATOM     10  C   UNL     1     -13.955   1.719 -18.905  1.00  0.00    -0.000 C 
BRANCH  10  11
ATOM     11  C   UNL     1     -13.990   3.181 -18.423  1.00  0.00    -0.000 C 
BRANCH  11  12
ATOM     12  C   UNL     1     -14.752   3.409 -17.105  1.00  0.00    -0.003 C 
ATOM     13  C   UNL     1     -14.523   2.298 -16.082  1.00  0.00     0.004 C 
ENDBRANCH  11  12
ENDBRANCH  10  11
ENDBRANCH   9  10
ENDBRANCH   8   9
ENDBRANCH   1   8
TORSDOF 9
ENDMDL
MODEL 9
REMARK VINA RESULT:    -5.071      2.999      6.263
REMARK INTER + INTRA:          -8.292
REMARK INTER:                  -7.362
REMARK INTRA:                  -0.930
REMARK UNBOUND:                -0.553
REMARK SMILES CCCCCCCCCCC(=O)[O-]
REMARK SMILES IDX 7 1 8 2 9 3 10 4 11 5 12 6 13 7 6 8 5 9 4 10 3 11 2 12 1 13
REMARK H PARENT
REMARK Flexibility Score: inf
ROOT
ATOM      1  C   UNL     1     -17.664   0.033 -18.813  1.00  0.00     0.000 C 
ENDROOT
BRANCH   1   2
ATOM      2  C   UNL     1     -17.547   1.123 -17.732  1.00  0.00     0.000 C 
BRANCH   2   3
ATOM      3  C   UNL     1     -17.121   0.550 -16.364  1.00  0.00     0.006 C 
BRANCH   3   4
ATOM      4  C   UNL     1     -15.968   1.325 -15.707  1.00  0.00     0.053 C 
BRANCH   4   5
ATOM      5  C   UNL     1     -16.134   1.446 -14.224  1.00  0.00     0.041 C 
ATOM      6  O   UNL     1     -16.482   0.447 -13.542  1.00  0.00    -0.550 OA
ATOM      7  O   UNL     1     -15.878   2.656 -13.592  1.00  0.00    -0.550 OA
ENDBRANCH   4   5
ENDBRANCH   3   4
ENDBRANCH   2   3
ENDBRANCH   1   2
BRANCH   1   8
ATOM      8  C   UNL     1     -16.295  -0.500 -19.266  1.00  0.00     0.000 C 
BRANCH   8   9
ATOM      9  C   UNL     1     -15.491   0.533 -20.070  1.00  0.00    -0.000 C 
BRANCH   9  10
ATOM     10  C   UNL     1     -14.002   0.477 -19.698  1.00  0.00    -0.000 C 
BRANCH  10  11
ATOM     11  C   UNL     1     -13.660   1.329 -18.462  1.00  0.00    -0.000 C 
BRANCH  11  12
ATOM     12  C   UNL     1     -13.997   2.825 -18.595  1.00  0.00    -0.003 C 
ATOM     13  C   UNL     1     -12.875   3.737 -18.102  1.00  0.00     0.004 C 
ENDBRANCH  11  12
ENDBRANCH  10  11
ENDBRANCH   9  10
ENDBRANCH   8   9
ENDBRANCH   1   8
TORSDOF 9
ENDMDL
