MODEL 1
REMARK VINA RESULT:    -5.673      0.000      0.000
REMARK INTER + INTRA:          -6.201
REMARK INTER:                  -6.171
REMARK INTRA:                  -0.030
REMARK UNBOUND:                -0.030
REMARK SMILES O=C([O-])c1ccc(O)cc1
REMARK SMILES IDX 4 1 5 2 10 3 6 4 9 5 7 6 2 7 1 8 3 9 8 10
REMARK H PARENT 8 11
REMARK Flexibility Score: inf
ROOT
ATOM      1  C   UNL     1     128.181 133.799 108.200  1.00  0.00    -0.003 A 
ATOM      2  C   UNL     1     128.482 134.624 107.101  1.00  0.00     0.014 A 
ATOM      3  C   UNL     1     127.142 134.175 109.071  1.00  0.00     0.014 A 
ATOM      4  C   UNL     1     127.757 135.799 106.878  1.00  0.00     0.047 A 
ATOM      5  C   UNL     1     126.420 135.350 108.845  1.00  0.00     0.047 A 
ATOM      6  C   UNL     1     126.725 136.166 107.747  1.00  0.00     0.115 A 
ENDROOT
BRANCH   1   7
ATOM      7  C   UNL     1     128.942 132.554 108.442  1.00  0.00     0.071 C 
ATOM      8  O   UNL     1     129.042 131.679 107.540  1.00  0.00    -0.545 OA
ATOM      9  O   UNL     1     129.561 132.332 109.666  1.00  0.00    -0.545 OA
ENDBRANCH   1   7
BRANCH   6  10
ATOM     10  O   UNL     1     126.013 137.340 107.513  1.00  0.00    -0.508 OA
ATOM     11  H   UNL     1     125.685 137.921 108.276  1.00  0.00     0.293 HD
ENDBRANCH   6  10
TORSDOF 2
ENDMDL
MODEL 2
REMARK VINA RESULT:    -5.666      0.046      1.532
REMARK INTER + INTRA:          -6.192
REMARK INTER:                  -6.163
REMARK INTRA:                  -0.029
REMARK UNBOUND:                -0.030
REMARK SMILES O=C([O-])c1ccc(O)cc1
REMARK SMILES IDX 4 1 5 2 10 3 6 4 9 5 7 6 2 7 1 8 3 9 8 10
REMARK H PARENT 8 11
REMARK Flexibility Score: inf
ROOT
ATOM      1  C   UNL     1     128.204 133.797 108.209  1.00  0.00    -0.003 A 
ATOM      2  C   UNL     1     127.145 134.179 109.052  1.00  0.00     0.014 A 
ATOM      3  C   UNL     1     128.533 134.617 107.115  1.00  0.00     0.014 A 
ATOM      4  C   UNL     1     126.434 135.357 108.807  1.00  0.00     0.047 A 
ATOM      5  C   UNL     1     127.820 135.795 106.872  1.00  0.00     0.047 A 
ATOM      6  C   UNL     1     126.767 136.168 107.719  1.00  0.00     0.115 A 
ENDROOT
BRANCH   1   7
ATOM      7  C   UNL     1     128.961 132.552 108.463  1.00  0.00     0.071 C 
ATOM      8  O   UNL     1     129.026 131.651 107.584  1.00  0.00    -0.545 OA
ATOM      9  O   UNL     1     129.614 132.358 109.675  1.00  0.00    -0.545 OA
ENDBRANCH   1   7
BRANCH   6  10
ATOM     10  O   UNL     1     126.049 137.338 107.486  1.00  0.00    -0.508 OA
ATOM     11  H   UNL     1     125.181 137.531 107.973  1.00  0.00     0.293 HD
ENDBRANCH   6  10
TORSDOF 2
ENDMDL
MODEL 3
REMARK VINA RESULT:    -5.524     10.930     12.464
REMARK INTER + INTRA:          -6.038
REMARK INTER:                  -6.003
REMARK INTRA:                  -0.035
REMARK UNBOUND:                -0.030
REMARK SMILES O=C([O-])c1ccc(O)cc1
REMARK SMILES IDX 4 1 5 2 10 3 6 4 9 5 7 6 2 7 1 8 3 9 8 10
REMARK H PARENT 8 11
REMARK Flexibility Score: inf
ROOT
ATOM      1  C   UNL     1     137.072 134.616 114.469  1.00  0.00    -0.003 A 
ATOM      2  C   UNL     1     138.373 134.612 113.932  1.00  0.00     0.014 A 
ATOM      3  C   UNL     1     136.912 134.571 115.866  1.00  0.00     0.014 A 
ATOM      4  C   UNL     1     139.487 134.566 114.775  1.00  0.00     0.047 A 
ATOM      5  C   UNL     1     138.028 134.525 116.706  1.00  0.00     0.047 A 
ATOM      6  C   UNL     1     139.320 134.523 116.162  1.00  0.00     0.115 A 
ENDROOT
BRANCH   1   7
ATOM      7  C   UNL     1     135.889 134.665 113.583  1.00  0.00     0.071 C 
ATOM      8  O   UNL     1     136.005 135.017 112.379  1.00  0.00    -0.545 OA
ATOM      9  O   UNL     1     134.631 134.323 114.066  1.00  0.00    -0.545 OA
ENDBRANCH   1   7
BRANCH   6  10
ATOM     10  O   UNL     1     140.439 134.476 116.989  1.00  0.00    -0.508 OA
ATOM     11  H   UNL     1     140.361 134.243 117.972  1.00  0.00     0.293 HD
ENDBRANCH   6  10
TORSDOF 2
ENDMDL
MODEL 4
REMARK VINA RESULT:    -5.507     10.210     11.848
REMARK INTER + INTRA:          -6.020
REMARK INTER:                  -5.985
REMARK INTRA:                  -0.035
REMARK UNBOUND:                -0.030
REMARK SMILES O=C([O-])c1ccc(O)cc1
REMARK SMILES IDX 4 1 5 2 10 3 6 4 9 5 7 6 2 7 1 8 3 9 8 10
REMARK H PARENT 8 11
REMARK Flexibility Score: inf
ROOT
ATOM      1  C   UNL     1     136.576 134.677 113.868  1.00  0.00    -0.003 A 
ATOM      2  C   UNL     1     136.793 134.737 115.257  1.00  0.00     0.014 A 
ATOM      3  C   UNL     1     137.684 134.549 113.010  1.00  0.00     0.014 A 
ATOM      4  C   UNL     1     138.090 134.667 115.775  1.00  0.00     0.047 A 
ATOM      5  C   UNL     1     138.979 134.480 113.531  1.00  0.00     0.047 A 
ATOM      6  C   UNL     1     139.185 134.539 114.916  1.00  0.00     0.115 A 
ENDROOT
BRANCH   1   7
ATOM      7  C   UNL     1     135.207 134.749 113.313  1.00  0.00     0.071 C 
ATOM      8  O   UNL     1     135.019 135.082 112.112  1.00  0.00    -0.545 OA
ATOM      9  O   UNL     1     134.107 134.449 114.109  1.00  0.00    -0.545 OA
ENDBRANCH   1   7
BRANCH   6  10
ATOM     10  O   UNL     1     140.472 134.472 115.447  1.00  0.00    -0.508 OA
ATOM     11  H   UNL     1     140.691 133.864 116.227  1.00  0.00     0.293 HD
ENDBRANCH   6  10
TORSDOF 2
ENDMDL
MODEL 5
REMARK VINA RESULT:    -5.240      1.751      4.653
REMARK INTER + INTRA:          -5.729
REMARK INTER:                  -5.699
REMARK INTRA:                  -0.030
REMARK UNBOUND:                -0.030
REMARK SMILES O=C([O-])c1ccc(O)cc1
REMARK SMILES IDX 4 1 5 2 10 3 6 4 9 5 7 6 2 7 1 8 3 9 8 10
REMARK H PARENT 8 11
REMARK Flexibility Score: inf
ROOT
ATOM      1  C   UNL     1     127.796 134.179 109.281  1.00  0.00    -0.003 A 
ATOM      2  C   UNL     1     128.405 134.277 110.545  1.00  0.00     0.014 A 
ATOM      3  C   UNL     1     128.248 133.196 108.381  1.00  0.00     0.014 A 
ATOM      4  C   UNL     1     129.442 133.409 110.901  1.00  0.00     0.047 A 
ATOM      5  C   UNL     1     129.285 132.331 108.740  1.00  0.00     0.047 A 
ATOM      6  C   UNL     1     129.885 132.435 110.002  1.00  0.00     0.115 A 
ENDROOT
BRANCH   1   7
ATOM      7  C   UNL     1     126.698 135.093 108.898  1.00  0.00     0.071 C 
ATOM      8  O   UNL     1     125.717 135.273 109.668  1.00  0.00    -0.545 OA
ATOM      9  O   UNL     1     126.733 135.768 107.683  1.00  0.00    -0.545 OA
ENDBRANCH   1   7
BRANCH   6  10
ATOM     10  O   UNL     1     130.919 131.578 110.371  1.00  0.00    -0.508 OA
ATOM     11  H   UNL     1     131.449 131.725 111.222  1.00  0.00     0.293 HD
ENDBRANCH   6  10
TORSDOF 2
ENDMDL
MODEL 6
REMARK VINA RESULT:    -5.219      2.515      3.328
REMARK INTER + INTRA:          -5.706
REMARK INTER:                  -5.679
REMARK INTRA:                  -0.027
REMARK UNBOUND:                -0.030
REMARK SMILES O=C([O-])c1ccc(O)cc1
REMARK SMILES IDX 4 1 5 2 10 3 6 4 9 5 7 6 2 7 1 8 3 9 8 10
REMARK H PARENT 8 11
REMARK Flexibility Score: inf
ROOT
ATOM      1  C   UNL     1     126.535 134.831 109.109  1.00  0.00    -0.003 A 
ATOM      2  C   UNL     1     127.439 133.871 108.619  1.00  0.00     0.014 A 
ATOM      3  C   UNL     1     126.497 136.102 108.507  1.00  0.00     0.014 A 
ATOM      4  C   UNL     1     128.285 134.177 107.548  1.00  0.00     0.047 A 
ATOM      5  C   UNL     1     127.345 136.404 107.438  1.00  0.00     0.047 A 
ATOM      6  C   UNL     1     128.241 135.442 106.955  1.00  0.00     0.115 A 
ENDROOT
BRANCH   1   7
ATOM      7  C   UNL     1     125.636 134.515 110.240  1.00  0.00     0.071 C 
ATOM      8  O   UNL     1     124.551 133.904 110.044  1.00  0.00    -0.545 OA
ATOM      9  O   UNL     1     125.976 134.884 111.536  1.00  0.00    -0.545 OA
ENDBRANCH   1   7
BRANCH   6  10
ATOM     10  O   UNL     1     129.091 135.732 105.890  1.00  0.00    -0.508 OA
ATOM     11  H   UNL     1     129.246 136.684 105.581  1.00  0.00     0.293 HD
ENDBRANCH   6  10
TORSDOF 2
ENDMDL
MODEL 7
REMARK VINA RESULT:    -5.197     12.826     13.958
REMARK INTER + INTRA:          -5.683
REMARK INTER:                  -5.649
REMARK INTRA:                  -0.033
REMARK UNBOUND:                -0.030
REMARK SMILES O=C([O-])c1ccc(O)cc1
REMARK SMILES IDX 4 1 5 2 10 3 6 4 9 5 7 6 2 7 1 8 3 9 8 10
REMARK H PARENT 8 11
REMARK Flexibility Score: inf
ROOT
ATOM      1  C   UNL     1     130.716 135.461 120.680  1.00  0.00    -0.003 A 
ATOM      2  C   UNL     1     130.522 136.667 121.379  1.00  0.00     0.014 A 
ATOM      3  C   UNL     1     130.624 134.245 121.381  1.00  0.00     0.014 A 
ATOM      4  C   UNL     1     130.239 136.655 122.748  1.00  0.00     0.047 A 
ATOM      5  C   UNL     1     130.341 134.237 122.750  1.00  0.00     0.047 A 
ATOM      6  C   UNL     1     130.148 135.443 123.437  1.00  0.00     0.115 A 
ENDROOT
BRANCH   1   7
ATOM      7  C   UNL     1     131.014 135.467 119.231  1.00  0.00     0.071 C 
ATOM      8  O   UNL     1     130.608 134.531 118.491  1.00  0.00    -0.545 OA
ATOM      9  O   UNL     1     131.746 136.504 118.666  1.00  0.00    -0.545 OA
ENDBRANCH   1   7
BRANCH   6  10
ATOM     10  O   UNL     1     129.868 135.447 124.802  1.00  0.00    -0.508 OA
ATOM     11  H   UNL     1     128.915 135.484 125.145  1.00  0.00     0.293 HD
ENDBRANCH   6  10
TORSDOF 2
ENDMDL
MODEL 8
REMARK VINA RESULT:    -5.106     13.684     14.731
REMARK INTER + INTRA:          -5.583
REMARK INTER:                  -5.548
REMARK INTRA:                  -0.036
REMARK UNBOUND:                -0.030
REMARK SMILES O=C([O-])c1ccc(O)cc1
REMARK SMILES IDX 4 1 5 2 10 3 6 4 9 5 7 6 2 7 1 8 3 9 8 10
REMARK H PARENT 8 11
REMARK Flexibility Score: inf
ROOT
ATOM      1  C   UNL     1     130.276 134.982 122.937  1.00  0.00    -0.003 A 
ATOM      2  C   UNL     1     130.680 134.210 121.833  1.00  0.00     0.014 A 
ATOM      3  C   UNL     1     130.204 136.380 122.800  1.00  0.00     0.014 A 
ATOM      4  C   UNL     1     131.002 134.824 120.619  1.00  0.00     0.047 A 
ATOM      5  C   UNL     1     130.527 136.991 121.585  1.00  0.00     0.047 A 
ATOM      6  C   UNL     1     130.927 136.213 120.491  1.00  0.00     0.115 A 
ENDROOT
BRANCH   1   7
ATOM      7  C   UNL     1     129.932 134.339 124.224  1.00  0.00     0.071 C 
ATOM      8  O   UNL     1     129.816 135.028 125.273  1.00  0.00    -0.545 OA
ATOM      9  O   UNL     1     129.731 132.966 124.295  1.00  0.00    -0.545 OA
ENDBRANCH   1   7
BRANCH   6  10
ATOM     10  O   UNL     1     131.253 136.811 119.275  1.00  0.00    -0.508 OA
ATOM     11  H   UNL     1     130.992 136.388 118.392  1.00  0.00     0.293 HD
ENDBRANCH   6  10
TORSDOF 2
ENDMDL
MODEL 9
REMARK VINA RESULT:    -5.026      2.323      3.061
REMARK INTER + INTRA:          -5.496
REMARK INTER:                  -5.465
REMARK INTRA:                  -0.032
REMARK UNBOUND:                -0.030
REMARK SMILES O=C([O-])c1ccc(O)cc1
REMARK SMILES IDX 4 1 5 2 10 3 6 4 9 5 7 6 2 7 1 8 3 9 8 10
REMARK H PARENT 8 11
REMARK Flexibility Score: inf
ROOT
ATOM      1  C   UNL     1     129.755 132.881 110.195  1.00  0.00    -0.003 A 
ATOM      2  C   UNL     1     129.290 132.504 108.922  1.00  0.00     0.014 A 
ATOM      3  C   UNL     1     129.034 133.844 110.926  1.00  0.00     0.014 A 
ATOM      4  C   UNL     1     128.129 133.077 108.393  1.00  0.00     0.047 A 
ATOM      5  C   UNL     1     127.875 134.414 110.395  1.00  0.00     0.047 A 
ATOM      6  C   UNL     1     127.418 134.032 109.126  1.00  0.00     0.115 A 
ENDROOT
BRANCH   1   7
ATOM      7  C   UNL     1     130.981 132.278 110.761  1.00  0.00     0.071 C 
ATOM      8  O   UNL     1     131.026 131.937 111.973  1.00  0.00    -0.545 OA
ATOM      9  O   UNL     1     132.101 132.079 109.963  1.00  0.00    -0.545 OA
ENDBRANCH   1   7
BRANCH   6  10
ATOM     10  O   UNL     1     126.264 134.595 108.586  1.00  0.00    -0.508 OA
ATOM     11  H   UNL     1     125.535 134.976 109.177  1.00  0.00     0.293 HD
ENDBRANCH   6  10
TORSDOF 2
ENDMDL
