MODEL 1
REMARK VINA RESULT:    -5.538      0.000      0.000
REMARK INTER + INTRA:          -6.645
REMARK INTER:                  -6.347
REMARK INTRA:                  -0.298
REMARK UNBOUND:                -0.298
REMARK SMILES O=C1C[C@@H](c2ccc(O)cc2)Oc2cc(O)cc(O)c21
REMARK SMILES IDX 3 1 4 2 12 3 13 4 14 5 15 6 17 7 18 8 20 9 2 10 1 11 5 12
REMARK SMILES IDX 6 13 11 14 7 15 10 16 8 17 9 18 19 20 16 22
REMARK H PARENT 9 19 19 21 16 23
REMARK Flexibility Score: inf
ROOT
ATOM      1  C   UNL     1      45.788  15.036  -2.969  1.00  0.00     0.131 C 
ATOM      2  C   UNL     1      45.893  15.967  -4.186  1.00  0.00     0.211 C 
ATOM      3  O   UNL     1      47.235  16.435  -4.349  1.00  0.00    -0.484 OA
ATOM      4  C   UNL     1      48.338  15.586  -4.206  1.00  0.00     0.138 A 
ATOM      5  C   UNL     1      49.585  15.994  -4.683  1.00  0.00     0.093 A 
ATOM      6  C   UNL     1      50.694  15.148  -4.572  1.00  0.00     0.123 A 
ATOM      7  C   UNL     1      50.554  13.894  -3.972  1.00  0.00     0.093 A 
ATOM      8  C   UNL     1      49.311  13.479  -3.471  1.00  0.00     0.133 A 
ATOM      9  C   UNL     1      48.192  14.332  -3.581  1.00  0.00     0.102 A 
ATOM     10  C   UNL     1      46.859  13.984  -3.033  1.00  0.00     0.174 C 
ATOM     11  O   UNL     1      46.622  12.834  -2.574  1.00  0.00    -0.294 OA
ENDROOT
BRANCH   2  12
ATOM     12  C   UNL     1      44.950  17.138  -4.047  1.00  0.00    -0.007 A 
ATOM     13  C   UNL     1      44.147  17.268  -2.901  1.00  0.00     0.011 A 
ATOM     14  C   UNL     1      44.903  18.139  -5.034  1.00  0.00     0.011 A 
ATOM     15  C   UNL     1      43.296  18.367  -2.756  1.00  0.00     0.046 A 
ATOM     16  C   UNL     1      44.050  19.237  -4.885  1.00  0.00     0.046 A 
ATOM     17  C   UNL     1      43.246  19.355  -3.748  1.00  0.00     0.115 A 
BRANCH  17  18
ATOM     18  O   UNL     1      42.403  20.456  -3.613  1.00  0.00    -0.508 OA
ATOM     19  H   UNL     1      41.618  20.446  -2.972  1.00  0.00     0.293 HD
ENDBRANCH  17  18
ENDBRANCH   2  12
BRANCH   8  20
ATOM     20  O   UNL     1      49.195  12.228  -2.863  1.00  0.00    -0.507 OA
ATOM     21  H   UNL     1      48.351  11.674  -2.945  1.00  0.00     0.293 HD
ENDBRANCH   8  20
BRANCH   6  22
ATOM     22  O   UNL     1      51.940  15.542  -5.054  1.00  0.00    -0.508 OA
ATOM     23  H   UNL     1      52.801  15.197  -4.644  1.00  0.00     0.293 HD
ENDBRANCH   6  22
TORSDOF 4
ENDMDL
MODEL 2
REMARK VINA RESULT:    -5.245      1.791      7.161
REMARK INTER + INTRA:          -6.310
REMARK INTER:                  -6.004
REMARK INTRA:                  -0.306
REMARK UNBOUND:                -0.298
REMARK SMILES O=C1C[C@@H](c2ccc(O)cc2)Oc2cc(O)cc(O)c21
REMARK SMILES IDX 3 1 4 2 12 3 13 4 14 5 15 6 17 7 18 8 20 9 2 10 1 11 5 12
REMARK SMILES IDX 6 13 11 14 7 15 10 16 8 17 9 18 19 20 16 22
REMARK H PARENT 9 19 19 21 16 23
REMARK Flexibility Score: inf
ROOT
ATOM      1  C   UNL     1      46.394  17.530  -5.164  1.00  0.00     0.131 C 
ATOM      2  C   UNL     1      46.318  16.034  -4.824  1.00  0.00     0.211 C 
ATOM      3  O   UNL     1      45.587  15.828  -3.612  1.00  0.00    -0.484 OA
ATOM      4  C   UNL     1      44.401  16.519  -3.336  1.00  0.00     0.138 A 
ATOM      5  C   UNL     1      43.563  16.063  -2.317  1.00  0.00     0.093 A 
ATOM      6  C   UNL     1      42.361  16.726  -2.044  1.00  0.00     0.123 A 
ATOM      7  C   UNL     1      42.004  17.853  -2.788  1.00  0.00     0.093 A 
ATOM      8  C   UNL     1      42.846  18.333  -3.802  1.00  0.00     0.133 A 
ATOM      9  C   UNL     1      44.059  17.667  -4.078  1.00  0.00     0.102 A 
ATOM     10  C   UNL     1      45.023  18.141  -5.100  1.00  0.00     0.174 C 
ATOM     11  O   UNL     1      44.731  19.084  -5.884  1.00  0.00    -0.294 OA
ENDROOT
BRANCH   2  12
ATOM     12  C   UNL     1      47.702  15.442  -4.700  1.00  0.00    -0.007 A 
ATOM     13  C   UNL     1      48.827  16.186  -5.096  1.00  0.00     0.011 A 
ATOM     14  C   UNL     1      47.886  14.166  -4.139  1.00  0.00     0.011 A 
ATOM     15  C   UNL     1      50.111  15.652  -4.953  1.00  0.00     0.046 A 
ATOM     16  C   UNL     1      49.172  13.636  -3.998  1.00  0.00     0.046 A 
ATOM     17  C   UNL     1      50.287  14.375  -4.404  1.00  0.00     0.115 A 
BRANCH  17  18
ATOM     18  O   UNL     1      51.562  13.835  -4.255  1.00  0.00    -0.508 OA
ATOM     19  H   UNL     1      52.176  14.125  -3.503  1.00  0.00     0.293 HD
ENDBRANCH  17  18
ENDBRANCH   2  12
BRANCH   8  20
ATOM     20  O   UNL     1      42.478  19.469  -4.525  1.00  0.00    -0.507 OA
ATOM     21  H   UNL     1      41.823  20.146  -4.153  1.00  0.00     0.293 HD
ENDBRANCH   8  20
BRANCH   6  22
ATOM     22  O   UNL     1      41.513  16.272  -1.036  1.00  0.00    -0.508 OA
ATOM     23  H   UNL     1      40.626  15.828  -1.249  1.00  0.00     0.293 HD
ENDBRANCH   6  22
TORSDOF 4
ENDMDL
MODEL 3
REMARK VINA RESULT:    -5.152      2.025      2.952
REMARK INTER + INTRA:          -6.203
REMARK INTER:                  -5.892
REMARK INTRA:                  -0.311
REMARK UNBOUND:                -0.298
REMARK SMILES O=C1C[C@@H](c2ccc(O)cc2)Oc2cc(O)cc(O)c21
REMARK SMILES IDX 3 1 4 2 12 3 13 4 14 5 15 6 17 7 18 8 20 9 2 10 1 11 5 12
REMARK SMILES IDX 6 13 11 14 7 15 10 16 8 17 9 18 19 20 16 22
REMARK H PARENT 9 19 19 21 16 23
REMARK Flexibility Score: inf
ROOT
ATOM      1  C   UNL     1      43.242  15.807  -2.504  1.00  0.00     0.131 C 
ATOM      2  C   UNL     1      43.541  17.105  -3.270  1.00  0.00     0.211 C 
ATOM      3  O   UNL     1      44.952  17.291  -3.414  1.00  0.00    -0.484 OA
ATOM      4  C   UNL     1      45.808  16.237  -3.754  1.00  0.00     0.138 A 
ATOM      5  C   UNL     1      47.102  16.519  -4.196  1.00  0.00     0.093 A 
ATOM      6  C   UNL     1      47.963  15.480  -4.565  1.00  0.00     0.123 A 
ATOM      7  C   UNL     1      47.528  14.154  -4.484  1.00  0.00     0.093 A 
ATOM      8  C   UNL     1      46.236  13.856  -4.024  1.00  0.00     0.133 A 
ATOM      9  C   UNL     1      45.368  14.903  -3.649  1.00  0.00     0.102 A 
ATOM     10  C   UNL     1      44.007  14.665  -3.109  1.00  0.00     0.174 C 
ATOM     11  O   UNL     1      43.502  13.510  -3.102  1.00  0.00    -0.294 OA
ENDROOT
BRANCH   2  12
ATOM     12  C   UNL     1      42.932  18.294  -2.568  1.00  0.00    -0.007 A 
ATOM     13  C   UNL     1      41.924  18.107  -1.605  1.00  0.00     0.011 A 
ATOM     14  C   UNL     1      43.399  19.595  -2.827  1.00  0.00     0.011 A 
ATOM     15  C   UNL     1      41.380  19.204  -0.931  1.00  0.00     0.046 A 
ATOM     16  C   UNL     1      42.851  20.690  -2.151  1.00  0.00     0.046 A 
ATOM     17  C   UNL     1      41.842  20.499  -1.203  1.00  0.00     0.115 A 
BRANCH  17  18
ATOM     18  O   UNL     1      41.308  21.599  -0.536  1.00  0.00    -0.508 OA
ATOM     19  H   UNL     1      41.301  21.653   0.475  1.00  0.00     0.293 HD
ENDBRANCH  17  18
ENDBRANCH   2  12
BRANCH   8  20
ATOM     20  O   UNL     1      45.826  12.525  -3.936  1.00  0.00    -0.507 OA
ATOM     21  H   UNL     1      46.481  11.759  -4.034  1.00  0.00     0.293 HD
ENDBRANCH   8  20
BRANCH   6  22
ATOM     22  O   UNL     1      49.252  15.751  -5.017  1.00  0.00    -0.508 OA
ATOM     23  H   UNL     1      49.449  15.901  -6.001  1.00  0.00     0.293 HD
ENDBRANCH   6  22
TORSDOF 4
ENDMDL
MODEL 4
REMARK VINA RESULT:    -5.016      2.185      7.270
REMARK INTER + INTRA:          -6.047
REMARK INTER:                  -5.730
REMARK INTRA:                  -0.317
REMARK UNBOUND:                -0.298
REMARK SMILES O=C1C[C@@H](c2ccc(O)cc2)Oc2cc(O)cc(O)c21
REMARK SMILES IDX 3 1 4 2 12 3 13 4 14 5 15 6 17 7 18 8 20 9 2 10 1 11 5 12
REMARK SMILES IDX 6 13 11 14 7 15 10 16 8 17 9 18 19 20 16 22
REMARK H PARENT 9 19 19 21 16 23
REMARK Flexibility Score: inf
ROOT
ATOM      1  C   UNL     1      46.677  16.113  -4.227  1.00  0.00     0.131 C 
ATOM      2  C   UNL     1      45.897  14.895  -3.709  1.00  0.00     0.211 C 
ATOM      3  O   UNL     1      44.938  15.292  -2.725  1.00  0.00    -0.484 OA
ATOM      4  C   UNL     1      44.141  16.431  -2.884  1.00  0.00     0.138 A 
ATOM      5  C   UNL     1      43.014  16.599  -2.077  1.00  0.00     0.093 A 
ATOM      6  C   UNL     1      42.192  17.719  -2.239  1.00  0.00     0.123 A 
ATOM      7  C   UNL     1      42.505  18.678  -3.207  1.00  0.00     0.093 A 
ATOM      8  C   UNL     1      43.645  18.531  -4.012  1.00  0.00     0.133 A 
ATOM      9  C   UNL     1      44.476  17.402  -3.848  1.00  0.00     0.102 A 
ATOM     10  C   UNL     1      45.722  17.202  -4.626  1.00  0.00     0.174 C 
ATOM     11  O   UNL     1      46.020  17.962  -5.587  1.00  0.00    -0.294 OA
ENDROOT
BRANCH   2  12
ATOM     12  C   UNL     1      46.837  13.865  -3.129  1.00  0.00    -0.007 A 
ATOM     13  C   UNL     1      48.130  13.710  -3.658  1.00  0.00     0.011 A 
ATOM     14  C   UNL     1      46.451  13.088  -2.022  1.00  0.00     0.011 A 
ATOM     15  C   UNL     1      49.012  12.778  -3.104  1.00  0.00     0.046 A 
ATOM     16  C   UNL     1      47.337  12.157  -1.470  1.00  0.00     0.046 A 
ATOM     17  C   UNL     1      48.618  11.999  -2.008  1.00  0.00     0.115 A 
BRANCH  17  18
ATOM     18  O   UNL     1      49.490  11.070  -1.446  1.00  0.00    -0.508 OA
ATOM     19  H   UNL     1      49.953  10.369  -2.012  1.00  0.00     0.293 HD
ENDBRANCH  17  18
ENDBRANCH   2  12
BRANCH   8  20
ATOM     20  O   UNL     1      43.949  19.506  -4.962  1.00  0.00    -0.507 OA
ATOM     21  H   UNL     1      44.905  19.777  -5.159  1.00  0.00     0.293 HD
ENDBRANCH   8  20
BRANCH   6  22
ATOM     22  O   UNL     1      41.059  17.891  -1.446  1.00  0.00    -0.508 OA
ATOM     23  H   UNL     1      41.131  18.059  -0.448  1.00  0.00     0.293 HD
ENDBRANCH   6  22
TORSDOF 4
ENDMDL
MODEL 5
REMARK VINA RESULT:    -5.007      1.844      3.250
REMARK INTER + INTRA:          -6.037
REMARK INTER:                  -5.731
REMARK INTRA:                  -0.306
REMARK UNBOUND:                -0.298
REMARK SMILES O=C1C[C@@H](c2ccc(O)cc2)Oc2cc(O)cc(O)c21
REMARK SMILES IDX 3 1 4 2 12 3 13 4 14 5 15 6 17 7 18 8 20 9 2 10 1 11 5 12
REMARK SMILES IDX 6 13 11 14 7 15 10 16 8 17 9 18 19 20 16 22
REMARK H PARENT 9 19 19 21 16 23
REMARK Flexibility Score: inf
ROOT
ATOM      1  C   UNL     1      45.686  16.914  -4.362  1.00  0.00     0.131 C 
ATOM      2  C   UNL     1      45.270  16.506  -2.940  1.00  0.00     0.211 C 
ATOM      3  O   UNL     1      45.665  15.159  -2.667  1.00  0.00    -0.484 OA
ATOM      4  C   UNL     1      46.921  14.666  -3.039  1.00  0.00     0.138 A 
ATOM      5  C   UNL     1      47.384  13.474  -2.477  1.00  0.00     0.093 A 
ATOM      6  C   UNL     1      48.648  12.979  -2.817  1.00  0.00     0.123 A 
ATOM      7  C   UNL     1      49.445  13.675  -3.730  1.00  0.00     0.093 A 
ATOM      8  C   UNL     1      48.984  14.863  -4.316  1.00  0.00     0.133 A 
ATOM      9  C   UNL     1      47.709  15.363  -3.975  1.00  0.00     0.102 A 
ATOM     10  C   UNL     1      47.134  16.585  -4.588  1.00  0.00     0.174 C 
ATOM     11  O   UNL     1      47.826  17.326  -5.337  1.00  0.00    -0.294 OA
ENDROOT
BRANCH   2  12
ATOM     12  C   UNL     1      43.779  16.655  -2.756  1.00  0.00    -0.007 A 
ATOM     13  C   UNL     1      42.959  15.517  -2.669  1.00  0.00     0.011 A 
ATOM     14  C   UNL     1      43.200  17.929  -2.615  1.00  0.00     0.011 A 
ATOM     15  C   UNL     1      41.582  15.652  -2.467  1.00  0.00     0.046 A 
ATOM     16  C   UNL     1      41.822  18.060  -2.413  1.00  0.00     0.046 A 
ATOM     17  C   UNL     1      41.010  16.924  -2.338  1.00  0.00     0.115 A 
BRANCH  17  18
ATOM     18  O   UNL     1      39.640  17.070  -2.135  1.00  0.00    -0.508 OA
ATOM     19  H   UNL     1      38.964  16.633  -2.750  1.00  0.00     0.293 HD
ENDBRANCH  17  18
ENDBRANCH   2  12
BRANCH   8  20
ATOM     20  O   UNL     1      49.789  15.536  -5.236  1.00  0.00    -0.507 OA
ATOM     21  H   UNL     1      50.787  15.368  -5.292  1.00  0.00     0.293 HD
ENDBRANCH   8  20
BRANCH   6  22
ATOM     22  O   UNL     1      49.123  11.796  -2.254  1.00  0.00    -0.508 OA
ATOM     23  H   UNL     1      49.449  11.760  -1.294  1.00  0.00     0.293 HD
ENDBRANCH   6  22
TORSDOF 4
ENDMDL
MODEL 6
REMARK VINA RESULT:    -4.999      1.678      7.572
REMARK INTER + INTRA:          -6.029
REMARK INTER:                  -5.735
REMARK INTRA:                  -0.293
REMARK UNBOUND:                -0.298
REMARK SMILES O=C1C[C@@H](c2ccc(O)cc2)Oc2cc(O)cc(O)c21
REMARK SMILES IDX 3 1 4 2 12 3 13 4 14 5 15 6 17 7 18 8 20 9 2 10 1 11 5 12
REMARK SMILES IDX 6 13 11 14 7 15 10 16 8 17 9 18 19 20 16 22
REMARK H PARENT 9 19 19 21 16 23
REMARK Flexibility Score: inf
ROOT
ATOM      1  C   UNL     1      45.233  18.039  -4.882  1.00  0.00     0.131 C 
ATOM      2  C   UNL     1      44.834  16.806  -4.057  1.00  0.00     0.211 C 
ATOM      3  O   UNL     1      44.224  17.200  -2.825  1.00  0.00    -0.484 OA
ATOM      4  C   UNL     1      43.286  18.236  -2.761  1.00  0.00     0.138 A 
ATOM      5  C   UNL     1      42.489  18.370  -1.622  1.00  0.00     0.093 A 
ATOM      6  C   UNL     1      41.527  19.384  -1.550  1.00  0.00     0.123 A 
ATOM      7  C   UNL     1      41.371  20.271  -2.619  1.00  0.00     0.093 A 
ATOM      8  C   UNL     1      42.178  20.160  -3.761  1.00  0.00     0.133 A 
ATOM      9  C   UNL     1      43.149  19.138  -3.834  1.00  0.00     0.102 A 
ATOM     10  C   UNL     1      44.071  18.986  -4.985  1.00  0.00     0.174 C 
ATOM     11  O   UNL     1      43.928  19.676  -6.031  1.00  0.00    -0.294 OA
ENDROOT
BRANCH   2  12
ATOM     12  C   UNL     1      46.035  15.933  -3.785  1.00  0.00    -0.007 A 
ATOM     13  C   UNL     1      45.885  14.719  -3.093  1.00  0.00     0.011 A 
ATOM     14  C   UNL     1      47.307  16.296  -4.264  1.00  0.00     0.011 A 
ATOM     15  C   UNL     1      46.991  13.894  -2.867  1.00  0.00     0.046 A 
ATOM     16  C   UNL     1      48.410  15.469  -4.035  1.00  0.00     0.046 A 
ATOM     17  C   UNL     1      48.257  14.267  -3.337  1.00  0.00     0.115 A 
BRANCH  17  18
ATOM     18  O   UNL     1      49.365  13.452  -3.119  1.00  0.00    -0.508 OA
ATOM     19  H   UNL     1      50.112  13.732  -2.494  1.00  0.00     0.293 HD
ENDBRANCH  17  18
ENDBRANCH   2  12
BRANCH   8  20
ATOM     20  O   UNL     1      42.017  21.064  -4.812  1.00  0.00    -0.507 OA
ATOM     21  H   UNL     1      41.657  20.772  -5.713  1.00  0.00     0.293 HD
ENDBRANCH   8  20
BRANCH   6  22
ATOM     22  O   UNL     1      40.719  19.520  -0.423  1.00  0.00    -0.508 OA
ATOM     23  H   UNL     1      40.966  19.087   0.461  1.00  0.00     0.293 HD
ENDBRANCH   6  22
TORSDOF 4
ENDMDL
MODEL 7
REMARK VINA RESULT:    -4.980      1.914      6.658
REMARK INTER + INTRA:          -6.006
REMARK INTER:                  -5.697
REMARK INTRA:                  -0.310
REMARK UNBOUND:                -0.298
REMARK SMILES O=C1C[C@@H](c2ccc(O)cc2)Oc2cc(O)cc(O)c21
REMARK SMILES IDX 3 1 4 2 12 3 13 4 14 5 15 6 17 7 18 8 20 9 2 10 1 11 5 12
REMARK SMILES IDX 6 13 11 14 7 15 10 16 8 17 9 18 19 20 16 22
REMARK H PARENT 9 19 19 21 16 23
REMARK Flexibility Score: inf
ROOT
ATOM      1  C   UNL     1      45.748  13.510  -3.660  1.00  0.00     0.131 C 
ATOM      2  C   UNL     1      46.612  14.573  -2.964  1.00  0.00     0.211 C 
ATOM      3  O   UNL     1      46.018  15.868  -3.090  1.00  0.00    -0.484 OA
ATOM      4  C   UNL     1      44.644  16.072  -2.919  1.00  0.00     0.138 A 
ATOM      5  C   UNL     1      44.162  17.369  -2.731  1.00  0.00     0.093 A 
ATOM      6  C   UNL     1      42.794  17.590  -2.532  1.00  0.00     0.123 A 
ATOM      7  C   UNL     1      41.908  16.510  -2.530  1.00  0.00     0.093 A 
ATOM      8  C   UNL     1      42.377  15.204  -2.737  1.00  0.00     0.133 A 
ATOM      9  C   UNL     1      43.755  14.979  -2.940  1.00  0.00     0.102 A 
ATOM     10  C   UNL     1      44.320  13.635  -3.212  1.00  0.00     0.174 C 
ATOM     11  O   UNL     1      43.607  12.599  -3.124  1.00  0.00    -0.294 OA
ENDROOT
BRANCH   2  12
ATOM     12  C   UNL     1      48.009  14.587  -3.537  1.00  0.00    -0.007 A 
ATOM     13  C   UNL     1      48.538  15.768  -4.083  1.00  0.00     0.011 A 
ATOM     14  C   UNL     1      48.815  13.435  -3.483  1.00  0.00     0.011 A 
ATOM     15  C   UNL     1      49.842  15.792  -4.586  1.00  0.00     0.046 A 
ATOM     16  C   UNL     1      50.119  13.462  -3.987  1.00  0.00     0.046 A 
ATOM     17  C   UNL     1      50.636  14.638  -4.539  1.00  0.00     0.115 A 
BRANCH  17  18
ATOM     18  O   UNL     1      51.937  14.650  -5.036  1.00  0.00    -0.508 OA
ATOM     19  H   UNL     1      52.688  15.119  -4.543  1.00  0.00     0.293 HD
ENDBRANCH  17  18
ENDBRANCH   2  12
BRANCH   8  20
ATOM     20  O   UNL     1      41.474  14.140  -2.746  1.00  0.00    -0.507 OA
ATOM     21  H   UNL     1      41.503  13.412  -2.042  1.00  0.00     0.293 HD
ENDBRANCH   8  20
BRANCH   6  22
ATOM     22  O   UNL     1      42.304  18.879  -2.333  1.00  0.00    -0.508 OA
ATOM     23  H   UNL     1      41.870  19.152  -1.457  1.00  0.00     0.293 HD
ENDBRANCH   6  22
TORSDOF 4
ENDMDL
MODEL 8
REMARK VINA RESULT:    -4.955      2.724      5.051
REMARK INTER + INTRA:          -5.978
REMARK INTER:                  -5.689
REMARK INTRA:                  -0.289
REMARK UNBOUND:                -0.298
REMARK SMILES O=C1C[C@@H](c2ccc(O)cc2)Oc2cc(O)cc(O)c21
REMARK SMILES IDX 3 1 4 2 12 3 13 4 14 5 15 6 17 7 18 8 20 9 2 10 1 11 5 12
REMARK SMILES IDX 6 13 11 14 7 15 10 16 8 17 9 18 19 20 16 22
REMARK H PARENT 9 19 19 21 16 23
REMARK Flexibility Score: inf
ROOT
ATOM      1  C   UNL     1      43.368  19.049  -4.135  1.00  0.00     0.131 C 
ATOM      2  C   UNL     1      43.434  18.878  -2.610  1.00  0.00     0.211 C 
ATOM      3  O   UNL     1      43.531  17.494  -2.262  1.00  0.00    -0.484 OA
ATOM      4  C   UNL     1      44.368  16.613  -2.954  1.00  0.00     0.138 A 
ATOM      5  C   UNL     1      44.675  15.373  -2.390  1.00  0.00     0.093 A 
ATOM      6  C   UNL     1      45.532  14.488  -3.056  1.00  0.00     0.123 A 
ATOM      7  C   UNL     1      46.074  14.845  -4.294  1.00  0.00     0.093 A 
ATOM      8  C   UNL     1      45.758  16.080  -4.880  1.00  0.00     0.133 A 
ATOM      9  C   UNL     1      44.894  16.972  -4.211  1.00  0.00     0.102 A 
ATOM     10  C   UNL     1      44.476  18.272  -4.788  1.00  0.00     0.174 C 
ATOM     11  O   UNL     1      44.999  18.714  -5.846  1.00  0.00    -0.294 OA
ENDROOT
BRANCH   2  12
ATOM     12  C   UNL     1      42.225  19.495  -1.949  1.00  0.00    -0.007 A 
ATOM     13  C   UNL     1      40.955  18.916  -2.116  1.00  0.00     0.011 A 
ATOM     14  C   UNL     1      42.362  20.622  -1.118  1.00  0.00     0.011 A 
ATOM     15  C   UNL     1      39.839  19.468  -1.480  1.00  0.00     0.046 A 
ATOM     16  C   UNL     1      41.243  21.170  -0.484  1.00  0.00     0.046 A 
ATOM     17  C   UNL     1      39.980  20.597  -0.662  1.00  0.00     0.115 A 
BRANCH  17  18
ATOM     18  O   UNL     1      38.876  21.154  -0.022  1.00  0.00    -0.508 OA
ATOM     19  H   UNL     1      38.538  22.079  -0.259  1.00  0.00     0.293 HD
ENDBRANCH  17  18
ENDBRANCH   2  12
BRANCH   8  20
ATOM     20  O   UNL     1      46.298  16.411  -6.124  1.00  0.00    -0.507 OA
ATOM     21  H   UNL     1      45.803  17.008  -6.776  1.00  0.00     0.293 HD
ENDBRANCH   8  20
BRANCH   6  22
ATOM     22  O   UNL     1      45.853  13.253  -2.497  1.00  0.00    -0.508 OA
ATOM     23  H   UNL     1      46.793  13.044  -2.178  1.00  0.00     0.293 HD
ENDBRANCH   6  22
TORSDOF 4
ENDMDL
MODEL 9
REMARK VINA RESULT:    -4.890      2.725      7.625
REMARK INTER + INTRA:          -5.903
REMARK INTER:                  -5.614
REMARK INTRA:                  -0.288
REMARK UNBOUND:                -0.298
REMARK SMILES O=C1C[C@@H](c2ccc(O)cc2)Oc2cc(O)cc(O)c21
REMARK SMILES IDX 3 1 4 2 12 3 13 4 14 5 15 6 17 7 18 8 20 9 2 10 1 11 5 12
REMARK SMILES IDX 6 13 11 14 7 15 10 16 8 17 9 18 19 20 16 22
REMARK H PARENT 9 19 19 21 16 23
REMARK Flexibility Score: inf
ROOT
ATOM      1  C   UNL     1      42.774  16.488  -3.968  1.00  0.00     0.131 C 
ATOM      2  C   UNL     1      43.967  17.024  -3.164  1.00  0.00     0.211 C 
ATOM      3  O   UNL     1      43.746  18.384  -2.779  1.00  0.00    -0.484 OA
ATOM      4  C   UNL     1      42.509  18.824  -2.294  1.00  0.00     0.138 A 
ATOM      5  C   UNL     1      42.429  20.053  -1.636  1.00  0.00     0.093 A 
ATOM      6  C   UNL     1      41.206  20.498  -1.121  1.00  0.00     0.123 A 
ATOM      7  C   UNL     1      40.060  19.714  -1.276  1.00  0.00     0.093 A 
ATOM      8  C   UNL     1      40.123  18.486  -1.952  1.00  0.00     0.133 A 
ATOM      9  C   UNL     1      41.355  18.036  -2.472  1.00  0.00     0.102 A 
ATOM     10  C   UNL     1      41.492  16.775  -3.239  1.00  0.00     0.174 C 
ATOM     11  O   UNL     1      40.533  15.961  -3.332  1.00  0.00    -0.294 OA
ENDROOT
BRANCH   2  12
ATOM     12  C   UNL     1      45.244  16.913  -3.962  1.00  0.00    -0.007 A 
ATOM     13  C   UNL     1      45.430  17.702  -5.111  1.00  0.00     0.011 A 
ATOM     14  C   UNL     1      46.281  16.063  -3.539  1.00  0.00     0.011 A 
ATOM     15  C   UNL     1      46.624  17.624  -5.834  1.00  0.00     0.046 A 
ATOM     16  C   UNL     1      47.473  15.988  -4.265  1.00  0.00     0.046 A 
ATOM     17  C   UNL     1      47.649  16.766  -5.413  1.00  0.00     0.115 A 
BRANCH  17  18
ATOM     18  O   UNL     1      48.843  16.682  -6.125  1.00  0.00    -0.508 OA
ATOM     19  H   UNL     1      49.742  16.751  -5.662  1.00  0.00     0.293 HD
ENDBRANCH  17  18
ENDBRANCH   2  12
BRANCH   8  20
ATOM     20  O   UNL     1      38.965  17.724  -2.108  1.00  0.00    -0.507 OA
ATOM     21  H   UNL     1      38.331  17.873  -2.885  1.00  0.00     0.293 HD
ENDBRANCH   8  20
BRANCH   6  22
ATOM     22  O   UNL     1      41.117  21.718  -0.454  1.00  0.00    -0.508 OA
ATOM     23  H   UNL     1      40.271  22.276  -0.479  1.00  0.00     0.293 HD
ENDBRANCH   6  22
TORSDOF 4
ENDMDL
