MODEL 1
REMARK VINA RESULT:    -4.759      0.000      0.000
REMARK INTER + INTRA:          -5.566
REMARK INTER:                  -5.316
REMARK INTRA:                  -0.251
REMARK UNBOUND:                -0.251
REMARK SMILES CC(=O)c1ccc(O)cc1O
REMARK SMILES IDX 4 1 10 2 9 3 7 4 6 5 5 6 2 7 1 8 3 9 11 10 8 12
REMARK H PARENT 11 11 8 13
REMARK Flexibility Score: inf
ROOT
ATOM      1  C   UNL     1      73.406  34.427  55.036  1.00  0.00     0.059 A 
ATOM      2  C   UNL     1      73.520  33.585  53.902  1.00  0.00     0.130 A 
ATOM      3  C   UNL     1      74.200  34.038  52.765  1.00  0.00     0.093 A 
ATOM      4  C   UNL     1      74.797  35.301  52.746  1.00  0.00     0.119 A 
ATOM      5  C   UNL     1      74.711  36.125  53.873  1.00  0.00     0.047 A 
ATOM      6  C   UNL     1      74.022  35.693  55.007  1.00  0.00     0.019 A 
ENDROOT
BRANCH   1   7
ATOM      7  C   UNL     1      72.626  34.033  56.232  1.00  0.00     0.163 C 
ATOM      8  C   UNL     1      71.279  34.628  56.509  1.00  0.00     0.093 C 
ATOM      9  O   UNL     1      73.056  33.124  56.992  1.00  0.00    -0.294 OA
ENDBRANCH   1   7
BRANCH   2  10
ATOM     10  O   UNL     1      73.002  32.287  53.878  1.00  0.00    -0.507 OA
ATOM     11  H   UNL     1      73.148  31.645  53.110  1.00  0.00     0.293 HD
ENDBRANCH   2  10
BRANCH   4  12
ATOM     12  O   UNL     1      75.474  35.725  51.605  1.00  0.00    -0.508 OA
ATOM     13  H   UNL     1      76.099  35.107  51.100  1.00  0.00     0.293 HD
ENDBRANCH   4  12
TORSDOF 3
ENDMDL
MODEL 2
REMARK VINA RESULT:    -4.668     16.364     17.516
REMARK INTER + INTRA:          -5.464
REMARK INTER:                  -5.186
REMARK INTRA:                  -0.278
REMARK UNBOUND:                -0.251
REMARK SMILES CC(=O)c1ccc(O)cc1O
REMARK SMILES IDX 4 1 10 2 9 3 7 4 6 5 5 6 2 7 1 8 3 9 11 10 8 12
REMARK H PARENT 11 11 8 13
REMARK Flexibility Score: inf
ROOT
ATOM      1  C   UNL     1      86.128  32.358  65.811  1.00  0.00     0.059 A 
ATOM      2  C   UNL     1      85.928  32.313  67.213  1.00  0.00     0.130 A 
ATOM      3  C   UNL     1      84.674  31.960  67.726  1.00  0.00     0.093 A 
ATOM      4  C   UNL     1      83.623  31.620  66.871  1.00  0.00     0.119 A 
ATOM      5  C   UNL     1      83.823  31.635  65.486  1.00  0.00     0.047 A 
ATOM      6  C   UNL     1      85.063  32.001  64.961  1.00  0.00     0.019 A 
ENDROOT
BRANCH   1   7
ATOM      7  C   UNL     1      87.408  32.805  65.213  1.00  0.00     0.163 C 
ATOM      8  C   UNL     1      88.146  31.946  64.233  1.00  0.00     0.093 C 
ATOM      9  O   UNL     1      87.850  33.959  65.463  1.00  0.00    -0.294 OA
ENDBRANCH   1   7
BRANCH   2  10
ATOM     10  O   UNL     1      86.954  32.579  68.125  1.00  0.00    -0.507 OA
ATOM     11  H   UNL     1      87.373  31.870  68.711  1.00  0.00     0.293 HD
ENDBRANCH   2  10
BRANCH   4  12
ATOM     12  O   UNL     1      82.386  31.266  67.406  1.00  0.00    -0.508 OA
ATOM     13  H   UNL     1      82.145  30.298  67.583  1.00  0.00     0.293 HD
ENDBRANCH   4  12
TORSDOF 3
ENDMDL
MODEL 3
REMARK VINA RESULT:    -4.645     15.325     16.309
REMARK INTER + INTRA:          -5.438
REMARK INTER:                  -5.132
REMARK INTRA:                  -0.306
REMARK UNBOUND:                -0.251
REMARK SMILES CC(=O)c1ccc(O)cc1O
REMARK SMILES IDX 4 1 10 2 9 3 7 4 6 5 5 6 2 7 1 8 3 9 11 10 8 12
REMARK H PARENT 11 11 8 13
REMARK Flexibility Score: inf
ROOT
ATOM      1  C   UNL     1      85.521  31.433  64.753  1.00  0.00     0.059 A 
ATOM      2  C   UNL     1      84.125  31.201  64.664  1.00  0.00     0.130 A 
ATOM      3  C   UNL     1      83.635  29.889  64.703  1.00  0.00     0.093 A 
ATOM      4  C   UNL     1      84.503  28.807  64.861  1.00  0.00     0.119 A 
ATOM      5  C   UNL     1      85.879  29.033  64.979  1.00  0.00     0.047 A 
ATOM      6  C   UNL     1      86.383  30.333  64.925  1.00  0.00     0.019 A 
ENDROOT
BRANCH   1   7
ATOM      7  C   UNL     1      86.100  32.791  64.633  1.00  0.00     0.163 C 
ATOM      8  C   UNL     1      87.202  33.245  65.540  1.00  0.00     0.093 C 
ATOM      9  O   UNL     1      85.724  33.556  63.704  1.00  0.00    -0.294 OA
ENDBRANCH   1   7
BRANCH   2  10
ATOM     10  O   UNL     1      83.197  32.241  64.569  1.00  0.00    -0.507 OA
ATOM     11  H   UNL     1      83.421  33.151  64.190  1.00  0.00     0.293 HD
ENDBRANCH   2  10
BRANCH   4  12
ATOM     12  O   UNL     1      83.990  27.512  64.904  1.00  0.00    -0.508 OA
ATOM     13  H   UNL     1      83.844  26.972  64.059  1.00  0.00     0.293 HD
ENDBRANCH   4  12
TORSDOF 3
ENDMDL
MODEL 4
REMARK VINA RESULT:    -4.589     16.298     17.069
REMARK INTER + INTRA:          -5.376
REMARK INTER:                  -5.075
REMARK INTRA:                  -0.301
REMARK UNBOUND:                -0.251
REMARK SMILES CC(=O)c1ccc(O)cc1O
REMARK SMILES IDX 4 1 10 2 9 3 7 4 6 5 5 6 2 7 1 8 3 9 11 10 8 12
REMARK H PARENT 11 11 8 13
REMARK Flexibility Score: inf
ROOT
ATOM      1  C   UNL     1      86.730  30.499  65.064  1.00  0.00     0.059 A 
ATOM      2  C   UNL     1      85.527  29.770  64.895  1.00  0.00     0.130 A 
ATOM      3  C   UNL     1      84.315  30.454  64.737  1.00  0.00     0.093 A 
ATOM      4  C   UNL     1      84.282  31.850  64.712  1.00  0.00     0.119 A 
ATOM      5  C   UNL     1      85.471  32.575  64.849  1.00  0.00     0.047 A 
ATOM      6  C   UNL     1      86.683  31.906  65.024  1.00  0.00     0.019 A 
ENDROOT
BRANCH   1   7
ATOM      7  C   UNL     1      88.026  29.828  65.320  1.00  0.00     0.163 C 
ATOM      8  C   UNL     1      88.988  30.365  66.335  1.00  0.00     0.093 C 
ATOM      9  O   UNL     1      88.298  28.742  64.740  1.00  0.00    -0.294 OA
ENDBRANCH   1   7
BRANCH   2  10
ATOM     10  O   UNL     1      85.497  28.374  64.847  1.00  0.00    -0.507 OA
ATOM     11  H   UNL     1      84.795  27.816  65.315  1.00  0.00     0.293 HD
ENDBRANCH   2  10
BRANCH   4  12
ATOM     12  O   UNL     1      83.065  32.508  64.545  1.00  0.00    -0.508 OA
ATOM     13  H   UNL     1      82.995  33.516  64.612  1.00  0.00     0.293 HD
ENDBRANCH   4  12
TORSDOF 3
ENDMDL
MODEL 5
REMARK VINA RESULT:    -4.580     16.068     17.089
REMARK INTER + INTRA:          -5.366
REMARK INTER:                  -5.119
REMARK INTRA:                  -0.246
REMARK UNBOUND:                -0.251
REMARK SMILES CC(=O)c1ccc(O)cc1O
REMARK SMILES IDX 4 1 10 2 9 3 7 4 6 5 5 6 2 7 1 8 3 9 11 10 8 12
REMARK H PARENT 11 11 8 13
REMARK Flexibility Score: inf
ROOT
ATOM      1  C   UNL     1      86.460  32.721  65.514  1.00  0.00     0.059 A 
ATOM      2  C   UNL     1      85.383  32.511  64.617  1.00  0.00     0.130 A 
ATOM      3  C   UNL     1      84.161  32.025  65.099  1.00  0.00     0.093 A 
ATOM      4  C   UNL     1      83.979  31.775  66.461  1.00  0.00     0.119 A 
ATOM      5  C   UNL     1      85.030  32.008  67.355  1.00  0.00     0.047 A 
ATOM      6  C   UNL     1      86.259  32.476  66.887  1.00  0.00     0.019 A 
ENDROOT
BRANCH   1   7
ATOM      7  C   UNL     1      87.798  33.152  65.048  1.00  0.00     0.163 C 
ATOM      8  C   UNL     1      88.403  34.440  65.516  1.00  0.00     0.093 C 
ATOM      9  O   UNL     1      88.482  32.392  64.310  1.00  0.00    -0.294 OA
ENDBRANCH   1   7
BRANCH   2  10
ATOM     10  O   UNL     1      85.476  32.801  63.253  1.00  0.00    -0.507 OA
ATOM     11  H   UNL     1      86.132  32.345  62.632  1.00  0.00     0.293 HD
ENDBRANCH   2  10
BRANCH   4  12
ATOM     12  O   UNL     1      82.752  31.299  66.916  1.00  0.00    -0.508 OA
ATOM     13  H   UNL     1      82.236  31.778  67.646  1.00  0.00     0.293 HD
ENDBRANCH   4  12
TORSDOF 3
ENDMDL
MODEL 6
REMARK VINA RESULT:    -4.569     16.537     17.413
REMARK INTER + INTRA:          -5.354
REMARK INTER:                  -5.064
REMARK INTRA:                  -0.290
REMARK UNBOUND:                -0.251
REMARK SMILES CC(=O)c1ccc(O)cc1O
REMARK SMILES IDX 4 1 10 2 9 3 7 4 6 5 5 6 2 7 1 8 3 9 11 10 8 12
REMARK H PARENT 11 11 8 13
REMARK Flexibility Score: inf
ROOT
ATOM      1  C   UNL     1      85.240  31.605  65.750  1.00  0.00     0.059 A 
ATOM      2  C   UNL     1      85.444  31.964  67.105  1.00  0.00     0.130 A 
ATOM      3  C   UNL     1      86.739  31.960  67.639  1.00  0.00     0.093 A 
ATOM      4  C   UNL     1      87.839  31.637  66.840  1.00  0.00     0.119 A 
ATOM      5  C   UNL     1      87.646  31.309  65.494  1.00  0.00     0.047 A 
ATOM      6  C   UNL     1      86.359  31.293  64.953  1.00  0.00     0.019 A 
ENDROOT
BRANCH   1   7
ATOM      7  C   UNL     1      83.886  31.510  65.158  1.00  0.00     0.163 C 
ATOM      8  C   UNL     1      83.326  30.193  64.713  1.00  0.00     0.093 C 
ATOM      9  O   UNL     1      83.152  32.533  65.097  1.00  0.00    -0.294 OA
ENDBRANCH   1   7
BRANCH   2  10
ATOM     10  O   UNL     1      84.397  32.359  67.942  1.00  0.00    -0.507 OA
ATOM     11  H   UNL     1      84.503  32.495  68.938  1.00  0.00     0.293 HD
ENDBRANCH   2  10
BRANCH   4  12
ATOM     12  O   UNL     1      89.118  31.647  67.392  1.00  0.00    -0.508 OA
ATOM     13  H   UNL     1      89.426  30.920  68.027  1.00  0.00     0.293 HD
ENDBRANCH   4  12
TORSDOF 3
ENDMDL
MODEL 7
REMARK VINA RESULT:    -4.395      4.471      6.460
REMARK INTER + INTRA:          -5.159
REMARK INTER:                  -4.850
REMARK INTRA:                  -0.309
REMARK UNBOUND:                -0.251
REMARK SMILES CC(=O)c1ccc(O)cc1O
REMARK SMILES IDX 4 1 10 2 9 3 7 4 6 5 5 6 2 7 1 8 3 9 11 10 8 12
REMARK H PARENT 11 11 8 13
REMARK Flexibility Score: inf
ROOT
ATOM      1  C   UNL     1      79.064  34.161  52.015  1.00  0.00     0.059 A 
ATOM      2  C   UNL     1      78.451  32.902  52.230  1.00  0.00     0.130 A 
ATOM      3  C   UNL     1      77.058  32.819  52.354  1.00  0.00     0.093 A 
ATOM      4  C   UNL     1      76.262  33.960  52.236  1.00  0.00     0.119 A 
ATOM      5  C   UNL     1      76.861  35.201  51.995  1.00  0.00     0.047 A 
ATOM      6  C   UNL     1      78.249  35.301  51.886  1.00  0.00     0.019 A 
ENDROOT
BRANCH   1   7
ATOM      7  C   UNL     1      80.537  34.318  51.960  1.00  0.00     0.163 C 
ATOM      8  C   UNL     1      81.233  35.370  52.769  1.00  0.00     0.093 C 
ATOM      9  O   UNL     1      81.232  33.507  51.291  1.00  0.00    -0.294 OA
ENDBRANCH   1   7
BRANCH   2  10
ATOM     10  O   UNL     1      79.182  31.713  52.294  1.00  0.00    -0.507 OA
ATOM     11  H   UNL     1      80.144  31.668  52.602  1.00  0.00     0.293 HD
ENDBRANCH   2  10
BRANCH   4  12
ATOM     12  O   UNL     1      74.878  33.850  52.356  1.00  0.00    -0.508 OA
ATOM     13  H   UNL     1      74.288  33.700  51.546  1.00  0.00     0.293 HD
ENDBRANCH   4  12
TORSDOF 3
ENDMDL
MODEL 8
REMARK VINA RESULT:    -4.275     16.035     16.765
REMARK INTER + INTRA:          -5.025
REMARK INTER:                  -4.749
REMARK INTRA:                  -0.276
REMARK UNBOUND:                -0.251
REMARK SMILES CC(=O)c1ccc(O)cc1O
REMARK SMILES IDX 4 1 10 2 9 3 7 4 6 5 5 6 2 7 1 8 3 9 11 10 8 12
REMARK H PARENT 11 11 8 13
REMARK Flexibility Score: inf
ROOT
ATOM      1  C   UNL     1      85.493  31.773  65.085  1.00  0.00     0.059 A 
ATOM      2  C   UNL     1      85.989  32.890  64.367  1.00  0.00     0.130 A 
ATOM      3  C   UNL     1      87.192  33.490  64.759  1.00  0.00     0.093 A 
ATOM      4  C   UNL     1      87.927  32.981  65.832  1.00  0.00     0.119 A 
ATOM      5  C   UNL     1      87.456  31.861  66.526  1.00  0.00     0.047 A 
ATOM      6  C   UNL     1      86.251  31.263  66.157  1.00  0.00     0.019 A 
ENDROOT
BRANCH   1   7
ATOM      7  C   UNL     1      84.186  31.152  64.767  1.00  0.00     0.163 C 
ATOM      8  C   UNL     1      84.076  29.688  64.469  1.00  0.00     0.093 C 
ATOM      9  O   UNL     1      83.131  31.841  64.825  1.00  0.00    -0.294 OA
ENDBRANCH   1   7
BRANCH   2  10
ATOM     10  O   UNL     1      85.336  33.410  63.246  1.00  0.00    -0.507 OA
ATOM     11  H   UNL     1      85.465  33.047  62.311  1.00  0.00     0.293 HD
ENDBRANCH   2  10
BRANCH   4  12
ATOM     12  O   UNL     1      89.125  33.592  66.198  1.00  0.00    -0.508 OA
ATOM     13  H   UNL     1      89.769  33.952  65.503  1.00  0.00     0.293 HD
ENDBRANCH   4  12
TORSDOF 3
ENDMDL
MODEL 9
REMARK VINA RESULT:    -4.041     16.575     17.424
REMARK INTER + INTRA:          -4.764
REMARK INTER:                  -4.455
REMARK INTRA:                  -0.309
REMARK UNBOUND:                -0.251
REMARK SMILES CC(=O)c1ccc(O)cc1O
REMARK SMILES IDX 4 1 10 2 9 3 7 4 6 5 5 6 2 7 1 8 3 9 11 10 8 12
REMARK H PARENT 11 11 8 13
REMARK Flexibility Score: inf
ROOT
ATOM      1  C   UNL     1      86.919  30.749  65.284  1.00  0.00     0.059 A 
ATOM      2  C   UNL     1      86.769  32.156  65.223  1.00  0.00     0.130 A 
ATOM      3  C   UNL     1      85.515  32.710  64.935  1.00  0.00     0.093 A 
ATOM      4  C   UNL     1      84.401  31.890  64.737  1.00  0.00     0.119 A 
ATOM      5  C   UNL     1      84.539  30.501  64.824  1.00  0.00     0.047 A 
ATOM      6  C   UNL     1      85.786  29.935  65.094  1.00  0.00     0.019 A 
ENDROOT
BRANCH   1   7
ATOM      7  C   UNL     1      88.238  30.108  65.501  1.00  0.00     0.163 C 
ATOM      8  C   UNL     1      88.714  28.999  64.614  1.00  0.00     0.093 C 
ATOM      9  O   UNL     1      89.013  30.550  66.391  1.00  0.00    -0.294 OA
ENDBRANCH   1   7
BRANCH   2  10
ATOM     10  O   UNL     1      87.826  33.035  65.474  1.00  0.00    -0.507 OA
ATOM     11  H   UNL     1      87.740  34.040  65.410  1.00  0.00     0.293 HD
ENDBRANCH   2  10
BRANCH   4  12
ATOM     12  O   UNL     1      83.163  32.466  64.459  1.00  0.00    -0.508 OA
ATOM     13  H   UNL     1      83.056  33.469  64.363  1.00  0.00     0.293 HD
ENDBRANCH   4  12
TORSDOF 3
ENDMDL
