MODEL 1
REMARK VINA RESULT:    -2.674      0.000      0.000
REMARK INTER + INTRA:          -3.005
REMARK INTER:                  -2.986
REMARK INTRA:                  -0.018
REMARK UNBOUND:                -0.018
REMARK SMILES CCCC(=O)[O-]
REMARK SMILES IDX 3 1 4 2 5 3 6 4 2 5 1 6
REMARK H PARENT
REMARK Flexibility Score: inf
ROOT
ATOM      1  C   UNL     1      19.084  11.998 -13.883  1.00  0.00     0.052 C 
ENDROOT
BRANCH   1   2
ATOM      2  C   UNL     1      18.460  10.852 -14.618  1.00  0.00     0.041 C 
ATOM      3  O   UNL     1      18.810  10.591 -15.800  1.00  0.00    -0.550 OA
ATOM      4  O   UNL     1      17.467  10.092 -14.011  1.00  0.00    -0.550 OA
ENDBRANCH   1   2
BRANCH   1   5
ATOM      5  C   UNL     1      20.581  12.126 -14.193  1.00  0.00     0.003 C 
ATOM      6  C   UNL     1      21.056  13.578 -14.183  1.00  0.00     0.004 C 
ENDBRANCH   1   5
TORSDOF 2
ENDMDL
MODEL 2
REMARK VINA RESULT:    -2.668      0.072      1.323
REMARK INTER + INTRA:          -2.998
REMARK INTER:                  -2.982
REMARK INTRA:                  -0.016
REMARK UNBOUND:                -0.018
REMARK SMILES CCCC(=O)[O-]
REMARK SMILES IDX 3 1 4 2 5 3 6 4 2 5 1 6
REMARK H PARENT
REMARK Flexibility Score: inf
ROOT
ATOM      1  C   UNL     1      19.079  12.009 -13.880  1.00  0.00     0.052 C 
ENDROOT
BRANCH   1   2
ATOM      2  C   UNL     1      18.451  10.859 -14.606  1.00  0.00     0.041 C 
ATOM      3  O   UNL     1      17.571  10.158 -14.040  1.00  0.00    -0.550 OA
ATOM      4  O   UNL     1      18.862  10.540 -15.894  1.00  0.00    -0.550 OA
ENDBRANCH   1   2
BRANCH   1   5
ATOM      5  C   UNL     1      20.578  12.126 -14.187  1.00  0.00     0.003 C 
ATOM      6  C   UNL     1      21.056  13.578 -14.206  1.00  0.00     0.004 C 
ENDBRANCH   1   5
TORSDOF 2
ENDMDL
MODEL 3
REMARK VINA RESULT:    -2.667      2.250      3.403
REMARK INTER + INTRA:          -2.998
REMARK INTER:                  -2.965
REMARK INTRA:                  -0.032
REMARK UNBOUND:                -0.018
REMARK SMILES CCCC(=O)[O-]
REMARK SMILES IDX 3 1 4 2 5 3 6 4 2 5 1 6
REMARK H PARENT
REMARK Flexibility Score: inf
ROOT
ATOM      1  C   UNL     1      19.956  12.012 -14.049  1.00  0.00     0.052 C 
ENDROOT
BRANCH   1   2
ATOM      2  C   UNL     1      20.011  13.278 -14.850  1.00  0.00     0.041 C 
ATOM      3  O   UNL     1      20.904  14.135 -14.619  1.00  0.00    -0.550 OA
ATOM      4  O   UNL     1      19.055  13.526 -15.826  1.00  0.00    -0.550 OA
ENDBRANCH   1   2
BRANCH   1   5
ATOM      5  C   UNL     1      18.532  11.702 -13.571  1.00  0.00     0.003 C 
ATOM      6  C   UNL     1      18.062  10.314 -14.007  1.00  0.00     0.004 C 
ENDBRANCH   1   5
TORSDOF 2
ENDMDL
MODEL 4
REMARK VINA RESULT:    -2.663      2.269      3.421
REMARK INTER + INTRA:          -2.993
REMARK INTER:                  -2.956
REMARK INTRA:                  -0.037
REMARK UNBOUND:                -0.018
REMARK SMILES CCCC(=O)[O-]
REMARK SMILES IDX 3 1 4 2 5 3 6 4 2 5 1 6
REMARK H PARENT
REMARK Flexibility Score: inf
ROOT
ATOM      1  C   UNL     1      19.139  12.332 -14.581  1.00  0.00     0.052 C 
ENDROOT
BRANCH   1   2
ATOM      2  C   UNL     1      20.587  12.514 -14.242  1.00  0.00     0.041 C 
ATOM      3  O   UNL     1      21.045  13.666 -14.020  1.00  0.00    -0.550 OA
ATOM      4  O   UNL     1      21.437  11.417 -14.205  1.00  0.00    -0.550 OA
ENDBRANCH   1   2
BRANCH   1   5
ATOM      5  C   UNL     1      18.400  11.524 -13.506  1.00  0.00     0.003 C 
ATOM      6  C   UNL     1      17.945  10.157 -14.016  1.00  0.00     0.004 C 
ENDBRANCH   1   5
TORSDOF 2
ENDMDL
MODEL 5
REMARK VINA RESULT:    -2.652     13.631     14.398
REMARK INTER + INTRA:          -2.980
REMARK INTER:                  -2.930
REMARK INTRA:                  -0.050
REMARK UNBOUND:                -0.018
REMARK SMILES CCCC(=O)[O-]
REMARK SMILES IDX 3 1 4 2 5 3 6 4 2 5 1 6
REMARK H PARENT
REMARK Flexibility Score: inf
ROOT
ATOM      1  C   UNL     1       5.676   8.167 -12.057  1.00  0.00     0.052 C 
ENDROOT
BRANCH   1   2
ATOM      2  C   UNL     1       4.885   8.755 -10.928  1.00  0.00     0.041 C 
ATOM      3  O   UNL     1       3.738   9.232 -11.140  1.00  0.00    -0.550 OA
ATOM      4  O   UNL     1       5.427   8.807  -9.651  1.00  0.00    -0.550 OA
ENDBRANCH   1   2
BRANCH   1   5
ATOM      5  C   UNL     1       6.847   9.072 -12.463  1.00  0.00     0.003 C 
ATOM      6  C   UNL     1       6.409  10.213 -13.380  1.00  0.00     0.004 C 
ENDBRANCH   1   5
TORSDOF 2
ENDMDL
MODEL 6
REMARK VINA RESULT:    -2.515     12.692     13.524
REMARK INTER + INTRA:          -2.827
REMARK INTER:                  -2.799
REMARK INTRA:                  -0.028
REMARK UNBOUND:                -0.018
REMARK SMILES CCCC(=O)[O-]
REMARK SMILES IDX 3 1 4 2 5 3 6 4 2 5 1 6
REMARK H PARENT
REMARK Flexibility Score: inf
ROOT
ATOM      1  C   UNL     1       6.695  10.270 -13.203  1.00  0.00     0.052 C 
ENDROOT
BRANCH   1   2
ATOM      2  C   UNL     1       6.691   8.994 -12.418  1.00  0.00     0.041 C 
ATOM      3  O   UNL     1       7.391   8.016 -12.795  1.00  0.00    -0.550 OA
ATOM      4  O   UNL     1       5.889   8.871 -11.291  1.00  0.00    -0.550 OA
ENDBRANCH   1   2
BRANCH   1   5
ATOM      5  C   UNL     1       5.713  10.216 -14.382  1.00  0.00     0.003 C 
ATOM      6  C   UNL     1       4.506  11.129 -14.174  1.00  0.00     0.004 C 
ENDBRANCH   1   5
TORSDOF 2
ENDMDL
MODEL 7
REMARK VINA RESULT:    -2.472     13.595     13.962
REMARK INTER + INTRA:          -2.780
REMARK INTER:                  -2.742
REMARK INTRA:                  -0.038
REMARK UNBOUND:                -0.018
REMARK SMILES CCCC(=O)[O-]
REMARK SMILES IDX 3 1 4 2 5 3 6 4 2 5 1 6
REMARK H PARENT
REMARK Flexibility Score: inf
ROOT
ATOM      1  C   UNL     1       6.412  10.295 -13.424  1.00  0.00     0.052 C 
ENDROOT
BRANCH   1   2
ATOM      2  C   UNL     1       4.947  10.606 -13.464  1.00  0.00     0.041 C 
ATOM      3  O   UNL     1       4.505  11.474 -14.263  1.00  0.00    -0.550 OA
ATOM      4  O   UNL     1       4.074   9.963 -12.595  1.00  0.00    -0.550 OA
ENDBRANCH   1   2
BRANCH   1   5
ATOM      5  C   UNL     1       6.740   9.233 -12.367  1.00  0.00     0.003 C 
ATOM      6  C   UNL     1       7.070   7.876 -12.988  1.00  0.00     0.004 C 
ENDBRANCH   1   5
TORSDOF 2
ENDMDL
MODEL 8
REMARK VINA RESULT:    -2.441     13.022     14.038
REMARK INTER + INTRA:          -2.744
REMARK INTER:                  -2.710
REMARK INTRA:                  -0.035
REMARK UNBOUND:                -0.018
REMARK SMILES CCCC(=O)[O-]
REMARK SMILES IDX 3 1 4 2 5 3 6 4 2 5 1 6
REMARK H PARENT
REMARK Flexibility Score: inf
ROOT
ATOM      1  C   UNL     1       5.113   9.212 -11.962  1.00  0.00     0.052 C 
ENDROOT
BRANCH   1   2
ATOM      2  C   UNL     1       6.461   9.328 -12.606  1.00  0.00     0.041 C 
ATOM      3  O   UNL     1       6.800  10.399 -13.176  1.00  0.00    -0.550 OA
ATOM      4  O   UNL     1       7.328   8.243 -12.608  1.00  0.00    -0.550 OA
ENDBRANCH   1   2
BRANCH   1   5
ATOM      5  C   UNL     1       5.078   8.094 -10.911  1.00  0.00     0.003 C 
ATOM      6  C   UNL     1       5.174   8.634  -9.485  1.00  0.00     0.004 C 
ENDBRANCH   1   5
TORSDOF 2
ENDMDL
MODEL 9
REMARK VINA RESULT:    -2.251      1.432      1.836
REMARK INTER + INTRA:          -2.532
REMARK INTER:                  -2.513
REMARK INTRA:                  -0.020
REMARK UNBOUND:                -0.018
REMARK SMILES CCCC(=O)[O-]
REMARK SMILES IDX 3 1 4 2 5 3 6 4 2 5 1 6
REMARK H PARENT
REMARK Flexibility Score: inf
ROOT
ATOM      1  C   UNL     1      18.693  10.290 -14.182  1.00  0.00     0.052 C 
ENDROOT
BRANCH   1   2
ATOM      2  C   UNL     1      18.981   9.471 -15.404  1.00  0.00     0.041 C 
ATOM      3  O   UNL     1      19.990   9.727 -16.114  1.00  0.00    -0.550 OA
ATOM      4  O   UNL     1      18.118   8.449 -15.777  1.00  0.00    -0.550 OA
ENDBRANCH   1   2
BRANCH   1   5
ATOM      5  C   UNL     1      18.787  11.794 -14.470  1.00  0.00     0.003 C 
ATOM      6  C   UNL     1      20.076  12.410 -13.929  1.00  0.00     0.004 C 
ENDBRANCH   1   5
TORSDOF 2
ENDMDL
