MODEL 1
REMARK VINA RESULT:    -3.381      0.000      0.000
REMARK INTER + INTRA:          -4.673
REMARK INTER:                  -4.370
REMARK INTRA:                  -0.303
REMARK UNBOUND:                -0.303
REMARK SMILES CCCCCCC(=O)[O-]
REMARK SMILES IDX 5 1 6 2 7 3 8 4 9 5 4 6 3 7 2 8 1 9
REMARK H PARENT
REMARK Flexibility Score: inf
ROOT
ATOM      1  C   UNL     1      31.367   9.524  28.099  1.00  0.00     0.006 C 
ENDROOT
BRANCH   1   2
ATOM      2  C   UNL     1      30.570  10.490  28.982  1.00  0.00     0.053 C 
BRANCH   2   3
ATOM      3  C   UNL     1      29.398  11.040  28.232  1.00  0.00     0.041 C 
ATOM      4  O   UNL     1      29.209  10.722  27.030  1.00  0.00    -0.550 OA
ATOM      5  O   UNL     1      28.485  11.865  28.878  1.00  0.00    -0.550 OA
ENDBRANCH   2   3
ENDBRANCH   1   2
BRANCH   1   6
ATOM      6  C   UNL     1      31.542   8.166  28.788  1.00  0.00     0.000 C 
BRANCH   6   7
ATOM      7  C   UNL     1      30.253   7.339  28.709  1.00  0.00    -0.000 C 
BRANCH   7   8
ATOM      8  C   UNL     1      30.012   6.572  30.014  1.00  0.00    -0.003 C 
ATOM      9  C   UNL     1      31.019   6.977  31.087  1.00  0.00     0.004 C 
ENDBRANCH   7   8
ENDBRANCH   6   7
ENDBRANCH   1   6
TORSDOF 5
ENDMDL
MODEL 2
REMARK VINA RESULT:    -3.303      1.273      2.034
REMARK INTER + INTRA:          -4.571
REMARK INTER:                  -4.318
REMARK INTRA:                  -0.253
REMARK UNBOUND:                -0.303
REMARK SMILES CCCCCCC(=O)[O-]
REMARK SMILES IDX 5 1 6 2 7 3 8 4 9 5 4 6 3 7 2 8 1 9
REMARK H PARENT
REMARK Flexibility Score: inf
ROOT
ATOM      1  C   UNL     1      30.868   9.612  27.818  1.00  0.00     0.006 C 
ENDROOT
BRANCH   1   2
ATOM      2  C   UNL     1      30.325  10.700  28.750  1.00  0.00     0.053 C 
BRANCH   2   3
ATOM      3  C   UNL     1      29.066  11.285  28.196  1.00  0.00     0.041 C 
ATOM      4  O   UNL     1      28.752  11.090  26.993  1.00  0.00    -0.550 OA
ATOM      5  O   UNL     1      28.211  12.005  29.022  1.00  0.00    -0.550 OA
ENDBRANCH   2   3
ENDBRANCH   1   2
BRANCH   1   6
ATOM      6  C   UNL     1      30.789   8.232  28.480  1.00  0.00     0.000 C 
BRANCH   6   7
ATOM      7  C   UNL     1      31.933   8.036  29.482  1.00  0.00    -0.000 C 
BRANCH   7   8
ATOM      8  C   UNL     1      33.274   8.466  28.877  1.00  0.00    -0.003 C 
ATOM      9  C   UNL     1      34.141   9.183  29.909  1.00  0.00     0.004 C 
ENDBRANCH   7   8
ENDBRANCH   6   7
ENDBRANCH   1   6
TORSDOF 5
ENDMDL
MODEL 3
REMARK VINA RESULT:    -3.279      9.261     10.449
REMARK INTER + INTRA:          -4.540
REMARK INTER:                  -4.146
REMARK INTRA:                  -0.394
REMARK UNBOUND:                -0.303
REMARK SMILES CCCCCCC(=O)[O-]
REMARK SMILES IDX 5 1 6 2 7 3 8 4 9 5 4 6 3 7 2 8 1 9
REMARK H PARENT
REMARK Flexibility Score: inf
ROOT
ATOM      1  C   UNL     1      23.430   4.256  27.820  1.00  0.00     0.006 C 
ENDROOT
BRANCH   1   2
ATOM      2  C   UNL     1      24.509   3.252  27.401  1.00  0.00     0.053 C 
BRANCH   2   3
ATOM      3  C   UNL     1      23.951   1.865  27.375  1.00  0.00     0.041 C 
ATOM      4  O   UNL     1      23.533   1.369  26.296  1.00  0.00    -0.550 OA
ATOM      5  O   UNL     1      23.940   1.098  28.534  1.00  0.00    -0.550 OA
ENDBRANCH   2   3
ENDBRANCH   1   2
BRANCH   1   6
ATOM      6  C   UNL     1      22.747   4.873  26.594  1.00  0.00     0.000 C 
BRANCH   6   7
ATOM      7  C   UNL     1      21.378   4.230  26.346  1.00  0.00    -0.000 C 
BRANCH   7   8
ATOM      8  C   UNL     1      21.270   3.701  24.911  1.00  0.00    -0.003 C 
ATOM      9  C   UNL     1      22.432   4.195  24.052  1.00  0.00     0.004 C 
ENDBRANCH   7   8
ENDBRANCH   6   7
ENDBRANCH   1   6
TORSDOF 5
ENDMDL
MODEL 4
REMARK VINA RESULT:    -3.226      2.943      4.535
REMARK INTER + INTRA:          -4.472
REMARK INTER:                  -4.219
REMARK INTRA:                  -0.253
REMARK UNBOUND:                -0.303
REMARK SMILES CCCCCCC(=O)[O-]
REMARK SMILES IDX 5 1 6 2 7 3 8 4 9 5 4 6 3 7 2 8 1 9
REMARK H PARENT
REMARK Flexibility Score: inf
ROOT
ATOM      1  C   UNL     1      31.576   8.208  28.917  1.00  0.00     0.006 C 
ENDROOT
BRANCH   1   2
ATOM      2  C   UNL     1      30.311   7.348  28.832  1.00  0.00     0.053 C 
BRANCH   2   3
ATOM      3  C   UNL     1      30.214   6.439  30.015  1.00  0.00     0.041 C 
ATOM      4  O   UNL     1      29.444   5.444  29.989  1.00  0.00    -0.550 OA
ATOM      5  O   UNL     1      31.013   6.662  31.130  1.00  0.00    -0.550 OA
ENDBRANCH   2   3
ENDBRANCH   1   2
BRANCH   1   6
ATOM      6  C   UNL     1      31.384   9.543  28.189  1.00  0.00     0.000 C 
BRANCH   6   7
ATOM      7  C   UNL     1      30.914  10.635  29.156  1.00  0.00    -0.000 C 
BRANCH   7   8
ATOM      8  C   UNL     1      29.839  11.517  28.510  1.00  0.00    -0.003 C 
ATOM      9  C   UNL     1      29.155  10.794  27.353  1.00  0.00     0.004 C 
ENDBRANCH   7   8
ENDBRANCH   6   7
ENDBRANCH   1   6
TORSDOF 5
ENDMDL
MODEL 5
REMARK VINA RESULT:    -3.225      9.897     10.952
REMARK INTER + INTRA:          -4.470
REMARK INTER:                  -4.067
REMARK INTRA:                  -0.403
REMARK UNBOUND:                -0.303
REMARK SMILES CCCCCCC(=O)[O-]
REMARK SMILES IDX 5 1 6 2 7 3 8 4 9 5 4 6 3 7 2 8 1 9
REMARK H PARENT
REMARK Flexibility Score: inf
ROOT
ATOM      1  C   UNL     1      22.744   3.059  27.038  1.00  0.00     0.006 C 
ENDROOT
BRANCH   1   2
ATOM      2  C   UNL     1      23.061   4.142  26.002  1.00  0.00     0.053 C 
BRANCH   2   3
ATOM      3  C   UNL     1      22.049   4.125  24.900  1.00  0.00     0.041 C 
ATOM      4  O   UNL     1      20.858   3.798  25.138  1.00  0.00    -0.550 OA
ATOM      5  O   UNL     1      22.411   4.520  23.618  1.00  0.00    -0.550 OA
ENDBRANCH   2   3
ENDBRANCH   1   2
BRANCH   1   6
ATOM      6  C   UNL     1      23.609   1.814  26.814  1.00  0.00     0.000 C 
BRANCH   6   7
ATOM      7  C   UNL     1      22.806   0.702  26.129  1.00  0.00    -0.000 C 
BRANCH   7   8
ATOM      8  C   UNL     1      23.143   0.619  24.636  1.00  0.00    -0.003 C 
ATOM      9  C   UNL     1      21.881   0.460  23.792  1.00  0.00     0.004 C 
ENDBRANCH   7   8
ENDBRANCH   6   7
ENDBRANCH   1   6
TORSDOF 5
ENDMDL
MODEL 6
REMARK VINA RESULT:    -3.156      3.261      3.760
REMARK INTER + INTRA:          -4.382
REMARK INTER:                  -4.008
REMARK INTRA:                  -0.374
REMARK UNBOUND:                -0.303
REMARK SMILES CCCCCCC(=O)[O-]
REMARK SMILES IDX 5 1 6 2 7 3 8 4 9 5 4 6 3 7 2 8 1 9
REMARK H PARENT
REMARK Flexibility Score: inf
ROOT
ATOM      1  C   UNL     1      31.999   9.183  28.510  1.00  0.00     0.006 C 
ENDROOT
BRANCH   1   2
ATOM      2  C   UNL     1      33.324   8.499  28.861  1.00  0.00     0.053 C 
BRANCH   2   3
ATOM      3  C   UNL     1      33.805   8.947  30.205  1.00  0.00     0.041 C 
ATOM      4  O   UNL     1      33.861  10.174  30.481  1.00  0.00    -0.550 OA
ATOM      5  O   UNL     1      34.144   8.008  31.171  1.00  0.00    -0.550 OA
ENDBRANCH   2   3
ENDBRANCH   1   2
BRANCH   1   6
ATOM      6  C   UNL     1      30.866   8.687  29.416  1.00  0.00     0.000 C 
BRANCH   6   7
ATOM      7  C   UNL     1      30.260   7.386  28.876  1.00  0.00    -0.000 C 
BRANCH   7   8
ATOM      8  C   UNL     1      30.015   6.382  30.008  1.00  0.00    -0.003 C 
ATOM      9  C   UNL     1      30.869   6.709  31.230  1.00  0.00     0.004 C 
ENDBRANCH   7   8
ENDBRANCH   6   7
ENDBRANCH   1   6
TORSDOF 5
ENDMDL
MODEL 7
REMARK VINA RESULT:    -3.144      2.089      2.697
REMARK INTER + INTRA:          -4.366
REMARK INTER:                  -4.161
REMARK INTRA:                  -0.204
REMARK UNBOUND:                -0.303
REMARK SMILES CCCCCCC(=O)[O-]
REMARK SMILES IDX 5 1 6 2 7 3 8 4 9 5 4 6 3 7 2 8 1 9
REMARK H PARENT
REMARK Flexibility Score: inf
ROOT
ATOM      1  C   UNL     1      30.477  11.666  29.198  1.00  0.00     0.006 C 
ENDROOT
BRANCH   1   2
ATOM      2  C   UNL     1      29.633  12.059  30.415  1.00  0.00     0.053 C 
BRANCH   2   3
ATOM      3  C   UNL     1      28.179  11.851  30.133  1.00  0.00     0.041 C 
ATOM      4  O   UNL     1      27.815  11.248  29.090  1.00  0.00    -0.550 OA
ATOM      5  O   UNL     1      27.225  12.278  31.049  1.00  0.00    -0.550 OA
ENDBRANCH   2   3
ENDBRANCH   1   2
BRANCH   1   6
ATOM      6  C   UNL     1      31.255  10.372  29.463  1.00  0.00     0.000 C 
BRANCH   6   7
ATOM      7  C   UNL     1      30.888   9.290  28.440  1.00  0.00    -0.000 C 
BRANCH   7   8
ATOM      8  C   UNL     1      32.143   8.584  27.914  1.00  0.00    -0.003 C 
ATOM      9  C   UNL     1      33.256   8.584  28.958  1.00  0.00     0.004 C 
ENDBRANCH   7   8
ENDBRANCH   6   7
ENDBRANCH   1   6
TORSDOF 5
ENDMDL
MODEL 8
REMARK VINA RESULT:    -3.132      2.379      4.226
REMARK INTER + INTRA:          -4.351
REMARK INTER:                  -4.058
REMARK INTRA:                  -0.292
REMARK UNBOUND:                -0.303
REMARK SMILES CCCCCCC(=O)[O-]
REMARK SMILES IDX 5 1 6 2 7 3 8 4 9 5 4 6 3 7 2 8 1 9
REMARK H PARENT
REMARK Flexibility Score: inf
ROOT
ATOM      1  C   UNL     1      30.835   9.033  30.566  1.00  0.00     0.006 C 
ENDROOT
BRANCH   1   2
ATOM      2  C   UNL     1      31.282   7.989  29.538  1.00  0.00     0.053 C 
BRANCH   2   3
ATOM      3  C   UNL     1      32.266   8.583  28.582  1.00  0.00     0.041 C 
ATOM      4  O   UNL     1      31.868   9.136  27.524  1.00  0.00    -0.550 OA
ATOM      5  O   UNL     1      33.623   8.571  28.883  1.00  0.00    -0.550 OA
ENDBRANCH   2   3
ENDBRANCH   1   2
BRANCH   1   6
ATOM      6  C   UNL     1      29.459   9.606  30.206  1.00  0.00     0.000 C 
BRANCH   6   7
ATOM      7  C   UNL     1      29.588  11.011  29.608  1.00  0.00    -0.000 C 
BRANCH   7   8
ATOM      8  C   UNL     1      28.428  11.310  28.651  1.00  0.00    -0.003 C 
ATOM      9  C   UNL     1      28.784  10.928  27.216  1.00  0.00     0.004 C 
ENDBRANCH   7   8
ENDBRANCH   6   7
ENDBRANCH   1   6
TORSDOF 5
ENDMDL
MODEL 9
REMARK VINA RESULT:    -3.073      9.120     10.105
REMARK INTER + INTRA:          -4.274
REMARK INTER:                  -4.036
REMARK INTRA:                  -0.239
REMARK UNBOUND:                -0.303
REMARK SMILES CCCCCCC(=O)[O-]
REMARK SMILES IDX 5 1 6 2 7 3 8 4 9 5 4 6 3 7 2 8 1 9
REMARK H PARENT
REMARK Flexibility Score: inf
ROOT
ATOM      1  C   UNL     1      22.735   4.735  26.295  1.00  0.00     0.006 C 
ENDROOT
BRANCH   1   2
ATOM      2  C   UNL     1      21.587   3.918  25.692  1.00  0.00     0.053 C 
BRANCH   2   3
ATOM      3  C   UNL     1      21.723   3.842  24.205  1.00  0.00     0.041 C 
ATOM      4  O   UNL     1      22.674   4.428  23.624  1.00  0.00    -0.550 OA
ATOM      5  O   UNL     1      20.828   3.082  23.462  1.00  0.00    -0.550 OA
ENDBRANCH   2   3
ENDBRANCH   1   2
BRANCH   1   6
ATOM      6  C   UNL     1      23.237   4.101  27.597  1.00  0.00     0.000 C 
BRANCH   6   7
ATOM      7  C   UNL     1      24.479   3.238  27.346  1.00  0.00    -0.000 C 
BRANCH   7   8
ATOM      8  C   UNL     1      24.129   1.746  27.386  1.00  0.00    -0.003 C 
ATOM      9  C   UNL     1      23.483   1.366  28.716  1.00  0.00     0.004 C 
ENDBRANCH   7   8
ENDBRANCH   6   7
ENDBRANCH   1   6
TORSDOF 5
ENDMDL
