MODEL 1
REMARK VINA RESULT:    -4.489      0.000      0.000
REMARK INTER + INTRA:          -5.224
REMARK INTER:                  -5.014
REMARK INTRA:                  -0.209
REMARK UNBOUND:                -0.209
REMARK SMILES CC(C)c1ccc(C(=O)[O-])cc1
REMARK SMILES IDX 7 1 6 2 11 3 5 4 12 5 4 6 8 7 9 8 10 9 2 10 1 11 3 12
REMARK H PARENT
REMARK Flexibility Score: inf
ROOT
ATOM      1  C   UNL     1     -28.963 -21.739 -21.295  1.00  0.00    -0.003 A 
ATOM      2  C   UNL     1     -30.311 -21.684 -21.685  1.00  0.00     0.010 A 
ATOM      3  C   UNL     1     -27.964 -21.538 -22.263  1.00  0.00     0.010 A 
ATOM      4  C   UNL     1     -30.654 -21.433 -23.018  1.00  0.00     0.004 A 
ATOM      5  C   UNL     1     -28.307 -21.289 -23.595  1.00  0.00     0.004 A 
ATOM      6  C   UNL     1     -29.654 -21.233 -23.988  1.00  0.00    -0.045 A 
ENDROOT
BRANCH   1   7
ATOM      7  C   UNL     1     -28.604 -22.005 -19.884  1.00  0.00     0.071 C 
ATOM      8  O   UNL     1     -27.399 -22.125 -19.541  1.00  0.00    -0.545 OA
ATOM      9  O   UNL     1     -29.595 -22.125 -18.915  1.00  0.00    -0.545 OA
ENDBRANCH   1   7
BRANCH   6  10
ATOM     10  C   UNL     1     -30.012 -20.960 -25.436  1.00  0.00     0.013 C 
ATOM     11  C   UNL     1     -31.100 -21.923 -25.928  1.00  0.00     0.012 C 
ATOM     12  C   UNL     1     -30.436 -19.500 -25.635  1.00  0.00     0.012 C 
ENDBRANCH   6  10
TORSDOF 2
ENDMDL
MODEL 2
REMARK VINA RESULT:    -4.487      0.186      1.407
REMARK INTER + INTRA:          -5.221
REMARK INTER:                  -5.009
REMARK INTRA:                  -0.212
REMARK UNBOUND:                -0.209
REMARK SMILES CC(C)c1ccc(C(=O)[O-])cc1
REMARK SMILES IDX 7 1 6 2 11 3 5 4 12 5 4 6 8 7 9 8 10 9 2 10 1 11 3 12
REMARK H PARENT
REMARK Flexibility Score: inf
ROOT
ATOM      1  C   UNL     1     -29.027 -21.729 -21.439  1.00  0.00    -0.003 A 
ATOM      2  C   UNL     1     -28.035 -21.415 -22.382  1.00  0.00     0.010 A 
ATOM      3  C   UNL     1     -30.369 -21.780 -21.853  1.00  0.00     0.010 A 
ATOM      4  C   UNL     1     -28.378 -21.157 -23.713  1.00  0.00     0.004 A 
ATOM      5  C   UNL     1     -30.711 -21.521 -23.184  1.00  0.00     0.004 A 
ATOM      6  C   UNL     1     -29.721 -21.207 -24.128  1.00  0.00    -0.045 A 
ENDROOT
BRANCH   1   7
ATOM      7  C   UNL     1     -28.660 -22.002 -20.032  1.00  0.00     0.071 C 
ATOM      8  O   UNL     1     -27.452 -22.125 -19.698  1.00  0.00    -0.545 OA
ATOM      9  O   UNL     1     -29.644 -22.125 -19.057  1.00  0.00    -0.545 OA
ENDBRANCH   1   7
BRANCH   6  10
ATOM     10  C   UNL     1     -30.107 -20.929 -25.569  1.00  0.00     0.013 C 
ATOM     11  C   UNL     1     -31.076 -21.996 -26.097  1.00  0.00     0.012 C 
ATOM     12  C   UNL     1     -30.700 -19.523 -25.721  1.00  0.00     0.012 C 
ENDBRANCH   6  10
TORSDOF 2
ENDMDL
MODEL 3
REMARK VINA RESULT:    -3.287      3.148      5.260
REMARK INTER + INTRA:          -3.881
REMARK INTER:                  -3.669
REMARK INTRA:                  -0.212
REMARK UNBOUND:                -0.209
REMARK SMILES CC(C)c1ccc(C(=O)[O-])cc1
REMARK SMILES IDX 7 1 6 2 11 3 5 4 12 5 4 6 8 7 9 8 10 9 2 10 1 11 3 12
REMARK H PARENT
REMARK Flexibility Score: inf
ROOT
ATOM      1  C   UNL     1     -29.997 -21.073 -24.120  1.00  0.00    -0.003 A 
ATOM      2  C   UNL     1     -28.643 -21.044 -23.747  1.00  0.00     0.010 A 
ATOM      3  C   UNL     1     -30.960 -21.441 -23.165  1.00  0.00     0.010 A 
ATOM      4  C   UNL     1     -28.259 -21.376 -22.444  1.00  0.00     0.004 A 
ATOM      5  C   UNL     1     -30.575 -21.773 -21.862  1.00  0.00     0.004 A 
ATOM      6  C   UNL     1     -29.222 -21.744 -21.487  1.00  0.00    -0.045 A 
ENDROOT
BRANCH   1   7
ATOM      7  C   UNL     1     -30.399 -20.722 -25.501  1.00  0.00     0.071 C 
ATOM      8  O   UNL     1     -30.538 -19.517 -25.840  1.00  0.00    -0.545 OA
ATOM      9  O   UNL     1     -30.627 -21.717 -26.444  1.00  0.00    -0.545 OA
ENDBRANCH   1   7
BRANCH   6  10
ATOM     10  C   UNL     1     -28.820 -22.106 -20.070  1.00  0.00     0.013 C 
ATOM     11  C   UNL     1     -27.737 -21.156 -19.543  1.00  0.00     0.012 C 
ATOM     12  C   UNL     1     -30.038 -22.125 -19.137  1.00  0.00     0.012 C 
ENDBRANCH   6  10
TORSDOF 2
ENDMDL
