MODEL 1
REMARK VINA RESULT:    -5.085      0.000      0.000
REMARK INTER + INTRA:          -5.382
REMARK INTER:                  -5.382
REMARK INTRA:                   0.000
REMARK UNBOUND:                 0.000
REMARK SMILES O=c1ccc2cc(O)c(O)cc2o1
REMARK SMILES IDX 4 1 3 2 2 3 1 4 13 5 12 6 11 7 9 8 7 9 6 10 5 11 8 12 10 14
REMARK H PARENT 8 13 10 15
REMARK Flexibility Score: inf
ROOT
ATOM      1  C   UNL     1      18.080 -22.108 -38.154  1.00  0.00     0.019 A 
ATOM      2  C   UNL     1      18.573 -22.809 -37.053  1.00  0.00     0.094 A 
ATOM      3  C   UNL     1      17.701 -23.117 -36.002  1.00  0.00     0.336 A 
ATOM      4  O   UNL     1      18.125 -23.748 -34.999  1.00  0.00    -0.246 OA
ATOM      5  O   UNL     1      16.424 -22.747 -36.056  1.00  0.00    -0.423 OA
ATOM      6  C   UNL     1      15.916 -22.078 -37.088  1.00  0.00     0.142 A 
ATOM      7  C   UNL     1      14.566 -21.716 -37.090  1.00  0.00     0.098 A 
ATOM      8  C   UNL     1      14.016 -21.011 -38.169  1.00  0.00     0.161 A 
ATOM      9  C   UNL     1      14.839 -20.664 -39.269  1.00  0.00     0.158 A 
ATOM     10  C   UNL     1      16.191 -21.030 -39.266  1.00  0.00     0.062 A 
ATOM     11  C   UNL     1      16.734 -21.733 -38.183  1.00  0.00     0.022 A 
ENDROOT
BRANCH   9  12
ATOM     12  O   UNL     1      14.358 -19.964 -40.378  1.00  0.00    -0.504 OA
ATOM     13  H   UNL     1      14.549 -20.223 -41.335  1.00  0.00     0.293 HD
ENDBRANCH   9  12
BRANCH   8  14
ATOM     14  O   UNL     1      12.661 -20.681 -38.106  1.00  0.00    -0.504 OA
ATOM     15  H   UNL     1      12.138 -20.296 -38.879  1.00  0.00     0.293 HD
ENDBRANCH   8  14
TORSDOF 2
ENDMDL
MODEL 2
REMARK VINA RESULT:    -5.008      1.193      1.219
REMARK INTER + INTRA:          -5.301
REMARK INTER:                  -5.301
REMARK INTRA:                   0.000
REMARK UNBOUND:                 0.000
REMARK SMILES O=c1ccc2cc(O)c(O)cc2o1
REMARK SMILES IDX 4 1 3 2 2 3 1 4 13 5 12 6 11 7 9 8 7 9 6 10 5 11 8 12 10 14
REMARK H PARENT 8 13 10 15
REMARK Flexibility Score: inf
ROOT
ATOM      1  C   UNL     1      18.247 -20.832 -37.341  1.00  0.00     0.019 A 
ATOM      2  C   UNL     1      18.887 -21.560 -36.338  1.00  0.00     0.094 A 
ATOM      3  C   UNL     1      18.287 -22.732 -35.865  1.00  0.00     0.336 A 
ATOM      4  O   UNL     1      18.848 -23.403 -34.960  1.00  0.00    -0.246 OA
ATOM      5  O   UNL     1      17.125 -23.144 -36.366  1.00  0.00    -0.423 OA
ATOM      6  C   UNL     1      16.483 -22.478 -37.323  1.00  0.00     0.142 A 
ATOM      7  C   UNL     1      15.265 -22.959 -37.812  1.00  0.00     0.098 A 
ATOM      8  C   UNL     1      14.577 -22.270 -38.819  1.00  0.00     0.161 A 
ATOM      9  C   UNL     1      15.124 -21.074 -39.348  1.00  0.00     0.158 A 
ATOM     10  C   UNL     1      16.346 -20.595 -38.857  1.00  0.00     0.062 A 
ATOM     11  C   UNL     1      17.027 -21.289 -37.849  1.00  0.00     0.022 A 
ENDROOT
BRANCH   9  12
ATOM     12  O   UNL     1      14.493 -20.337 -40.352  1.00  0.00    -0.504 OA
ATOM     13  H   UNL     1      14.244 -20.712 -41.256  1.00  0.00     0.293 HD
ENDBRANCH   9  12
BRANCH   8  14
ATOM     14  O   UNL     1      13.366 -22.805 -39.262  1.00  0.00    -0.504 OA
ATOM     15  H   UNL     1      12.462 -22.516 -38.917  1.00  0.00     0.293 HD
ENDBRANCH   8  14
TORSDOF 2
ENDMDL
MODEL 3
REMARK VINA RESULT:    -4.950      1.798      2.447
REMARK INTER + INTRA:          -5.240
REMARK INTER:                  -5.240
REMARK INTRA:                   0.000
REMARK UNBOUND:                 0.000
REMARK SMILES O=c1ccc2cc(O)c(O)cc2o1
REMARK SMILES IDX 4 1 3 2 2 3 1 4 13 5 12 6 11 7 9 8 7 9 6 10 5 11 8 12 10 14
REMARK H PARENT 8 13 10 15
REMARK Flexibility Score: inf
ROOT
ATOM      1  C   UNL     1      17.344 -22.929 -36.241  1.00  0.00     0.019 A 
ATOM      2  C   UNL     1      18.509 -22.324 -35.770  1.00  0.00     0.094 A 
ATOM      3  C   UNL     1      18.904 -21.099 -36.319  1.00  0.00     0.336 A 
ATOM      4  O   UNL     1      19.952 -20.536 -35.908  1.00  0.00    -0.246 OA
ATOM      5  O   UNL     1      18.178 -20.523 -37.273  1.00  0.00    -0.423 OA
ATOM      6  C   UNL     1      17.060 -21.068 -37.749  1.00  0.00     0.142 A 
ATOM      7  C   UNL     1      16.338 -20.416 -38.752  1.00  0.00     0.098 A 
ATOM      8  C   UNL     1      15.160 -20.977 -39.264  1.00  0.00     0.161 A 
ATOM      9  C   UNL     1      14.698 -22.217 -38.757  1.00  0.00     0.158 A 
ATOM     10  C   UNL     1      15.424 -22.867 -37.750  1.00  0.00     0.062 A 
ATOM     11  C   UNL     1      16.601 -22.301 -37.244  1.00  0.00     0.022 A 
ENDROOT
BRANCH   9  12
ATOM     12  O   UNL     1      13.533 -22.833 -39.219  1.00  0.00    -0.504 OA
ATOM     13  H   UNL     1      13.429 -23.219 -40.147  1.00  0.00     0.293 HD
ENDBRANCH   9  12
BRANCH   8  14
ATOM     14  O   UNL     1      14.487 -20.274 -40.265  1.00  0.00    -0.504 OA
ATOM     15  H   UNL     1      14.192 -20.682 -41.140  1.00  0.00     0.293 HD
ENDBRANCH   8  14
TORSDOF 2
ENDMDL
MODEL 4
REMARK VINA RESULT:    -4.907      2.594      4.116
REMARK INTER + INTRA:          -5.194
REMARK INTER:                  -5.194
REMARK INTRA:                   0.000
REMARK UNBOUND:                 0.000
REMARK SMILES O=c1ccc2cc(O)c(O)cc2o1
REMARK SMILES IDX 4 1 3 2 2 3 1 4 13 5 12 6 11 7 9 8 7 9 6 10 5 11 8 12 10 14
REMARK H PARENT 8 13 10 15
REMARK Flexibility Score: inf
ROOT
ATOM      1  C   UNL     1      14.006 -24.126 -36.370  1.00  0.00     0.019 A 
ATOM      2  C   UNL     1      12.812 -24.291 -35.667  1.00  0.00     0.094 A 
ATOM      3  C   UNL     1      11.751 -23.415 -35.921  1.00  0.00     0.336 A 
ATOM      4  O   UNL     1      10.666 -23.546 -35.297  1.00  0.00    -0.246 OA
ATOM      5  O   UNL     1      11.881 -22.443 -36.819  1.00  0.00    -0.423 OA
ATOM      6  C   UNL     1      13.003 -22.252 -37.511  1.00  0.00     0.142 A 
ATOM      7  C   UNL     1      13.081 -21.214 -38.442  1.00  0.00     0.098 A 
ATOM      8  C   UNL     1      14.255 -21.000 -39.178  1.00  0.00     0.161 A 
ATOM      9  C   UNL     1      15.372 -21.848 -38.974  1.00  0.00     0.158 A 
ATOM     10  C   UNL     1      15.290 -22.889 -38.040  1.00  0.00     0.062 A 
ATOM     11  C   UNL     1      14.114 -23.096 -37.308  1.00  0.00     0.022 A 
ENDROOT
BRANCH   9  12
ATOM     12  O   UNL     1      16.571 -21.694 -39.671  1.00  0.00    -0.504 OA
ATOM     13  H   UNL     1      16.976 -20.799 -39.907  1.00  0.00     0.293 HD
ENDBRANCH   9  12
BRANCH   8  14
ATOM     14  O   UNL     1      14.266 -19.945 -40.092  1.00  0.00    -0.504 OA
ATOM     15  H   UNL     1      13.757 -19.083 -39.965  1.00  0.00     0.293 HD
ENDBRANCH   8  14
TORSDOF 2
ENDMDL
MODEL 5
REMARK VINA RESULT:    -4.807     13.707     14.646
REMARK INTER + INTRA:          -5.088
REMARK INTER:                  -5.088
REMARK INTRA:                   0.000
REMARK UNBOUND:                 0.000
REMARK SMILES O=c1ccc2cc(O)c(O)cc2o1
REMARK SMILES IDX 4 1 3 2 2 3 1 4 13 5 12 6 11 7 9 8 7 9 6 10 5 11 8 12 10 14
REMARK H PARENT 8 13 10 15
REMARK Flexibility Score: inf
ROOT
ATOM      1  C   UNL     1      12.546 -22.475 -23.845  1.00  0.00     0.019 A 
ATOM      2  C   UNL     1      11.526 -21.620 -24.262  1.00  0.00     0.094 A 
ATOM      3  C   UNL     1      11.849 -20.306 -24.619  1.00  0.00     0.336 A 
ATOM      4  O   UNL     1      10.944 -19.517 -24.998  1.00  0.00    -0.246 OA
ATOM      5  O   UNL     1      13.109 -19.883 -24.561  1.00  0.00    -0.423 OA
ATOM      6  C   UNL     1      14.110 -20.668 -24.169  1.00  0.00     0.142 A 
ATOM      7  C   UNL     1      15.414 -20.168 -24.129  1.00  0.00     0.098 A 
ATOM      8  C   UNL     1      16.479 -20.982 -23.718  1.00  0.00     0.161 A 
ATOM      9  C   UNL     1      16.228 -22.325 -23.341  1.00  0.00     0.158 A 
ATOM     10  C   UNL     1      14.919 -22.823 -23.384  1.00  0.00     0.062 A 
ATOM     11  C   UNL     1      13.860 -22.004 -23.795  1.00  0.00     0.022 A 
ENDROOT
BRANCH   9  12
ATOM     12  O   UNL     1      17.240 -23.191 -22.923  1.00  0.00    -0.504 OA
ATOM     13  H   UNL     1      17.205 -23.729 -22.068  1.00  0.00     0.293 HD
ENDBRANCH   9  12
BRANCH   8  14
ATOM     14  O   UNL     1      17.757 -20.420 -23.700  1.00  0.00    -0.504 OA
ATOM     15  H   UNL     1      17.942 -19.444 -23.524  1.00  0.00     0.293 HD
ENDBRANCH   8  14
TORSDOF 2
ENDMDL
MODEL 6
REMARK VINA RESULT:    -4.780      3.819      6.865
REMARK INTER + INTRA:          -5.060
REMARK INTER:                  -5.060
REMARK INTRA:                   0.000
REMARK UNBOUND:                 0.000
REMARK SMILES O=c1ccc2cc(O)c(O)cc2o1
REMARK SMILES IDX 4 1 3 2 2 3 1 4 13 5 12 6 11 7 9 8 7 9 6 10 5 11 8 12 10 14
REMARK H PARENT 8 13 10 15
REMARK Flexibility Score: inf
ROOT
ATOM      1  C   UNL     1      21.123 -22.319 -35.895  1.00  0.00     0.019 A 
ATOM      2  C   UNL     1      20.353 -21.763 -36.917  1.00  0.00     0.094 A 
ATOM      3  C   UNL     1      19.200 -22.435 -37.337  1.00  0.00     0.336 A 
ATOM      4  O   UNL     1      18.492 -21.952 -38.258  1.00  0.00    -0.246 OA
ATOM      5  O   UNL     1      18.846 -23.585 -36.768  1.00  0.00    -0.423 OA
ATOM      6  C   UNL     1      19.552 -24.147 -35.790  1.00  0.00     0.142 A 
ATOM      7  C   UNL     1      19.130 -25.356 -35.230  1.00  0.00     0.098 A 
ATOM      8  C   UNL     1      19.864 -25.960 -34.200  1.00  0.00     0.161 A 
ATOM      9  C   UNL     1      21.043 -25.338 -33.723  1.00  0.00     0.158 A 
ATOM     10  C   UNL     1      21.463 -24.125 -34.285  1.00  0.00     0.062 A 
ATOM     11  C   UNL     1      20.726 -23.527 -35.315  1.00  0.00     0.022 A 
ENDROOT
BRANCH   9  12
ATOM     12  O   UNL     1      21.822 -25.883 -32.700  1.00  0.00    -0.504 OA
ATOM     13  H   UNL     1      22.278 -25.335 -31.984  1.00  0.00     0.293 HD
ENDBRANCH   9  12
BRANCH   8  14
ATOM     14  O   UNL     1      19.387 -27.168 -33.685  1.00  0.00    -0.504 OA
ATOM     15  H   UNL     1      18.480 -27.554 -33.901  1.00  0.00     0.293 HD
ENDBRANCH   8  14
TORSDOF 2
ENDMDL
MODEL 7
REMARK VINA RESULT:    -4.630     14.460     16.418
REMARK INTER + INTRA:          -4.901
REMARK INTER:                  -4.901
REMARK INTRA:                   0.000
REMARK UNBOUND:                 0.000
REMARK SMILES O=c1ccc2cc(O)c(O)cc2o1
REMARK SMILES IDX 4 1 3 2 2 3 1 4 13 5 12 6 11 7 9 8 7 9 6 10 5 11 8 12 10 14
REMARK H PARENT 8 13 10 15
REMARK Flexibility Score: inf
ROOT
ATOM      1  C   UNL     1      23.943 -27.583 -22.422  1.00  0.00     0.019 A 
ATOM      2  C   UNL     1      24.704 -26.413 -22.402  1.00  0.00     0.094 A 
ATOM      3  C   UNL     1      24.642 -25.548 -23.500  1.00  0.00     0.336 A 
ATOM      4  O   UNL     1      25.321 -24.487 -23.502  1.00  0.00    -0.246 OA
ATOM      5  O   UNL     1      23.869 -25.837 -24.543  1.00  0.00    -0.423 OA
ATOM      6  C   UNL     1      23.129 -26.942 -24.600  1.00  0.00     0.142 A 
ATOM      7  C   UNL     1      22.335 -27.193 -25.723  1.00  0.00     0.098 A 
ATOM      8  C   UNL     1      21.550 -28.352 -25.798  1.00  0.00     0.161 A 
ATOM      9  C   UNL     1      21.562 -29.276 -24.724  1.00  0.00     0.158 A 
ATOM     10  C   UNL     1      22.357 -29.020 -23.599  1.00  0.00     0.062 A 
ATOM     11  C   UNL     1      23.140 -27.861 -23.531  1.00  0.00     0.022 A 
ENDROOT
BRANCH   9  12
ATOM     12  O   UNL     1      20.805 -30.449 -24.731  1.00  0.00    -0.504 OA
ATOM     13  H   UNL     1      20.893 -31.182 -24.042  1.00  0.00     0.293 HD
ENDBRANCH   9  12
BRANCH   8  14
ATOM     14  O   UNL     1      20.781 -28.542 -26.948  1.00  0.00    -0.504 OA
ATOM     15  H   UNL     1      20.982 -28.113 -27.839  1.00  0.00     0.293 HD
ENDBRANCH   8  14
TORSDOF 2
ENDMDL
MODEL 8
REMARK VINA RESULT:    -4.606     12.541     13.659
REMARK INTER + INTRA:          -4.875
REMARK INTER:                  -4.875
REMARK INTRA:                   0.000
REMARK UNBOUND:                 0.000
REMARK SMILES O=c1ccc2cc(O)c(O)cc2o1
REMARK SMILES IDX 4 1 3 2 2 3 1 4 13 5 12 6 11 7 9 8 7 9 6 10 5 11 8 12 10 14
REMARK H PARENT 8 13 10 15
REMARK Flexibility Score: inf
ROOT
ATOM      1  C   UNL     1      18.852 -20.016 -25.896  1.00  0.00     0.019 A 
ATOM      2  C   UNL     1      19.998 -20.681 -26.331  1.00  0.00     0.094 A 
ATOM      3  C   UNL     1      20.292 -21.941 -25.798  1.00  0.00     0.336 A 
ATOM      4  O   UNL     1      21.321 -22.559 -26.176  1.00  0.00    -0.246 OA
ATOM      5  O   UNL     1      19.489 -22.493 -24.892  1.00  0.00    -0.423 OA
ATOM      6  C   UNL     1      18.387 -21.891 -24.451  1.00  0.00     0.142 A 
ATOM      7  C   UNL     1      17.580 -22.519 -23.498  1.00  0.00     0.098 A 
ATOM      8  C   UNL     1      16.417 -21.897 -23.025  1.00  0.00     0.161 A 
ATOM      9  C   UNL     1      16.056 -20.620 -23.519  1.00  0.00     0.158 A 
ATOM     10  C   UNL     1      16.865 -19.993 -24.476  1.00  0.00     0.062 A 
ATOM     11  C   UNL     1      18.027 -20.620 -24.944  1.00  0.00     0.022 A 
ENDROOT
BRANCH   9  12
ATOM     12  O   UNL     1      14.911 -19.943 -23.092  1.00  0.00    -0.504 OA
ATOM     13  H   UNL     1      14.062 -20.402 -22.796  1.00  0.00     0.293 HD
ENDBRANCH   9  12
BRANCH   8  14
ATOM     14  O   UNL     1      15.657 -22.580 -22.073  1.00  0.00    -0.504 OA
ATOM     15  H   UNL     1      16.032 -23.277 -21.445  1.00  0.00     0.293 HD
ENDBRANCH   8  14
TORSDOF 2
ENDMDL
MODEL 9
REMARK VINA RESULT:    -4.593      3.007      5.079
REMARK INTER + INTRA:          -4.861
REMARK INTER:                  -4.861
REMARK INTRA:                   0.000
REMARK UNBOUND:                 0.000
REMARK SMILES O=c1ccc2cc(O)c(O)cc2o1
REMARK SMILES IDX 4 1 3 2 2 3 1 4 13 5 12 6 11 7 9 8 7 9 6 10 5 11 8 12 10 14
REMARK H PARENT 8 13 10 15
REMARK Flexibility Score: inf
ROOT
ATOM      1  C   UNL     1      12.502 -19.762 -35.965  1.00  0.00     0.019 A 
ATOM      2  C   UNL     1      11.195 -20.226 -35.815  1.00  0.00     0.094 A 
ATOM      3  C   UNL     1      10.687 -21.129 -36.755  1.00  0.00     0.336 A 
ATOM      4  O   UNL     1       9.510 -21.561 -36.638  1.00  0.00    -0.246 OA
ATOM      5  O   UNL     1      11.439 -21.537 -37.773  1.00  0.00    -0.423 OA
ATOM      6  C   UNL     1      12.690 -21.118 -37.952  1.00  0.00     0.142 A 
ATOM      7  C   UNL     1      13.434 -21.581 -39.040  1.00  0.00     0.098 A 
ATOM      8  C   UNL     1      14.751 -21.148 -39.242  1.00  0.00     0.161 A 
ATOM      9  C   UNL     1      15.334 -20.233 -38.331  1.00  0.00     0.158 A 
ATOM     10  C   UNL     1      14.587 -19.772 -37.239  1.00  0.00     0.062 A 
ATOM     11  C   UNL     1      13.270 -20.207 -37.045  1.00  0.00     0.022 A 
ENDROOT
BRANCH   9  12
ATOM     12  O   UNL     1      16.641 -19.761 -38.469  1.00  0.00    -0.504 OA
ATOM     13  H   UNL     1      17.328 -19.777 -37.729  1.00  0.00     0.293 HD
ENDBRANCH   9  12
BRANCH   8  14
ATOM     14  O   UNL     1      15.438 -21.650 -40.349  1.00  0.00    -0.504 OA
ATOM     15  H   UNL     1      15.272 -22.562 -40.750  1.00  0.00     0.293 HD
ENDBRANCH   8  14
TORSDOF 2
ENDMDL
