MODEL 1
REMARK VINA RESULT:    -3.514      0.000      0.000
REMARK INTER + INTRA:          -4.216
REMARK INTER:                  -4.131
REMARK INTRA:                  -0.086
REMARK UNBOUND:                -0.086
REMARK SMILES CCCCC(=O)[O-]
REMARK SMILES IDX 4 1 5 2 6 3 7 4 3 5 2 6 1 7
REMARK H PARENT
REMARK Flexibility Score: inf
ROOT
ATOM      1  C   UNL     1      15.770  29.130  63.765  1.00  0.00     0.053 C 
ENDROOT
BRANCH   1   2
ATOM      2  C   UNL     1      15.681  27.669  64.078  1.00  0.00     0.041 C 
ATOM      3  O   UNL     1      14.566  27.085  64.063  1.00  0.00    -0.550 OA
ATOM      4  O   UNL     1      16.836  26.942  64.337  1.00  0.00    -0.550 OA
ENDBRANCH   1   2
BRANCH   1   5
ATOM      5  C   UNL     1      15.253  29.406  62.347  1.00  0.00     0.006 C 
BRANCH   5   6
ATOM      6  C   UNL     1      16.389  29.544  61.322  1.00  0.00    -0.003 C 
ATOM      7  C   UNL     1      17.655  30.152  61.923  1.00  0.00     0.004 C 
ENDBRANCH   5   6
ENDBRANCH   1   5
TORSDOF 3
ENDMDL
MODEL 2
REMARK VINA RESULT:    -3.448      2.146      3.445
REMARK INTER + INTRA:          -4.139
REMARK INTER:                  -4.071
REMARK INTRA:                  -0.068
REMARK UNBOUND:                -0.086
REMARK SMILES CCCCC(=O)[O-]
REMARK SMILES IDX 4 1 5 2 6 3 7 4 3 5 2 6 1 7
REMARK H PARENT
REMARK Flexibility Score: inf
ROOT
ATOM      1  C   UNL     1      14.236  29.763  62.291  1.00  0.00     0.053 C 
ENDROOT
BRANCH   1   2
ATOM      2  C   UNL     1      13.164  28.805  61.876  1.00  0.00     0.041 C 
ATOM      3  O   UNL     1      13.185  27.615  62.287  1.00  0.00    -0.550 OA
ATOM      4  O   UNL     1      12.116  29.239  61.075  1.00  0.00    -0.550 OA
ENDBRANCH   1   2
BRANCH   1   5
ATOM      5  C   UNL     1      15.582  29.037  62.418  1.00  0.00     0.006 C 
BRANCH   5   6
ATOM      6  C   UNL     1      15.982  28.790  63.881  1.00  0.00    -0.003 C 
ATOM      7  C   UNL     1      16.358  27.333  64.152  1.00  0.00     0.004 C 
ENDBRANCH   5   6
ENDBRANCH   1   5
TORSDOF 3
ENDMDL
MODEL 3
REMARK VINA RESULT:    -3.431      4.804      5.905
REMARK INTER + INTRA:          -4.118
REMARK INTER:                  -4.004
REMARK INTRA:                  -0.114
REMARK UNBOUND:                -0.086
REMARK SMILES CCCCC(=O)[O-]
REMARK SMILES IDX 4 1 5 2 6 3 7 4 3 5 2 6 1 7
REMARK H PARENT
REMARK Flexibility Score: inf
ROOT
ATOM      1  C   UNL     1      11.812  28.456  60.173  1.00  0.00     0.053 C 
ENDROOT
BRANCH   1   2
ATOM      2  C   UNL     1      12.409  28.762  61.511  1.00  0.00     0.041 C 
ATOM      3  O   UNL     1      12.209  29.881  62.052  1.00  0.00    -0.550 OA
ATOM      4  O   UNL     1      13.145  27.794  62.181  1.00  0.00    -0.550 OA
ENDBRANCH   1   2
BRANCH   1   5
ATOM      5  C   UNL     1      10.679  29.440  59.855  1.00  0.00     0.006 C 
BRANCH   5   6
ATOM      6  C   UNL     1       9.293  28.873  60.199  1.00  0.00    -0.003 C 
ATOM      7  C   UNL     1       8.691  29.505  61.453  1.00  0.00     0.004 C 
ENDBRANCH   5   6
ENDBRANCH   1   5
TORSDOF 3
ENDMDL
MODEL 4
REMARK VINA RESULT:    -3.422      0.791      1.418
REMARK INTER + INTRA:          -4.107
REMARK INTER:                  -4.047
REMARK INTRA:                  -0.060
REMARK UNBOUND:                -0.086
REMARK SMILES CCCCC(=O)[O-]
REMARK SMILES IDX 4 1 5 2 6 3 7 4 3 5 2 6 1 7
REMARK H PARENT
REMARK Flexibility Score: inf
ROOT
ATOM      1  C   UNL     1      16.069  29.001  63.634  1.00  0.00     0.053 C 
ENDROOT
BRANCH   1   2
ATOM      2  C   UNL     1      15.847  27.589  64.078  1.00  0.00     0.041 C 
ATOM      3  O   UNL     1      14.682  27.114  64.117  1.00  0.00    -0.550 OA
ATOM      4  O   UNL     1      16.931  26.784  64.401  1.00  0.00    -0.550 OA
ENDBRANCH   1   2
BRANCH   1   5
ATOM      5  C   UNL     1      16.696  29.030  62.233  1.00  0.00     0.006 C 
BRANCH   5   6
ATOM      6  C   UNL     1      15.794  29.721  61.199  1.00  0.00    -0.003 C 
ATOM      7  C   UNL     1      14.336  29.804  61.648  1.00  0.00     0.004 C 
ENDBRANCH   5   6
ENDBRANCH   1   5
TORSDOF 3
ENDMDL
MODEL 5
REMARK VINA RESULT:    -3.414     13.929     15.070
REMARK INTER + INTRA:          -4.098
REMARK INTER:                  -4.075
REMARK INTRA:                  -0.024
REMARK UNBOUND:                -0.086
REMARK SMILES CCCCC(=O)[O-]
REMARK SMILES IDX 4 1 5 2 6 3 7 4 3 5 2 6 1 7
REMARK H PARENT
REMARK Flexibility Score: inf
ROOT
ATOM      1  C   UNL     1       5.854  22.483  72.703  1.00  0.00     0.053 C 
ENDROOT
BRANCH   1   2
ATOM      2  C   UNL     1       4.884  21.343  72.752  1.00  0.00     0.041 C 
ATOM      3  O   UNL     1       5.302  20.156  72.734  1.00  0.00    -0.550 OA
ATOM      4  O   UNL     1       3.523  21.593  72.867  1.00  0.00    -0.550 OA
ENDBRANCH   1   2
BRANCH   1   5
ATOM      5  C   UNL     1       6.083  22.928  71.252  1.00  0.00     0.006 C 
BRANCH   5   6
ATOM      6  C   UNL     1       7.059  24.110  71.146  1.00  0.00    -0.003 C 
ATOM      7  C   UNL     1       8.264  23.965  72.074  1.00  0.00     0.004 C 
ENDBRANCH   5   6
ENDBRANCH   1   5
TORSDOF 3
ENDMDL
MODEL 6
REMARK VINA RESULT:    -3.411      2.177      3.353
REMARK INTER + INTRA:          -4.095
REMARK INTER:                  -4.034
REMARK INTRA:                  -0.060
REMARK UNBOUND:                -0.086
REMARK SMILES CCCCC(=O)[O-]
REMARK SMILES IDX 4 1 5 2 6 3 7 4 3 5 2 6 1 7
REMARK H PARENT
REMARK Flexibility Score: inf
ROOT
ATOM      1  C   UNL     1      14.266  29.910  62.048  1.00  0.00     0.053 C 
ENDROOT
BRANCH   1   2
ATOM      2  C   UNL     1      13.055  29.047  61.887  1.00  0.00     0.041 C 
ATOM      3  O   UNL     1      11.995  29.527  61.407  1.00  0.00    -0.550 OA
ATOM      4  O   UNL     1      13.112  27.700  62.222  1.00  0.00    -0.550 OA
ENDBRANCH   1   2
BRANCH   1   5
ATOM      5  C   UNL     1      15.517  29.044  62.251  1.00  0.00     0.006 C 
BRANCH   5   6
ATOM      6  C   UNL     1      15.910  28.915  63.731  1.00  0.00    -0.003 C 
ATOM      7  C   UNL     1      16.226  27.476  64.134  1.00  0.00     0.004 C 
ENDBRANCH   5   6
ENDBRANCH   1   5
TORSDOF 3
ENDMDL
MODEL 7
REMARK VINA RESULT:    -3.376      2.412      3.444
REMARK INTER + INTRA:          -4.054
REMARK INTER:                  -3.956
REMARK INTRA:                  -0.098
REMARK UNBOUND:                -0.086
REMARK SMILES CCCCC(=O)[O-]
REMARK SMILES IDX 4 1 5 2 6 3 7 4 3 5 2 6 1 7
REMARK H PARENT
REMARK Flexibility Score: inf
ROOT
ATOM      1  C   UNL     1      15.177  29.506  62.591  1.00  0.00     0.053 C 
ENDROOT
BRANCH   1   2
ATOM      2  C   UNL     1      16.317  29.774  61.659  1.00  0.00     0.041 C 
ATOM      3  O   UNL     1      16.127  29.790  60.415  1.00  0.00    -0.550 OA
ATOM      4  O   UNL     1      17.578  30.055  62.167  1.00  0.00    -0.550 OA
ENDBRANCH   1   2
BRANCH   1   5
ATOM      5  C   UNL     1      15.699  29.013  63.947  1.00  0.00     0.006 C 
BRANCH   5   6
ATOM      6  C   UNL     1      15.581  27.489  64.105  1.00  0.00    -0.003 C 
ATOM      7  C   UNL     1      16.941  26.797  64.192  1.00  0.00     0.004 C 
ENDBRANCH   5   6
ENDBRANCH   1   5
TORSDOF 3
ENDMDL
MODEL 8
REMARK VINA RESULT:    -3.296      2.720      3.115
REMARK INTER + INTRA:          -3.959
REMARK INTER:                  -3.856
REMARK INTRA:                  -0.104
REMARK UNBOUND:                -0.086
REMARK SMILES CCCCC(=O)[O-]
REMARK SMILES IDX 4 1 5 2 6 3 7 4 3 5 2 6 1 7
REMARK H PARENT
REMARK Flexibility Score: inf
ROOT
ATOM      1  C   UNL     1      14.218  28.395  62.600  1.00  0.00     0.053 C 
ENDROOT
BRANCH   1   2
ATOM      2  C   UNL     1      13.708  29.604  61.879  1.00  0.00     0.041 C 
ATOM      3  O   UNL     1      13.117  30.516  62.513  1.00  0.00    -0.550 OA
ATOM      4  O   UNL     1      13.929  29.744  60.515  1.00  0.00    -0.550 OA
ENDBRANCH   1   2
BRANCH   1   5
ATOM      5  C   UNL     1      15.502  28.734  63.369  1.00  0.00     0.006 C 
BRANCH   5   6
ATOM      6  C   UNL     1      16.755  28.669  62.482  1.00  0.00    -0.003 C 
ATOM      7  C   UNL     1      17.312  30.052  62.145  1.00  0.00     0.004 C 
ENDBRANCH   5   6
ENDBRANCH   1   5
TORSDOF 3
ENDMDL
