MODEL 1
REMARK VINA RESULT:    -2.988      0.000      0.000
REMARK INTER + INTRA:         -14.672
REMARK INTER:                  -7.879
REMARK INTRA:                  -6.793
REMARK UNBOUND:                -6.793
REMARK SMILES CCCCCCCCCCCCCCCCCCCCCCCCCCCCCC(=O)[O-]
REMARK SMILES IDX 16 1 17 2 18 3 19 4 20 5 21 6 22 7 23 8 24 9 25 10 26 11
REMARK SMILES IDX 27 12 28 13 29 14 30 15 31 16 32 17 15 18 14 19 13 20 12 21
REMARK SMILES IDX 11 22 10 23 9 24 8 25 7 26 6 27 5 28 4 29 3 30 2 31 1 32
REMARK H PARENT
REMARK Flexibility Score: inf
ROOT
ATOM      1  C   UNL     1      31.837   1.202 -35.221  1.00  0.00     0.000 C 
ENDROOT
BRANCH   1   2
ATOM      2  C   UNL     1      32.103  -0.231 -34.734  1.00  0.00     0.000 C 
BRANCH   2   3
ATOM      3  C   UNL     1      33.027  -1.016 -35.682  1.00  0.00     0.000 C 
BRANCH   3   4
ATOM      4  C   UNL     1      33.797  -0.097 -36.644  1.00  0.00     0.000 C 
BRANCH   4   5
ATOM      5  C   UNL     1      33.451  -0.365 -38.119  1.00  0.00     0.000 C 
BRANCH   5   6
ATOM      6  C   UNL     1      32.233  -1.292 -38.289  1.00  0.00     0.000 C 
BRANCH   6   7
ATOM      7  C   UNL     1      30.988  -0.631 -38.909  1.00  0.00     0.000 C 
BRANCH   7   8
ATOM      8  C   UNL     1      31.084   0.901 -38.965  1.00  0.00     0.000 C 
BRANCH   8   9
ATOM      9  C   UNL     1      29.897   1.495 -39.737  1.00  0.00     0.000 C 
BRANCH   9  10
ATOM     10  C   UNL     1      28.552   0.881 -39.314  1.00  0.00     0.000 C 
BRANCH  10  11
ATOM     11  C   UNL     1      27.596   1.921 -38.706  1.00  0.00     0.000 C 
BRANCH  11  12
ATOM     12  C   UNL     1      26.625   1.316 -37.673  1.00  0.00     0.000 C 
BRANCH  12  13
ATOM     13  C   UNL     1      26.329  -0.183 -37.855  1.00  0.00     0.006 C 
BRANCH  13  14
ATOM     14  C   UNL     1      25.307  -0.719 -36.840  1.00  0.00     0.053 C 
BRANCH  14  15
ATOM     15  C   UNL     1      24.018  -1.061 -37.520  1.00  0.00     0.041 C 
ATOM     16  O   UNL     1      23.386  -2.100 -37.194  1.00  0.00    -0.550 OA
ATOM     17  O   UNL     1      23.520  -0.236 -38.522  1.00  0.00    -0.550 OA
ENDBRANCH  14  15
ENDBRANCH  13  14
ENDBRANCH  12  13
ENDBRANCH  11  12
ENDBRANCH  10  11
ENDBRANCH   9  10
ENDBRANCH   8   9
ENDBRANCH   7   8
ENDBRANCH   6   7
ENDBRANCH   5   6
ENDBRANCH   4   5
ENDBRANCH   3   4
ENDBRANCH   2   3
ENDBRANCH   1   2
BRANCH   1  18
ATOM     18  C   UNL     1      30.359   1.443 -35.571  1.00  0.00     0.000 C 
BRANCH  18  19
ATOM     19  C   UNL     1      29.541   0.142 -35.627  1.00  0.00     0.000 C 
BRANCH  19  20
ATOM     20  C   UNL     1      28.322   0.083 -34.682  1.00  0.00     0.000 C 
BRANCH  20  21
ATOM     21  C   UNL     1      27.944  -1.320 -34.159  1.00  0.00     0.000 C 
BRANCH  21  22
ATOM     22  C   UNL     1      29.102  -2.109 -33.504  1.00  0.00     0.000 C 
BRANCH  22  23
ATOM     23  C   UNL     1      29.367  -3.485 -34.145  1.00  0.00     0.000 C 
BRANCH  23  24
ATOM     24  C   UNL     1      30.532  -3.525 -35.153  1.00  0.00    -0.000 C 
BRANCH  24  25
ATOM     25  C   UNL     1      30.133  -3.874 -36.603  1.00  0.00    -0.000 C 
BRANCH  25  26
ATOM     26  C   UNL     1      28.806  -3.257 -37.080  1.00  0.00    -0.000 C 
BRANCH  26  27
ATOM     27  C   UNL     1      27.726  -4.312 -37.358  1.00  0.00    -0.000 C 
BRANCH  27  28
ATOM     28  C   UNL     1      26.490  -4.078 -36.477  1.00  0.00    -0.000 C 
BRANCH  28  29
ATOM     29  C   UNL     1      26.338  -5.141 -35.377  1.00  0.00    -0.000 C 
BRANCH  29  30
ATOM     30  C   UNL     1      25.811  -4.553 -34.056  1.00  0.00    -0.000 C 
BRANCH  30  31
ATOM     31  C   UNL     1      24.798  -3.420 -34.279  1.00  0.00    -0.003 C 
ATOM     32  C   UNL     1      24.574  -2.574 -33.026  1.00  0.00     0.004 C 
ENDBRANCH  30  31
ENDBRANCH  29  30
ENDBRANCH  28  29
ENDBRANCH  27  28
ENDBRANCH  26  27
ENDBRANCH  25  26
ENDBRANCH  24  25
ENDBRANCH  23  24
ENDBRANCH  22  23
ENDBRANCH  21  22
ENDBRANCH  20  21
ENDBRANCH  19  20
ENDBRANCH  18  19
ENDBRANCH   1  18
TORSDOF 28
ENDMDL
MODEL 2
REMARK VINA RESULT:    -2.955      2.052      5.376
REMARK INTER + INTRA:         -14.584
REMARK INTER:                  -8.393
REMARK INTRA:                  -6.191
REMARK UNBOUND:                -6.793
REMARK SMILES CCCCCCCCCCCCCCCCCCCCCCCCCCCCCC(=O)[O-]
REMARK SMILES IDX 16 1 17 2 18 3 19 4 20 5 21 6 22 7 23 8 24 9 25 10 26 11
REMARK SMILES IDX 27 12 28 13 29 14 30 15 31 16 32 17 15 18 14 19 13 20 12 21
REMARK SMILES IDX 11 22 10 23 9 24 8 25 7 26 6 27 5 28 4 29 3 30 2 31 1 32
REMARK H PARENT
REMARK Flexibility Score: inf
ROOT
ATOM      1  C   UNL     1      31.785   0.809 -38.198  1.00  0.00     0.000 C 
ENDROOT
BRANCH   1   2
ATOM      2  C   UNL     1      32.935  -0.136 -38.585  1.00  0.00     0.000 C 
BRANCH   2   3
ATOM      3  C   UNL     1      32.531  -1.619 -38.508  1.00  0.00     0.000 C 
BRANCH   3   4
ATOM      4  C   UNL     1      33.597  -2.482 -37.812  1.00  0.00     0.000 C 
BRANCH   4   5
ATOM      5  C   UNL     1      33.052  -3.852 -37.373  1.00  0.00     0.000 C 
BRANCH   5   6
ATOM      6  C   UNL     1      32.024  -4.432 -38.362  1.00  0.00     0.000 C 
BRANCH   6   7
ATOM      7  C   UNL     1      31.000  -5.404 -37.749  1.00  0.00     0.000 C 
BRANCH   7   8
ATOM      8  C   UNL     1      29.564  -5.149 -38.230  1.00  0.00     0.000 C 
BRANCH   8   9
ATOM      9  C   UNL     1      29.539  -4.081 -39.334  1.00  0.00     0.000 C 
BRANCH   9  10
ATOM     10  C   UNL     1      28.708  -2.848 -38.942  1.00  0.00     0.000 C 
BRANCH  10  11
ATOM     11  C   UNL     1      29.053  -2.328 -37.535  1.00  0.00     0.000 C 
BRANCH  11  12
ATOM     12  C   UNL     1      28.025  -1.315 -36.999  1.00  0.00     0.000 C 
BRANCH  12  13
ATOM     13  C   UNL     1      26.984  -1.893 -36.023  1.00  0.00     0.006 C 
BRANCH  13  14
ATOM     14  C   UNL     1      27.355  -3.292 -35.510  1.00  0.00     0.053 C 
BRANCH  14  15
ATOM     15  C   UNL     1      26.252  -4.266 -35.785  1.00  0.00     0.041 C 
ATOM     16  O   UNL     1      25.129  -4.122 -35.235  1.00  0.00    -0.550 OA
ATOM     17  O   UNL     1      26.470  -5.340 -36.641  1.00  0.00    -0.550 OA
ENDBRANCH  14  15
ENDBRANCH  13  14
ENDBRANCH  12  13
ENDBRANCH  11  12
ENDBRANCH  10  11
ENDBRANCH   9  10
ENDBRANCH   8   9
ENDBRANCH   7   8
ENDBRANCH   6   7
ENDBRANCH   5   6
ENDBRANCH   4   5
ENDBRANCH   3   4
ENDBRANCH   2   3
ENDBRANCH   1   2
BRANCH   1  18
ATOM     18  C   UNL     1      30.548   0.630 -39.094  1.00  0.00     0.000 C 
BRANCH  18  19
ATOM     19  C   UNL     1      30.209   1.894 -39.902  1.00  0.00     0.000 C 
BRANCH  19  20
ATOM     20  C   UNL     1      29.126   2.805 -39.285  1.00  0.00     0.000 C 
BRANCH  20  21
ATOM     21  C   UNL     1      28.405   2.244 -38.041  1.00  0.00     0.000 C 
BRANCH  21  22
ATOM     22  C   UNL     1      28.868   2.840 -36.691  1.00  0.00     0.000 C 
BRANCH  22  23
ATOM     23  C   UNL     1      29.309   1.786 -35.657  1.00  0.00     0.000 C 
BRANCH  23  24
ATOM     24  C   UNL     1      29.974   2.352 -34.388  1.00  0.00    -0.000 C 
BRANCH  24  25
ATOM     25  C   UNL     1      31.473   2.692 -34.528  1.00  0.00    -0.000 C 
BRANCH  25  26
ATOM     26  C   UNL     1      32.400   1.973 -33.532  1.00  0.00    -0.000 C 
BRANCH  26  27
ATOM     27  C   UNL     1      33.746   1.575 -34.152  1.00  0.00    -0.000 C 
BRANCH  27  28
ATOM     28  C   UNL     1      33.596   0.332 -35.041  1.00  0.00    -0.000 C 
BRANCH  28  29
ATOM     29  C   UNL     1      32.846  -0.811 -34.337  1.00  0.00    -0.000 C 
BRANCH  29  30
ATOM     30  C   UNL     1      31.517  -1.161 -35.032  1.00  0.00    -0.000 C 
BRANCH  30  31
ATOM     31  C   UNL     1      30.654  -2.120 -34.199  1.00  0.00    -0.003 C 
ATOM     32  C   UNL     1      30.993  -3.589 -34.455  1.00  0.00     0.004 C 
ENDBRANCH  30  31
ENDBRANCH  29  30
ENDBRANCH  28  29
ENDBRANCH  27  28
ENDBRANCH  26  27
ENDBRANCH  25  26
ENDBRANCH  24  25
ENDBRANCH  23  24
ENDBRANCH  22  23
ENDBRANCH  21  22
ENDBRANCH  20  21
ENDBRANCH  19  20
ENDBRANCH  18  19
ENDBRANCH   1  18
TORSDOF 28
ENDMDL
MODEL 3
REMARK VINA RESULT:    -2.909      6.282      9.178
REMARK INTER + INTRA:         -14.465
REMARK INTER:                  -9.633
REMARK INTRA:                  -4.832
REMARK UNBOUND:                -6.793
REMARK SMILES CCCCCCCCCCCCCCCCCCCCCCCCCCCCCC(=O)[O-]
REMARK SMILES IDX 16 1 17 2 18 3 19 4 20 5 21 6 22 7 23 8 24 9 25 10 26 11
REMARK SMILES IDX 27 12 28 13 29 14 30 15 31 16 32 17 15 18 14 19 13 20 12 21
REMARK SMILES IDX 11 22 10 23 9 24 8 25 7 26 6 27 5 28 4 29 3 30 2 31 1 32
REMARK H PARENT
REMARK Flexibility Score: inf
ROOT
ATOM      1  C   UNL     1      29.386   3.546 -32.592  1.00  0.00     0.000 C 
ENDROOT
BRANCH   1   2
ATOM      2  C   UNL     1      30.670   3.637 -31.752  1.00  0.00     0.000 C 
BRANCH   2   3
ATOM      3  C   UNL     1      31.474   2.325 -31.758  1.00  0.00     0.000 C 
BRANCH   3   4
ATOM      4  C   UNL     1      32.947   2.540 -32.143  1.00  0.00     0.000 C 
BRANCH   4   5
ATOM      5  C   UNL     1      33.133   3.703 -33.133  1.00  0.00     0.000 C 
BRANCH   5   6
ATOM      6  C   UNL     1      34.611   4.085 -33.336  1.00  0.00     0.000 C 
BRANCH   6   7
ATOM      7  C   UNL     1      34.918   5.590 -33.240  1.00  0.00     0.000 C 
BRANCH   7   8
ATOM      8  C   UNL     1      35.803   5.949 -32.037  1.00  0.00     0.000 C 
BRANCH   8   9
ATOM      9  C   UNL     1      35.290   5.268 -30.760  1.00  0.00     0.000 C 
BRANCH   9  10
ATOM     10  C   UNL     1      34.419   6.202 -29.903  1.00  0.00     0.000 C 
BRANCH  10  11
ATOM     11  C   UNL     1      32.922   6.078 -30.236  1.00  0.00     0.000 C 
BRANCH  11  12
ATOM     12  C   UNL     1      32.320   7.380 -30.798  1.00  0.00     0.000 C 
BRANCH  12  13
ATOM     13  C   UNL     1      33.329   8.520 -31.030  1.00  0.00     0.006 C 
BRANCH  13  14
ATOM     14  C   UNL     1      32.760   9.904 -30.685  1.00  0.00     0.053 C 
BRANCH  14  15
ATOM     15  C   UNL     1      32.329   9.955 -29.252  1.00  0.00     0.041 C 
ATOM     16  O   UNL     1      33.153   9.706 -28.334  1.00  0.00    -0.550 OA
ATOM     17  O   UNL     1      31.013  10.269 -28.933  1.00  0.00    -0.550 OA
ENDBRANCH  14  15
ENDBRANCH  13  14
ENDBRANCH  12  13
ENDBRANCH  11  12
ENDBRANCH  10  11
ENDBRANCH   9  10
ENDBRANCH   8   9
ENDBRANCH   7   8
ENDBRANCH   6   7
ENDBRANCH   5   6
ENDBRANCH   4   5
ENDBRANCH   3   4
ENDBRANCH   2   3
ENDBRANCH   1   2
BRANCH   1  18
ATOM     18  C   UNL     1      29.247   4.711 -33.586  1.00  0.00     0.000 C 
BRANCH  18  19
ATOM     19  C   UNL     1      30.028   4.477 -34.892  1.00  0.00     0.000 C 
BRANCH  19  20
ATOM     20  C   UNL     1      29.283   3.668 -35.974  1.00  0.00     0.000 C 
BRANCH  20  21
ATOM     21  C   UNL     1      29.750   2.209 -36.163  1.00  0.00     0.000 C 
BRANCH  21  22
ATOM     22  C   UNL     1      31.067   1.844 -35.441  1.00  0.00     0.000 C 
BRANCH  22  23
ATOM     23  C   UNL     1      31.100   0.409 -34.880  1.00  0.00     0.000 C 
BRANCH  23  24
ATOM     24  C   UNL     1      32.505  -0.135 -34.554  1.00  0.00    -0.000 C 
BRANCH  24  25
ATOM     25  C   UNL     1      33.135  -1.023 -35.648  1.00  0.00    -0.000 C 
BRANCH  25  26
ATOM     26  C   UNL     1      34.015  -0.275 -36.665  1.00  0.00    -0.000 C 
BRANCH  26  27
ATOM     27  C   UNL     1      33.284   0.018 -37.983  1.00  0.00    -0.000 C 
BRANCH  27  28
ATOM     28  C   UNL     1      32.446  -1.190 -38.428  1.00  0.00    -0.000 C 
BRANCH  28  29
ATOM     29  C   UNL     1      31.090  -0.780 -39.024  1.00  0.00    -0.000 C 
BRANCH  29  30
ATOM     30  C   UNL     1      30.858   0.741 -38.973  1.00  0.00    -0.000 C 
BRANCH  30  31
ATOM     31  C   UNL     1      29.713   1.192 -39.893  1.00  0.00    -0.003 C 
ATOM     32  C   UNL     1      29.703   2.703 -40.124  1.00  0.00     0.004 C 
ENDBRANCH  30  31
ENDBRANCH  29  30
ENDBRANCH  28  29
ENDBRANCH  27  28
ENDBRANCH  26  27
ENDBRANCH  25  26
ENDBRANCH  24  25
ENDBRANCH  23  24
ENDBRANCH  22  23
ENDBRANCH  21  22
ENDBRANCH  20  21
ENDBRANCH  19  20
ENDBRANCH  18  19
ENDBRANCH   1  18
TORSDOF 28
ENDMDL
MODEL 4
REMARK VINA RESULT:    -2.892      1.686      6.199
REMARK INTER + INTRA:         -14.420
REMARK INTER:                  -8.302
REMARK INTRA:                  -6.118
REMARK UNBOUND:                -6.793
REMARK SMILES CCCCCCCCCCCCCCCCCCCCCCCCCCCCCC(=O)[O-]
REMARK SMILES IDX 16 1 17 2 18 3 19 4 20 5 21 6 22 7 23 8 24 9 25 10 26 11
REMARK SMILES IDX 27 12 28 13 29 14 30 15 31 16 32 17 15 18 14 19 13 20 12 21
REMARK SMILES IDX 11 22 10 23 9 24 8 25 7 26 6 27 5 28 4 29 3 30 2 31 1 32
REMARK H PARENT
REMARK Flexibility Score: inf
ROOT
ATOM      1  C   UNL     1      32.301  -5.287 -37.945  1.00  0.00     0.000 C 
ENDROOT
BRANCH   1   2
ATOM      2  C   UNL     1      30.767  -5.201 -37.899  1.00  0.00     0.000 C 
BRANCH   2   3
ATOM      3  C   UNL     1      30.174  -4.551 -39.161  1.00  0.00     0.000 C 
BRANCH   3   4
ATOM      4  C   UNL     1      28.772  -3.967 -38.917  1.00  0.00     0.000 C 
BRANCH   4   5
ATOM      5  C   UNL     1      28.383  -3.970 -37.429  1.00  0.00     0.000 C 
BRANCH   5   6
ATOM      6  C   UNL     1      27.227  -4.937 -37.115  1.00  0.00     0.000 C 
BRANCH   6   7
ATOM      7  C   UNL     1      26.041  -4.316 -36.354  1.00  0.00     0.000 C 
BRANCH   7   8
ATOM      8  C   UNL     1      26.077  -4.604 -34.845  1.00  0.00     0.000 C 
BRANCH   8   9
ATOM      9  C   UNL     1      27.003  -3.614 -34.122  1.00  0.00     0.000 C 
BRANCH   9  10
ATOM     10  C   UNL     1      26.573  -2.152 -34.323  1.00  0.00     0.000 C 
BRANCH  10  11
ATOM     11  C   UNL     1      27.673  -1.300 -34.979  1.00  0.00     0.000 C 
BRANCH  11  12
ATOM     12  C   UNL     1      27.119  -0.269 -35.981  1.00  0.00     0.000 C 
BRANCH  12  13
ATOM     13  C   UNL     1      26.493  -0.864 -37.254  1.00  0.00     0.006 C 
BRANCH  13  14
ATOM     14  C   UNL     1      27.160  -0.360 -38.543  1.00  0.00     0.053 C 
BRANCH  14  15
ATOM     15  C   UNL     1      26.448   0.847 -39.068  1.00  0.00     0.041 C 
ATOM     16  O   UNL     1      26.911   1.999 -38.855  1.00  0.00    -0.550 OA
ATOM     17  O   UNL     1      25.265   0.700 -39.785  1.00  0.00    -0.550 OA
ENDBRANCH  14  15
ENDBRANCH  13  14
ENDBRANCH  12  13
ENDBRANCH  11  12
ENDBRANCH  10  11
ENDBRANCH   9  10
ENDBRANCH   8   9
ENDBRANCH   7   8
ENDBRANCH   6   7
ENDBRANCH   5   6
ENDBRANCH   4   5
ENDBRANCH   3   4
ENDBRANCH   2   3
ENDBRANCH   1   2
BRANCH   1  18
ATOM     18  C   UNL     1      32.921  -4.265 -38.913  1.00  0.00     0.000 C 
BRANCH  18  19
ATOM     19  C   UNL     1      33.463  -3.017 -38.194  1.00  0.00     0.000 C 
BRANCH  19  20
ATOM     20  C   UNL     1      33.200  -1.674 -38.908  1.00  0.00     0.000 C 
BRANCH  20  21
ATOM     21  C   UNL     1      31.834  -1.016 -38.618  1.00  0.00     0.000 C 
BRANCH  21  22
ATOM     22  C   UNL     1      31.880   0.513 -38.386  1.00  0.00     0.000 C 
BRANCH  22  23
ATOM     23  C   UNL     1      30.506   1.205 -38.482  1.00  0.00     0.000 C 
BRANCH  23  24
ATOM     24  C   UNL     1      30.006   1.852 -37.176  1.00  0.00    -0.000 C 
BRANCH  24  25
ATOM     25  C   UNL     1      30.480   1.162 -35.878  1.00  0.00    -0.000 C 
BRANCH  25  26
ATOM     26  C   UNL     1      31.482   1.973 -35.039  1.00  0.00    -0.000 C 
BRANCH  26  27
ATOM     27  C   UNL     1      32.436   1.084 -34.229  1.00  0.00    -0.000 C 
BRANCH  27  28
ATOM     28  C   UNL     1      33.544   0.509 -35.124  1.00  0.00    -0.000 C 
BRANCH  28  29
ATOM     29  C   UNL     1      33.480  -1.023 -35.233  1.00  0.00    -0.000 C 
BRANCH  29  30
ATOM     30  C   UNL     1      32.333  -1.626 -34.402  1.00  0.00    -0.000 C 
BRANCH  30  31
ATOM     31  C   UNL     1      31.295  -2.351 -35.271  1.00  0.00    -0.003 C 
ATOM     32  C   UNL     1      30.713  -3.588 -34.586  1.00  0.00     0.004 C 
ENDBRANCH  30  31
ENDBRANCH  29  30
ENDBRANCH  28  29
ENDBRANCH  27  28
ENDBRANCH  26  27
ENDBRANCH  25  26
ENDBRANCH  24  25
ENDBRANCH  23  24
ENDBRANCH  22  23
ENDBRANCH  21  22
ENDBRANCH  20  21
ENDBRANCH  19  20
ENDBRANCH  18  19
ENDBRANCH   1  18
TORSDOF 28
ENDMDL
MODEL 5
REMARK VINA RESULT:    -2.844      1.719      3.923
REMARK INTER + INTRA:         -14.292
REMARK INTER:                  -8.774
REMARK INTRA:                  -5.518
REMARK UNBOUND:                -6.793
REMARK SMILES CCCCCCCCCCCCCCCCCCCCCCCCCCCCCC(=O)[O-]
REMARK SMILES IDX 16 1 17 2 18 3 19 4 20 5 21 6 22 7 23 8 24 9 25 10 26 11
REMARK SMILES IDX 27 12 28 13 29 14 30 15 31 16 32 17 15 18 14 19 13 20 12 21
REMARK SMILES IDX 11 22 10 23 9 24 8 25 7 26 6 27 5 28 4 29 3 30 2 31 1 32
REMARK H PARENT
REMARK Flexibility Score: inf
ROOT
ATOM      1  C   UNL     1      30.616   0.477 -38.044  1.00  0.00     0.000 C 
ENDROOT
BRANCH   1   2
ATOM      2  C   UNL     1      31.984   0.866 -38.629  1.00  0.00     0.000 C 
BRANCH   2   3
ATOM      3  C   UNL     1      33.139   0.052 -38.021  1.00  0.00     0.000 C 
BRANCH   3   4
ATOM      4  C   UNL     1      33.340  -1.300 -38.726  1.00  0.00     0.000 C 
BRANCH   4   5
ATOM      5  C   UNL     1      33.672  -2.435 -37.742  1.00  0.00     0.000 C 
BRANCH   5   6
ATOM      6  C   UNL     1      32.898  -3.732 -38.041  1.00  0.00     0.000 C 
BRANCH   6   7
ATOM      7  C   UNL     1      31.952  -4.204 -36.922  1.00  0.00     0.000 C 
BRANCH   7   8
ATOM      8  C   UNL     1      31.322  -3.044 -36.136  1.00  0.00     0.000 C 
BRANCH   8   9
ATOM      9  C   UNL     1      30.706  -3.544 -34.821  1.00  0.00     0.000 C 
BRANCH   9  10
ATOM     10  C   UNL     1      29.477  -2.724 -34.397  1.00  0.00     0.000 C 
BRANCH  10  11
ATOM     11  C   UNL     1      29.122  -1.627 -35.416  1.00  0.00     0.000 C 
BRANCH  11  12
ATOM     12  C   UNL     1      27.746  -0.985 -35.154  1.00  0.00     0.000 C 
BRANCH  12  13
ATOM     13  C   UNL     1      27.206  -0.106 -36.296  1.00  0.00     0.006 C 
BRANCH  13  14
ATOM     14  C   UNL     1      26.633  -0.923 -37.463  1.00  0.00     0.053 C 
BRANCH  14  15
ATOM     15  C   UNL     1      25.354  -0.319 -37.953  1.00  0.00     0.041 C 
ATOM     16  O   UNL     1      24.370  -0.202 -37.176  1.00  0.00    -0.550 OA
ATOM     17  O   UNL     1      25.247   0.105 -39.273  1.00  0.00    -0.550 OA
ENDBRANCH  14  15
ENDBRANCH  13  14
ENDBRANCH  12  13
ENDBRANCH  11  12
ENDBRANCH  10  11
ENDBRANCH   9  10
ENDBRANCH   8   9
ENDBRANCH   7   8
ENDBRANCH   6   7
ENDBRANCH   5   6
ENDBRANCH   4   5
ENDBRANCH   3   4
ENDBRANCH   2   3
ENDBRANCH   1   2
BRANCH   1  18
ATOM     18  C   UNL     1      29.493   0.516 -39.094  1.00  0.00     0.000 C 
BRANCH  18  19
ATOM     19  C   UNL     1      29.518  -0.698 -40.039  1.00  0.00     0.000 C 
BRANCH  19  20
ATOM     20  C   UNL     1      29.838  -2.052 -39.372  1.00  0.00     0.000 C 
BRANCH  20  21
ATOM     21  C   UNL     1      28.770  -3.153 -39.540  1.00  0.00     0.000 C 
BRANCH  21  22
ATOM     22  C   UNL     1      29.276  -4.597 -39.314  1.00  0.00     0.000 C 
BRANCH  22  23
ATOM     23  C   UNL     1      28.604  -5.321 -38.131  1.00  0.00     0.000 C 
BRANCH  23  24
ATOM     24  C   UNL     1      27.859  -4.406 -37.140  1.00  0.00    -0.000 C 
BRANCH  24  25
ATOM     25  C   UNL     1      26.528  -4.972 -36.599  1.00  0.00    -0.000 C 
BRANCH  25  26
ATOM     26  C   UNL     1      25.474  -3.914 -36.229  1.00  0.00    -0.000 C 
BRANCH  26  27
ATOM     27  C   UNL     1      25.014  -4.018 -34.768  1.00  0.00    -0.000 C 
BRANCH  27  28
ATOM     28  C   UNL     1      26.217  -4.106 -33.817  1.00  0.00    -0.000 C 
BRANCH  28  29
ATOM     29  C   UNL     1      25.866  -4.781 -32.481  1.00  0.00    -0.000 C 
BRANCH  29  30
ATOM     30  C   UNL     1      24.379  -5.169 -32.389  1.00  0.00    -0.000 C 
BRANCH  30  31
ATOM     31  C   UNL     1      23.894  -5.298 -30.937  1.00  0.00    -0.003 C 
ATOM     32  C   UNL     1      24.773  -4.527 -29.952  1.00  0.00     0.004 C 
ENDBRANCH  30  31
ENDBRANCH  29  30
ENDBRANCH  28  29
ENDBRANCH  27  28
ENDBRANCH  26  27
ENDBRANCH  25  26
ENDBRANCH  24  25
ENDBRANCH  23  24
ENDBRANCH  22  23
ENDBRANCH  21  22
ENDBRANCH  20  21
ENDBRANCH  19  20
ENDBRANCH  18  19
ENDBRANCH   1  18
TORSDOF 28
ENDMDL
MODEL 6
REMARK VINA RESULT:    -2.832      3.414      5.797
REMARK INTER + INTRA:         -14.260
REMARK INTER:                  -7.899
REMARK INTRA:                  -6.361
REMARK UNBOUND:                -6.793
REMARK SMILES CCCCCCCCCCCCCCCCCCCCCCCCCCCCCC(=O)[O-]
REMARK SMILES IDX 16 1 17 2 18 3 19 4 20 5 21 6 22 7 23 8 24 9 25 10 26 11
REMARK SMILES IDX 27 12 28 13 29 14 30 15 31 16 32 17 15 18 14 19 13 20 12 21
REMARK SMILES IDX 11 22 10 23 9 24 8 25 7 26 6 27 5 28 4 29 3 30 2 31 1 32
REMARK H PARENT
REMARK Flexibility Score: inf
ROOT
ATOM      1  C   UNL     1      29.930  -0.846 -36.811  1.00  0.00     0.000 C 
ENDROOT
BRANCH   1   2
ATOM      2  C   UNL     1      30.857   0.365 -36.613  1.00  0.00     0.000 C 
BRANCH   2   3
ATOM      3  C   UNL     1      32.340   0.014 -36.825  1.00  0.00     0.000 C 
BRANCH   3   4
ATOM      4  C   UNL     1      32.765   0.125 -38.298  1.00  0.00     0.000 C 
BRANCH   4   5
ATOM      5  C   UNL     1      33.432  -1.160 -38.818  1.00  0.00     0.000 C 
BRANCH   5   6
ATOM      6  C   UNL     1      33.519  -2.264 -37.748  1.00  0.00     0.000 C 
BRANCH   6   7
ATOM      7  C   UNL     1      33.220  -3.689 -38.250  1.00  0.00     0.000 C 
BRANCH   7   8
ATOM      8  C   UNL     1      32.489  -4.553 -37.212  1.00  0.00     0.000 C 
BRANCH   8   9
ATOM      9  C   UNL     1      31.707  -3.675 -36.224  1.00  0.00     0.000 C 
BRANCH   9  10
ATOM     10  C   UNL     1      32.017  -4.018 -34.757  1.00  0.00     0.000 C 
BRANCH  10  11
ATOM     11  C   UNL     1      31.767  -2.832 -33.810  1.00  0.00     0.000 C 
BRANCH  11  12
ATOM     12  C   UNL     1      32.965  -1.868 -33.722  1.00  0.00     0.000 C 
BRANCH  12  13
ATOM     13  C   UNL     1      32.852  -0.781 -32.639  1.00  0.00     0.006 C 
BRANCH  13  14
ATOM     14  C   UNL     1      32.083   0.461 -33.113  1.00  0.00     0.053 C 
BRANCH  14  15
ATOM     15  C   UNL     1      33.012   1.622 -33.288  1.00  0.00     0.041 C 
ATOM     16  O   UNL     1      33.959   1.557 -34.115  1.00  0.00    -0.550 OA
ATOM     17  O   UNL     1      32.836   2.773 -32.528  1.00  0.00    -0.550 OA
ENDBRANCH  14  15
ENDBRANCH  13  14
ENDBRANCH  12  13
ENDBRANCH  11  12
ENDBRANCH  10  11
ENDBRANCH   9  10
ENDBRANCH   8   9
ENDBRANCH   7   8
ENDBRANCH   6   7
ENDBRANCH   5   6
ENDBRANCH   4   5
ENDBRANCH   3   4
ENDBRANCH   2   3
ENDBRANCH   1   2
BRANCH   1  18
ATOM     18  C   UNL     1      28.797  -0.564 -37.813  1.00  0.00     0.000 C 
BRANCH  18  19
ATOM     19  C   UNL     1      29.242  -0.723 -39.277  1.00  0.00     0.000 C 
BRANCH  19  20
ATOM     20  C   UNL     1      29.982  -2.037 -39.606  1.00  0.00     0.000 C 
BRANCH  20  21
ATOM     21  C   UNL     1      29.085  -3.255 -39.915  1.00  0.00     0.000 C 
BRANCH  21  22
ATOM     22  C   UNL     1      29.551  -4.588 -39.285  1.00  0.00     0.000 C 
BRANCH  22  23
ATOM     23  C   UNL     1      28.592  -5.148 -38.216  1.00  0.00     0.000 C 
BRANCH  23  24
ATOM     24  C   UNL     1      28.201  -4.157 -37.103  1.00  0.00    -0.000 C 
BRANCH  24  25
ATOM     25  C   UNL     1      26.707  -4.166 -36.712  1.00  0.00    -0.000 C 
BRANCH  25  26
ATOM     26  C   UNL     1      26.353  -5.062 -35.512  1.00  0.00    -0.000 C 
BRANCH  26  27
ATOM     27  C   UNL     1      25.860  -4.263 -34.298  1.00  0.00    -0.000 C 
BRANCH  27  28
ATOM     28  C   UNL     1      26.838  -4.391 -33.121  1.00  0.00    -0.000 C 
BRANCH  28  29
ATOM     29  C   UNL     1      28.168  -3.664 -33.376  1.00  0.00    -0.000 C 
BRANCH  29  30
ATOM     30  C   UNL     1      28.290  -2.357 -32.570  1.00  0.00    -0.000 C 
BRANCH  30  31
ATOM     31  C   UNL     1      28.472  -1.127 -33.471  1.00  0.00    -0.003 C 
ATOM     32  C   UNL     1      27.230  -0.823 -34.310  1.00  0.00     0.004 C 
ENDBRANCH  30  31
ENDBRANCH  29  30
ENDBRANCH  28  29
ENDBRANCH  27  28
ENDBRANCH  26  27
ENDBRANCH  25  26
ENDBRANCH  24  25
ENDBRANCH  23  24
ENDBRANCH  22  23
ENDBRANCH  21  22
ENDBRANCH  20  21
ENDBRANCH  19  20
ENDBRANCH  18  19
ENDBRANCH   1  18
TORSDOF 28
ENDMDL
MODEL 7
REMARK VINA RESULT:    -2.816      3.367      5.258
REMARK INTER + INTRA:         -14.219
REMARK INTER:                  -8.098
REMARK INTRA:                  -6.121
REMARK UNBOUND:                -6.793
REMARK SMILES CCCCCCCCCCCCCCCCCCCCCCCCCCCCCC(=O)[O-]
REMARK SMILES IDX 16 1 17 2 18 3 19 4 20 5 21 6 22 7 23 8 24 9 25 10 26 11
REMARK SMILES IDX 27 12 28 13 29 14 30 15 31 16 32 17 15 18 14 19 13 20 12 21
REMARK SMILES IDX 11 22 10 23 9 24 8 25 7 26 6 27 5 28 4 29 3 30 2 31 1 32
REMARK H PARENT
REMARK Flexibility Score: inf
ROOT
ATOM      1  C   UNL     1      33.430  -1.923 -35.715  1.00  0.00     0.000 C 
ENDROOT
BRANCH   1   2
ATOM      2  C   UNL     1      33.513  -0.849 -36.812  1.00  0.00     0.000 C 
BRANCH   2   3
ATOM      3  C   UNL     1      33.344  -1.434 -38.225  1.00  0.00     0.000 C 
BRANCH   3   4
ATOM      4  C   UNL     1      32.064  -0.938 -38.917  1.00  0.00     0.000 C 
BRANCH   4   5
ATOM      5  C   UNL     1      31.535   0.373 -38.309  1.00  0.00     0.000 C 
BRANCH   5   6
ATOM      6  C   UNL     1      30.642   1.166 -39.280  1.00  0.00     0.000 C 
BRANCH   6   7
ATOM      7  C   UNL     1      29.146   1.199 -38.916  1.00  0.00     0.000 C 
BRANCH   7   8
ATOM      8  C   UNL     1      28.640   2.609 -38.578  1.00  0.00     0.000 C 
BRANCH   8   9
ATOM      9  C   UNL     1      28.475   2.781 -37.061  1.00  0.00     0.000 C 
BRANCH   9  10
ATOM     10  C   UNL     1      28.269   1.441 -36.335  1.00  0.00     0.000 C 
BRANCH  10  11
ATOM     11  C   UNL     1      28.899   1.430 -34.932  1.00  0.00     0.000 C 
BRANCH  11  12
ATOM     12  C   UNL     1      30.308   0.808 -34.909  1.00  0.00     0.000 C 
BRANCH  12  13
ATOM     13  C   UNL     1      31.453   1.767 -35.282  1.00  0.00     0.006 C 
BRANCH  13  14
ATOM     14  C   UNL     1      31.716   2.832 -34.208  1.00  0.00     0.053 C 
BRANCH  14  15
ATOM     15  C   UNL     1      33.136   2.770 -33.739  1.00  0.00     0.041 C 
ATOM     16  O   UNL     1      33.810   1.718 -33.897  1.00  0.00    -0.550 OA
ATOM     17  O   UNL     1      33.712   3.871 -33.116  1.00  0.00    -0.550 OA
ENDBRANCH  14  15
ENDBRANCH  13  14
ENDBRANCH  12  13
ENDBRANCH  11  12
ENDBRANCH  10  11
ENDBRANCH   9  10
ENDBRANCH   8   9
ENDBRANCH   7   8
ENDBRANCH   6   7
ENDBRANCH   5   6
ENDBRANCH   4   5
ENDBRANCH   3   4
ENDBRANCH   2   3
ENDBRANCH   1   2
BRANCH   1  18
ATOM     18  C   UNL     1      32.032  -2.555 -35.613  1.00  0.00     0.000 C 
BRANCH  18  19
ATOM     19  C   UNL     1      32.068  -4.093 -35.657  1.00  0.00     0.000 C 
BRANCH  19  20
ATOM     20  C   UNL     1      31.324  -4.741 -36.844  1.00  0.00     0.000 C 
BRANCH  20  21
ATOM     21  C   UNL     1      32.138  -4.888 -38.147  1.00  0.00     0.000 C 
BRANCH  21  22
ATOM     22  C   UNL     1      31.358  -4.579 -39.446  1.00  0.00     0.000 C 
BRANCH  22  23
ATOM     23  C   UNL     1      29.835  -4.451 -39.249  1.00  0.00     0.000 C 
BRANCH  23  24
ATOM     24  C   UNL     1      29.246  -3.066 -39.578  1.00  0.00    -0.000 C 
BRANCH  24  25
ATOM     25  C   UNL     1      28.278  -2.496 -38.520  1.00  0.00    -0.000 C 
BRANCH  25  26
ATOM     26  C   UNL     1      28.941  -2.045 -37.207  1.00  0.00    -0.000 C 
BRANCH  26  27
ATOM     27  C   UNL     1      28.346  -2.735 -35.972  1.00  0.00    -0.000 C 
BRANCH  27  28
ATOM     28  C   UNL     1      27.593  -4.015 -36.366  1.00  0.00    -0.000 C 
BRANCH  28  29
ATOM     29  C   UNL     1      26.263  -4.174 -35.611  1.00  0.00    -0.000 C 
BRANCH  29  30
ATOM     30  C   UNL     1      25.079  -3.537 -36.362  1.00  0.00    -0.000 C 
BRANCH  30  31
ATOM     31  C   UNL     1      24.824  -2.085 -35.933  1.00  0.00    -0.003 C 
ATOM     32  C   UNL     1      25.045  -1.087 -37.071  1.00  0.00     0.004 C 
ENDBRANCH  30  31
ENDBRANCH  29  30
ENDBRANCH  28  29
ENDBRANCH  27  28
ENDBRANCH  26  27
ENDBRANCH  25  26
ENDBRANCH  24  25
ENDBRANCH  23  24
ENDBRANCH  22  23
ENDBRANCH  21  22
ENDBRANCH  20  21
ENDBRANCH  19  20
ENDBRANCH  18  19
ENDBRANCH   1  18
TORSDOF 28
ENDMDL
MODEL 8
REMARK VINA RESULT:    -2.801      2.693      4.889
REMARK INTER + INTRA:         -14.180
REMARK INTER:                  -6.875
REMARK INTRA:                  -7.305
REMARK UNBOUND:                -6.793
REMARK SMILES CCCCCCCCCCCCCCCCCCCCCCCCCCCCCC(=O)[O-]
REMARK SMILES IDX 16 1 17 2 18 3 19 4 20 5 21 6 22 7 23 8 24 9 25 10 26 11
REMARK SMILES IDX 27 12 28 13 29 14 30 15 31 16 32 17 15 18 14 19 13 20 12 21
REMARK SMILES IDX 11 22 10 23 9 24 8 25 7 26 6 27 5 28 4 29 3 30 2 31 1 32
REMARK H PARENT
REMARK Flexibility Score: inf
ROOT
ATOM      1  C   UNL     1      28.785  -2.442 -38.420  1.00  0.00     0.000 C 
ENDROOT
BRANCH   1   2
ATOM      2  C   UNL     1      28.855  -3.962 -38.636  1.00  0.00     0.000 C 
BRANCH   2   3
ATOM      3  C   UNL     1      30.156  -4.577 -38.090  1.00  0.00     0.000 C 
BRANCH   3   4
ATOM      4  C   UNL     1      30.720  -3.791 -36.895  1.00  0.00     0.000 C 
BRANCH   4   5
ATOM      5  C   UNL     1      32.184  -3.368 -37.107  1.00  0.00     0.000 C 
BRANCH   5   6
ATOM      6  C   UNL     1      32.516  -3.076 -38.582  1.00  0.00     0.000 C 
BRANCH   6   7
ATOM      7  C   UNL     1      32.998  -1.643 -38.874  1.00  0.00     0.000 C 
BRANCH   7   8
ATOM      8  C   UNL     1      32.753  -0.675 -37.707  1.00  0.00     0.000 C 
BRANCH   8   9
ATOM      9  C   UNL     1      31.874   0.504 -38.150  1.00  0.00     0.000 C 
BRANCH   9  10
ATOM     10  C   UNL     1      30.887   0.946 -37.056  1.00  0.00     0.000 C 
BRANCH  10  11
ATOM     11  C   UNL     1      30.458  -0.217 -36.145  1.00  0.00     0.000 C 
BRANCH  11  12
ATOM     12  C   UNL     1      30.694   0.071 -34.650  1.00  0.00     0.000 C 
BRANCH  12  13
ATOM     13  C   UNL     1      31.606  -0.936 -33.926  1.00  0.00     0.006 C 
BRANCH  13  14
ATOM     14  C   UNL     1      31.065  -1.354 -32.551  1.00  0.00     0.053 C 
BRANCH  14  15
ATOM     15  C   UNL     1      30.612  -2.780 -32.573  1.00  0.00     0.041 C 
ATOM     16  O   UNL     1      29.785  -3.196 -31.719  1.00  0.00    -0.550 OA
ATOM     17  O   UNL     1      31.113  -3.655 -33.531  1.00  0.00    -0.550 OA
ENDBRANCH  14  15
ENDBRANCH  13  14
ENDBRANCH  12  13
ENDBRANCH  11  12
ENDBRANCH  10  11
ENDBRANCH   9  10
ENDBRANCH   8   9
ENDBRANCH   7   8
ENDBRANCH   6   7
ENDBRANCH   5   6
ENDBRANCH   4   5
ENDBRANCH   3   4
ENDBRANCH   2   3
ENDBRANCH   1   2
BRANCH   1  18
ATOM     18  C   UNL     1      29.175  -1.648 -39.678  1.00  0.00     0.000 C 
BRANCH  18  19
ATOM     19  C   UNL     1      28.508  -0.263 -39.740  1.00  0.00     0.000 C 
BRANCH  19  20
ATOM     20  C   UNL     1      27.061  -0.199 -39.207  1.00  0.00     0.000 C 
BRANCH  20  21
ATOM     21  C   UNL     1      26.689   1.080 -38.426  1.00  0.00     0.000 C 
BRANCH  21  22
ATOM     22  C   UNL     1      27.115   1.087 -36.939  1.00  0.00     0.000 C 
BRANCH  22  23
ATOM     23  C   UNL     1      26.718  -0.185 -36.165  1.00  0.00     0.000 C 
BRANCH  23  24
ATOM     24  C   UNL     1      26.980  -0.137 -34.648  1.00  0.00    -0.000 C 
BRANCH  24  25
ATOM     25  C   UNL     1      27.321  -1.496 -33.998  1.00  0.00    -0.000 C 
BRANCH  25  26
ATOM     26  C   UNL     1      27.782  -2.589 -34.978  1.00  0.00    -0.000 C 
BRANCH  26  27
ATOM     27  C   UNL     1      27.555  -4.007 -34.437  1.00  0.00    -0.000 C 
BRANCH  27  28
ATOM     28  C   UNL     1      26.334  -4.660 -35.100  1.00  0.00    -0.000 C 
BRANCH  28  29
ATOM     29  C   UNL     1      25.949  -3.984 -36.426  1.00  0.00    -0.000 C 
BRANCH  29  30
ATOM     30  C   UNL     1      24.568  -3.306 -36.364  1.00  0.00    -0.000 C 
BRANCH  30  31
ATOM     31  C   UNL     1      23.904  -3.451 -34.987  1.00  0.00    -0.003 C 
ATOM     32  C   UNL     1      23.680  -2.105 -34.297  1.00  0.00     0.004 C 
ENDBRANCH  30  31
ENDBRANCH  29  30
ENDBRANCH  28  29
ENDBRANCH  27  28
ENDBRANCH  26  27
ENDBRANCH  25  26
ENDBRANCH  24  25
ENDBRANCH  23  24
ENDBRANCH  22  23
ENDBRANCH  21  22
ENDBRANCH  20  21
ENDBRANCH  19  20
ENDBRANCH  18  19
ENDBRANCH   1  18
TORSDOF 28
ENDMDL
MODEL 9
REMARK VINA RESULT:    -2.793      3.122      6.617
REMARK INTER + INTRA:         -14.157
REMARK INTER:                  -7.533
REMARK INTRA:                  -6.624
REMARK UNBOUND:                -6.793
REMARK SMILES CCCCCCCCCCCCCCCCCCCCCCCCCCCCCC(=O)[O-]
REMARK SMILES IDX 16 1 17 2 18 3 19 4 20 5 21 6 22 7 23 8 24 9 25 10 26 11
REMARK SMILES IDX 27 12 28 13 29 14 30 15 31 16 32 17 15 18 14 19 13 20 12 21
REMARK SMILES IDX 11 22 10 23 9 24 8 25 7 26 6 27 5 28 4 29 3 30 2 31 1 32
REMARK H PARENT
REMARK Flexibility Score: inf
ROOT
ATOM      1  C   UNL     1      31.355  -2.654 -34.140  1.00  0.00     0.000 C 
ENDROOT
BRANCH   1   2
ATOM      2  C   UNL     1      30.369  -3.569 -34.885  1.00  0.00     0.000 C 
BRANCH   2   3
ATOM      3  C   UNL     1      30.203  -3.178 -36.364  1.00  0.00     0.000 C 
BRANCH   3   4
ATOM      4  C   UNL     1      29.678  -4.340 -37.223  1.00  0.00     0.000 C 
BRANCH   4   5
ATOM      5  C   UNL     1      28.252  -4.091 -37.745  1.00  0.00     0.000 C 
BRANCH   5   6
ATOM      6  C   UNL     1      27.171  -4.355 -36.681  1.00  0.00     0.000 C 
BRANCH   6   7
ATOM      7  C   UNL     1      26.224  -3.174 -36.402  1.00  0.00     0.000 C 
BRANCH   7   8
ATOM      8  C   UNL     1      26.821  -2.138 -35.437  1.00  0.00     0.000 C 
BRANCH   8   9
ATOM      9  C   UNL     1      27.279  -0.884 -36.197  1.00  0.00     0.000 C 
BRANCH   9  10
ATOM     10  C   UNL     1      27.687   0.259 -35.253  1.00  0.00     0.000 C 
BRANCH  10  11
ATOM     11  C   UNL     1      29.156   0.158 -34.808  1.00  0.00     0.000 C 
BRANCH  11  12
ATOM     12  C   UNL     1      30.152   0.484 -35.938  1.00  0.00     0.000 C 
BRANCH  12  13
ATOM     13  C   UNL     1      31.164   1.598 -35.617  1.00  0.00     0.006 C 
BRANCH  13  14
ATOM     14  C   UNL     1      31.441   1.743 -34.113  1.00  0.00     0.053 C 
BRANCH  14  15
ATOM     15  C   UNL     1      32.136   3.037 -33.827  1.00  0.00     0.041 C 
ATOM     16  O   UNL     1      31.469   4.095 -33.677  1.00  0.00    -0.550 OA
ATOM     17  O   UNL     1      33.523   3.076 -33.735  1.00  0.00    -0.550 OA
ENDBRANCH  14  15
ENDBRANCH  13  14
ENDBRANCH  12  13
ENDBRANCH  11  12
ENDBRANCH  10  11
ENDBRANCH   9  10
ENDBRANCH   8   9
ENDBRANCH   7   8
ENDBRANCH   6   7
ENDBRANCH   5   6
ENDBRANCH   4   5
ENDBRANCH   3   4
ENDBRANCH   2   3
ENDBRANCH   1   2
BRANCH   1  18
ATOM     18  C   UNL     1      32.770  -2.699 -34.740  1.00  0.00     0.000 C 
BRANCH  18  19
ATOM     19  C   UNL     1      33.361  -1.298 -34.978  1.00  0.00     0.000 C 
BRANCH  19  20
ATOM     20  C   UNL     1      33.618  -0.929 -36.454  1.00  0.00     0.000 C 
BRANCH  20  21
ATOM     21  C   UNL     1      33.865  -2.115 -37.411  1.00  0.00     0.000 C 
BRANCH  21  22
ATOM     22  C   UNL     1      32.910  -2.187 -38.625  1.00  0.00     0.000 C 
BRANCH  22  23
ATOM     23  C   UNL     1      31.959  -0.981 -38.750  1.00  0.00     0.000 C 
BRANCH  23  24
ATOM     24  C   UNL     1      30.556  -1.307 -39.297  1.00  0.00    -0.000 C 
BRANCH  24  25
ATOM     25  C   UNL     1      29.697  -0.080 -39.671  1.00  0.00    -0.000 C 
BRANCH  25  26
ATOM     26  C   UNL     1      30.354   1.284 -39.393  1.00  0.00    -0.000 C 
BRANCH  26  27
ATOM     27  C   UNL     1      29.329   2.417 -39.240  1.00  0.00    -0.000 C 
BRANCH  27  28
ATOM     28  C   UNL     1      28.051   1.914 -38.555  1.00  0.00    -0.000 C 
BRANCH  28  29
ATOM     29  C   UNL     1      27.322   3.022 -37.777  1.00  0.00    -0.000 C 
BRANCH  29  30
ATOM     30  C   UNL     1      28.248   4.197 -37.417  1.00  0.00    -0.000 C 
BRANCH  30  31
ATOM     31  C   UNL     1      28.746   4.128 -35.965  1.00  0.00    -0.003 C 
ATOM     32  C   UNL     1      27.615   3.886 -34.965  1.00  0.00     0.004 C 
ENDBRANCH  30  31
ENDBRANCH  29  30
ENDBRANCH  28  29
ENDBRANCH  27  28
ENDBRANCH  26  27
ENDBRANCH  25  26
ENDBRANCH  24  25
ENDBRANCH  23  24
ENDBRANCH  22  23
ENDBRANCH  21  22
ENDBRANCH  20  21
ENDBRANCH  19  20
ENDBRANCH  18  19
ENDBRANCH   1  18
TORSDOF 28
ENDMDL
