MODEL 1
REMARK VINA RESULT:    -6.832      0.000      0.000
REMARK INTER + INTRA:          -8.320
REMARK INTER:                  -8.030
REMARK INTRA:                  -0.290
REMARK UNBOUND:                -0.290
REMARK SMILES O=c1cc(-c2ccc(O)c(O)c2)oc2cc(O)cc(O)c12
REMARK SMILES IDX 4 1 3 2 2 3 1 4 21 5 19 6 18 7 16 8 15 9 14 10 13 11 5 12
REMARK SMILES IDX 6 13 7 14 8 15 12 16 10 17 9 18 11 20 20 22 17 24
REMARK H PARENT 9 19 11 21 20 23 17 25
REMARK Flexibility Score: inf
ROOT
ATOM      1  C   UNL     1      94.765 106.163 108.766  1.00  0.00     0.138 A 
ATOM      2  C   UNL     1      94.642 107.159 107.786  1.00  0.00     0.100 A 
ATOM      3  C   UNL     1      94.566 108.498 108.168  1.00  0.00     0.197 A 
ATOM      4  O   UNL     1      94.399 109.363 107.269  1.00  0.00    -0.289 OA
ATOM      5  C   UNL     1      94.650 108.846 109.538  1.00  0.00     0.107 A 
ATOM      6  C   UNL     1      94.620 110.181 110.043  1.00  0.00     0.134 A 
ATOM      7  C   UNL     1      94.612 110.395 111.428  1.00  0.00     0.093 A 
ATOM      8  C   UNL     1      94.693 109.328 112.323  1.00  0.00     0.123 A 
ATOM      9  C   UNL     1      94.774 108.021 111.839  1.00  0.00     0.094 A 
ATOM     10  C   UNL     1      94.749 107.773 110.465  1.00  0.00     0.146 A 
ATOM     11  O   UNL     1      94.811 106.513 110.047  1.00  0.00    -0.456 OA
ENDROOT
BRANCH   1  12
ATOM     12  C   UNL     1      94.853 104.723 108.415  1.00  0.00     0.021 A 
ATOM     13  C   UNL     1      94.427 103.760 109.345  1.00  0.00     0.016 A 
ATOM     14  C   UNL     1      94.492 102.399 109.037  1.00  0.00     0.051 A 
ATOM     15  C   UNL     1      94.974 101.977 107.793  1.00  0.00     0.157 A 
ATOM     16  C   UNL     1      95.325 104.294 107.159  1.00  0.00     0.062 A 
ATOM     17  C   UNL     1      95.389 102.931 106.848  1.00  0.00     0.158 A 
BRANCH  15  18
ATOM     18  O   UNL     1      95.040 100.618 107.489  1.00  0.00    -0.504 OA
ATOM     19  H   UNL     1      94.314  99.973 107.781  1.00  0.00     0.293 HD
ENDBRANCH  15  18
BRANCH  17  20
ATOM     20  O   UNL     1      95.863 102.543 105.596  1.00  0.00    -0.504 OA
ATOM     21  H   UNL     1      96.839 102.631 105.338  1.00  0.00     0.293 HD
ENDBRANCH  17  20
ENDBRANCH   1  12
BRANCH   6  22
ATOM     22  O   UNL     1      94.618 111.323 109.238  1.00  0.00    -0.507 OA
ATOM     23  H   UNL     1      94.936 112.236 109.525  1.00  0.00     0.293 HD
ENDBRANCH   6  22
BRANCH   8  24
ATOM     24  O   UNL     1      94.699 109.580 113.693  1.00  0.00    -0.508 OA
ATOM     25  H   UNL     1      94.059 110.243 114.113  1.00  0.00     0.293 HD
ENDBRANCH   8  24
TORSDOF 5
ENDMDL
MODEL 2
REMARK VINA RESULT:    -6.745     17.824     19.694
REMARK INTER + INTRA:          -8.218
REMARK INTER:                  -7.927
REMARK INTRA:                  -0.291
REMARK UNBOUND:                -0.290
REMARK SMILES O=c1cc(-c2ccc(O)c(O)c2)oc2cc(O)cc(O)c12
REMARK SMILES IDX 4 1 3 2 2 3 1 4 21 5 19 6 18 7 16 8 15 9 14 10 13 11 5 12
REMARK SMILES IDX 6 13 7 14 8 15 12 16 10 17 9 18 11 20 20 22 17 24
REMARK H PARENT 9 19 11 21 20 23 17 25
REMARK Flexibility Score: inf
ROOT
ATOM      1  C   UNL     1     112.678 101.365 108.917  1.00  0.00     0.138 A 
ATOM      2  C   UNL     1     112.780 100.379 107.925  1.00  0.00     0.100 A 
ATOM      3  C   UNL     1     112.837  99.034 108.293  1.00  0.00     0.197 A 
ATOM      4  O   UNL     1     112.984  98.177 107.384  1.00  0.00    -0.289 OA
ATOM      5  C   UNL     1     112.753  98.673 109.659  1.00  0.00     0.107 A 
ATOM      6  C   UNL     1     112.765  97.332 110.150  1.00  0.00     0.134 A 
ATOM      7  C   UNL     1     112.777  97.103 111.532  1.00  0.00     0.093 A 
ATOM      8  C   UNL     1     112.718  98.161 112.439  1.00  0.00     0.123 A 
ATOM      9  C   UNL     1     112.655  99.474 111.970  1.00  0.00     0.094 A 
ATOM     10  C   UNL     1     112.677  99.737 110.598  1.00  0.00     0.146 A 
ATOM     11  O   UNL     1     112.634 101.002 110.194  1.00  0.00    -0.456 OA
ENDROOT
BRANCH   1  12
ATOM     12  C   UNL     1     112.612 102.810 108.583  1.00  0.00     0.021 A 
ATOM     13  C   UNL     1     113.019 103.758 109.536  1.00  0.00     0.016 A 
ATOM     14  C   UNL     1     112.973 105.124 109.245  1.00  0.00     0.051 A 
ATOM     15  C   UNL     1     112.531 105.566 107.992  1.00  0.00     0.157 A 
ATOM     16  C   UNL     1     112.180 103.260 107.319  1.00  0.00     0.062 A 
ATOM     17  C   UNL     1     112.135 104.627 107.024  1.00  0.00     0.158 A 
BRANCH  15  18
ATOM     18  O   UNL     1     112.485 106.928 107.705  1.00  0.00    -0.504 OA
ATOM     19  H   UNL     1     112.855 107.619 108.347  1.00  0.00     0.293 HD
ENDBRANCH  15  18
BRANCH  17  20
ATOM     20  O   UNL     1     111.701 105.034 105.764  1.00  0.00    -0.504 OA
ATOM     21  H   UNL     1     112.331 105.107 104.974  1.00  0.00     0.293 HD
ENDBRANCH  17  20
ENDBRANCH   1  12
BRANCH   6  22
ATOM     22  O   UNL     1     112.745  96.199 109.332  1.00  0.00    -0.507 OA
ATOM     23  H   UNL     1     112.039  95.995 108.641  1.00  0.00     0.293 HD
ENDBRANCH   6  22
BRANCH   8  24
ATOM     24  O   UNL     1     112.715  97.894 113.806  1.00  0.00    -0.508 OA
ATOM     25  H   UNL     1     113.349  98.366 114.440  1.00  0.00     0.293 HD
ENDBRANCH   8  24
TORSDOF 5
ENDMDL
MODEL 3
REMARK VINA RESULT:    -6.684      7.819     10.505
REMARK INTER + INTRA:          -8.147
REMARK INTER:                  -7.881
REMARK INTRA:                  -0.265
REMARK UNBOUND:                -0.290
REMARK SMILES O=c1cc(-c2ccc(O)c(O)c2)oc2cc(O)cc(O)c12
REMARK SMILES IDX 4 1 3 2 2 3 1 4 21 5 19 6 18 7 16 8 15 9 14 10 13 11 5 12
REMARK SMILES IDX 6 13 7 14 8 15 12 16 10 17 9 18 11 20 20 22 17 24
REMARK H PARENT 9 19 11 21 20 23 17 25
REMARK Flexibility Score: inf
ROOT
ATOM      1  C   UNL     1      98.184 104.422 116.209  1.00  0.00     0.138 A 
ATOM      2  C   UNL     1      98.332 103.252 115.449  1.00  0.00     0.100 A 
ATOM      3  C   UNL     1      98.369 102.013 116.090  1.00  0.00     0.197 A 
ATOM      4  O   UNL     1      98.559 100.988 115.386  1.00  0.00    -0.289 OA
ATOM      5  C   UNL     1      98.222 101.943 117.496  1.00  0.00     0.107 A 
ATOM      6  C   UNL     1      98.209 100.732 118.254  1.00  0.00     0.134 A 
ATOM      7  C   UNL     1      98.156 100.795 119.652  1.00  0.00     0.093 A 
ATOM      8  C   UNL     1      98.055 102.017 120.316  1.00  0.00     0.123 A 
ATOM      9  C   UNL     1      98.016 103.204 119.583  1.00  0.00     0.094 A 
ATOM     10  C   UNL     1      98.102 103.177 118.189  1.00  0.00     0.146 A 
ATOM     11  O   UNL     1      98.079 104.331 117.530  1.00  0.00    -0.456 OA
ENDROOT
BRANCH   1  12
ATOM     12  C   UNL     1      98.135 105.765 115.579  1.00  0.00     0.021 A 
ATOM     13  C   UNL     1      99.205 106.656 115.768  1.00  0.00     0.016 A 
ATOM     14  C   UNL     1      99.187 107.923 115.181  1.00  0.00     0.051 A 
ATOM     15  C   UNL     1      98.105 108.320 114.386  1.00  0.00     0.157 A 
ATOM     16  C   UNL     1      97.055 106.165 114.768  1.00  0.00     0.062 A 
ATOM     17  C   UNL     1      97.035 107.433 114.177  1.00  0.00     0.158 A 
BRANCH  15  18
ATOM     18  O   UNL     1      98.090 109.585 113.803  1.00  0.00    -0.504 OA
ATOM     19  H   UNL     1      97.222 110.080 113.633  1.00  0.00     0.293 HD
ENDBRANCH  15  18
BRANCH  17  20
ATOM     20  O   UNL     1      95.949 107.794 113.381  1.00  0.00    -0.504 OA
ATOM     21  H   UNL     1      95.017 107.431 113.545  1.00  0.00     0.293 HD
ENDBRANCH  17  20
ENDBRANCH   1  12
BRANCH   6  22
ATOM     22  O   UNL     1      98.226  99.454 117.689  1.00  0.00    -0.507 OA
ATOM     23  H   UNL     1      99.011  99.043 117.209  1.00  0.00     0.293 HD
ENDBRANCH   6  22
BRANCH   8  24
ATOM     24  O   UNL     1      97.988 102.039 121.707  1.00  0.00    -0.508 OA
ATOM     25  H   UNL     1      97.218 101.610 122.208  1.00  0.00     0.293 HD
ENDBRANCH   8  24
TORSDOF 5
ENDMDL
MODEL 4
REMARK VINA RESULT:    -6.666      8.776     10.908
REMARK INTER + INTRA:          -8.125
REMARK INTER:                  -7.854
REMARK INTRA:                  -0.271
REMARK UNBOUND:                -0.290
REMARK SMILES O=c1cc(-c2ccc(O)c(O)c2)oc2cc(O)cc(O)c12
REMARK SMILES IDX 4 1 3 2 2 3 1 4 21 5 19 6 18 7 16 8 15 9 14 10 13 11 5 12
REMARK SMILES IDX 6 13 7 14 8 15 12 16 10 17 9 18 11 20 20 22 17 24
REMARK H PARENT 9 19 11 21 20 23 17 25
REMARK Flexibility Score: inf
ROOT
ATOM      1  C   UNL     1      97.637 103.156 118.233  1.00  0.00     0.138 A 
ATOM      2  C   UNL     1      96.413 102.645 117.777  1.00  0.00     0.100 A 
ATOM      3  C   UNL     1      95.771 103.253 116.698  1.00  0.00     0.197 A 
ATOM      4  O   UNL     1      94.648 102.806 116.348  1.00  0.00    -0.289 OA
ATOM      5  C   UNL     1      96.377 104.355 116.048  1.00  0.00     0.107 A 
ATOM      6  C   UNL     1      95.832 105.033 114.915  1.00  0.00     0.134 A 
ATOM      7  C   UNL     1      96.474 106.175 114.420  1.00  0.00     0.093 A 
ATOM      8  C   UNL     1      97.670 106.628 114.976  1.00  0.00     0.123 A 
ATOM      9  C   UNL     1      98.238 105.944 116.052  1.00  0.00     0.094 A 
ATOM     10  C   UNL     1      97.604 104.823 116.591  1.00  0.00     0.146 A 
ATOM     11  O   UNL     1      98.169 104.211 117.626  1.00  0.00    -0.456 OA
ENDROOT
BRANCH   1  12
ATOM     12  C   UNL     1      98.365 102.547 119.375  1.00  0.00     0.021 A 
ATOM     13  C   UNL     1      98.910 101.259 119.239  1.00  0.00     0.016 A 
ATOM     14  C   UNL     1      99.606 100.666 120.295  1.00  0.00     0.051 A 
ATOM     15  C   UNL     1      99.779 101.353 121.502  1.00  0.00     0.157 A 
ATOM     16  C   UNL     1      98.554 103.239 120.587  1.00  0.00     0.062 A 
ATOM     17  C   UNL     1      99.252 102.648 121.647  1.00  0.00     0.158 A 
BRANCH  15  18
ATOM     18  O   UNL     1     100.472 100.758 122.555  1.00  0.00    -0.504 OA
ATOM     19  H   UNL     1     101.430 100.445 122.450  1.00  0.00     0.293 HD
ENDBRANCH  15  18
BRANCH  17  20
ATOM     20  O   UNL     1      99.417 103.362 122.832  1.00  0.00    -0.504 OA
ATOM     21  H   UNL     1      98.634 103.621 123.419  1.00  0.00     0.293 HD
ENDBRANCH  17  20
ENDBRANCH   1  12
BRANCH   6  22
ATOM     22  O   UNL     1      94.685 104.619 114.232  1.00  0.00    -0.507 OA
ATOM     23  H   UNL     1      93.845 105.167 114.124  1.00  0.00     0.293 HD
ENDBRANCH   6  22
BRANCH   8  24
ATOM     24  O   UNL     1      98.289 107.758 114.446  1.00  0.00    -0.508 OA
ATOM     25  H   UNL     1      97.781 108.623 114.302  1.00  0.00     0.293 HD
ENDBRANCH   8  24
TORSDOF 5
ENDMDL
MODEL 5
REMARK VINA RESULT:    -6.647     10.195     11.440
REMARK INTER + INTRA:          -8.103
REMARK INTER:                  -7.806
REMARK INTRA:                  -0.297
REMARK UNBOUND:                -0.290
REMARK SMILES O=c1cc(-c2ccc(O)c(O)c2)oc2cc(O)cc(O)c12
REMARK SMILES IDX 4 1 3 2 2 3 1 4 21 5 19 6 18 7 16 8 15 9 14 10 13 11 5 12
REMARK SMILES IDX 6 13 7 14 8 15 12 16 10 17 9 18 11 20 20 22 17 24
REMARK H PARENT 9 19 11 21 20 23 17 25
REMARK Flexibility Score: inf
ROOT
ATOM      1  C   UNL     1     100.030 102.043 117.484  1.00  0.00     0.138 A 
ATOM      2  C   UNL     1      99.263 101.141 118.235  1.00  0.00     0.100 A 
ATOM      3  C   UNL     1      98.748 101.535 119.470  1.00  0.00     0.197 A 
ATOM      4  O   UNL     1      98.111 100.685 120.146  1.00  0.00    -0.289 OA
ATOM      5  C   UNL     1      98.971 102.852 119.939  1.00  0.00     0.107 A 
ATOM      6  C   UNL     1      98.465 103.377 121.167  1.00  0.00     0.134 A 
ATOM      7  C   UNL     1      98.836 104.666 121.571  1.00  0.00     0.093 A 
ATOM      8  C   UNL     1      99.644 105.470 120.767  1.00  0.00     0.123 A 
ATOM      9  C   UNL     1     100.103 104.985 119.541  1.00  0.00     0.094 A 
ATOM     10  C   UNL     1      99.779 103.691 119.126  1.00  0.00     0.146 A 
ATOM     11  O   UNL     1     100.252 103.263 117.960  1.00  0.00    -0.456 OA
ENDROOT
BRANCH   1  12
ATOM     12  C   UNL     1     100.600 101.677 116.163  1.00  0.00     0.021 A 
ATOM     13  C   UNL     1     101.325 102.636 115.435  1.00  0.00     0.016 A 
ATOM     14  C   UNL     1     101.878 102.316 114.193  1.00  0.00     0.051 A 
ATOM     15  C   UNL     1     101.727 101.030 113.661  1.00  0.00     0.157 A 
ATOM     16  C   UNL     1     100.463 100.381 115.629  1.00  0.00     0.062 A 
ATOM     17  C   UNL     1     101.018 100.058 114.385  1.00  0.00     0.158 A 
BRANCH  15  18
ATOM     18  O   UNL     1     102.278 100.715 112.420  1.00  0.00    -0.504 OA
ATOM     19  H   UNL     1     103.275 100.574 112.303  1.00  0.00     0.293 HD
ENDBRANCH  15  18
BRANCH  17  20
ATOM     20  O   UNL     1     100.859  98.765 113.888  1.00  0.00    -0.504 OA
ATOM     21  H   UNL     1      99.990  98.449 113.475  1.00  0.00     0.293 HD
ENDBRANCH  17  20
ENDBRANCH   1  12
BRANCH   6  22
ATOM     22  O   UNL     1      97.587 102.690 122.009  1.00  0.00    -0.507 OA
ATOM     23  H   UNL     1      97.863 102.103 122.781  1.00  0.00     0.293 HD
ENDBRANCH   6  22
BRANCH   8  24
ATOM     24  O   UNL     1      99.978 106.752 121.194  1.00  0.00    -0.508 OA
ATOM     25  H   UNL     1     100.912 106.977 121.518  1.00  0.00     0.293 HD
ENDBRANCH   8  24
TORSDOF 5
ENDMDL
MODEL 6
REMARK VINA RESULT:    -6.624      6.859      7.599
REMARK INTER + INTRA:          -8.076
REMARK INTER:                  -7.765
REMARK INTRA:                  -0.311
REMARK UNBOUND:                -0.290
REMARK SMILES O=c1cc(-c2ccc(O)c(O)c2)oc2cc(O)cc(O)c12
REMARK SMILES IDX 4 1 3 2 2 3 1 4 21 5 19 6 18 7 16 8 15 9 14 10 13 11 5 12
REMARK SMILES IDX 6 13 7 14 8 15 12 16 10 17 9 18 11 20 20 22 17 24
REMARK H PARENT 9 19 11 21 20 23 17 25
REMARK Flexibility Score: inf
ROOT
ATOM      1  C   UNL     1     100.926 104.474 111.859  1.00  0.00     0.138 A 
ATOM      2  C   UNL     1     100.955 105.876 111.839  1.00  0.00     0.100 A 
ATOM      3  C   UNL     1     100.080 106.595 112.654  1.00  0.00     0.197 A 
ATOM      4  O   UNL     1     100.091 107.851 112.572  1.00  0.00    -0.289 OA
ATOM      5  C   UNL     1      99.197 105.907 113.520  1.00  0.00     0.107 A 
ATOM      6  C   UNL     1      98.285 106.536 114.422  1.00  0.00     0.134 A 
ATOM      7  C   UNL     1      97.391 105.749 115.158  1.00  0.00     0.093 A 
ATOM      8  C   UNL     1      97.414 104.357 115.072  1.00  0.00     0.123 A 
ATOM      9  C   UNL     1      98.335 103.730 114.232  1.00  0.00     0.094 A 
ATOM     10  C   UNL     1      99.217 104.488 113.458  1.00  0.00     0.146 A 
ATOM     11  O   UNL     1     100.066 103.851 112.658  1.00  0.00    -0.456 OA
ENDROOT
BRANCH   1  12
ATOM     12  C   UNL     1     101.836 103.658 111.015  1.00  0.00     0.021 A 
ATOM     13  C   UNL     1     102.414 104.232 109.870  1.00  0.00     0.016 A 
ATOM     14  C   UNL     1     103.279 103.489 109.063  1.00  0.00     0.051 A 
ATOM     15  C   UNL     1     103.591 102.164 109.391  1.00  0.00     0.157 A 
ATOM     16  C   UNL     1     102.164 102.330 111.348  1.00  0.00     0.062 A 
ATOM     17  C   UNL     1     103.032 101.584 110.543  1.00  0.00     0.158 A 
BRANCH  15  18
ATOM     18  O   UNL     1     104.453 101.425 108.584  1.00  0.00    -0.504 OA
ATOM     19  H   UNL     1     104.288 101.320 107.589  1.00  0.00     0.293 HD
ENDBRANCH  15  18
BRANCH  17  20
ATOM     20  O   UNL     1     103.331 100.271 110.903  1.00  0.00    -0.504 OA
ATOM     21  H   UNL     1     103.454  99.538 110.216  1.00  0.00     0.293 HD
ENDBRANCH  17  20
ENDBRANCH   1  12
BRANCH   6  22
ATOM     22  O   UNL     1      98.230 107.914 114.646  1.00  0.00    -0.507 OA
ATOM     23  H   UNL     1      98.148 108.616 113.926  1.00  0.00     0.293 HD
ENDBRANCH   6  22
BRANCH   8  24
ATOM     24  O   UNL     1      96.520 103.607 115.832  1.00  0.00    -0.508 OA
ATOM     25  H   UNL     1      96.129 102.738 115.487  1.00  0.00     0.293 HD
ENDBRANCH   8  24
TORSDOF 5
ENDMDL
MODEL 7
REMARK VINA RESULT:    -6.584      1.060      2.674
REMARK INTER + INTRA:          -8.029
REMARK INTER:                  -7.725
REMARK INTRA:                  -0.303
REMARK UNBOUND:                -0.290
REMARK SMILES O=c1cc(-c2ccc(O)c(O)c2)oc2cc(O)cc(O)c12
REMARK SMILES IDX 4 1 3 2 2 3 1 4 21 5 19 6 18 7 16 8 15 9 14 10 13 11 5 12
REMARK SMILES IDX 6 13 7 14 8 15 12 16 10 17 9 18 11 20 20 22 17 24
REMARK H PARENT 9 19 11 21 20 23 17 25
REMARK Flexibility Score: inf
ROOT
ATOM      1  C   UNL     1      94.969 105.592 109.802  1.00  0.00     0.138 A 
ATOM      2  C   UNL     1      95.038 105.637 111.202  1.00  0.00     0.100 A 
ATOM      3  C   UNL     1      95.066 106.871 111.852  1.00  0.00     0.197 A 
ATOM      4  O   UNL     1      95.184 106.878 113.105  1.00  0.00    -0.289 OA
ATOM      5  C   UNL     1      94.986 108.067 111.098  1.00  0.00     0.107 A 
ATOM      6  C   UNL     1      94.970 109.382 111.655  1.00  0.00     0.134 A 
ATOM      7  C   UNL     1      94.988 110.493 110.802  1.00  0.00     0.093 A 
ATOM      8  C   UNL     1      94.963 110.338 109.416  1.00  0.00     0.123 A 
ATOM      9  C   UNL     1      94.928 109.058 108.861  1.00  0.00     0.094 A 
ATOM     10  C   UNL     1      94.943 107.930 109.685  1.00  0.00     0.146 A 
ATOM     11  O   UNL     1      94.927 106.729 109.115  1.00  0.00    -0.456 OA
ENDROOT
BRANCH   1  12
ATOM     12  C   UNL     1      94.934 104.308 109.058  1.00  0.00     0.021 A 
ATOM     13  C   UNL     1      94.281 103.200 109.625  1.00  0.00     0.016 A 
ATOM     14  C   UNL     1      94.227 101.982 108.944  1.00  0.00     0.051 A 
ATOM     15  C   UNL     1      94.814 101.851 107.680  1.00  0.00     0.157 A 
ATOM     16  C   UNL     1      95.511 104.175 107.781  1.00  0.00     0.062 A 
ATOM     17  C   UNL     1      95.457 102.956 107.095  1.00  0.00     0.158 A 
BRANCH  15  18
ATOM     18  O   UNL     1      94.761 100.634 107.003  1.00  0.00    -0.504 OA
ATOM     19  H   UNL     1      95.513  99.958 107.067  1.00  0.00     0.293 HD
ENDBRANCH  15  18
BRANCH  17  20
ATOM     20  O   UNL     1      96.042 102.862 105.833  1.00  0.00    -0.504 OA
ATOM     21  H   UNL     1      97.044 102.798 105.707  1.00  0.00     0.293 HD
ENDBRANCH  17  20
ENDBRANCH   1  12
BRANCH   6  22
ATOM     22  O   UNL     1      94.915 109.651 113.025  1.00  0.00    -0.507 OA
ATOM     23  H   UNL     1      95.358 109.099 113.743  1.00  0.00     0.293 HD
ENDBRANCH   6  22
BRANCH   8  24
ATOM     24  O   UNL     1      94.965 111.467 108.600  1.00  0.00    -0.508 OA
ATOM     25  H   UNL     1      95.532 111.512 107.761  1.00  0.00     0.293 HD
ENDBRANCH   8  24
TORSDOF 5
ENDMDL
MODEL 8
REMARK VINA RESULT:    -6.582     14.014     16.391
REMARK INTER + INTRA:          -8.027
REMARK INTER:                  -7.711
REMARK INTRA:                  -0.316
REMARK UNBOUND:                -0.290
REMARK SMILES O=c1cc(-c2ccc(O)c(O)c2)oc2cc(O)cc(O)c12
REMARK SMILES IDX 4 1 3 2 2 3 1 4 21 5 19 6 18 7 16 8 15 9 14 10 13 11 5 12
REMARK SMILES IDX 6 13 7 14 8 15 12 16 10 17 9 18 11 20 20 22 17 24
REMARK H PARENT 9 19 11 21 20 23 17 25
REMARK Flexibility Score: inf
ROOT
ATOM      1  C   UNL     1     102.743 103.355 122.524  1.00  0.00     0.138 A 
ATOM      2  C   UNL     1     102.113 102.139 122.221  1.00  0.00     0.100 A 
ATOM      3  C   UNL     1     100.725 102.094 122.092  1.00  0.00     0.197 A 
ATOM      4  O   UNL     1     100.185 100.978 121.876  1.00  0.00    -0.289 OA
ATOM      5  C   UNL     1      99.966 103.282 122.229  1.00  0.00     0.107 A 
ATOM      6  C   UNL     1      98.548 103.364 122.082  1.00  0.00     0.134 A 
ATOM      7  C   UNL     1      97.897 104.577 122.340  1.00  0.00     0.093 A 
ATOM      8  C   UNL     1      98.615 105.723 122.679  1.00  0.00     0.123 A 
ATOM      9  C   UNL     1     100.006 105.667 122.776  1.00  0.00     0.094 A 
ATOM     10  C   UNL     1     100.682 104.463 122.559  1.00  0.00     0.146 A 
ATOM     11  O   UNL     1     102.005 104.449 122.679  1.00  0.00    -0.456 OA
ENDROOT
BRANCH   1  12
ATOM     12  C   UNL     1     104.217 103.460 122.670  1.00  0.00     0.021 A 
ATOM     13  C   UNL     1     104.987 102.289 122.760  1.00  0.00     0.016 A 
ATOM     14  C   UNL     1     106.376 102.360 122.891  1.00  0.00     0.051 A 
ATOM     15  C   UNL     1     107.021 103.601 122.923  1.00  0.00     0.157 A 
ATOM     16  C   UNL     1     104.872 104.707 122.690  1.00  0.00     0.062 A 
ATOM     17  C   UNL     1     106.264 104.781 122.819  1.00  0.00     0.158 A 
BRANCH  15  18
ATOM     18  O   UNL     1     108.406 103.669 123.056  1.00  0.00    -0.504 OA
ATOM     19  H   UNL     1     108.868 104.512 123.378  1.00  0.00     0.293 HD
ENDBRANCH  15  18
BRANCH  17  20
ATOM     20  O   UNL     1     106.877 106.032 122.836  1.00  0.00    -0.504 OA
ATOM     21  H   UNL     1     107.055 106.557 121.989  1.00  0.00     0.293 HD
ENDBRANCH  17  20
ENDBRANCH   1  12
BRANCH   6  22
ATOM     22  O   UNL     1      97.740 102.300 121.671  1.00  0.00    -0.507 OA
ATOM     23  H   UNL     1      96.853 102.052 122.082  1.00  0.00     0.293 HD
ENDBRANCH   6  22
BRANCH   8  24
ATOM     24  O   UNL     1      97.935 106.916 122.911  1.00  0.00    -0.508 OA
ATOM     25  H   UNL     1      97.117 107.174 122.372  1.00  0.00     0.293 HD
ENDBRANCH   8  24
TORSDOF 5
ENDMDL
MODEL 9
REMARK VINA RESULT:    -6.578      1.583      7.406
REMARK INTER + INTRA:          -8.022
REMARK INTER:                  -7.704
REMARK INTRA:                  -0.318
REMARK UNBOUND:                -0.290
REMARK SMILES O=c1cc(-c2ccc(O)c(O)c2)oc2cc(O)cc(O)c12
REMARK SMILES IDX 4 1 3 2 2 3 1 4 21 5 19 6 18 7 16 8 15 9 14 10 13 11 5 12
REMARK SMILES IDX 6 13 7 14 8 15 12 16 10 17 9 18 11 20 20 22 17 24
REMARK H PARENT 9 19 11 21 20 23 17 25
REMARK Flexibility Score: inf
ROOT
ATOM      1  C   UNL     1      94.524 105.572 108.806  1.00  0.00     0.138 A 
ATOM      2  C   UNL     1      94.602 104.395 109.565  1.00  0.00     0.100 A 
ATOM      3  C   UNL     1      94.581 103.157 108.921  1.00  0.00     0.197 A 
ATOM      4  O   UNL     1      94.597 102.120 109.633  1.00  0.00    -0.289 OA
ATOM      5  C   UNL     1      94.519 103.099 107.508  1.00  0.00     0.107 A 
ATOM      6  C   UNL     1      94.528 101.894 106.742  1.00  0.00     0.134 A 
ATOM      7  C   UNL     1      94.362 101.959 105.352  1.00  0.00     0.093 A 
ATOM      8  C   UNL     1      94.248 103.184 104.696  1.00  0.00     0.123 A 
ATOM      9  C   UNL     1      94.288 104.371 105.430  1.00  0.00     0.094 A 
ATOM     10  C   UNL     1      94.418 104.338 106.821  1.00  0.00     0.146 A 
ATOM     11  O   UNL     1      94.434 105.490 107.483  1.00  0.00    -0.456 OA
ENDROOT
BRANCH   1  12
ATOM     12  C   UNL     1      94.544 106.916 109.438  1.00  0.00     0.021 A 
ATOM     13  C   UNL     1      94.566 107.019 110.839  1.00  0.00     0.016 A 
ATOM     14  C   UNL     1      94.593 108.271 111.459  1.00  0.00     0.051 A 
ATOM     15  C   UNL     1      94.610 109.440 110.691  1.00  0.00     0.157 A 
ATOM     16  C   UNL     1      94.575 108.096 108.670  1.00  0.00     0.062 A 
ATOM     17  C   UNL     1      94.604 109.351 109.288  1.00  0.00     0.158 A 
BRANCH  15  18
ATOM     18  O   UNL     1      94.635 110.688 111.312  1.00  0.00    -0.504 OA
ATOM     19  H   UNL     1      94.763 110.780 112.313  1.00  0.00     0.293 HD
ENDBRANCH  15  18
BRANCH  17  20
ATOM     20  O   UNL     1      94.633 110.497 108.495  1.00  0.00    -0.504 OA
ATOM     21  H   UNL     1      94.769 110.455 107.492  1.00  0.00     0.293 HD
ENDBRANCH  17  20
ENDBRANCH   1  12
BRANCH   6  22
ATOM     22  O   UNL     1      94.715 100.620 107.286  1.00  0.00    -0.507 OA
ATOM     23  H   UNL     1      93.985 100.039 107.667  1.00  0.00     0.293 HD
ENDBRANCH   6  22
BRANCH   8  24
ATOM     24  O   UNL     1      94.100 103.210 103.311  1.00  0.00    -0.508 OA
ATOM     25  H   UNL     1      93.398 103.788 102.864  1.00  0.00     0.293 HD
ENDBRANCH   8  24
TORSDOF 5
ENDMDL
