MODEL 1
REMARK VINA RESULT:    -4.911      0.000      0.000
REMARK INTER + INTRA:          -7.619
REMARK INTER:                  -7.207
REMARK INTRA:                  -0.411
REMARK UNBOUND:                -0.411
REMARK SMILES O=C([O-])CCCCCCCC(=O)[O-]
REMARK SMILES IDX 7 1 6 2 5 3 4 4 2 5 1 6 3 7 8 8 9 9 10 10 11 11 12 12 13 13
REMARK H PARENT
REMARK Flexibility Score: inf
ROOT
ATOM      1  C   UNL     1      13.715  -3.392  14.972  1.00  0.00     0.000 C 
ENDROOT
BRANCH   1   2
ATOM      2  C   UNL     1      13.670  -3.696  16.475  1.00  0.00     0.000 C 
BRANCH   2   3
ATOM      3  C   UNL     1      14.854  -3.050  17.203  1.00  0.00     0.006 C 
BRANCH   3   4
ATOM      4  C   UNL     1      16.178  -3.398  16.518  1.00  0.00     0.053 C 
BRANCH   4   5
ATOM      5  C   UNL     1      17.331  -3.091  17.419  1.00  0.00     0.041 C 
ATOM      6  O   UNL     1      18.509  -3.128  16.975  1.00  0.00    -0.550 OA
ATOM      7  O   UNL     1      17.104  -2.716  18.737  1.00  0.00    -0.550 OA
ENDBRANCH   4   5
ENDBRANCH   3   4
ENDBRANCH   2   3
ENDBRANCH   1   2
BRANCH   1   8
ATOM      8  C   UNL     1      12.528  -2.516  14.552  1.00  0.00     0.000 C 
BRANCH   8   9
ATOM      9  C   UNL     1      12.824  -1.784  13.238  1.00  0.00     0.006 C 
BRANCH   9  10
ATOM     10  C   UNL     1      14.228  -2.118  12.727  1.00  0.00     0.053 C 
BRANCH  10  11
ATOM     11  C   UNL     1      14.942  -0.874  12.303  1.00  0.00     0.041 C 
ATOM     12  O   UNL     1      16.138  -0.682  12.645  1.00  0.00    -0.550 OA
ATOM     13  O   UNL     1      14.302   0.050  11.487  1.00  0.00    -0.550 OA
ENDBRANCH  10  11
ENDBRANCH   9  10
ENDBRANCH   8   9
ENDBRANCH   1   8
TORSDOF 8
ENDMDL
MODEL 2
REMARK VINA RESULT:    -4.867      2.164      5.595
REMARK INTER + INTRA:          -7.554
REMARK INTER:                  -6.804
REMARK INTRA:                  -0.750
REMARK UNBOUND:                -0.411
REMARK SMILES O=C([O-])CCCCCCCC(=O)[O-]
REMARK SMILES IDX 7 1 6 2 5 3 4 4 2 5 1 6 3 7 8 8 9 9 10 10 11 11 12 12 13 13
REMARK H PARENT
REMARK Flexibility Score: inf
ROOT
ATOM      1  C   UNL     1      15.581  -5.178  15.392  1.00  0.00     0.000 C 
ENDROOT
BRANCH   1   2
ATOM      2  C   UNL     1      14.320  -5.260  16.261  1.00  0.00     0.000 C 
BRANCH   2   3
ATOM      3  C   UNL     1      13.578  -3.918  16.282  1.00  0.00     0.006 C 
BRANCH   3   4
ATOM      4  C   UNL     1      13.817  -3.138  14.987  1.00  0.00     0.053 C 
BRANCH   4   5
ATOM      5  C   UNL     1      12.532  -2.566  14.476  1.00  0.00     0.041 C 
ATOM      6  O   UNL     1      11.431  -3.001  14.904  1.00  0.00    -0.550 OA
ATOM      7  O   UNL     1      12.551  -1.518  13.564  1.00  0.00    -0.550 OA
ENDBRANCH   4   5
ENDBRANCH   3   4
ENDBRANCH   2   3
ENDBRANCH   1   2
BRANCH   1   8
ATOM      8  C   UNL     1      16.826  -5.591  16.187  1.00  0.00     0.000 C 
BRANCH   8   9
ATOM      9  C   UNL     1      17.939  -4.546  16.046  1.00  0.00     0.006 C 
BRANCH   9  10
ATOM     10  C   UNL     1      17.413  -3.140  16.348  1.00  0.00     0.053 C 
BRANCH  10  11
ATOM     11  C   UNL     1      17.242  -2.950  17.822  1.00  0.00     0.041 C 
ATOM     12  O   UNL     1      16.140  -2.557  18.287  1.00  0.00    -0.550 OA
ATOM     13  O   UNL     1      18.284  -3.255  18.688  1.00  0.00    -0.550 OA
ENDBRANCH  10  11
ENDBRANCH   9  10
ENDBRANCH   8   9
ENDBRANCH   1   8
TORSDOF 8
ENDMDL
MODEL 3
REMARK VINA RESULT:    -4.861      3.500      4.213
REMARK INTER + INTRA:          -7.546
REMARK INTER:                  -7.138
REMARK INTRA:                  -0.408
REMARK UNBOUND:                -0.411
REMARK SMILES O=C([O-])CCCCCCCC(=O)[O-]
REMARK SMILES IDX 7 1 6 2 5 3 4 4 2 5 1 6 3 7 8 8 9 9 10 10 11 11 12 12 13 13
REMARK H PARENT
REMARK Flexibility Score: inf
ROOT
ATOM      1  C   UNL     1      13.993  -4.591  16.305  1.00  0.00     0.000 C 
ENDROOT
BRANCH   1   2
ATOM      2  C   UNL     1      14.452  -3.286  16.967  1.00  0.00     0.000 C 
BRANCH   2   3
ATOM      3  C   UNL     1      15.961  -3.080  16.791  1.00  0.00     0.006 C 
BRANCH   3   4
ATOM      4  C   UNL     1      16.628  -2.733  18.124  1.00  0.00     0.053 C 
BRANCH   4   5
ATOM      5  C   UNL     1      18.071  -3.128  18.107  1.00  0.00     0.041 C 
ATOM      6  O   UNL     1      18.725  -3.183  19.182  1.00  0.00    -0.550 OA
ATOM      7  O   UNL     1      18.681  -3.482  16.910  1.00  0.00    -0.550 OA
ENDBRANCH   4   5
ENDBRANCH   3   4
ENDBRANCH   2   3
ENDBRANCH   1   2
BRANCH   1   8
ATOM      8  C   UNL     1      15.193  -5.456  15.902  1.00  0.00     0.000 C 
BRANCH   8   9
ATOM      9  C   UNL     1      14.814  -6.942  15.874  1.00  0.00     0.006 C 
BRANCH   9  10
ATOM     10  C   UNL     1      15.390  -7.631  14.633  1.00  0.00     0.053 C 
BRANCH  10  11
ATOM     11  C   UNL     1      15.019  -6.877  13.396  1.00  0.00     0.041 C 
ATOM     12  O   UNL     1      15.913  -6.348  12.684  1.00  0.00    -0.550 OA
ATOM     13  O   UNL     1      13.690  -6.801  13.000  1.00  0.00    -0.550 OA
ENDBRANCH  10  11
ENDBRANCH   9  10
ENDBRANCH   8   9
ENDBRANCH   1   8
TORSDOF 8
ENDMDL
MODEL 4
REMARK VINA RESULT:    -4.835      4.506      5.594
REMARK INTER + INTRA:          -7.507
REMARK INTER:                  -6.821
REMARK INTRA:                  -0.686
REMARK UNBOUND:                -0.411
REMARK SMILES O=C([O-])CCCCCCCC(=O)[O-]
REMARK SMILES IDX 7 1 6 2 5 3 4 4 2 5 1 6 3 7 8 8 9 9 10 10 11 11 12 12 13 13
REMARK H PARENT
REMARK Flexibility Score: inf
ROOT
ATOM      1  C   UNL     1      15.232  -4.760  11.578  1.00  0.00     0.000 C 
ENDROOT
BRANCH   1   2
ATOM      2  C   UNL     1      13.825  -5.363  11.685  1.00  0.00     0.000 C 
BRANCH   2   3
ATOM      3  C   UNL     1      13.799  -6.528  12.683  1.00  0.00     0.006 C 
BRANCH   3   4
ATOM      4  C   UNL     1      14.273  -6.075  14.066  1.00  0.00     0.053 C 
BRANCH   4   5
ATOM      5  C   UNL     1      14.905  -7.215  14.802  1.00  0.00     0.041 C 
ATOM      6  O   UNL     1      15.579  -8.076  14.176  1.00  0.00    -0.550 OA
ATOM      7  O   UNL     1      14.791  -7.301  16.183  1.00  0.00    -0.550 OA
ENDBRANCH   4   5
ENDBRANCH   3   4
ENDBRANCH   2   3
ENDBRANCH   1   2
BRANCH   1   8
ATOM      8  C   UNL     1      16.152  -5.654  10.738  1.00  0.00     0.000 C 
BRANCH   8   9
ATOM      9  C   UNL     1      17.459  -5.951  11.482  1.00  0.00     0.006 C 
BRANCH   9  10
ATOM     10  C   UNL     1      17.643  -4.999  12.668  1.00  0.00     0.053 C 
BRANCH  10  11
ATOM     11  C   UNL     1      19.050  -4.494  12.721  1.00  0.00     0.041 C 
ATOM     12  O   UNL     1      19.286  -3.262  12.613  1.00  0.00    -0.550 OA
ATOM     13  O   UNL     1      20.099  -5.378  12.941  1.00  0.00    -0.550 OA
ENDBRANCH  10  11
ENDBRANCH   9  10
ENDBRANCH   8   9
ENDBRANCH   1   8
TORSDOF 8
ENDMDL
MODEL 5
REMARK VINA RESULT:    -4.823      1.675      2.485
REMARK INTER + INTRA:          -7.490
REMARK INTER:                  -7.073
REMARK INTRA:                  -0.417
REMARK UNBOUND:                -0.411
REMARK SMILES O=C([O-])CCCCCCCC(=O)[O-]
REMARK SMILES IDX 7 1 6 2 5 3 4 4 2 5 1 6 3 7 8 8 9 9 10 10 11 11 12 12 13 13
REMARK H PARENT
REMARK Flexibility Score: inf
ROOT
ATOM      1  C   UNL     1      15.315  -3.382  16.607  1.00  0.00     0.000 C 
ENDROOT
BRANCH   1   2
ATOM      2  C   UNL     1      15.806  -2.582  17.820  1.00  0.00     0.000 C 
BRANCH   2   3
ATOM      3  C   UNL     1      17.234  -2.988  18.206  1.00  0.00     0.006 C 
BRANCH   3   4
ATOM      4  C   UNL     1      17.877  -3.842  17.111  1.00  0.00     0.053 C 
BRANCH   4   5
ATOM      5  C   UNL     1      18.942  -3.068  16.400  1.00  0.00     0.041 C 
ATOM      6  O   UNL     1      20.028  -2.806  16.981  1.00  0.00    -0.550 OA
ATOM      7  O   UNL     1      18.755  -2.679  15.080  1.00  0.00    -0.550 OA
ENDBRANCH   4   5
ENDBRANCH   3   4
ENDBRANCH   2   3
ENDBRANCH   1   2
BRANCH   1   8
ATOM      8  C   UNL     1      13.791  -3.549  16.638  1.00  0.00     0.000 C 
BRANCH   8   9
ATOM      9  C   UNL     1      13.182  -3.295  15.254  1.00  0.00     0.006 C 
BRANCH   9  10
ATOM     10  C   UNL     1      14.276  -3.092  14.201  1.00  0.00     0.053 C 
BRANCH  10  11
ATOM     11  C   UNL     1      13.768  -2.254  13.072  1.00  0.00     0.041 C 
ATOM     12  O   UNL     1      14.259  -2.379  11.919  1.00  0.00    -0.550 OA
ATOM     13  O   UNL     1      12.717  -1.370  13.279  1.00  0.00    -0.550 OA
ENDBRANCH  10  11
ENDBRANCH   9  10
ENDBRANCH   8   9
ENDBRANCH   1   8
TORSDOF 8
ENDMDL
MODEL 6
REMARK VINA RESULT:    -4.803      1.731      5.460
REMARK INTER + INTRA:          -7.460
REMARK INTER:                  -7.058
REMARK INTRA:                  -0.402
REMARK UNBOUND:                -0.411
REMARK SMILES O=C([O-])CCCCCCCC(=O)[O-]
REMARK SMILES IDX 7 1 6 2 5 3 4 4 2 5 1 6 3 7 8 8 9 9 10 10 11 11 12 12 13 13
REMARK H PARENT
REMARK Flexibility Score: inf
ROOT
ATOM      1  C   UNL     1      15.479  -3.295  16.546  1.00  0.00     0.000 C 
ENDROOT
BRANCH   1   2
ATOM      2  C   UNL     1      14.040  -3.783  16.754  1.00  0.00     0.000 C 
BRANCH   2   3
ATOM      3  C   UNL     1      13.141  -3.363  15.584  1.00  0.00     0.006 C 
BRANCH   3   4
ATOM      4  C   UNL     1      13.964  -3.135  14.314  1.00  0.00     0.053 C 
BRANCH   4   5
ATOM      5  C   UNL     1      13.277  -2.156  13.414  1.00  0.00     0.041 C 
ATOM      6  O   UNL     1      12.260  -1.531  13.817  1.00  0.00    -0.550 OA
ATOM      7  O   UNL     1      13.787  -1.897  12.149  1.00  0.00    -0.550 OA
ENDBRANCH   4   5
ENDBRANCH   3   4
ENDBRANCH   2   3
ENDBRANCH   1   2
BRANCH   1   8
ATOM      8  C   UNL     1      16.012  -2.599  17.804  1.00  0.00     0.000 C 
BRANCH   8   9
ATOM      9  C   UNL     1      17.454  -3.028  18.100  1.00  0.00     0.006 C 
BRANCH   9  10
ATOM     10  C   UNL     1      18.048  -3.804  16.921  1.00  0.00     0.053 C 
BRANCH  10  11
ATOM     11  C   UNL     1      19.182  -3.043  16.310  1.00  0.00     0.041 C 
ATOM     12  O   UNL     1      20.155  -2.677  17.021  1.00  0.00    -0.550 OA
ATOM     13  O   UNL     1      19.189  -2.780  14.947  1.00  0.00    -0.550 OA
ENDBRANCH  10  11
ENDBRANCH   9  10
ENDBRANCH   8   9
ENDBRANCH   1   8
TORSDOF 8
ENDMDL
MODEL 7
REMARK VINA RESULT:    -4.783      2.543      4.107
REMARK INTER + INTRA:          -7.431
REMARK INTER:                  -6.780
REMARK INTRA:                  -0.650
REMARK UNBOUND:                -0.411
REMARK SMILES O=C([O-])CCCCCCCC(=O)[O-]
REMARK SMILES IDX 7 1 6 2 5 3 4 4 2 5 1 6 3 7 8 8 9 9 10 10 11 11 12 12 13 13
REMARK H PARENT
REMARK Flexibility Score: inf
ROOT
ATOM      1  C   UNL     1      16.764  -2.667  18.164  1.00  0.00     0.000 C 
ENDROOT
BRANCH   1   2
ATOM      2  C   UNL     1      17.527  -3.781  17.436  1.00  0.00     0.000 C 
BRANCH   2   3
ATOM      3  C   UNL     1      18.775  -3.229  16.737  1.00  0.00     0.006 C 
BRANCH   3   4
ATOM      4  C   UNL     1      18.971  -3.882  15.366  1.00  0.00     0.053 C 
BRANCH   4   5
ATOM      5  C   UNL     1      17.923  -3.410  14.407  1.00  0.00     0.041 C 
ATOM      6  O   UNL     1      17.640  -2.185  14.332  1.00  0.00    -0.550 OA
ATOM      7  O   UNL     1      17.294  -4.316  13.563  1.00  0.00    -0.550 OA
ENDBRANCH   4   5
ENDBRANCH   3   4
ENDBRANCH   2   3
ENDBRANCH   1   2
BRANCH   1   8
ATOM      8  C   UNL     1      15.291  -2.639  17.739  1.00  0.00     0.000 C 
BRANCH   8   9
ATOM      9  C   UNL     1      15.006  -3.703  16.672  1.00  0.00     0.006 C 
BRANCH   9  10
ATOM     10  C   UNL     1      13.510  -3.773  16.353  1.00  0.00     0.053 C 
BRANCH  10  11
ATOM     11  C   UNL     1      13.225  -3.125  15.035  1.00  0.00     0.041 C 
ATOM     12  O   UNL     1      12.075  -2.677  14.784  1.00  0.00    -0.550 OA
ATOM     13  O   UNL     1      14.242  -2.970  14.102  1.00  0.00    -0.550 OA
ENDBRANCH  10  11
ENDBRANCH   9  10
ENDBRANCH   8   9
ENDBRANCH   1   8
TORSDOF 8
ENDMDL
MODEL 8
REMARK VINA RESULT:    -4.781      4.112      6.542
REMARK INTER + INTRA:          -7.429
REMARK INTER:                  -7.003
REMARK INTRA:                  -0.426
REMARK UNBOUND:                -0.411
REMARK SMILES O=C([O-])CCCCCCCC(=O)[O-]
REMARK SMILES IDX 7 1 6 2 5 3 4 4 2 5 1 6 3 7 8 8 9 9 10 10 11 11 12 12 13 13
REMARK H PARENT
REMARK Flexibility Score: inf
ROOT
ATOM      1  C   UNL     1      16.038  -5.593  11.163  1.00  0.00     0.000 C 
ENDROOT
BRANCH   1   2
ATOM      2  C   UNL     1      15.750  -5.587   9.656  1.00  0.00     0.000 C 
BRANCH   2   3
ATOM      3  C   UNL     1      14.241  -5.605   9.383  1.00  0.00     0.006 C 
BRANCH   3   4
ATOM      4  C   UNL     1      13.446  -5.576  10.691  1.00  0.00     0.053 C 
BRANCH   4   5
ATOM      5  C   UNL     1      12.723  -4.274  10.835  1.00  0.00     0.041 C 
ATOM      6  O   UNL     1      11.604  -4.107  10.282  1.00  0.00    -0.550 OA
ATOM      7  O   UNL     1      13.261  -3.263  11.621  1.00  0.00    -0.550 OA
ENDBRANCH   4   5
ENDBRANCH   3   4
ENDBRANCH   2   3
ENDBRANCH   1   2
BRANCH   1   8
ATOM      8  C   UNL     1      17.486  -6.010  11.445  1.00  0.00     0.000 C 
BRANCH   8   9
ATOM      9  C   UNL     1      18.129  -5.091  12.491  1.00  0.00     0.006 C 
BRANCH   9  10
ATOM     10  C   UNL     1      17.098  -4.121  13.076  1.00  0.00     0.053 C 
BRANCH  10  11
ATOM     11  C   UNL     1      17.715  -2.778  13.308  1.00  0.00     0.041 C 
ATOM     12  O   UNL     1      18.917  -2.571  12.996  1.00  0.00    -0.550 OA
ATOM     13  O   UNL     1      16.949  -1.740  13.822  1.00  0.00    -0.550 OA
ENDBRANCH  10  11
ENDBRANCH   9  10
ENDBRANCH   8   9
ENDBRANCH   1   8
TORSDOF 8
ENDMDL
MODEL 9
REMARK VINA RESULT:    -4.718      3.325      3.960
REMARK INTER + INTRA:          -7.336
REMARK INTER:                  -6.811
REMARK INTRA:                  -0.525
REMARK UNBOUND:                -0.411
REMARK SMILES O=C([O-])CCCCCCCC(=O)[O-]
REMARK SMILES IDX 7 1 6 2 5 3 4 4 2 5 1 6 3 7 8 8 9 9 10 10 11 11 12 12 13 13
REMARK H PARENT
REMARK Flexibility Score: inf
ROOT
ATOM      1  C   UNL     1      15.754  -3.127  16.809  1.00  0.00     0.000 C 
ENDROOT
BRANCH   1   2
ATOM      2  C   UNL     1      16.385  -2.680  18.133  1.00  0.00     0.000 C 
BRANCH   2   3
ATOM      3  C   UNL     1      17.855  -3.110  18.217  1.00  0.00     0.006 C 
BRANCH   3   4
ATOM      4  C   UNL     1      18.322  -3.728  16.896  1.00  0.00     0.053 C 
BRANCH   4   5
ATOM      5  C   UNL     1      19.470  -2.952  16.332  1.00  0.00     0.041 C 
ATOM      6  O   UNL     1      19.409  -2.491  15.162  1.00  0.00    -0.550 OA
ATOM      7  O   UNL     1      20.589  -2.697  17.115  1.00  0.00    -0.550 OA
ENDBRANCH   4   5
ENDBRANCH   3   4
ENDBRANCH   2   3
ENDBRANCH   1   2
BRANCH   1   8
ATOM      8  C   UNL     1      14.241  -3.325  16.959  1.00  0.00     0.000 C 
BRANCH   8   9
ATOM      9  C   UNL     1      13.763  -4.537  16.150  1.00  0.00     0.006 C 
BRANCH   9  10
ATOM     10  C   UNL     1      14.941  -5.434  15.758  1.00  0.00     0.053 C 
BRANCH  10  11
ATOM     11  C   UNL     1      14.927  -5.702  14.286  1.00  0.00     0.041 C 
ATOM     12  O   UNL     1      15.694  -5.062  13.518  1.00  0.00    -0.550 OA
ATOM     13  O   UNL     1      14.104  -6.693  13.767  1.00  0.00    -0.550 OA
ENDBRANCH  10  11
ENDBRANCH   9  10
ENDBRANCH   8   9
ENDBRANCH   1   8
TORSDOF 8
ENDMDL
