MODEL 1
REMARK VINA RESULT:    -3.203      0.000      0.000
REMARK INTER + INTRA:          -3.900
REMARK INTER:                  -3.858
REMARK INTRA:                  -0.042
REMARK UNBOUND:                -0.042
REMARK SMILES CCCCCO
REMARK SMILES IDX 4 1 3 2 2 3 1 4 5 5 6 6
REMARK H PARENT 6 7
REMARK Flexibility Score: inf
ROOT
ATOM      1  C   UNL     1      29.551   2.770  25.018  1.00  0.00     0.028 C 
ENDROOT
BRANCH   1   2
ATOM      2  C   UNL     1      28.977   2.693  23.595  1.00  0.00     0.002 C 
BRANCH   2   3
ATOM      3  C   UNL     1      29.408   1.421  22.850  1.00  0.00    -0.003 C 
ATOM      4  C   UNL     1      30.637   0.794  23.502  1.00  0.00     0.004 C 
ENDBRANCH   2   3
ENDBRANCH   1   2
BRANCH   1   5
ATOM      5  C   UNL     1      29.593   4.199  25.565  1.00  0.00     0.156 C 
BRANCH   5   6
ATOM      6  O   UNL     1      29.008   5.068  24.636  1.00  0.00    -0.396 OA
ATOM      7  H   UNL     1      28.028   4.922  24.700  1.00  0.00     0.210 HD
ENDBRANCH   5   6
ENDBRANCH   1   5
TORSDOF 4
ENDMDL
MODEL 2
REMARK VINA RESULT:    -3.018      7.378      8.587
REMARK INTER + INTRA:          -3.677
REMARK INTER:                  -3.668
REMARK INTRA:                  -0.009
REMARK UNBOUND:                -0.042
REMARK SMILES CCCCCO
REMARK SMILES IDX 4 1 3 2 2 3 1 4 5 5 6 6
REMARK H PARENT 6 7
REMARK Flexibility Score: inf
ROOT
ATOM      1  C   UNL     1      26.813  -0.615  17.543  1.00  0.00     0.028 C 
ENDROOT
BRANCH   1   2
ATOM      2  C   UNL     1      26.303  -2.063  17.480  1.00  0.00     0.002 C 
BRANCH   2   3
ATOM      3  C   UNL     1      25.900  -2.488  16.060  1.00  0.00    -0.003 C 
ATOM      4  C   UNL     1      24.483  -3.054  16.038  1.00  0.00     0.004 C 
ENDBRANCH   2   3
ENDBRANCH   1   2
BRANCH   1   5
ATOM      5  C   UNL     1      27.101  -0.149  18.973  1.00  0.00     0.156 C 
BRANCH   5   6
ATOM      6  O   UNL     1      27.125   1.250  19.009  1.00  0.00    -0.396 OA
ATOM      7  H   UNL     1      26.320   1.528  19.518  1.00  0.00     0.210 HD
ENDBRANCH   5   6
ENDBRANCH   1   5
TORSDOF 4
ENDMDL
MODEL 3
REMARK VINA RESULT:    -2.987      1.130      1.971
REMARK INTER + INTRA:          -3.640
REMARK INTER:                  -3.606
REMARK INTRA:                  -0.034
REMARK UNBOUND:                -0.042
REMARK SMILES CCCCCO
REMARK SMILES IDX 4 1 3 2 2 3 1 4 5 5 6 6
REMARK H PARENT 6 7
REMARK Flexibility Score: inf
ROOT
ATOM      1  C   UNL     1      29.487   2.172  23.181  1.00  0.00     0.028 C 
ENDROOT
BRANCH   1   2
ATOM      2  C   UNL     1      30.239   0.836  23.295  1.00  0.00     0.002 C 
BRANCH   2   3
ATOM      3  C   UNL     1      31.415   0.902  24.280  1.00  0.00    -0.003 C 
ATOM      4  C   UNL     1      32.713   0.452  23.616  1.00  0.00     0.004 C 
ENDBRANCH   2   3
ENDBRANCH   1   2
BRANCH   1   5
ATOM      5  C   UNL     1      29.352   2.894  24.524  1.00  0.00     0.156 C 
BRANCH   5   6
ATOM      6  O   UNL     1      29.004   4.231  24.299  1.00  0.00    -0.396 OA
ATOM      7  H   UNL     1      28.134   4.370  24.755  1.00  0.00     0.210 HD
ENDBRANCH   5   6
ENDBRANCH   1   5
TORSDOF 4
ENDMDL
MODEL 4
REMARK VINA RESULT:    -2.960      1.827      2.285
REMARK INTER + INTRA:          -3.608
REMARK INTER:                  -3.593
REMARK INTRA:                  -0.015
REMARK UNBOUND:                -0.042
REMARK SMILES CCCCCO
REMARK SMILES IDX 4 1 3 2 2 3 1 4 5 5 6 6
REMARK H PARENT 6 7
REMARK Flexibility Score: inf
ROOT
ATOM      1  C   UNL     1      29.016   2.734  23.935  1.00  0.00     0.028 C 
ENDROOT
BRANCH   1   2
ATOM      2  C   UNL     1      28.531   1.412  24.551  1.00  0.00     0.002 C 
BRANCH   2   3
ATOM      3  C   UNL     1      27.457   0.721  23.698  1.00  0.00    -0.003 C 
ATOM      4  C   UNL     1      26.056   1.056  24.201  1.00  0.00     0.004 C 
ENDBRANCH   2   3
ENDBRANCH   1   2
BRANCH   1   5
ATOM      5  C   UNL     1      29.406   3.773  24.990  1.00  0.00     0.156 C 
BRANCH   5   6
ATOM      6  O   UNL     1      28.979   5.039  24.574  1.00  0.00    -0.396 OA
ATOM      7  H   UNL     1      28.053   4.922  24.236  1.00  0.00     0.210 HD
ENDBRANCH   5   6
ENDBRANCH   1   5
TORSDOF 4
ENDMDL
MODEL 5
REMARK VINA RESULT:    -2.937      1.108      1.354
REMARK INTER + INTRA:          -3.581
REMARK INTER:                  -3.571
REMARK INTRA:                  -0.010
REMARK UNBOUND:                -0.042
REMARK SMILES CCCCCO
REMARK SMILES IDX 4 1 3 2 2 3 1 4 5 5 6 6
REMARK H PARENT 6 7
REMARK Flexibility Score: inf
ROOT
ATOM      1  C   UNL     1      29.138   2.725  23.807  1.00  0.00     0.028 C 
ENDROOT
BRANCH   1   2
ATOM      2  C   UNL     1      30.095   1.524  23.825  1.00  0.00     0.002 C 
BRANCH   2   3
ATOM      3  C   UNL     1      29.356   0.178  23.795  1.00  0.00    -0.003 C 
ATOM      4  C   UNL     1      29.842  -0.690  22.638  1.00  0.00     0.004 C 
ENDBRANCH   2   3
ENDBRANCH   1   2
BRANCH   1   5
ATOM      5  C   UNL     1      29.384   3.698  24.963  1.00  0.00     0.156 C 
BRANCH   5   6
ATOM      6  O   UNL     1      28.980   4.983  24.582  1.00  0.00    -0.396 OA
ATOM      7  H   UNL     1      28.412   5.324  25.321  1.00  0.00     0.210 HD
ENDBRANCH   5   6
ENDBRANCH   1   5
TORSDOF 4
ENDMDL
MODEL 6
REMARK VINA RESULT:    -2.798      9.325     10.204
REMARK INTER + INTRA:          -3.413
REMARK INTER:                  -3.408
REMARK INTRA:                  -0.005
REMARK UNBOUND:                -0.042
REMARK SMILES CCCCCO
REMARK SMILES IDX 4 1 3 2 2 3 1 4 5 5 6 6
REMARK H PARENT 6 7
REMARK Flexibility Score: inf
ROOT
ATOM      1  C   UNL     1      25.689   8.284  18.598  1.00  0.00     0.028 C 
ENDROOT
BRANCH   1   2
ATOM      2  C   UNL     1      25.327   9.703  18.134  1.00  0.00     0.002 C 
BRANCH   2   3
ATOM      3  C   UNL     1      24.417   9.708  16.897  1.00  0.00    -0.003 C 
ATOM      4  C   UNL     1      23.023  10.224  17.243  1.00  0.00     0.004 C 
ENDBRANCH   2   3
ENDBRANCH   1   2
BRANCH   1   5
ATOM      5  C   UNL     1      24.467   7.471  19.031  1.00  0.00     0.156 C 
BRANCH   5   6
ATOM      6  O   UNL     1      24.772   6.106  18.972  1.00  0.00    -0.396 OA
ATOM      7  H   UNL     1      24.676   5.843  18.020  1.00  0.00     0.210 HD
ENDBRANCH   5   6
ENDBRANCH   1   5
TORSDOF 4
ENDMDL
MODEL 7
REMARK VINA RESULT:    -2.777     21.527     22.289
REMARK INTER + INTRA:          -3.388
REMARK INTER:                  -3.354
REMARK INTRA:                  -0.034
REMARK UNBOUND:                -0.042
REMARK SMILES CCCCCO
REMARK SMILES IDX 4 1 3 2 2 3 1 4 5 5 6 6
REMARK H PARENT 6 7
REMARK Flexibility Score: inf
ROOT
ATOM      1  C   UNL     1      18.267  12.558   7.239  1.00  0.00     0.028 C 
ENDROOT
BRANCH   1   2
ATOM      2  C   UNL     1      18.796  13.105   8.574  1.00  0.00     0.002 C 
BRANCH   2   3
ATOM      3  C   UNL     1      18.173  14.458   8.949  1.00  0.00    -0.003 C 
ATOM      4  C   UNL     1      16.692  14.500   8.583  1.00  0.00     0.004 C 
ENDBRANCH   2   3
ENDBRANCH   1   2
BRANCH   1   5
ATOM      5  C   UNL     1      18.619  11.085   7.019  1.00  0.00     0.156 C 
BRANCH   5   6
ATOM      6  O   UNL     1      19.515  10.669   8.012  1.00  0.00    -0.396 OA
ATOM      7  H   UNL     1      20.309  10.313   7.535  1.00  0.00     0.210 HD
ENDBRANCH   5   6
ENDBRANCH   1   5
TORSDOF 4
ENDMDL
MODEL 8
REMARK VINA RESULT:    -2.661      3.890      5.294
REMARK INTER + INTRA:          -3.248
REMARK INTER:                  -3.213
REMARK INTRA:                  -0.035
REMARK UNBOUND:                -0.042
REMARK SMILES CCCCCO
REMARK SMILES IDX 4 1 3 2 2 3 1 4 5 5 6 6
REMARK H PARENT 6 7
REMARK Flexibility Score: inf
ROOT
ATOM      1  C   UNL     1      27.282  -0.508  20.683  1.00  0.00     0.028 C 
ENDROOT
BRANCH   1   2
ATOM      2  C   UNL     1      28.598   0.045  21.252  1.00  0.00     0.002 C 
BRANCH   2   3
ATOM      3  C   UNL     1      28.430   0.642  22.657  1.00  0.00    -0.003 C 
ATOM      4  C   UNL     1      29.222   1.938  22.801  1.00  0.00     0.004 C 
ENDBRANCH   2   3
ENDBRANCH   1   2
BRANCH   1   5
ATOM      5  C   UNL     1      27.085  -0.166  19.204  1.00  0.00     0.156 C 
BRANCH   5   6
ATOM      6  O   UNL     1      27.131   1.223  19.039  1.00  0.00    -0.396 OA
ATOM      7  H   UNL     1      27.318   1.602  19.938  1.00  0.00     0.210 HD
ENDBRANCH   5   6
ENDBRANCH   1   5
TORSDOF 4
ENDMDL
MODEL 9
REMARK VINA RESULT:    -2.629      7.958      9.410
REMARK INTER + INTRA:          -3.209
REMARK INTER:                  -3.164
REMARK INTRA:                  -0.045
REMARK UNBOUND:                -0.042
REMARK SMILES CCCCCO
REMARK SMILES IDX 4 1 3 2 2 3 1 4 5 5 6 6
REMARK H PARENT 6 7
REMARK Flexibility Score: inf
ROOT
ATOM      1  C   UNL     1      26.252  -2.493  16.334  1.00  0.00     0.028 C 
ENDROOT
BRANCH   1   2
ATOM      2  C   UNL     1      25.963  -1.542  17.506  1.00  0.00     0.002 C 
BRANCH   2   3
ATOM      3  C   UNL     1      26.948  -0.365  17.570  1.00  0.00    -0.003 C 
ATOM      4  C   UNL     1      27.070   0.172  18.993  1.00  0.00     0.004 C 
ENDBRANCH   2   3
ENDBRANCH   1   2
BRANCH   1   5
ATOM      5  C   UNL     1      26.647  -3.898  16.794  1.00  0.00     0.156 C 
BRANCH   5   6
ATOM      6  O   UNL     1      27.851  -3.832  17.505  1.00  0.00    -0.396 OA
ATOM      7  H   UNL     1      28.034  -2.868  17.650  1.00  0.00     0.210 HD
ENDBRANCH   5   6
ENDBRANCH   1   5
TORSDOF 4
ENDMDL
