MODEL 1
REMARK VINA RESULT:    -3.707      0.000      0.000
REMARK INTER + INTRA:          -5.109
REMARK INTER:                  -5.007
REMARK INTRA:                  -0.102
REMARK UNBOUND:                -0.102
REMARK SMILES [NH3+]CCCC[C@@H]([NH3+])C(=O)[O-]
REMARK SMILES IDX 4 1 3 2 2 3 1 4 5 8 6 9 7 10 8 14 9 15 10 16
REMARK H PARENT 1 5 1 6 1 7 7 11 7 12 7 13
REMARK Flexibility Score: inf
ROOT
ATOM      1  C   UNL     1      27.887   2.056 142.648  1.00  0.00     0.012 C 
ENDROOT
BRANCH   1   2
ATOM      2  C   UNL     1      27.728   0.623 142.119  1.00  0.00     0.061 C 
BRANCH   2   3
ATOM      3  C   UNL     1      26.431  -0.046 142.605  1.00  0.00     0.258 C 
BRANCH   3   4
ATOM      4  N   UNL     1      26.298   0.002 144.063  1.00  0.00    -0.358 N 
ATOM      5  H   UNL     1      25.815  -0.867 144.388  1.00  0.00     0.344 HD
ATOM      6  H   UNL     1      25.728   0.830 144.351  1.00  0.00     0.344 HD
ATOM      7  H   UNL     1      27.240   0.041 144.513  1.00  0.00     0.344 HD
ENDBRANCH   3   4
ENDBRANCH   2   3
ENDBRANCH   1   2
BRANCH   1   8
ATOM      8  C   UNL     1      29.375   2.429 142.775  1.00  0.00     0.072 C 
BRANCH   8   9
ATOM      9  C   UNL     1      29.698   3.357 143.969  1.00  0.00     0.227 C 
BRANCH   9  10
ATOM     10  N   UNL     1      30.959   2.988 144.631  1.00  0.00    -0.350 N 
ATOM     11  H   UNL     1      31.217   3.676 145.373  1.00  0.00     0.345 HD
ATOM     12  H   UNL     1      30.857   2.044 145.071  1.00  0.00     0.345 HD
ATOM     13  H   UNL     1      31.730   2.937 143.926  1.00  0.00     0.345 HD
ENDBRANCH   9  10
BRANCH   9  14
ATOM     14  C   UNL     1      29.689   4.809 143.563  1.00  0.00     0.099 C 
ATOM     15  O   UNL     1      29.528   5.143 142.359  1.00  0.00    -0.544 OA
ATOM     16  O   UNL     1      29.809   5.795 144.535  1.00  0.00    -0.544 OA
ENDBRANCH   9  14
ENDBRANCH   8   9
ENDBRANCH   1   8
TORSDOF 7
ENDMDL
MODEL 2
REMARK VINA RESULT:    -3.621     14.471     15.147
REMARK INTER + INTRA:          -4.994
REMARK INTER:                  -4.889
REMARK INTRA:                  -0.104
REMARK UNBOUND:                -0.102
REMARK SMILES [NH3+]CCCC[C@@H]([NH3+])C(=O)[O-]
REMARK SMILES IDX 4 1 3 2 2 3 1 4 5 8 6 9 7 10 8 14 9 15 10 16
REMARK H PARENT 1 5 1 6 1 7 7 11 7 12 7 13
REMARK Flexibility Score: inf
ROOT
ATOM      1  C   UNL     1      31.950  16.273 139.180  1.00  0.00     0.012 C 
ENDROOT
BRANCH   1   2
ATOM      2  C   UNL     1      31.360  17.680 139.364  1.00  0.00     0.061 C 
BRANCH   2   3
ATOM      3  C   UNL     1      30.174  17.699 140.343  1.00  0.00     0.258 C 
BRANCH   3   4
ATOM      4  N   UNL     1      30.105  18.950 141.103  1.00  0.00    -0.358 N 
ATOM      5  H   UNL     1      30.642  19.687 140.592  1.00  0.00     0.344 HD
ATOM      6  H   UNL     1      30.526  18.824 142.052  1.00  0.00     0.344 HD
ATOM      7  H   UNL     1      29.113  19.268 141.190  1.00  0.00     0.344 HD
ENDBRANCH   3   4
ENDBRANCH   2   3
ENDBRANCH   1   2
BRANCH   1   8
ATOM      8  C   UNL     1      33.283  16.137 139.937  1.00  0.00     0.072 C 
BRANCH   8   9
ATOM      9  C   UNL     1      34.504  15.857 139.029  1.00  0.00     0.227 C 
BRANCH   9  10
ATOM     10  N   UNL     1      35.614  16.783 139.294  1.00  0.00    -0.350 N 
ATOM     11  H   UNL     1      36.181  16.477 140.116  1.00  0.00     0.345 HD
ATOM     12  H   UNL     1      36.238  16.826 138.454  1.00  0.00     0.345 HD
ATOM     13  H   UNL     1      35.242  17.745 139.472  1.00  0.00     0.345 HD
ENDBRANCH   9  10
BRANCH   9  14
ATOM     14  C   UNL     1      34.947  14.419 139.123  1.00  0.00     0.099 C 
ATOM     15  O   UNL     1      36.106  14.123 139.519  1.00  0.00    -0.544 OA
ATOM     16  O   UNL     1      34.051  13.402 138.818  1.00  0.00    -0.544 OA
ENDBRANCH   9  14
ENDBRANCH   8   9
ENDBRANCH   1   8
TORSDOF 7
ENDMDL
MODEL 3
REMARK VINA RESULT:    -3.604     15.296     15.670
REMARK INTER + INTRA:          -4.970
REMARK INTER:                  -4.898
REMARK INTRA:                  -0.072
REMARK UNBOUND:                -0.102
REMARK SMILES [NH3+]CCCC[C@@H]([NH3+])C(=O)[O-]
REMARK SMILES IDX 4 1 3 2 2 3 1 4 5 8 6 9 7 10 8 14 9 15 10 16
REMARK H PARENT 1 5 1 6 1 7 7 11 7 12 7 13
REMARK Flexibility Score: inf
ROOT
ATOM      1  C   UNL     1      32.507  16.499 138.736  1.00  0.00     0.012 C 
ENDROOT
BRANCH   1   2
ATOM      2  C   UNL     1      31.549  16.937 139.855  1.00  0.00     0.061 C 
BRANCH   2   3
ATOM      3  C   UNL     1      30.621  18.085 139.422  1.00  0.00     0.258 C 
BRANCH   3   4
ATOM      4  N   UNL     1      30.372  19.034 140.510  1.00  0.00    -0.358 N 
ATOM      5  H   UNL     1      29.472  19.534 140.324  1.00  0.00     0.344 HD
ATOM      6  H   UNL     1      31.142  19.739 140.563  1.00  0.00     0.344 HD
ATOM      7  H   UNL     1      30.284  18.529 141.420  1.00  0.00     0.344 HD
ENDBRANCH   3   4
ENDBRANCH   2   3
ENDBRANCH   1   2
BRANCH   1   8
ATOM      8  C   UNL     1      33.884  16.126 139.312  1.00  0.00     0.072 C 
BRANCH   8   9
ATOM      9  C   UNL     1      34.998  15.975 138.249  1.00  0.00     0.227 C 
BRANCH   9  10
ATOM     10  N   UNL     1      35.713  17.238 138.013  1.00  0.00    -0.350 N 
ATOM     11  H   UNL     1      35.776  17.811 138.885  1.00  0.00     0.345 HD
ATOM     12  H   UNL     1      36.683  17.031 137.678  1.00  0.00     0.345 HD
ATOM     13  H   UNL     1      35.224  17.792 137.273  1.00  0.00     0.345 HD
ENDBRANCH   9  10
BRANCH   9  14
ATOM     14  C   UNL     1      35.948  14.857 138.596  1.00  0.00     0.099 C 
ATOM     15  O   UNL     1      35.669  14.029 139.504  1.00  0.00    -0.544 OA
ATOM     16  O   UNL     1      37.125  14.705 137.873  1.00  0.00    -0.544 OA
ENDBRANCH   9  14
ENDBRANCH   8   9
ENDBRANCH   1   8
TORSDOF 7
ENDMDL
MODEL 4
REMARK VINA RESULT:    -3.547      3.028      5.406
REMARK INTER + INTRA:          -4.893
REMARK INTER:                  -4.788
REMARK INTRA:                  -0.105
REMARK UNBOUND:                -0.102
REMARK SMILES [NH3+]CCCC[C@@H]([NH3+])C(=O)[O-]
REMARK SMILES IDX 4 1 3 2 2 3 1 4 5 8 6 9 7 10 8 14 9 15 10 16
REMARK H PARENT 1 5 1 6 1 7 7 11 7 12 7 13
REMARK Flexibility Score: inf
ROOT
ATOM      1  C   UNL     1      28.438   5.912 144.186  1.00  0.00     0.012 C 
ENDROOT
BRANCH   1   2
ATOM      2  C   UNL     1      29.248   6.953 144.973  1.00  0.00     0.061 C 
BRANCH   2   3
ATOM      3  C   UNL     1      28.713   8.383 144.786  1.00  0.00     0.258 C 
BRANCH   3   4
ATOM      4  N   UNL     1      29.788   9.378 144.771  1.00  0.00    -0.358 N 
ATOM      5  H   UNL     1      30.706   8.887 144.865  1.00  0.00     0.344 HD
ATOM      6  H   UNL     1      29.680  10.044 145.571  1.00  0.00     0.344 HD
ATOM      7  H   UNL     1      29.787   9.901 143.867  1.00  0.00     0.344 HD
ENDBRANCH   3   4
ENDBRANCH   2   3
ENDBRANCH   1   2
BRANCH   1   8
ATOM      8  C   UNL     1      28.690   4.496 144.734  1.00  0.00     0.072 C 
BRANCH   8   9
ATOM      9  C   UNL     1      29.687   3.659 143.899  1.00  0.00     0.227 C 
BRANCH   9  10
ATOM     10  N   UNL     1      30.699   3.002 144.740  1.00  0.00    -0.350 N 
ATOM     11  H   UNL     1      30.284   2.224 145.301  1.00  0.00     0.345 HD
ATOM     12  H   UNL     1      31.455   2.610 144.131  1.00  0.00     0.345 HD
ATOM     13  H   UNL     1      31.131   3.700 145.388  1.00  0.00     0.345 HD
ENDBRANCH   9  10
BRANCH   9  14
ATOM     14  C   UNL     1      28.974   2.668 143.013  1.00  0.00     0.099 C 
ATOM     15  O   UNL     1      29.616   1.793 142.373  1.00  0.00    -0.544 OA
ATOM     16  O   UNL     1      27.587   2.686 142.939  1.00  0.00    -0.544 OA
ENDBRANCH   9  14
ENDBRANCH   8   9
ENDBRANCH   1   8
TORSDOF 7
ENDMDL
MODEL 5
REMARK VINA RESULT:    -3.521     14.862     15.893
REMARK INTER + INTRA:          -4.858
REMARK INTER:                  -4.438
REMARK INTRA:                  -0.420
REMARK UNBOUND:                -0.102
REMARK SMILES [NH3+]CCCC[C@@H]([NH3+])C(=O)[O-]
REMARK SMILES IDX 4 1 3 2 2 3 1 4 5 8 6 9 7 10 8 14 9 15 10 16
REMARK H PARENT 1 5 1 6 1 7 7 11 7 12 7 13
REMARK Flexibility Score: inf
ROOT
ATOM      1  C   UNL     1      35.237  14.662 139.500  1.00  0.00     0.012 C 
ENDROOT
BRANCH   1   2
ATOM      2  C   UNL     1      36.546  14.633 138.697  1.00  0.00     0.061 C 
BRANCH   2   3
ATOM      3  C   UNL     1      36.974  16.030 138.214  1.00  0.00     0.258 C 
BRANCH   3   4
ATOM      4  N   UNL     1      36.943  16.144 136.754  1.00  0.00    -0.358 N 
ATOM      5  H   UNL     1      37.242  17.108 136.483  1.00  0.00     0.344 HD
ATOM      6  H   UNL     1      35.974  15.979 136.396  1.00  0.00     0.344 HD
ATOM      7  H   UNL     1      37.605  15.461 136.322  1.00  0.00     0.344 HD
ENDBRANCH   3   4
ENDBRANCH   2   3
ENDBRANCH   1   2
BRANCH   1   8
ATOM      8  C   UNL     1      34.621  16.072 139.490  1.00  0.00     0.072 C 
BRANCH   8   9
ATOM      9  C   UNL     1      33.127  16.110 139.089  1.00  0.00     0.227 C 
BRANCH   9  10
ATOM     10  N   UNL     1      32.272  16.589 140.184  1.00  0.00    -0.350 N 
ATOM     11  H   UNL     1      32.075  17.612 140.098  1.00  0.00     0.345 HD
ATOM     12  H   UNL     1      31.363  16.071 140.167  1.00  0.00     0.345 HD
ATOM     13  H   UNL     1      32.734  16.405 141.104  1.00  0.00     0.345 HD
ENDBRANCH   9  10
BRANCH   9  14
ATOM     14  C   UNL     1      32.912  16.908 137.827  1.00  0.00     0.099 C 
ATOM     15  O   UNL     1      31.854  17.569 137.652  1.00  0.00    -0.544 OA
ATOM     16  O   UNL     1      33.913  16.955 136.865  1.00  0.00    -0.544 OA
ENDBRANCH   9  14
ENDBRANCH   8   9
ENDBRANCH   1   8
TORSDOF 7
ENDMDL
MODEL 6
REMARK VINA RESULT:    -3.494      3.520      4.881
REMARK INTER + INTRA:          -4.821
REMARK INTER:                  -4.668
REMARK INTRA:                  -0.153
REMARK UNBOUND:                -0.102
REMARK SMILES [NH3+]CCCC[C@@H]([NH3+])C(=O)[O-]
REMARK SMILES IDX 4 1 3 2 2 3 1 4 5 8 6 9 7 10 8 14 9 15 10 16
REMARK H PARENT 1 5 1 6 1 7 7 11 7 12 7 13
REMARK Flexibility Score: inf
ROOT
ATOM      1  C   UNL     1      28.780   5.759 143.699  1.00  0.00     0.012 C 
ENDROOT
BRANCH   1   2
ATOM      2  C   UNL     1      30.102   5.046 144.023  1.00  0.00     0.061 C 
BRANCH   2   3
ATOM      3  C   UNL     1      29.957   3.515 144.050  1.00  0.00     0.258 C 
BRANCH   3   4
ATOM      4  N   UNL     1      31.071   2.866 144.746  1.00  0.00    -0.358 N 
ATOM      5  H   UNL     1      30.766   2.620 145.716  1.00  0.00     0.344 HD
ATOM      6  H   UNL     1      31.891   3.513 144.806  1.00  0.00     0.344 HD
ATOM      7  H   UNL     1      31.344   1.986 144.255  1.00  0.00     0.344 HD
ENDBRANCH   3   4
ENDBRANCH   2   3
ENDBRANCH   1   2
BRANCH   1   8
ATOM      8  C   UNL     1      28.201   6.433 144.955  1.00  0.00     0.072 C 
BRANCH   8   9
ATOM      9  C   UNL     1      28.260   7.979 144.931  1.00  0.00     0.227 C 
BRANCH   9  10
ATOM     10  N   UNL     1      29.627   8.483 145.125  1.00  0.00    -0.350 N 
ATOM     11  H   UNL     1      30.256   8.197 144.341  1.00  0.00     0.345 HD
ATOM     12  H   UNL     1      29.608   9.529 145.173  1.00  0.00     0.345 HD
ATOM     13  H   UNL     1      30.016   8.123 146.027  1.00  0.00     0.345 HD
ENDBRANCH   9  10
BRANCH   9  14
ATOM     14  C   UNL     1      27.634   8.539 143.679  1.00  0.00     0.099 C 
ATOM     15  O   UNL     1      28.292   9.281 142.902  1.00  0.00    -0.544 OA
ATOM     16  O   UNL     1      26.329   8.194 143.350  1.00  0.00    -0.544 OA
ENDBRANCH   9  14
ENDBRANCH   8   9
ENDBRANCH   1   8
TORSDOF 7
ENDMDL
MODEL 7
REMARK VINA RESULT:    -3.481      2.620      4.725
REMARK INTER + INTRA:          -4.803
REMARK INTER:                  -4.641
REMARK INTRA:                  -0.163
REMARK UNBOUND:                -0.102
REMARK SMILES [NH3+]CCCC[C@@H]([NH3+])C(=O)[O-]
REMARK SMILES IDX 4 1 3 2 2 3 1 4 5 8 6 9 7 10 8 14 9 15 10 16
REMARK H PARENT 1 5 1 6 1 7 7 11 7 12 7 13
REMARK Flexibility Score: inf
ROOT
ATOM      1  C   UNL     1      27.740   4.021 143.239  1.00  0.00     0.012 C 
ENDROOT
BRANCH   1   2
ATOM      2  C   UNL     1      28.699   3.932 144.436  1.00  0.00     0.061 C 
BRANCH   2   3
ATOM      3  C   UNL     1      30.177   3.950 144.012  1.00  0.00     0.258 C 
BRANCH   3   4
ATOM      4  N   UNL     1      30.960   2.917 144.694  1.00  0.00    -0.358 N 
ATOM      5  H   UNL     1      31.940   3.261 144.816  1.00  0.00     0.344 HD
ATOM      6  H   UNL     1      30.981   2.039 144.126  1.00  0.00     0.344 HD
ATOM      7  H   UNL     1      30.561   2.723 145.640  1.00  0.00     0.344 HD
ENDBRANCH   3   4
ENDBRANCH   2   3
ENDBRANCH   1   2
BRANCH   1   8
ATOM      8  C   UNL     1      26.628   2.963 143.349  1.00  0.00     0.072 C 
BRANCH   8   9
ATOM      9  C   UNL     1      27.116   1.506 143.173  1.00  0.00     0.227 C 
BRANCH   9  10
ATOM     10  N   UNL     1      26.236   0.542 143.849  1.00  0.00    -0.350 N 
ATOM     11  H   UNL     1      26.779  -0.253 144.255  1.00  0.00     0.345 HD
ATOM     12  H   UNL     1      25.721   1.024 144.622  1.00  0.00     0.345 HD
ATOM     13  H   UNL     1      25.531   0.167 143.173  1.00  0.00     0.345 HD
ENDBRANCH   9  10
BRANCH   9  14
ATOM     14  C   UNL     1      27.309   1.157 141.719  1.00  0.00     0.099 C 
ATOM     15  O   UNL     1      28.451   0.878 141.266  1.00  0.00    -0.544 OA
ATOM     16  O   UNL     1      26.207   1.094 140.876  1.00  0.00    -0.544 OA
ENDBRANCH   9  14
ENDBRANCH   8   9
ENDBRANCH   1   8
TORSDOF 7
ENDMDL
MODEL 8
REMARK VINA RESULT:    -3.439     14.068     15.484
REMARK INTER + INTRA:          -4.747
REMARK INTER:                  -4.219
REMARK INTRA:                  -0.528
REMARK UNBOUND:                -0.102
REMARK SMILES [NH3+]CCCC[C@@H]([NH3+])C(=O)[O-]
REMARK SMILES IDX 4 1 3 2 2 3 1 4 5 8 6 9 7 10 8 14 9 15 10 16
REMARK H PARENT 1 5 1 6 1 7 7 11 7 12 7 13
REMARK Flexibility Score: inf
ROOT
ATOM      1  C   UNL     1      35.950  16.491 137.831  1.00  0.00     0.012 C 
ENDROOT
BRANCH   1   2
ATOM      2  C   UNL     1      37.125  16.122 136.912  1.00  0.00     0.061 C 
BRANCH   2   3
ATOM      3  C   UNL     1      36.703  15.205 135.752  1.00  0.00     0.258 C 
BRANCH   3   4
ATOM      4  N   UNL     1      36.918  13.790 136.059  1.00  0.00    -0.358 N 
ATOM      5  H   UNL     1      37.942  13.623 136.191  1.00  0.00     0.344 HD
ATOM      6  H   UNL     1      36.579  13.189 135.273  1.00  0.00     0.344 HD
ATOM      7  H   UNL     1      36.428  13.531 136.944  1.00  0.00     0.344 HD
ENDBRANCH   3   4
ENDBRANCH   2   3
ENDBRANCH   1   2
BRANCH   1   8
ATOM      8  C   UNL     1      35.988  15.660 139.126  1.00  0.00     0.072 C 
BRANCH   8   9
ATOM      9  C   UNL     1      34.635  15.014 139.506  1.00  0.00     0.227 C 
BRANCH   9  10
ATOM     10  N   UNL     1      33.723  15.974 140.145  1.00  0.00    -0.350 N 
ATOM     11  H   UNL     1      32.809  16.029 139.641  1.00  0.00     0.345 HD
ATOM     12  H   UNL     1      33.543  15.678 141.133  1.00  0.00     0.345 HD
ATOM     13  H   UNL     1      34.162  16.924 140.165  1.00  0.00     0.345 HD
ENDBRANCH   9  10
BRANCH   9  14
ATOM     14  C   UNL     1      33.989  14.339 138.323  1.00  0.00     0.099 C 
ATOM     15  O   UNL     1      34.496  13.304 137.812  1.00  0.00    -0.544 OA
ATOM     16  O   UNL     1      32.793  14.833 137.818  1.00  0.00    -0.544 OA
ENDBRANCH   9  14
ENDBRANCH   8   9
ENDBRANCH   1   8
TORSDOF 7
ENDMDL
MODEL 9
REMARK VINA RESULT:    -3.353     14.601     15.638
REMARK INTER + INTRA:          -4.631
REMARK INTER:                  -4.168
REMARK INTRA:                  -0.463
REMARK UNBOUND:                -0.102
REMARK SMILES [NH3+]CCCC[C@@H]([NH3+])C(=O)[O-]
REMARK SMILES IDX 4 1 3 2 2 3 1 4 5 8 6 9 7 10 8 14 9 15 10 16
REMARK H PARENT 1 5 1 6 1 7 7 11 7 12 7 13
REMARK Flexibility Score: inf
ROOT
ATOM      1  C   UNL     1      37.107  15.753 136.106  1.00  0.00     0.012 C 
ENDROOT
BRANCH   1   2
ATOM      2  C   UNL     1      36.488  14.747 135.124  1.00  0.00     0.061 C 
BRANCH   2   3
ATOM      3  C   UNL     1      36.487  13.310 135.673  1.00  0.00     0.258 C 
BRANCH   3   4
ATOM      4  N   UNL     1      35.130  12.807 135.902  1.00  0.00    -0.358 N 
ATOM      5  H   UNL     1      34.492  13.618 136.070  1.00  0.00     0.344 HD
ATOM      6  H   UNL     1      35.109  12.183 136.740  1.00  0.00     0.344 HD
ATOM      7  H   UNL     1      34.787  12.290 135.061  1.00  0.00     0.344 HD
ENDBRANCH   3   4
ENDBRANCH   2   3
ENDBRANCH   1   2
BRANCH   1   8
ATOM      8  C   UNL     1      37.125  15.181 137.535  1.00  0.00     0.072 C 
BRANCH   8   9
ATOM      9  C   UNL     1      36.263  15.971 138.547  1.00  0.00     0.227 C 
BRANCH   9  10
ATOM     10  N   UNL     1      35.807  17.258 138.000  1.00  0.00    -0.350 N 
ATOM     11  H   UNL     1      35.479  17.160 137.013  1.00  0.00     0.345 HD
ATOM     12  H   UNL     1      35.016  17.621 138.581  1.00  0.00     0.345 HD
ATOM     13  H   UNL     1      36.585  17.956 138.036  1.00  0.00     0.345 HD
ENDBRANCH   9  10
BRANCH   9  14
ATOM     14  C   UNL     1      35.109  15.145 139.057  1.00  0.00     0.099 C 
ATOM     15  O   UNL     1      35.020  13.919 138.783  1.00  0.00    -0.544 OA
ATOM     16  O   UNL     1      34.156  15.731 139.881  1.00  0.00    -0.544 OA
ENDBRANCH   9  14
ENDBRANCH   8   9
ENDBRANCH   1   8
TORSDOF 7
ENDMDL
