MODEL 1
REMARK VINA RESULT:    -4.626      0.000      0.000
REMARK INTER + INTRA:          -8.778
REMARK INTER:                  -7.059
REMARK INTRA:                  -1.719
REMARK UNBOUND:                -1.719
REMARK SMILES OC[C@H]1O[C@@H](O[C@]2(CO)O[C@H](CO)[C@H](O)[C@@H]2O)[C@H](O)[C@@H](O)[C@@H]1O
REMARK SMILES IDX 6 1 5 2 3 3 22 4 4 5 20 6 18 7 2 8 1 9 23 11 21 13 19 15
REMARK SMILES IDX 7 17 16 18 10 19 14 20 11 21 8 22 9 23 17 25 15 27 12 29
REMARK SMILES IDX 13 30
REMARK H PARENT 1 10 23 12 21 14 19 16 9 24 17 26 15 28 13 31
REMARK Flexibility Score: inf
ROOT
ATOM      1  O   UNL     1     132.350 127.778 120.264  1.00  0.00    -0.313 OA
ENDROOT
BRANCH   1   2
ATOM      2  C   UNL     1     132.831 128.637 119.237  1.00  0.00     0.285 C 
ATOM      3  C   UNL     1     131.392 127.777 117.530  1.00  0.00     0.178 C 
ATOM      4  C   UNL     1     132.563 127.034 116.829  1.00  0.00     0.177 C 
ATOM      5  O   UNL     1     131.801 128.904 118.297  1.00  0.00    -0.341 OA
ATOM      6  C   UNL     1     133.725 126.757 117.790  1.00  0.00     0.179 C 
ATOM      7  C   UNL     1     134.081 128.037 118.571  1.00  0.00     0.202 C 
BRANCH   3   8
ATOM      8  C   UNL     1     130.436 126.838 118.292  1.00  0.00     0.191 C 
BRANCH   8   9
ATOM      9  O   UNL     1     129.501 127.590 119.023  1.00  0.00    -0.394 OA
ATOM     10  H   UNL     1     128.910 128.045 118.364  1.00  0.00     0.210 HD
ENDBRANCH   8   9
ENDBRANCH   3   8
BRANCH   4  11
ATOM     11  O   UNL     1     133.034 127.807 115.752  1.00  0.00    -0.387 OA
ATOM     12  H   UNL     1     133.058 127.214 114.961  1.00  0.00     0.211 HD
ENDBRANCH   4  11
BRANCH   6  13
ATOM     13  O   UNL     1     133.394 125.670 118.622  1.00  0.00    -0.387 OA
ATOM     14  H   UNL     1     133.016 124.930 118.070  1.00  0.00     0.211 HD
ENDBRANCH   6  13
BRANCH   7  15
ATOM     15  O   UNL     1     134.655 128.972 117.690  1.00  0.00    -0.385 OA
ATOM     16  H   UNL     1     134.733 128.527 116.802  1.00  0.00     0.211 HD
ENDBRANCH   7  15
ENDBRANCH   1   2
BRANCH   1  17
ATOM     17  C   UNL     1     132.429 128.322 121.584  1.00  0.00     0.224 C 
ATOM     18  C   UNL     1     133.025 127.246 122.522  1.00  0.00     0.208 C 
ATOM     19  O   UNL     1     133.283 129.464 121.614  1.00  0.00    -0.337 OA
ATOM     20  C   UNL     1     133.990 128.026 123.380  1.00  0.00     0.180 C 
ATOM     21  C   UNL     1     134.358 129.219 122.495  1.00  0.00     0.179 C 
BRANCH  17  22
ATOM     22  C   UNL     1     131.008 128.725 122.072  1.00  0.00     0.225 C 
BRANCH  22  23
ATOM     23  O   UNL     1     130.075 127.692 121.841  1.00  0.00    -0.391 OA
ATOM     24  H   UNL     1     129.172 128.091 121.945  1.00  0.00     0.210 HD
ENDBRANCH  22  23
ENDBRANCH  17  22
BRANCH  18  25
ATOM     25  O   UNL     1     133.717 126.257 121.793  1.00  0.00    -0.385 OA
ATOM     26  H   UNL     1     133.441 125.379 122.168  1.00  0.00     0.211 HD
ENDBRANCH  18  25
BRANCH  20  27
ATOM     27  O   UNL     1     135.099 127.248 123.758  1.00  0.00    -0.387 OA
ATOM     28  H   UNL     1     135.725 127.857 124.240  1.00  0.00     0.211 HD
ENDBRANCH  20  27
BRANCH  21  29
ATOM     29  C   UNL     1     135.646 129.026 121.671  1.00  0.00     0.191 C 
BRANCH  29  30
ATOM     30  O   UNL     1     136.788 129.236 122.458  1.00  0.00    -0.394 OA
ATOM     31  H   UNL     1     136.762 130.188 122.754  1.00  0.00     0.210 HD
ENDBRANCH  29  30
ENDBRANCH  21  29
ENDBRANCH   1  17
TORSDOF 13
ENDMDL
MODEL 2
REMARK VINA RESULT:    -4.581      8.074      9.638
REMARK INTER + INTRA:          -8.710
REMARK INTER:                  -6.998
REMARK INTRA:                  -1.712
REMARK UNBOUND:                -1.719
REMARK SMILES OC[C@H]1O[C@@H](O[C@]2(CO)O[C@H](CO)[C@H](O)[C@@H]2O)[C@H](O)[C@@H](O)[C@@H]1O
REMARK SMILES IDX 6 1 5 2 3 3 22 4 4 5 20 6 18 7 2 8 1 9 23 11 21 13 19 15
REMARK SMILES IDX 7 17 16 18 10 19 14 20 11 21 8 22 9 23 17 25 15 27 12 29
REMARK SMILES IDX 13 30
REMARK H PARENT 1 10 23 12 21 14 19 16 9 24 17 26 15 28 13 31
REMARK Flexibility Score: inf
ROOT
ATOM      1  O   UNL     1     128.951 136.497 120.265  1.00  0.00    -0.313 OA
ENDROOT
BRANCH   1   2
ATOM      2  C   UNL     1     129.419 135.624 119.244  1.00  0.00     0.285 C 
ATOM      3  C   UNL     1     129.414 137.277 117.514  1.00  0.00     0.178 C 
ATOM      4  C   UNL     1     128.159 136.658 116.838  1.00  0.00     0.177 C 
ATOM      5  O   UNL     1     130.171 136.349 118.284  1.00  0.00    -0.341 OA
ATOM      6  C   UNL     1     127.328 135.826 117.822  1.00  0.00     0.179 C 
ATOM      7  C   UNL     1     128.244 134.863 118.603  1.00  0.00     0.202 C 
BRANCH   3   8
ATOM      8  C   UNL     1     129.123 138.593 118.263  1.00  0.00     0.191 C 
BRANCH   8   9
ATOM      9  O   UNL     1     130.263 139.008 118.970  1.00  0.00    -0.394 OA
ATOM     10  H   UNL     1     130.990 139.146 118.304  1.00  0.00     0.210 HD
ENDBRANCH   8   9
ENDBRANCH   3   8
BRANCH   4  11
ATOM     11  O   UNL     1     128.557 135.838 115.767  1.00  0.00    -0.387 OA
ATOM     12  H   UNL     1     129.480 136.103 115.529  1.00  0.00     0.211 HD
ENDBRANCH   4  11
BRANCH   6  13
ATOM     13  O   UNL     1     126.587 136.686 118.653  1.00  0.00    -0.387 OA
ATOM     14  H   UNL     1     126.501 136.281 119.561  1.00  0.00     0.211 HD
ENDBRANCH   6  13
BRANCH   7  15
ATOM     15  O   UNL     1     128.730 133.874 117.730  1.00  0.00    -0.385 OA
ATOM     16  H   UNL     1     129.656 134.140 117.473  1.00  0.00     0.211 HD
ENDBRANCH   7  15
ENDBRANCH   1   2
BRANCH   1  17
ATOM     17  C   UNL     1     129.395 136.165 121.584  1.00  0.00     0.224 C 
ATOM     18  C   UNL     1     128.170 136.172 122.529  1.00  0.00     0.208 C 
ATOM     19  O   UNL     1     129.976 134.863 121.613  1.00  0.00    -0.337 OA
ATOM     20  C   UNL     1     128.387 134.950 123.388  1.00  0.00     0.180 C 
ATOM     21  C   UNL     1     129.243 134.046 122.500  1.00  0.00     0.179 C 
BRANCH  17  22
ATOM     22  C   UNL     1     130.443 137.211 122.064  1.00  0.00     0.225 C 
BRANCH  22  23
ATOM     23  O   UNL     1     130.004 138.528 121.813  1.00  0.00    -0.391 OA
ATOM     24  H   UNL     1     130.481 139.118 122.453  1.00  0.00     0.210 HD
ENDBRANCH  22  23
ENDBRANCH  17  22
BRANCH  18  25
ATOM     25  O   UNL     1     126.966 136.048 121.806  1.00  0.00    -0.385 OA
ATOM     26  H   UNL     1     127.005 135.175 121.333  1.00  0.00     0.211 HD
ENDBRANCH  18  25
BRANCH  20  27
ATOM     27  O   UNL     1     127.169 134.362 123.774  1.00  0.00    -0.387 OA
ATOM     28  H   UNL     1     126.841 134.876 124.564  1.00  0.00     0.211 HD
ENDBRANCH  20  27
BRANCH  21  29
ATOM     29  C   UNL     1     128.443 133.013 121.682  1.00  0.00     0.191 C 
BRANCH  29  30
ATOM     30  O   UNL     1     128.094 131.905 122.468  1.00  0.00    -0.394 OA
ATOM     31  H   UNL     1     128.701 131.161 122.202  1.00  0.00     0.210 HD
ENDBRANCH  29  30
ENDBRANCH  21  29
ENDBRANCH   1  17
TORSDOF 13
ENDMDL
MODEL 3
REMARK VINA RESULT:    -4.577      8.077      9.652
REMARK INTER + INTRA:          -8.704
REMARK INTER:                  -6.988
REMARK INTRA:                  -1.716
REMARK UNBOUND:                -1.719
REMARK SMILES OC[C@H]1O[C@@H](O[C@]2(CO)O[C@H](CO)[C@H](O)[C@@H]2O)[C@H](O)[C@@H](O)[C@@H]1O
REMARK SMILES IDX 6 1 5 2 3 3 22 4 4 5 20 6 18 7 2 8 1 9 23 11 21 13 19 15
REMARK SMILES IDX 7 17 16 18 10 19 14 20 11 21 8 22 9 23 17 25 15 27 12 29
REMARK SMILES IDX 13 30
REMARK H PARENT 1 10 23 12 21 14 19 16 9 24 17 26 15 28 13 31
REMARK Flexibility Score: inf
ROOT
ATOM      1  O   UNL     1     138.107 135.149 120.232  1.00  0.00    -0.313 OA
ENDROOT
BRANCH   1   2
ATOM      2  C   UNL     1     137.158 135.071 119.175  1.00  0.00     0.285 C 
ATOM      3  C   UNL     1     138.704 134.259 117.540  1.00  0.00     0.178 C 
ATOM      4  C   UNL     1     138.738 135.624 116.801  1.00  0.00     0.177 C 
ATOM      5  O   UNL     1     137.507 134.030 118.276  1.00  0.00    -0.341 OA
ATOM      6  C   UNL     1     138.327 136.784 117.715  1.00  0.00     0.179 C 
ATOM      7  C   UNL     1     137.027 136.430 118.464  1.00  0.00     0.202 C 
BRANCH   3   8
ATOM      8  C   UNL     1     139.981 133.968 118.354  1.00  0.00     0.191 C 
BRANCH   8   9
ATOM      9  O   UNL     1     139.818 132.793 119.107  1.00  0.00    -0.394 OA
ATOM     10  H   UNL     1     140.643 132.675 119.651  1.00  0.00     0.210 HD
ENDBRANCH   8   9
ENDBRANCH   3   8
BRANCH   4  11
ATOM     11  O   UNL     1     137.869 135.583 115.695  1.00  0.00    -0.387 OA
ATOM     12  H   UNL     1     138.393 135.868 114.907  1.00  0.00     0.211 HD
ENDBRANCH   4  11
BRANCH   6  13
ATOM     13  O   UNL     1     139.395 137.103 118.575  1.00  0.00    -0.387 OA
ATOM     14  H   UNL     1     139.685 138.044 118.410  1.00  0.00     0.211 HD
ENDBRANCH   6  13
BRANCH   7  15
ATOM     15  O   UNL     1     135.959 136.395 117.549  1.00  0.00    -0.385 OA
ATOM     16  H   UNL     1     135.127 136.587 118.063  1.00  0.00     0.211 HD
ENDBRANCH   7  15
ENDBRANCH   1   2
BRANCH   1  17
ATOM     17  C   UNL     1     137.562 134.953 121.540  1.00  0.00     0.224 C 
ATOM     18  C   UNL     1     138.154 136.028 122.482  1.00  0.00     0.208 C 
ATOM     19  O   UNL     1     136.144 135.100 121.528  1.00  0.00    -0.337 OA
ATOM     20  C   UNL     1     136.965 136.465 123.301  1.00  0.00     0.180 C 
ATOM     21  C   UNL     1     135.778 136.159 122.386  1.00  0.00     0.179 C 
BRANCH  17  22
ATOM     22  C   UNL     1     137.931 133.532 122.055  1.00  0.00     0.225 C 
BRANCH  22  23
ATOM     23  O   UNL     1     139.311 133.277 121.908  1.00  0.00    -0.391 OA
ATOM     24  H   UNL     1     139.779 134.145 122.026  1.00  0.00     0.210 HD
ENDBRANCH  22  23
ENDBRANCH  17  22
BRANCH  18  25
ATOM     25  O   UNL     1     138.668 137.121 121.753  1.00  0.00    -0.385 OA
ATOM     26  H   UNL     1     139.595 137.269 122.078  1.00  0.00     0.211 HD
ENDBRANCH  18  25
BRANCH  20  27
ATOM     27  O   UNL     1     137.053 137.821 123.666  1.00  0.00    -0.387 OA
ATOM     28  H   UNL     1     136.134 138.109 123.922  1.00  0.00     0.211 HD
ENDBRANCH  20  27
BRANCH  21  29
ATOM     29  C   UNL     1     135.306 137.354 121.534  1.00  0.00     0.191 C 
BRANCH  29  30
ATOM     30  O   UNL     1     134.513 138.232 122.287  1.00  0.00    -0.394 OA
ATOM     31  H   UNL     1     134.530 139.110 121.817  1.00  0.00     0.210 HD
ENDBRANCH  29  30
ENDBRANCH  21  29
ENDBRANCH   1  17
TORSDOF 13
ENDMDL
MODEL 4
REMARK VINA RESULT:    -4.409      6.974     10.008
REMARK INTER + INTRA:          -8.448
REMARK INTER:                  -6.700
REMARK INTRA:                  -1.747
REMARK UNBOUND:                -1.719
REMARK SMILES OC[C@H]1O[C@@H](O[C@]2(CO)O[C@H](CO)[C@H](O)[C@@H]2O)[C@H](O)[C@@H](O)[C@@H]1O
REMARK SMILES IDX 6 1 5 2 3 3 22 4 4 5 20 6 18 7 2 8 1 9 23 11 21 13 19 15
REMARK SMILES IDX 7 17 16 18 10 19 14 20 11 21 8 22 9 23 17 25 15 27 12 29
REMARK SMILES IDX 13 30
REMARK H PARENT 1 10 23 12 21 14 19 16 9 24 17 26 15 28 13 31
REMARK Flexibility Score: inf
ROOT
ATOM      1  O   UNL     1     138.072 134.395 119.564  1.00  0.00    -0.313 OA
ENDROOT
BRANCH   1   2
ATOM      2  C   UNL     1     138.709 135.095 120.626  1.00  0.00     0.285 C 
ATOM      3  C   UNL     1     137.783 133.749 122.373  1.00  0.00     0.178 C 
ATOM      4  C   UNL     1     136.812 134.879 122.816  1.00  0.00     0.177 C 
ATOM      5  O   UNL     1     138.954 134.220 121.715  1.00  0.00    -0.341 OA
ATOM      6  C   UNL     1     136.544 135.881 121.687  1.00  0.00     0.179 C 
ATOM      7  C   UNL     1     137.874 136.319 121.043  1.00  0.00     0.202 C 
BRANCH   3   8
ATOM      8  C   UNL     1     137.085 132.598 121.620  1.00  0.00     0.191 C 
BRANCH   8   9
ATOM      9  O   UNL     1     138.042 131.757 121.030  1.00  0.00    -0.394 OA
ATOM     10  H   UNL     1     138.579 132.315 120.405  1.00  0.00     0.210 HD
ENDBRANCH   8   9
ENDBRANCH   3   8
BRANCH   4  11
ATOM     11  O   UNL     1     137.358 135.564 123.917  1.00  0.00    -0.387 OA
ATOM     12  H   UNL     1     136.659 136.181 124.246  1.00  0.00     0.211 HD
ENDBRANCH   4  11
BRANCH   6  13
ATOM     13  O   UNL     1     135.638 135.319 120.767  1.00  0.00    -0.387 OA
ATOM     14  H   UNL     1     135.399 134.395 121.058  1.00  0.00     0.211 HD
ENDBRANCH   6  13
BRANCH   7  15
ATOM     15  O   UNL     1     138.596 137.105 121.959  1.00  0.00    -0.385 OA
ATOM     16  H   UNL     1     139.446 137.370 121.510  1.00  0.00     0.211 HD
ENDBRANCH   7  15
ENDBRANCH   1   2
BRANCH   1  17
ATOM     17  C   UNL     1     138.759 134.458 118.310  1.00  0.00     0.224 C 
ATOM     18  C   UNL     1     137.810 133.933 117.206  1.00  0.00     0.208 C 
ATOM     19  O   UNL     1     139.116 135.801 117.992  1.00  0.00    -0.337 OA
ATOM     20  C   UNL     1     138.028 134.902 116.070  1.00  0.00     0.180 C 
ATOM     21  C   UNL     1     138.495 136.174 116.781  1.00  0.00     0.179 C 
BRANCH  17  22
ATOM     22  C   UNL     1     140.042 133.580 118.370  1.00  0.00     0.225 C 
BRANCH  22  23
ATOM     23  O   UNL     1     139.734 132.245 118.704  1.00  0.00    -0.391 OA
ATOM     24  H   UNL     1     140.317 131.666 118.146  1.00  0.00     0.210 HD
ENDBRANCH  22  23
ENDBRANCH  17  22
BRANCH  18  25
ATOM     25  O   UNL     1     136.464 133.974 117.625  1.00  0.00    -0.385 OA
ATOM     26  H   UNL     1     135.961 134.466 116.924  1.00  0.00     0.211 HD
ENDBRANCH  18  25
BRANCH  20  27
ATOM     27  O   UNL     1     136.860 135.084 115.309  1.00  0.00    -0.387 OA
ATOM     28  H   UNL     1     136.674 134.215 114.857  1.00  0.00     0.211 HD
ENDBRANCH  20  27
BRANCH  21  29
ATOM     29  C   UNL     1     137.370 137.183 117.086  1.00  0.00     0.191 C 
BRANCH  29  30
ATOM     30  O   UNL     1     136.459 136.660 118.016  1.00  0.00    -0.394 OA
ATOM     31  H   UNL     1     135.580 137.091 117.830  1.00  0.00     0.210 HD
ENDBRANCH  29  30
ENDBRANCH  21  29
ENDBRANCH   1  17
TORSDOF 13
ENDMDL
MODEL 5
REMARK VINA RESULT:    -4.368      7.614      9.601
REMARK INTER + INTRA:          -8.385
REMARK INTER:                  -6.677
REMARK INTRA:                  -1.708
REMARK UNBOUND:                -1.719
REMARK SMILES OC[C@H]1O[C@@H](O[C@]2(CO)O[C@H](CO)[C@H](O)[C@@H]2O)[C@H](O)[C@@H](O)[C@@H]1O
REMARK SMILES IDX 6 1 5 2 3 3 22 4 4 5 20 6 18 7 2 8 1 9 23 11 21 13 19 15
REMARK SMILES IDX 7 17 16 18 10 19 14 20 11 21 8 22 9 23 17 25 15 27 12 29
REMARK SMILES IDX 13 30
REMARK H PARENT 1 10 23 12 21 14 19 16 9 24 17 26 15 28 13 31
REMARK Flexibility Score: inf
ROOT
ATOM      1  O   UNL     1     137.770 135.394 119.828  1.00  0.00    -0.313 OA
ENDROOT
BRANCH   1   2
ATOM      2  C   UNL     1     137.618 134.356 118.866  1.00  0.00     0.285 C 
ATOM      3  C   UNL     1     139.145 135.292 117.280  1.00  0.00     0.178 C 
ATOM      4  C   UNL     1     137.994 135.721 116.330  1.00  0.00     0.177 C 
ATOM      5  O   UNL     1     138.817 134.195 118.125  1.00  0.00    -0.341 OA
ATOM      6  C   UNL     1     136.661 135.871 117.072  1.00  0.00     0.179 C 
ATOM      7  C   UNL     1     136.408 134.634 117.957  1.00  0.00     0.202 C 
BRANCH   3   8
ATOM      8  C   UNL     1     139.788 136.471 118.039  1.00  0.00     0.191 C 
BRANCH   8   9
ATOM      9  O   UNL     1     140.504 135.997 119.151  1.00  0.00    -0.394 OA
ATOM     10  H   UNL     1     140.546 135.006 119.073  1.00  0.00     0.210 HD
ENDBRANCH   8   9
ENDBRANCH   3   8
BRANCH   4  11
ATOM     11  O   UNL     1     137.845 134.765 115.309  1.00  0.00    -0.387 OA
ATOM     12  H   UNL     1     138.327 135.112 114.518  1.00  0.00     0.211 HD
ENDBRANCH   4  11
BRANCH   6  13
ATOM     13  O   UNL     1     136.659 137.081 117.792  1.00  0.00    -0.387 OA
ATOM     14  H   UNL     1     135.960 137.688 117.420  1.00  0.00     0.211 HD
ENDBRANCH   6  13
BRANCH   7  15
ATOM     15  O   UNL     1     136.156 133.520 117.136  1.00  0.00    -0.385 OA
ATOM     16  H   UNL     1     136.936 132.906 117.230  1.00  0.00     0.211 HD
ENDBRANCH   7  15
ENDBRANCH   1   2
BRANCH   1  17
ATOM     17  C   UNL     1     137.515 134.998 121.179  1.00  0.00     0.224 C 
ATOM     18  C   UNL     1     138.306 135.936 122.121  1.00  0.00     0.208 C 
ATOM     19  O   UNL     1     136.129 135.115 121.492  1.00  0.00    -0.337 OA
ATOM     20  C   UNL     1     137.326 136.224 123.230  1.00  0.00     0.180 C 
ATOM     21  C   UNL     1     135.967 136.029 122.555  1.00  0.00     0.179 C 
BRANCH  17  22
ATOM     22  C   UNL     1     137.972 133.525 121.389  1.00  0.00     0.225 C 
BRANCH  22  23
ATOM     23  O   UNL     1     139.320 133.460 121.796  1.00  0.00    -0.391 OA
ATOM     24  H   UNL     1     139.613 132.519 121.674  1.00  0.00     0.210 HD
ENDBRANCH  22  23
ENDBRANCH  17  22
BRANCH  18  25
ATOM     25  O   UNL     1     138.664 137.134 121.468  1.00  0.00    -0.385 OA
ATOM     26  H   UNL     1     139.292 137.611 122.072  1.00  0.00     0.211 HD
ENDBRANCH  18  25
BRANCH  20  27
ATOM     27  O   UNL     1     137.504 137.513 123.763  1.00  0.00    -0.387 OA
ATOM     28  H   UNL     1     137.718 137.396 124.730  1.00  0.00     0.211 HD
ENDBRANCH  20  27
BRANCH  21  29
ATOM     29  C   UNL     1     135.336 137.325 122.008  1.00  0.00     0.191 C 
BRANCH  29  30
ATOM     30  O   UNL     1     135.539 137.444 120.625  1.00  0.00    -0.394 OA
ATOM     31  H   UNL     1     136.298 138.077 120.500  1.00  0.00     0.210 HD
ENDBRANCH  29  30
ENDBRANCH  21  29
ENDBRANCH   1  17
TORSDOF 13
ENDMDL
MODEL 6
REMARK VINA RESULT:    -4.316      1.387      5.134
REMARK INTER + INTRA:          -8.306
REMARK INTER:                  -6.556
REMARK INTRA:                  -1.750
REMARK UNBOUND:                -1.719
REMARK SMILES OC[C@H]1O[C@@H](O[C@]2(CO)O[C@H](CO)[C@H](O)[C@@H]2O)[C@H](O)[C@@H](O)[C@@H]1O
REMARK SMILES IDX 6 1 5 2 3 3 22 4 4 5 20 6 18 7 2 8 1 9 23 11 21 13 19 15
REMARK SMILES IDX 7 17 16 18 10 19 14 20 11 21 8 22 9 23 17 25 15 27 12 29
REMARK SMILES IDX 13 30
REMARK H PARENT 1 10 23 12 21 14 19 16 9 24 17 26 15 28 13 31
REMARK Flexibility Score: inf
ROOT
ATOM      1  O   UNL     1     131.828 128.247 119.638  1.00  0.00    -0.313 OA
ENDROOT
BRANCH   1   2
ATOM      2  C   UNL     1     132.045 127.344 120.716  1.00  0.00     0.285 C 
ATOM      3  C   UNL     1     131.553 128.926 122.441  1.00  0.00     0.178 C 
ATOM      4  C   UNL     1     133.048 129.051 122.842  1.00  0.00     0.177 C 
ATOM      5  O   UNL     1     131.223 127.688 121.820  1.00  0.00    -0.341 OA
ATOM      6  C   UNL     1     133.985 128.649 121.696  1.00  0.00     0.179 C 
ATOM      7  C   UNL     1     133.536 127.303 121.095  1.00  0.00     0.202 C 
BRANCH   3   8
ATOM      8  C   UNL     1     131.016 130.152 121.675  1.00  0.00     0.191 C 
BRANCH   8   9
ATOM      9  O   UNL     1     129.729 129.886 121.178  1.00  0.00    -0.394 OA
ATOM     10  H   UNL     1     129.135 130.620 121.492  1.00  0.00     0.210 HD
ENDBRANCH   8   9
ENDBRANCH   3   8
BRANCH   4  11
ATOM     11  O   UNL     1     133.308 128.231 123.955  1.00  0.00    -0.387 OA
ATOM     12  H   UNL     1     132.944 128.698 124.747  1.00  0.00     0.211 HD
ENDBRANCH   4  11
BRANCH   6  13
ATOM     13  O   UNL     1     134.042 129.691 120.751  1.00  0.00    -0.387 OA
ATOM     14  H   UNL     1     134.982 130.014 120.668  1.00  0.00     0.211 HD
ENDBRANCH   6  13
BRANCH   7  15
ATOM     15  O   UNL     1     133.769 126.277 122.028  1.00  0.00    -0.385 OA
ATOM     16  H   UNL     1     133.797 126.703 122.929  1.00  0.00     0.211 HD
ENDBRANCH   7  15
ENDBRANCH   1   2
BRANCH   1  17
ATOM     17  C   UNL     1     131.452 127.627 118.405  1.00  0.00     0.224 C 
ATOM     18  C   UNL     1     131.482 128.698 117.290  1.00  0.00     0.208 C 
ATOM     19  O   UNL     1     132.367 126.591 118.056  1.00  0.00    -0.337 OA
ATOM     20  C   UNL     1     132.125 127.977 116.131  1.00  0.00     0.180 C 
ATOM     21  C   UNL     1     132.966 126.898 116.815  1.00  0.00     0.179 C 
BRANCH  17  22
ATOM     22  C   UNL     1     130.020 127.031 118.533  1.00  0.00     0.225 C 
BRANCH  22  23
ATOM     23  O   UNL     1     129.179 127.876 119.287  1.00  0.00    -0.391 OA
ATOM     24  H   UNL     1     129.095 128.726 118.780  1.00  0.00     0.210 HD
ENDBRANCH  22  23
ENDBRANCH  17  22
BRANCH  18  25
ATOM     25  O   UNL     1     132.268 129.807 117.666  1.00  0.00    -0.385 OA
ATOM     26  H   UNL     1     131.641 130.563 117.817  1.00  0.00     0.211 HD
ENDBRANCH  18  25
BRANCH  20  27
ATOM     27  O   UNL     1     132.882 128.850 115.329  1.00  0.00    -0.387 OA
ATOM     28  H   UNL     1     133.619 129.199 115.902  1.00  0.00     0.211 HD
ENDBRANCH  20  27
BRANCH  21  29
ATOM     29  C   UNL     1     134.437 127.292 117.053  1.00  0.00     0.191 C 
BRANCH  29  30
ATOM     30  O   UNL     1     134.539 128.326 117.995  1.00  0.00    -0.394 OA
ATOM     31  H   UNL     1     135.511 128.505 118.122  1.00  0.00     0.210 HD
ENDBRANCH  29  30
ENDBRANCH  21  29
ENDBRANCH   1  17
TORSDOF 13
ENDMDL
MODEL 7
REMARK VINA RESULT:    -4.313      8.196     10.646
REMARK INTER + INTRA:          -8.301
REMARK INTER:                  -6.517
REMARK INTRA:                  -1.784
REMARK UNBOUND:                -1.719
REMARK SMILES OC[C@H]1O[C@@H](O[C@]2(CO)O[C@H](CO)[C@H](O)[C@@H]2O)[C@H](O)[C@@H](O)[C@@H]1O
REMARK SMILES IDX 6 1 5 2 3 3 22 4 4 5 20 6 18 7 2 8 1 9 23 11 21 13 19 15
REMARK SMILES IDX 7 17 16 18 10 19 14 20 11 21 8 22 9 23 17 25 15 27 12 29
REMARK SMILES IDX 13 30
REMARK H PARENT 1 10 23 12 21 14 19 16 9 24 17 26 15 28 13 31
REMARK Flexibility Score: inf
ROOT
ATOM      1  O   UNL     1     129.499 136.505 119.577  1.00  0.00    -0.313 OA
ENDROOT
BRANCH   1   2
ATOM      2  C   UNL     1     128.638 136.835 120.661  1.00  0.00     0.285 C 
ATOM      3  C   UNL     1     130.218 136.300 122.376  1.00  0.00     0.178 C 
ATOM      4  C   UNL     1     129.458 135.001 122.760  1.00  0.00     0.177 C 
ATOM      5  O   UNL     1     129.396 137.292 121.770  1.00  0.00    -0.341 OA
ATOM      6  C   UNL     1     128.586 134.483 121.610  1.00  0.00     0.179 C 
ATOM      7  C   UNL     1     127.745 135.635 121.026  1.00  0.00     0.202 C 
BRANCH   3   8
ATOM      8  C   UNL     1     131.527 136.040 121.602  1.00  0.00     0.191 C 
BRANCH   8   9
ATOM      9  O   UNL     1     131.973 137.227 120.997  1.00  0.00    -0.394 OA
ATOM     10  H   UNL     1     132.893 137.402 121.334  1.00  0.00     0.210 HD
ENDBRANCH   8   9
ENDBRANCH   3   8
BRANCH   4  11
ATOM     11  O   UNL     1     128.641 135.247 123.879  1.00  0.00    -0.387 OA
ATOM     12  H   UNL     1     128.517 134.381 124.340  1.00  0.00     0.211 HD
ENDBRANCH   4  11
BRANCH   6  13
ATOM     13  O   UNL     1     129.401 133.849 120.653  1.00  0.00    -0.387 OA
ATOM     14  H   UNL     1     129.512 132.887 120.895  1.00  0.00     0.211 HD
ENDBRANCH   6  13
BRANCH   7  15
ATOM     15  O   UNL     1     126.775 136.025 121.967  1.00  0.00    -0.385 OA
ATOM     16  H   UNL     1     126.458 135.196 122.420  1.00  0.00     0.211 HD
ENDBRANCH   7  15
ENDBRANCH   1   2
BRANCH   1  17
ATOM     17  C   UNL     1     129.209 137.191 118.355  1.00  0.00     0.224 C 
ATOM     18  C   UNL     1     130.107 136.603 117.240  1.00  0.00     0.208 C 
ATOM     19  O   UNL     1     127.847 137.007 117.978  1.00  0.00    -0.337 OA
ATOM     20  C   UNL     1     129.171 136.494 116.062  1.00  0.00     0.180 C 
ATOM     21  C   UNL     1     127.795 136.370 116.720  1.00  0.00     0.179 C 
BRANCH  17  22
ATOM     22  C   UNL     1     129.500 138.711 118.525  1.00  0.00     0.225 C 
BRANCH  22  23
ATOM     23  O   UNL     1     130.857 138.942 118.830  1.00  0.00    -0.391 OA
ATOM     24  H   UNL     1     130.959 139.920 118.971  1.00  0.00     0.210 HD
ENDBRANCH  22  23
ENDBRANCH  17  22
BRANCH  18  25
ATOM     25  O   UNL     1     130.592 135.327 117.593  1.00  0.00    -0.385 OA
ATOM     26  H   UNL     1     130.698 134.818 116.746  1.00  0.00     0.211 HD
ENDBRANCH  18  25
BRANCH  20  27
ATOM     27  O   UNL     1     129.496 135.401 115.238  1.00  0.00    -0.387 OA
ATOM     28  H   UNL     1     128.951 135.497 114.408  1.00  0.00     0.211 HD
ENDBRANCH  20  27
BRANCH  21  29
ATOM     29  C   UNL     1     127.309 134.920 116.913  1.00  0.00     0.191 C 
BRANCH  29  30
ATOM     30  O   UNL     1     128.083 134.250 117.871  1.00  0.00    -0.394 OA
ATOM     31  H   UNL     1     127.722 133.323 117.936  1.00  0.00     0.210 HD
ENDBRANCH  29  30
ENDBRANCH  21  29
ENDBRANCH   1  17
TORSDOF 13
ENDMDL
MODEL 8
REMARK VINA RESULT:    -4.310      1.351      2.015
REMARK INTER + INTRA:          -8.295
REMARK INTER:                  -6.546
REMARK INTRA:                  -1.750
REMARK UNBOUND:                -1.719
REMARK SMILES OC[C@H]1O[C@@H](O[C@]2(CO)O[C@H](CO)[C@H](O)[C@@H]2O)[C@H](O)[C@@H](O)[C@@H]1O
REMARK SMILES IDX 6 1 5 2 3 3 22 4 4 5 20 6 18 7 2 8 1 9 23 11 21 13 19 15
REMARK SMILES IDX 7 17 16 18 10 19 14 20 11 21 8 22 9 23 17 25 15 27 12 29
REMARK SMILES IDX 13 30
REMARK H PARENT 1 10 23 12 21 14 19 16 9 24 17 26 15 28 13 31
REMARK Flexibility Score: inf
ROOT
ATOM      1  O   UNL     1     132.456 128.106 119.462  1.00  0.00    -0.313 OA
ENDROOT
BRANCH   1   2
ATOM      2  C   UNL     1     131.690 128.495 118.328  1.00  0.00     0.285 C 
ATOM      3  C   UNL     1     132.536 126.784 116.886  1.00  0.00     0.178 C 
ATOM      4  C   UNL     1     133.398 127.797 116.084  1.00  0.00     0.177 C 
ATOM      5  O   UNL     1     131.401 127.366 117.519  1.00  0.00    -0.341 OA
ATOM      6  C   UNL     1     133.706 129.059 116.897  1.00  0.00     0.179 C 
ATOM      7  C   UNL     1     132.415 129.601 117.540  1.00  0.00     0.202 C 
BRANCH   3   8
ATOM      8  C   UNL     1     133.361 125.883 117.827  1.00  0.00     0.191 C 
BRANCH   8   9
ATOM      9  O   UNL     1     132.521 125.282 118.780  1.00  0.00    -0.394 OA
ATOM     10  H   UNL     1     132.921 124.401 119.011  1.00  0.00     0.210 HD
ENDBRANCH   8   9
ENDBRANCH   3   8
BRANCH   4  11
ATOM     11  O   UNL     1     132.721 128.164 114.907  1.00  0.00    -0.387 OA
ATOM     12  H   UNL     1     133.203 128.940 114.528  1.00  0.00     0.211 HD
ENDBRANCH   4  11
BRANCH   6  13
ATOM     13  O   UNL     1     134.719 128.777 117.833  1.00  0.00    -0.387 OA
ATOM     14  H   UNL     1     135.341 128.095 117.456  1.00  0.00     0.211 HD
ENDBRANCH   6  13
BRANCH   7  15
ATOM     15  O   UNL     1     131.572 130.107 116.534  1.00  0.00    -0.385 OA
ATOM     16  H   UNL     1     131.465 131.083 116.706  1.00  0.00     0.211 HD
ENDBRANCH   7  15
ENDBRANCH   1   2
BRANCH   1  17
ATOM     17  C   UNL     1     131.899 128.497 120.721  1.00  0.00     0.224 C 
ATOM     18  C   UNL     1     132.329 127.461 121.788  1.00  0.00     0.208 C 
ATOM     19  O   UNL     1     132.385 129.776 121.118  1.00  0.00    -0.337 OA
ATOM     20  C   UNL     1     132.685 128.316 122.979  1.00  0.00     0.180 C 
ATOM     21  C   UNL     1     133.071 129.654 122.345  1.00  0.00     0.179 C 
BRANCH  17  22
ATOM     22  C   UNL     1     130.347 128.541 120.617  1.00  0.00     0.225 C 
BRANCH  22  23
ATOM     23  O   UNL     1     129.766 127.363 121.131  1.00  0.00    -0.391 OA
ATOM     24  H   UNL     1     130.511 126.790 121.451  1.00  0.00     0.210 HD
ENDBRANCH  22  23
ENDBRANCH  17  22
BRANCH  18  25
ATOM     25  O   UNL     1     133.456 126.727 121.364  1.00  0.00    -0.385 OA
ATOM     26  H   UNL     1     134.245 127.319 121.488  1.00  0.00     0.211 HD
ENDBRANCH  18  25
BRANCH  20  27
ATOM     27  O   UNL     1     133.716 127.742 123.743  1.00  0.00    -0.387 OA
ATOM     28  H   UNL     1     134.508 127.662 123.142  1.00  0.00     0.211 HD
ENDBRANCH  20  27
BRANCH  21  29
ATOM     29  C   UNL     1     134.583 129.827 122.093  1.00  0.00     0.191 C 
BRANCH  29  30
ATOM     30  O   UNL     1     134.933 129.401 120.803  1.00  0.00    -0.394 OA
ATOM     31  H   UNL     1     134.556 130.070 120.168  1.00  0.00     0.210 HD
ENDBRANCH  29  30
ENDBRANCH  21  29
ENDBRANCH   1  17
TORSDOF 13
ENDMDL
MODEL 9
REMARK VINA RESULT:    -4.308      7.999      9.289
REMARK INTER + INTRA:          -8.293
REMARK INTER:                  -6.551
REMARK INTRA:                  -1.742
REMARK UNBOUND:                -1.719
REMARK SMILES OC[C@H]1O[C@@H](O[C@]2(CO)O[C@H](CO)[C@H](O)[C@@H]2O)[C@H](O)[C@@H](O)[C@@H]1O
REMARK SMILES IDX 6 1 5 2 3 3 22 4 4 5 20 6 18 7 2 8 1 9 23 11 21 13 19 15
REMARK SMILES IDX 7 17 16 18 10 19 14 20 11 21 8 22 9 23 17 25 15 27 12 29
REMARK SMILES IDX 13 30
REMARK H PARENT 1 10 23 12 21 14 19 16 9 24 17 26 15 28 13 31
REMARK Flexibility Score: inf
ROOT
ATOM      1  O   UNL     1     129.025 136.069 119.637  1.00  0.00    -0.313 OA
ENDROOT
BRANCH   1   2
ATOM      2  C   UNL     1     129.838 136.495 118.550  1.00  0.00     0.285 C 
ATOM      3  C   UNL     1     128.016 137.176 117.157  1.00  0.00     0.178 C 
ATOM      4  C   UNL     1     128.194 135.951 116.218  1.00  0.00     0.177 C 
ATOM      5  O   UNL     1     129.203 137.551 117.846  1.00  0.00    -0.341 OA
ATOM      6  C   UNL     1     128.914 134.791 116.915  1.00  0.00     0.179 C 
ATOM      7  C   UNL     1     130.177 135.309 117.631  1.00  0.00     0.202 C 
BRANCH   3   8
ATOM      8  C   UNL     1     126.786 137.068 118.081  1.00  0.00     0.191 C 
BRANCH   8   9
ATOM      9  O   UNL     1     126.907 137.968 119.153  1.00  0.00    -0.394 OA
ATOM     10  H   UNL     1     127.791 138.417 119.062  1.00  0.00     0.210 HD
ENDBRANCH   8   9
ENDBRANCH   3   8
BRANCH   4  11
ATOM     11  O   UNL     1     128.932 136.332 115.082  1.00  0.00    -0.387 OA
ATOM     12  H   UNL     1     129.842 135.964 115.194  1.00  0.00     0.211 HD
ENDBRANCH   4  11
BRANCH   6  13
ATOM     13  O   UNL     1     128.016 134.133 117.777  1.00  0.00    -0.387 OA
ATOM     14  H   UNL     1     128.310 133.188 117.906  1.00  0.00     0.211 HD
ENDBRANCH   6  13
BRANCH   7  15
ATOM     15  O   UNL     1     131.127 135.700 116.670  1.00  0.00    -0.385 OA
ATOM     16  H   UNL     1     131.890 135.061 116.736  1.00  0.00     0.211 HD
ENDBRANCH   7  15
ENDBRANCH   1   2
BRANCH   1  17
ATOM     17  C   UNL     1     129.674 136.088 120.912  1.00  0.00     0.224 C 
ATOM     18  C   UNL     1     128.597 136.276 122.006  1.00  0.00     0.208 C 
ATOM     19  O   UNL     1     130.351 134.858 121.157  1.00  0.00    -0.337 OA
ATOM     20  C   UNL     1     129.024 135.312 123.085  1.00  0.00     0.180 C 
ATOM     21  C   UNL     1     129.815 134.253 122.314  1.00  0.00     0.179 C 
BRANCH  17  22
ATOM     22  C   UNL     1     130.695 137.261 120.963  1.00  0.00     0.225 C 
BRANCH  22  23
ATOM     23  O   UNL     1     130.110 138.425 121.504  1.00  0.00    -0.391 OA
ATOM     24  H   UNL     1     130.559 138.596 122.374  1.00  0.00     0.210 HD
ENDBRANCH  22  23
ENDBRANCH  17  22
BRANCH  18  25
ATOM     25  O   UNL     1     127.315 135.930 121.529  1.00  0.00    -0.385 OA
ATOM     26  H   UNL     1     126.800 136.776 121.456  1.00  0.00     0.211 HD
ENDBRANCH  18  25
BRANCH  20  27
ATOM     27  O   UNL     1     127.922 134.787 123.783  1.00  0.00    -0.387 OA
ATOM     28  H   UNL     1     127.745 135.406 124.545  1.00  0.00     0.211 HD
ENDBRANCH  20  27
BRANCH  21  29
ATOM     29  C   UNL     1     128.989 133.020 121.897  1.00  0.00     0.191 C 
BRANCH  29  30
ATOM     30  O   UNL     1     128.457 133.178 120.609  1.00  0.00    -0.394 OA
ATOM     31  H   UNL     1     128.852 132.458 120.045  1.00  0.00     0.210 HD
ENDBRANCH  29  30
ENDBRANCH  21  29
ENDBRANCH   1  17
TORSDOF 13
ENDMDL
