MODEL 1
REMARK VINA RESULT:    -7.399      0.000      0.000
REMARK INTER + INTRA:          -9.113
REMARK INTER:                  -8.913
REMARK INTRA:                  -0.201
REMARK UNBOUND:                -0.201
REMARK SMILES O=c1c(O)c(-c2ccc(O)c(O)c2)oc2cc(O)cc(O)c12
REMARK SMILES IDX 5 1 3 2 2 3 1 4 22 5 20 6 19 7 17 8 16 9 15 10 14 11 6 12
REMARK SMILES IDX 7 13 8 14 9 15 13 16 11 17 10 18 12 20 4 22 21 24 18 26
REMARK H PARENT 10 19 12 21 4 23 21 25 18 27
REMARK Flexibility Score: inf
ROOT
ATOM      1  C   UNL     1      25.188 -25.979  27.998  1.00  0.00     0.180 A 
ATOM      2  C   UNL     1      24.409 -24.921  28.499  1.00  0.00     0.208 A 
ATOM      3  C   UNL     1      23.726 -24.092  27.595  1.00  0.00     0.238 A 
ATOM      4  O   UNL     1      23.074 -23.113  28.047  1.00  0.00    -0.285 OA
ATOM      5  C   UNL     1      23.817 -24.338  26.205  1.00  0.00     0.111 A 
ATOM      6  C   UNL     1      23.135 -23.587  25.201  1.00  0.00     0.134 A 
ATOM      7  C   UNL     1      23.402 -23.837  23.850  1.00  0.00     0.093 A 
ATOM      8  C   UNL     1      24.275 -24.856  23.465  1.00  0.00     0.123 A 
ATOM      9  C   UNL     1      24.900 -25.635  24.436  1.00  0.00     0.094 A 
ATOM     10  C   UNL     1      24.682 -25.386  25.793  1.00  0.00     0.146 A 
ATOM     11  O   UNL     1      25.305 -26.145  26.686  1.00  0.00    -0.452 OA
ENDROOT
BRANCH   1  12
ATOM     12  C   UNL     1      25.915 -26.912  28.889  1.00  0.00     0.025 A 
ATOM     13  C   UNL     1      27.318 -26.967  28.833  1.00  0.00     0.016 A 
ATOM     14  C   UNL     1      28.024 -27.854  29.649  1.00  0.00     0.051 A 
ATOM     15  C   UNL     1      27.338 -28.709  30.522  1.00  0.00     0.157 A 
ATOM     16  C   UNL     1      25.231 -27.786  29.751  1.00  0.00     0.062 A 
ATOM     17  C   UNL     1      25.939 -28.678  30.570  1.00  0.00     0.158 A 
BRANCH  15  18
ATOM     18  O   UNL     1      28.039 -29.593  31.339  1.00  0.00    -0.504 OA
ATOM     19  H   UNL     1      28.460 -29.290  32.210  1.00  0.00     0.293 HD
ENDBRANCH  15  18
BRANCH  17  20
ATOM     20  O   UNL     1      25.259 -29.540  31.429  1.00  0.00    -0.504 OA
ATOM     21  H   UNL     1      24.821 -29.204  32.279  1.00  0.00     0.293 HD
ENDBRANCH  17  20
ENDBRANCH   1  12
BRANCH   2  22
ATOM     22  O   UNL     1      24.350 -24.682  29.874  1.00  0.00    -0.502 OA
ATOM     23  H   UNL     1      25.089 -24.206  30.377  1.00  0.00     0.293 HD
ENDBRANCH   2  22
BRANCH   6  24
ATOM     24  O   UNL     1      22.175 -22.609  25.477  1.00  0.00    -0.507 OA
ATOM     25  H   UNL     1      21.279 -22.538  25.019  1.00  0.00     0.293 HD
ENDBRANCH   6  24
BRANCH   8  26
ATOM     26  O   UNL     1      24.523 -25.110  22.117  1.00  0.00    -0.508 OA
ATOM     27  H   UNL     1      23.938 -25.739  21.580  1.00  0.00     0.293 HD
ENDBRANCH   8  26
TORSDOF 6
ENDMDL
MODEL 2
REMARK VINA RESULT:    -7.338      3.904      7.191
REMARK INTER + INTRA:          -9.040
REMARK INTER:                  -8.765
REMARK INTRA:                  -0.276
REMARK UNBOUND:                -0.201
REMARK SMILES O=c1c(O)c(-c2ccc(O)c(O)c2)oc2cc(O)cc(O)c12
REMARK SMILES IDX 5 1 3 2 2 3 1 4 22 5 20 6 19 7 17 8 16 9 15 10 14 11 6 12
REMARK SMILES IDX 7 13 8 14 9 15 13 16 11 17 10 18 12 20 4 22 21 24 18 26
REMARK H PARENT 10 19 12 21 4 23 21 25 18 27
REMARK Flexibility Score: inf
ROOT
ATOM      1  C   UNL     1      23.486 -21.402  26.847  1.00  0.00     0.180 A 
ATOM      2  C   UNL     1      22.975 -22.341  27.761  1.00  0.00     0.208 A 
ATOM      3  C   UNL     1      22.932 -23.695  27.391  1.00  0.00     0.238 A 
ATOM      4  O   UNL     1      22.423 -24.524  28.192  1.00  0.00    -0.285 OA
ATOM      5  C   UNL     1      23.413 -24.096  26.123  1.00  0.00     0.111 A 
ATOM      6  C   UNL     1      23.454 -25.445  25.660  1.00  0.00     0.134 A 
ATOM      7  C   UNL     1      23.829 -25.711  24.337  1.00  0.00     0.093 A 
ATOM      8  C   UNL     1      24.227 -24.682  23.481  1.00  0.00     0.123 A 
ATOM      9  C   UNL     1      24.247 -23.368  23.941  1.00  0.00     0.094 A 
ATOM     10  C   UNL     1      23.845 -23.067  25.245  1.00  0.00     0.146 A 
ATOM     11  O   UNL     1      23.870 -21.800  25.640  1.00  0.00    -0.452 OA
ENDROOT
BRANCH   1  12
ATOM     12  C   UNL     1      23.588 -19.961  27.174  1.00  0.00     0.025 A 
ATOM     13  C   UNL     1      24.606 -19.519  28.036  1.00  0.00     0.016 A 
ATOM     14  C   UNL     1      24.709 -18.168  28.375  1.00  0.00     0.051 A 
ATOM     15  C   UNL     1      23.788 -17.241  27.869  1.00  0.00     0.157 A 
ATOM     16  C   UNL     1      22.654 -19.031  26.686  1.00  0.00     0.062 A 
ATOM     17  C   UNL     1      22.756 -17.674  27.026  1.00  0.00     0.158 A 
BRANCH  15  18
ATOM     18  O   UNL     1      23.889 -15.892  28.202  1.00  0.00    -0.504 OA
ATOM     19  H   UNL     1      24.741 -15.504  28.589  1.00  0.00     0.293 HD
ENDBRANCH  15  18
BRANCH  17  20
ATOM     20  O   UNL     1      21.833 -16.751  26.536  1.00  0.00    -0.504 OA
ATOM     21  H   UNL     1      21.340 -16.117  27.153  1.00  0.00     0.293 HD
ENDBRANCH  17  20
ENDBRANCH   1  12
BRANCH   2  22
ATOM     22  O   UNL     1      22.485 -21.922  29.000  1.00  0.00    -0.502 OA
ATOM     23  H   UNL     1      21.496 -21.887  29.211  1.00  0.00     0.293 HD
ENDBRANCH   2  22
BRANCH   6  24
ATOM     24  O   UNL     1      23.164 -26.554  26.461  1.00  0.00    -0.507 OA
ATOM     25  H   UNL     1      22.754 -26.506  27.382  1.00  0.00     0.293 HD
ENDBRANCH   6  24
BRANCH   8  26
ATOM     26  O   UNL     1      24.614 -24.957  22.171  1.00  0.00    -0.508 OA
ATOM     27  H   UNL     1      25.579 -24.872  21.874  1.00  0.00     0.293 HD
ENDBRANCH   8  26
TORSDOF 6
ENDMDL
MODEL 3
REMARK VINA RESULT:    -7.264      1.715      6.666
REMARK INTER + INTRA:          -8.951
REMARK INTER:                  -8.634
REMARK INTRA:                  -0.317
REMARK UNBOUND:                -0.201
REMARK SMILES O=c1c(O)c(-c2ccc(O)c(O)c2)oc2cc(O)cc(O)c12
REMARK SMILES IDX 5 1 3 2 2 3 1 4 22 5 20 6 19 7 17 8 16 9 15 10 14 11 6 12
REMARK SMILES IDX 7 13 8 14 9 15 13 16 11 17 10 18 12 20 4 22 21 24 18 26
REMARK H PARENT 10 19 12 21 4 23 21 25 18 27
REMARK Flexibility Score: inf
ROOT
ATOM      1  C   UNL     1      25.076 -26.565  27.392  1.00  0.00     0.180 A 
ATOM      2  C   UNL     1      24.147 -26.120  28.349  1.00  0.00     0.208 A 
ATOM      3  C   UNL     1      24.331 -26.480  29.694  1.00  0.00     0.238 A 
ATOM      4  O   UNL     1      23.467 -26.124  30.538  1.00  0.00    -0.285 OA
ATOM      5  C   UNL     1      25.448 -27.264  30.068  1.00  0.00     0.111 A 
ATOM      6  C   UNL     1      25.755 -27.654  31.406  1.00  0.00     0.134 A 
ATOM      7  C   UNL     1      26.812 -28.540  31.643  1.00  0.00     0.093 A 
ATOM      8  C   UNL     1      27.615 -28.999  30.596  1.00  0.00     0.123 A 
ATOM      9  C   UNL     1      27.361 -28.578  29.293  1.00  0.00     0.094 A 
ATOM     10  C   UNL     1      26.290 -27.722  29.021  1.00  0.00     0.146 A 
ATOM     11  O   UNL     1      26.077 -27.354  27.763  1.00  0.00    -0.452 OA
ENDROOT
BRANCH   1  12
ATOM     12  C   UNL     1      24.963 -26.205  25.960  1.00  0.00     0.025 A 
ATOM     13  C   UNL     1      25.480 -24.977  25.514  1.00  0.00     0.016 A 
ATOM     14  C   UNL     1      25.367 -24.607  24.171  1.00  0.00     0.051 A 
ATOM     15  C   UNL     1      24.723 -25.453  23.258  1.00  0.00     0.157 A 
ATOM     16  C   UNL     1      24.299 -27.040  25.044  1.00  0.00     0.062 A 
ATOM     17  C   UNL     1      24.184 -26.669  23.696  1.00  0.00     0.158 A 
BRANCH  15  18
ATOM     18  O   UNL     1      24.610 -25.089  21.918  1.00  0.00    -0.504 OA
ATOM     19  H   UNL     1      25.007 -25.657  21.180  1.00  0.00     0.293 HD
ENDBRANCH  15  18
BRANCH  17  20
ATOM     20  O   UNL     1      23.532 -27.501  22.788  1.00  0.00    -0.504 OA
ATOM     21  H   UNL     1      23.792 -27.524  21.809  1.00  0.00     0.293 HD
ENDBRANCH  17  20
ENDBRANCH   1  12
BRANCH   2  22
ATOM     22  O   UNL     1      23.040 -25.364  27.956  1.00  0.00    -0.502 OA
ATOM     23  H   UNL     1      22.327 -25.724  27.334  1.00  0.00     0.293 HD
ENDBRANCH   2  22
BRANCH   6  24
ATOM     24  O   UNL     1      25.073 -27.180  32.531  1.00  0.00    -0.507 OA
ATOM     25  H   UNL     1      25.346 -27.359  33.486  1.00  0.00     0.293 HD
ENDBRANCH   6  24
BRANCH   8  26
ATOM     26  O   UNL     1      28.676 -29.868  30.843  1.00  0.00    -0.508 OA
ATOM     27  H   UNL     1      29.042 -30.476  30.119  1.00  0.00     0.293 HD
ENDBRANCH   8  26
TORSDOF 6
ENDMDL
MODEL 4
REMARK VINA RESULT:    -7.228      2.229      2.963
REMARK INTER + INTRA:          -8.907
REMARK INTER:                  -8.594
REMARK INTRA:                  -0.314
REMARK UNBOUND:                -0.201
REMARK SMILES O=c1c(O)c(-c2ccc(O)c(O)c2)oc2cc(O)cc(O)c12
REMARK SMILES IDX 5 1 3 2 2 3 1 4 22 5 20 6 19 7 17 8 16 9 15 10 14 11 6 12
REMARK SMILES IDX 7 13 8 14 9 15 13 16 11 17 10 18 12 20 4 22 21 24 18 26
REMARK H PARENT 10 19 12 21 4 23 21 25 18 27
REMARK Flexibility Score: inf
ROOT
ATOM      1  C   UNL     1      26.459 -26.586  28.101  1.00  0.00     0.180 A 
ATOM      2  C   UNL     1      25.210 -26.771  27.482  1.00  0.00     0.208 A 
ATOM      3  C   UNL     1      24.916 -26.047  26.314  1.00  0.00     0.238 A 
ATOM      4  O   UNL     1      23.776 -26.175  25.795  1.00  0.00    -0.285 OA
ATOM      5  C   UNL     1      25.878 -25.162  25.772  1.00  0.00     0.111 A 
ATOM      6  C   UNL     1      25.703 -24.409  24.573  1.00  0.00     0.134 A 
ATOM      7  C   UNL     1      26.669 -23.466  24.201  1.00  0.00     0.093 A 
ATOM      8  C   UNL     1      27.836 -23.297  24.951  1.00  0.00     0.123 A 
ATOM      9  C   UNL     1      28.044 -24.069  26.091  1.00  0.00     0.094 A 
ATOM     10  C   UNL     1      27.081 -24.993  26.507  1.00  0.00     0.146 A 
ATOM     11  O   UNL     1      27.315 -25.701  27.605  1.00  0.00    -0.452 OA
ENDROOT
BRANCH   1  12
ATOM     12  C   UNL     1      26.851 -27.333  29.319  1.00  0.00     0.025 A 
ATOM     13  C   UNL     1      26.486 -26.835  30.581  1.00  0.00     0.016 A 
ATOM     14  C   UNL     1      26.863 -27.510  31.744  1.00  0.00     0.051 A 
ATOM     15  C   UNL     1      27.622 -28.685  31.663  1.00  0.00     0.157 A 
ATOM     16  C   UNL     1      27.630 -28.500  29.244  1.00  0.00     0.062 A 
ATOM     17  C   UNL     1      28.010 -29.179  30.411  1.00  0.00     0.158 A 
BRANCH  15  18
ATOM     18  O   UNL     1      27.998 -29.364  32.821  1.00  0.00    -0.504 OA
ATOM     19  H   UNL     1      27.646 -30.291  33.029  1.00  0.00     0.293 HD
ENDBRANCH  15  18
BRANCH  17  20
ATOM     20  O   UNL     1      28.777 -30.340  30.335  1.00  0.00    -0.504 OA
ATOM     21  H   UNL     1      29.079 -30.831  31.168  1.00  0.00     0.293 HD
ENDBRANCH  17  20
ENDBRANCH   1  12
BRANCH   2  22
ATOM     22  O   UNL     1      24.266 -27.633  28.045  1.00  0.00    -0.502 OA
ATOM     23  H   UNL     1      23.300 -27.655  27.742  1.00  0.00     0.293 HD
ENDBRANCH   2  22
BRANCH   6  24
ATOM     24  O   UNL     1      24.620 -24.567  23.704  1.00  0.00    -0.507 OA
ATOM     25  H   UNL     1      24.695 -24.662  22.702  1.00  0.00     0.293 HD
ENDBRANCH   6  24
BRANCH   8  26
ATOM     26  O   UNL     1      28.800 -22.367  24.566  1.00  0.00    -0.508 OA
ATOM     27  H   UNL     1      29.483 -22.578  23.848  1.00  0.00     0.293 HD
ENDBRANCH   8  26
TORSDOF 6
ENDMDL
MODEL 5
REMARK VINA RESULT:    -7.148      7.893     10.416
REMARK INTER + INTRA:          -8.812
REMARK INTER:                  -8.634
REMARK INTRA:                  -0.178
REMARK UNBOUND:                -0.201
REMARK SMILES O=c1c(O)c(-c2ccc(O)c(O)c2)oc2cc(O)cc(O)c12
REMARK SMILES IDX 5 1 3 2 2 3 1 4 22 5 20 6 19 7 17 8 16 9 15 10 14 11 6 12
REMARK SMILES IDX 7 13 8 14 9 15 13 16 11 17 10 18 12 20 4 22 21 24 18 26
REMARK H PARENT 10 19 12 21 4 23 21 25 18 27
REMARK Flexibility Score: inf
ROOT
ATOM      1  C   UNL     1      26.467 -27.991  37.328  1.00  0.00     0.180 A 
ATOM      2  C   UNL     1      27.115 -26.777  37.613  1.00  0.00     0.208 A 
ATOM      3  C   UNL     1      27.986 -26.229  36.657  1.00  0.00     0.238 A 
ATOM      4  O   UNL     1      28.605 -25.170  36.940  1.00  0.00    -0.285 OA
ATOM      5  C   UNL     1      28.186 -26.893  35.423  1.00  0.00     0.111 A 
ATOM      6  C   UNL     1      29.014 -26.409  34.366  1.00  0.00     0.134 A 
ATOM      7  C   UNL     1      29.241 -27.213  33.243  1.00  0.00     0.093 A 
ATOM      8  C   UNL     1      28.616 -28.455  33.108  1.00  0.00     0.123 A 
ATOM      9  C   UNL     1      27.759 -28.911  34.107  1.00  0.00     0.094 A 
ATOM     10  C   UNL     1      27.541 -28.147  35.256  1.00  0.00     0.146 A 
ATOM     11  O   UNL     1      26.724 -28.623  36.189  1.00  0.00    -0.452 OA
ENDROOT
BRANCH   1  12
ATOM     12  C   UNL     1      25.515 -28.617  38.274  1.00  0.00     0.025 A 
ATOM     13  C   UNL     1      24.306 -27.965  38.568  1.00  0.00     0.016 A 
ATOM     14  C   UNL     1      23.402 -28.526  39.474  1.00  0.00     0.051 A 
ATOM     15  C   UNL     1      23.700 -29.738  40.110  1.00  0.00     0.157 A 
ATOM     16  C   UNL     1      25.819 -29.822  38.931  1.00  0.00     0.062 A 
ATOM     17  C   UNL     1      24.913 -30.385  39.841  1.00  0.00     0.158 A 
BRANCH  15  18
ATOM     18  O   UNL     1      22.801 -30.302  41.012  1.00  0.00    -0.504 OA
ATOM     19  H   UNL     1      23.097 -30.615  41.930  1.00  0.00     0.293 HD
ENDBRANCH  15  18
BRANCH  17  20
ATOM     20  O   UNL     1      25.213 -31.584  40.486  1.00  0.00    -0.504 OA
ATOM     21  H   UNL     1      25.916 -31.632  41.214  1.00  0.00     0.293 HD
ENDBRANCH  17  20
ENDBRANCH   1  12
BRANCH   2  22
ATOM     22  O   UNL     1      26.921 -26.148  38.845  1.00  0.00    -0.502 OA
ATOM     23  H   UNL     1      27.198 -25.190  39.018  1.00  0.00     0.293 HD
ENDBRANCH   2  22
BRANCH   6  24
ATOM     24  O   UNL     1      29.611 -25.145  34.360  1.00  0.00    -0.507 OA
ATOM     25  H   UNL     1      29.397 -24.412  33.700  1.00  0.00     0.293 HD
ENDBRANCH   6  24
BRANCH   8  26
ATOM     26  O   UNL     1      28.835 -29.242  31.979  1.00  0.00    -0.508 OA
ATOM     27  H   UNL     1      29.317 -28.879  31.165  1.00  0.00     0.293 HD
ENDBRANCH   8  26
TORSDOF 6
ENDMDL
MODEL 6
REMARK VINA RESULT:    -7.136      1.995      2.905
REMARK INTER + INTRA:          -8.796
REMARK INTER:                  -8.602
REMARK INTRA:                  -0.194
REMARK UNBOUND:                -0.201
REMARK SMILES O=c1c(O)c(-c2ccc(O)c(O)c2)oc2cc(O)cc(O)c12
REMARK SMILES IDX 5 1 3 2 2 3 1 4 22 5 20 6 19 7 17 8 16 9 15 10 14 11 6 12
REMARK SMILES IDX 7 13 8 14 9 15 13 16 11 17 10 18 12 20 4 22 21 24 18 26
REMARK H PARENT 10 19 12 21 4 23 21 25 18 27
REMARK Flexibility Score: inf
ROOT
ATOM      1  C   UNL     1      26.428 -26.688  28.055  1.00  0.00     0.180 A 
ATOM      2  C   UNL     1      27.340 -26.029  27.212  1.00  0.00     0.208 A 
ATOM      3  C   UNL     1      26.853 -25.336  26.092  1.00  0.00     0.238 A 
ATOM      4  O   UNL     1      27.678 -24.794  25.310  1.00  0.00    -0.285 OA
ATOM      5  C   UNL     1      25.462 -25.296  25.837  1.00  0.00     0.111 A 
ATOM      6  C   UNL     1      24.854 -24.591  24.755  1.00  0.00     0.134 A 
ATOM      7  C   UNL     1      23.481 -24.729  24.525  1.00  0.00     0.093 A 
ATOM      8  C   UNL     1      22.680 -25.494  25.377  1.00  0.00     0.123 A 
ATOM      9  C   UNL     1      23.253 -26.138  26.470  1.00  0.00     0.094 A 
ATOM     10  C   UNL     1      24.628 -26.049  26.706  1.00  0.00     0.146 A 
ATOM     11  O   UNL     1      25.135 -26.687  27.754  1.00  0.00    -0.452 OA
ENDROOT
BRANCH   1  12
ATOM     12  C   UNL     1      26.863 -27.417  29.268  1.00  0.00     0.025 A 
ATOM     13  C   UNL     1      26.560 -26.891  30.535  1.00  0.00     0.016 A 
ATOM     14  C   UNL     1      26.978 -27.550  31.694  1.00  0.00     0.051 A 
ATOM     15  C   UNL     1      27.717 -28.737  31.602  1.00  0.00     0.157 A 
ATOM     16  C   UNL     1      27.623 -28.597  29.182  1.00  0.00     0.062 A 
ATOM     17  C   UNL     1      28.044 -29.259  30.344  1.00  0.00     0.158 A 
BRANCH  15  18
ATOM     18  O   UNL     1      28.134 -29.399  32.755  1.00  0.00    -0.504 OA
ATOM     19  H   UNL     1      27.646 -29.287  33.636  1.00  0.00     0.293 HD
ENDBRANCH  15  18
BRANCH  17  20
ATOM     20  O   UNL     1      28.792 -30.432  30.257  1.00  0.00    -0.504 OA
ATOM     21  H   UNL     1      29.646 -30.556  30.788  1.00  0.00     0.293 HD
ENDBRANCH  17  20
ENDBRANCH   1  12
BRANCH   2  22
ATOM     22  O   UNL     1      28.712 -26.099  27.469  1.00  0.00    -0.502 OA
ATOM     23  H   UNL     1      29.273 -26.901  27.214  1.00  0.00     0.293 HD
ENDBRANCH   2  22
BRANCH   6  24
ATOM     24  O   UNL     1      25.547 -23.728  23.901  1.00  0.00    -0.507 OA
ATOM     25  H   UNL     1      26.014 -22.882  24.193  1.00  0.00     0.293 HD
ENDBRANCH   6  24
BRANCH   8  26
ATOM     26  O   UNL     1      21.311 -25.613  25.149  1.00  0.00    -0.508 OA
ATOM     27  H   UNL     1      20.649 -25.670  25.915  1.00  0.00     0.293 HD
ENDBRANCH   8  26
TORSDOF 6
ENDMDL
MODEL 7
REMARK VINA RESULT:    -7.129      3.941      7.593
REMARK INTER + INTRA:          -8.788
REMARK INTER:                  -8.503
REMARK INTRA:                  -0.286
REMARK UNBOUND:                -0.201
REMARK SMILES O=c1c(O)c(-c2ccc(O)c(O)c2)oc2cc(O)cc(O)c12
REMARK SMILES IDX 5 1 3 2 2 3 1 4 22 5 20 6 19 7 17 8 16 9 15 10 14 11 6 12
REMARK SMILES IDX 7 13 8 14 9 15 13 16 11 17 10 18 12 20 4 22 21 24 18 26
REMARK H PARENT 10 19 12 21 4 23 21 25 18 27
REMARK Flexibility Score: inf
ROOT
ATOM      1  C   UNL     1      23.850 -21.148  26.467  1.00  0.00     0.180 A 
ATOM      2  C   UNL     1      24.404 -21.328  25.188  1.00  0.00     0.208 A 
ATOM      3  C   UNL     1      24.389 -22.610  24.614  1.00  0.00     0.238 A 
ATOM      4  O   UNL     1      24.935 -22.776  23.491  1.00  0.00    -0.285 OA
ATOM      5  C   UNL     1      23.806 -23.691  25.317  1.00  0.00     0.111 A 
ATOM      6  C   UNL     1      23.700 -25.022  24.815  1.00  0.00     0.134 A 
ATOM      7  C   UNL     1      23.223 -26.040  25.651  1.00  0.00     0.093 A 
ATOM      8  C   UNL     1      22.787 -25.761  26.948  1.00  0.00     0.123 A 
ATOM      9  C   UNL     1      22.832 -24.454  27.428  1.00  0.00     0.094 A 
ATOM     10  C   UNL     1      23.336 -23.423  26.630  1.00  0.00     0.146 A 
ATOM     11  O   UNL     1      23.370 -22.194  27.129  1.00  0.00    -0.452 OA
ENDROOT
BRANCH   1  12
ATOM     12  C   UNL     1      23.806 -19.823  27.126  1.00  0.00     0.025 A 
ATOM     13  C   UNL     1      24.673 -19.556  28.198  1.00  0.00     0.016 A 
ATOM     14  C   UNL     1      24.635 -18.320  28.849  1.00  0.00     0.051 A 
ATOM     15  C   UNL     1      23.719 -17.339  28.447  1.00  0.00     0.157 A 
ATOM     16  C   UNL     1      22.874 -18.843  26.740  1.00  0.00     0.062 A 
ATOM     17  C   UNL     1      22.834 -17.602  27.393  1.00  0.00     0.158 A 
BRANCH  15  18
ATOM     18  O   UNL     1      23.679 -16.104  29.091  1.00  0.00    -0.504 OA
ATOM     19  H   UNL     1      24.526 -15.630  29.381  1.00  0.00     0.293 HD
ENDBRANCH  15  18
BRANCH  17  20
ATOM     20  O   UNL     1      21.915 -16.629  27.005  1.00  0.00    -0.504 OA
ATOM     21  H   UNL     1      21.219 -16.812  26.292  1.00  0.00     0.293 HD
ENDBRANCH  17  20
ENDBRANCH   1  12
BRANCH   2  22
ATOM     22  O   UNL     1      24.993 -20.252  24.518  1.00  0.00    -0.502 OA
ATOM     23  H   UNL     1      25.785 -20.365  23.898  1.00  0.00     0.293 HD
ENDBRANCH   2  22
BRANCH   6  24
ATOM     24  O   UNL     1      24.021 -25.390  23.505  1.00  0.00    -0.507 OA
ATOM     25  H   UNL     1      23.399 -25.306  22.716  1.00  0.00     0.293 HD
ENDBRANCH   6  24
BRANCH   8  26
ATOM     26  O   UNL     1      22.299 -26.777  27.768  1.00  0.00    -0.508 OA
ATOM     27  H   UNL     1      21.797 -27.571  27.387  1.00  0.00     0.293 HD
ENDBRANCH   8  26
TORSDOF 6
ENDMDL
MODEL 8
REMARK VINA RESULT:    -7.024      4.527      6.712
REMARK INTER + INTRA:          -8.662
REMARK INTER:                  -8.336
REMARK INTRA:                  -0.326
REMARK UNBOUND:                -0.201
REMARK SMILES O=c1c(O)c(-c2ccc(O)c(O)c2)oc2cc(O)cc(O)c12
REMARK SMILES IDX 5 1 3 2 2 3 1 4 22 5 20 6 19 7 17 8 16 9 15 10 14 11 6 12
REMARK SMILES IDX 7 13 8 14 9 15 13 16 11 17 10 18 12 20 4 22 21 24 18 26
REMARK H PARENT 10 19 12 21 4 23 21 25 18 27
REMARK Flexibility Score: inf
ROOT
ATOM      1  C   UNL     1      24.401 -21.897  26.123  1.00  0.00     0.180 A 
ATOM      2  C   UNL     1      25.169 -21.883  27.300  1.00  0.00     0.208 A 
ATOM      3  C   UNL     1      25.065 -20.783  28.167  1.00  0.00     0.238 A 
ATOM      4  O   UNL     1      25.795 -20.751  29.193  1.00  0.00    -0.285 OA
ATOM      5  C   UNL     1      24.186 -19.719  27.855  1.00  0.00     0.111 A 
ATOM      6  C   UNL     1      23.972 -18.575  28.680  1.00  0.00     0.134 A 
ATOM      7  C   UNL     1      23.178 -17.522  28.209  1.00  0.00     0.093 A 
ATOM      8  C   UNL     1      22.536 -17.602  26.971  1.00  0.00     0.123 A 
ATOM      9  C   UNL     1      22.691 -18.741  26.183  1.00  0.00     0.094 A 
ATOM     10  C   UNL     1      23.506 -19.792  26.610  1.00  0.00     0.146 A 
ATOM     11  O   UNL     1      23.634 -20.855  25.825  1.00  0.00    -0.452 OA
ENDROOT
BRANCH   1  12
ATOM     12  C   UNL     1      24.437 -23.033  25.173  1.00  0.00     0.025 A 
ATOM     13  C   UNL     1      25.241 -22.948  24.025  1.00  0.00     0.016 A 
ATOM     14  C   UNL     1      25.275 -23.999  23.105  1.00  0.00     0.051 A 
ATOM     15  C   UNL     1      24.493 -25.143  23.312  1.00  0.00     0.157 A 
ATOM     16  C   UNL     1      23.638 -24.174  25.365  1.00  0.00     0.062 A 
ATOM     17  C   UNL     1      23.670 -25.229  24.442  1.00  0.00     0.158 A 
BRANCH  15  18
ATOM     18  O   UNL     1      24.524 -26.194  22.397  1.00  0.00    -0.504 OA
ATOM     19  H   UNL     1      24.001 -27.048  22.554  1.00  0.00     0.293 HD
ENDBRANCH  15  18
BRANCH  17  20
ATOM     20  O   UNL     1      22.882 -26.362  24.637  1.00  0.00    -0.504 OA
ATOM     21  H   UNL     1      23.066 -27.011  25.393  1.00  0.00     0.293 HD
ENDBRANCH  17  20
ENDBRANCH   1  12
BRANCH   2  22
ATOM     22  O   UNL     1      26.047 -22.933  27.580  1.00  0.00    -0.502 OA
ATOM     23  H   UNL     1      27.053 -22.828  27.539  1.00  0.00     0.293 HD
ENDBRANCH   2  22
BRANCH   6  24
ATOM     24  O   UNL     1      24.491 -18.436  29.970  1.00  0.00    -0.507 OA
ATOM     25  H   UNL     1      24.702 -17.554  30.413  1.00  0.00     0.293 HD
ENDBRANCH   6  24
BRANCH   8  26
ATOM     26  O   UNL     1      21.735 -16.557  26.516  1.00  0.00    -0.508 OA
ATOM     27  H   UNL     1      22.033 -15.950  25.761  1.00  0.00     0.293 HD
ENDBRANCH   8  26
TORSDOF 6
ENDMDL
MODEL 9
REMARK VINA RESULT:    -6.897      2.199      2.978
REMARK INTER + INTRA:          -8.509
REMARK INTER:                  -8.179
REMARK INTRA:                  -0.330
REMARK UNBOUND:                -0.201
REMARK SMILES O=c1c(O)c(-c2ccc(O)c(O)c2)oc2cc(O)cc(O)c12
REMARK SMILES IDX 5 1 3 2 2 3 1 4 22 5 20 6 19 7 17 8 16 9 15 10 14 11 6 12
REMARK SMILES IDX 7 13 8 14 9 15 13 16 11 17 10 18 12 20 4 22 21 24 18 26
REMARK H PARENT 10 19 12 21 4 23 21 25 18 27
REMARK Flexibility Score: inf
ROOT
ATOM      1  C   UNL     1      24.678 -25.941  27.938  1.00  0.00     0.180 A 
ATOM      2  C   UNL     1      23.585 -26.061  27.061  1.00  0.00     0.208 A 
ATOM      3  C   UNL     1      23.715 -25.590  25.744  1.00  0.00     0.238 A 
ATOM      4  O   UNL     1      22.716 -25.650  24.980  1.00  0.00    -0.285 OA
ATOM      5  C   UNL     1      24.938 -25.022  25.316  1.00  0.00     0.111 A 
ATOM      6  C   UNL     1      25.194 -24.549  23.994  1.00  0.00     0.134 A 
ATOM      7  C   UNL     1      26.396 -23.886  23.717  1.00  0.00     0.093 A 
ATOM      8  C   UNL     1      27.379 -23.737  24.699  1.00  0.00     0.123 A 
ATOM      9  C   UNL     1      27.163 -24.247  25.977  1.00  0.00     0.094 A 
ATOM     10  C   UNL     1      25.959 -24.882  26.293  1.00  0.00     0.146 A 
ATOM     11  O   UNL     1      25.790 -25.345  27.526  1.00  0.00    -0.452 OA
ENDROOT
BRANCH   1  12
ATOM     12  C   UNL     1      24.626 -26.438  29.332  1.00  0.00     0.025 A 
ATOM     13  C   UNL     1      24.240 -25.564  30.362  1.00  0.00     0.016 A 
ATOM     14  C   UNL     1      24.204 -26.004  31.687  1.00  0.00     0.051 A 
ATOM     15  C   UNL     1      24.568 -27.320  32.004  1.00  0.00     0.157 A 
ATOM     16  C   UNL     1      25.010 -27.751  29.658  1.00  0.00     0.062 A 
ATOM     17  C   UNL     1      24.976 -28.193  30.988  1.00  0.00     0.158 A 
BRANCH  15  18
ATOM     18  O   UNL     1      24.531 -27.764  33.324  1.00  0.00    -0.504 OA
ATOM     19  H   UNL     1      23.654 -27.957  33.794  1.00  0.00     0.293 HD
ENDBRANCH  15  18
BRANCH  17  20
ATOM     20  O   UNL     1      25.350 -29.497  31.308  1.00  0.00    -0.504 OA
ATOM     21  H   UNL     1      24.977 -30.294  30.805  1.00  0.00     0.293 HD
ENDBRANCH  17  20
ENDBRANCH   1  12
BRANCH   2  22
ATOM     22  O   UNL     1      22.380 -26.606  27.510  1.00  0.00    -0.502 OA
ATOM     23  H   UNL     1      22.305 -27.555  27.853  1.00  0.00     0.293 HD
ENDBRANCH   2  22
BRANCH   6  24
ATOM     24  O   UNL     1      24.319 -24.728  22.919  1.00  0.00    -0.507 OA
ATOM     25  H   UNL     1      23.452 -24.228  22.794  1.00  0.00     0.293 HD
ENDBRANCH   6  24
BRANCH   8  26
ATOM     26  O   UNL     1      28.579 -23.090  24.411  1.00  0.00    -0.508 OA
ATOM     27  H   UNL     1      28.656 -22.080  24.438  1.00  0.00     0.293 HD
ENDBRANCH   8  26
TORSDOF 6
ENDMDL
