MODEL 1
REMARK VINA RESULT:    -6.605      0.000      0.000
REMARK INTER + INTRA:          -8.055
REMARK INTER:                  -7.957
REMARK INTRA:                  -0.099
REMARK UNBOUND:                -0.099
REMARK SMILES Oc1cc(O)c2cc(O)c(-c3ccc(O)c(O)c3)[o+]c2c1
REMARK SMILES IDX 10 1 19 2 20 3 21 4 2 5 3 6 4 7 6 8 7 9 8 10 11 11 12 12
REMARK SMILES IDX 13 13 14 14 18 15 16 16 15 17 17 19 9 21 1 23 5 25
REMARK H PARENT 15 18 17 20 9 22 1 24 5 26
REMARK Flexibility Score: inf
ROOT
ATOM      1  C   UNL     1      27.350  -2.277  35.527  1.00  0.00     0.402 A 
ATOM      2  O   UNL     1      26.665  -1.645  34.579  1.00  0.00    -0.202 OA
ATOM      3  C   UNL     1      25.705  -0.761  34.838  1.00  0.00     0.368 A 
ATOM      4  C   UNL     1      25.039  -0.150  33.773  1.00  0.00     0.162 A 
ATOM      5  C   UNL     1      24.025   0.777  34.015  1.00  0.00     0.128 A 
ATOM      6  C   UNL     1      23.672   1.097  35.332  1.00  0.00     0.093 A 
ATOM      7  C   UNL     1      24.325   0.498  36.416  1.00  0.00     0.136 A 
ATOM      8  C   UNL     1      25.358  -0.444  36.174  1.00  0.00     0.125 A 
ATOM      9  C   UNL     1      26.076  -1.084  37.198  1.00  0.00     0.078 A 
ATOM     10  C   UNL     1      27.085  -1.999  36.880  1.00  0.00     0.223 A 
ENDROOT
BRANCH   1  11
ATOM     11  C   UNL     1      28.390  -3.246  35.111  1.00  0.00     0.087 A 
ATOM     12  C   UNL     1      28.083  -4.338  34.281  1.00  0.00     0.022 A 
ATOM     13  C   UNL     1      29.086  -5.226  33.882  1.00  0.00     0.051 A 
ATOM     14  C   UNL     1      30.410  -5.030  34.294  1.00  0.00     0.157 A 
ATOM     15  C   UNL     1      29.723  -3.042  35.505  1.00  0.00     0.068 A 
ATOM     16  C   UNL     1      30.730  -3.930  35.108  1.00  0.00     0.158 A 
BRANCH  14  17
ATOM     17  O   UNL     1      31.408  -5.919  33.897  1.00  0.00    -0.504 OA
ATOM     18  H   UNL     1      31.947  -6.447  34.573  1.00  0.00     0.293 HD
ENDBRANCH  14  17
BRANCH  16  19
ATOM     19  O   UNL     1      32.038  -3.701  35.531  1.00  0.00    -0.504 OA
ATOM     20  H   UNL     1      32.285  -3.648  36.512  1.00  0.00     0.293 HD
ENDBRANCH  16  19
ENDBRANCH   1  11
BRANCH  10  21
ATOM     21  O   UNL     1      27.832  -2.596  37.896  1.00  0.00    -0.500 OA
ATOM     22  H   UNL     1      27.984  -2.136  38.786  1.00  0.00     0.294 HD
ENDBRANCH  10  21
BRANCH   5  23
ATOM     23  O   UNL     1      23.372   1.377  32.941  1.00  0.00    -0.507 OA
ATOM     24  H   UNL     1      22.484   1.853  33.058  1.00  0.00     0.293 HD
ENDBRANCH   5  23
BRANCH   7  25
ATOM     25  O   UNL     1      23.914   0.868  37.699  1.00  0.00    -0.507 OA
ATOM     26  H   UNL     1      24.175   0.381  38.544  1.00  0.00     0.293 HD
ENDBRANCH   7  25
TORSDOF 6
ENDMDL
MODEL 2
REMARK VINA RESULT:    -5.930      1.496      6.950
REMARK INTER + INTRA:          -7.242
REMARK INTER:                  -6.922
REMARK INTRA:                  -0.320
REMARK UNBOUND:                -0.099
REMARK SMILES Oc1cc(O)c2cc(O)c(-c3ccc(O)c(O)c3)[o+]c2c1
REMARK SMILES IDX 10 1 19 2 20 3 21 4 2 5 3 6 4 7 6 8 7 9 8 10 11 11 12 12
REMARK SMILES IDX 13 13 14 14 18 15 16 16 15 17 17 19 9 21 1 23 5 25
REMARK H PARENT 15 18 17 20 9 22 1 24 5 26
REMARK Flexibility Score: inf
ROOT
ATOM      1  C   UNL     1      26.973  -1.985  35.137  1.00  0.00     0.402 A 
ATOM      2  O   UNL     1      27.154  -3.233  34.716  1.00  0.00    -0.202 OA
ATOM      3  C   UNL     1      28.327  -3.858  34.767  1.00  0.00     0.368 A 
ATOM      4  C   UNL     1      28.419  -5.170  34.297  1.00  0.00     0.162 A 
ATOM      5  C   UNL     1      29.638  -5.849  34.333  1.00  0.00     0.128 A 
ATOM      6  C   UNL     1      30.776  -5.211  34.843  1.00  0.00     0.093 A 
ATOM      7  C   UNL     1      30.709  -3.896  35.319  1.00  0.00     0.136 A 
ATOM      8  C   UNL     1      29.471  -3.203  35.285  1.00  0.00     0.125 A 
ATOM      9  C   UNL     1      29.308  -1.890  35.753  1.00  0.00     0.078 A 
ATOM     10  C   UNL     1      28.053  -1.274  35.691  1.00  0.00     0.223 A 
ENDROOT
BRANCH   1  11
ATOM     11  C   UNL     1      25.619  -1.396  35.020  1.00  0.00     0.087 A 
ATOM     12  C   UNL     1      25.147  -0.882  33.800  1.00  0.00     0.022 A 
ATOM     13  C   UNL     1      23.857  -0.353  33.709  1.00  0.00     0.051 A 
ATOM     14  C   UNL     1      23.015  -0.341  34.828  1.00  0.00     0.157 A 
ATOM     15  C   UNL     1      24.765  -1.400  36.135  1.00  0.00     0.068 A 
ATOM     16  C   UNL     1      23.472  -0.871  36.047  1.00  0.00     0.158 A 
BRANCH  14  17
ATOM     17  O   UNL     1      21.730   0.189  34.734  1.00  0.00    -0.504 OA
ATOM     18  H   UNL     1      21.475   0.835  33.996  1.00  0.00     0.293 HD
ENDBRANCH  14  17
BRANCH  16  19
ATOM     19  O   UNL     1      22.658  -0.880  37.179  1.00  0.00    -0.504 OA
ATOM     20  H   UNL     1      23.041  -0.906  38.117  1.00  0.00     0.293 HD
ENDBRANCH  16  19
ENDBRANCH   1  11
BRANCH  10  21
ATOM     21  O   UNL     1      27.880   0.013  36.201  1.00  0.00    -0.500 OA
ATOM     22  H   UNL     1      27.044   0.553  36.012  1.00  0.00     0.294 HD
ENDBRANCH  10  21
BRANCH   5  23
ATOM     23  O   UNL     1      29.709  -7.157  33.862  1.00  0.00    -0.507 OA
ATOM     24  H   UNL     1      30.221  -7.390  33.018  1.00  0.00     0.293 HD
ENDBRANCH   5  23
BRANCH   7  25
ATOM     25  O   UNL     1      31.888  -3.328  35.808  1.00  0.00    -0.507 OA
ATOM     26  H   UNL     1      32.411  -2.604  35.338  1.00  0.00     0.293 HD
ENDBRANCH   7  25
TORSDOF 6
ENDMDL
MODEL 3
REMARK VINA RESULT:    -5.860      1.972      3.172
REMARK INTER + INTRA:          -7.158
REMARK INTER:                  -6.879
REMARK INTRA:                  -0.279
REMARK UNBOUND:                -0.099
REMARK SMILES Oc1cc(O)c2cc(O)c(-c3ccc(O)c(O)c3)[o+]c2c1
REMARK SMILES IDX 10 1 19 2 20 3 21 4 2 5 3 6 4 7 6 8 7 9 8 10 11 11 12 12
REMARK SMILES IDX 13 13 14 14 18 15 16 16 15 17 17 19 9 21 1 23 5 25
REMARK H PARENT 15 18 17 20 9 22 1 24 5 26
REMARK Flexibility Score: inf
ROOT
ATOM      1  C   UNL     1      25.351  -1.118  34.732  1.00  0.00     0.402 A 
ATOM      2  O   UNL     1      25.383  -0.249  33.725  1.00  0.00    -0.202 OA
ATOM      3  C   UNL     1      24.350   0.516  33.388  1.00  0.00     0.368 A 
ATOM      4  C   UNL     1      24.479   1.397  32.312  1.00  0.00     0.162 A 
ATOM      5  C   UNL     1      23.410   2.209  31.932  1.00  0.00     0.128 A 
ATOM      6  C   UNL     1      22.199   2.140  32.633  1.00  0.00     0.093 A 
ATOM      7  C   UNL     1      22.045   1.264  33.714  1.00  0.00     0.136 A 
ATOM      8  C   UNL     1      23.131   0.439  34.105  1.00  0.00     0.125 A 
ATOM      9  C   UNL     1      23.071  -0.458  35.184  1.00  0.00     0.078 A 
ATOM     10  C   UNL     1      24.186  -1.236  35.511  1.00  0.00     0.223 A 
ENDROOT
BRANCH   1  11
ATOM     11  C   UNL     1      26.566  -1.920  35.004  1.00  0.00     0.087 A 
ATOM     12  C   UNL     1      27.393  -1.647  36.108  1.00  0.00     0.022 A 
ATOM     13  C   UNL     1      28.521  -2.433  36.357  1.00  0.00     0.051 A 
ATOM     14  C   UNL     1      28.832  -3.510  35.518  1.00  0.00     0.157 A 
ATOM     15  C   UNL     1      26.871  -3.014  34.177  1.00  0.00     0.068 A 
ATOM     16  C   UNL     1      28.001  -3.803  34.423  1.00  0.00     0.158 A 
BRANCH  14  17
ATOM     17  O   UNL     1      29.960  -4.290  35.767  1.00  0.00    -0.504 OA
ATOM     18  H   UNL     1      30.813  -4.175  35.234  1.00  0.00     0.293 HD
ENDBRANCH  14  17
BRANCH  16  19
ATOM     19  O   UNL     1      28.278  -4.871  33.572  1.00  0.00    -0.504 OA
ATOM     20  H   UNL     1      28.436  -4.742  32.580  1.00  0.00     0.293 HD
ENDBRANCH  16  19
ENDBRANCH   1  11
BRANCH  10  21
ATOM     21  O   UNL     1      24.143  -2.090  36.614  1.00  0.00    -0.500 OA
ATOM     22  H   UNL     1      24.912  -2.710  36.837  1.00  0.00     0.294 HD
ENDBRANCH  10  21
BRANCH   5  23
ATOM     23  O   UNL     1      23.558   3.082  30.857  1.00  0.00    -0.507 OA
ATOM     24  H   UNL     1      24.130   3.917  30.927  1.00  0.00     0.293 HD
ENDBRANCH   5  23
BRANCH   7  25
ATOM     25  O   UNL     1      20.805   1.252  34.360  1.00  0.00    -0.507 OA
ATOM     26  H   UNL     1      19.924   1.445  33.907  1.00  0.00     0.293 HD
ENDBRANCH   7  25
TORSDOF 6
ENDMDL
MODEL 4
REMARK VINA RESULT:    -5.692      3.969      6.647
REMARK INTER + INTRA:          -6.955
REMARK INTER:                  -6.609
REMARK INTRA:                  -0.346
REMARK UNBOUND:                -0.099
REMARK SMILES Oc1cc(O)c2cc(O)c(-c3ccc(O)c(O)c3)[o+]c2c1
REMARK SMILES IDX 10 1 19 2 20 3 21 4 2 5 3 6 4 7 6 8 7 9 8 10 11 11 12 12
REMARK SMILES IDX 13 13 14 14 18 15 16 16 15 17 17 19 9 21 1 23 5 25
REMARK H PARENT 15 18 17 20 9 22 1 24 5 26
REMARK Flexibility Score: inf
ROOT
ATOM      1  C   UNL     1      22.399   1.287  34.753  1.00  0.00     0.402 A 
ATOM      2  O   UNL     1      22.493   1.746  35.998  1.00  0.00    -0.202 OA
ATOM      3  C   UNL     1      21.642   2.626  36.518  1.00  0.00     0.368 A 
ATOM      4  C   UNL     1      21.826   3.051  37.836  1.00  0.00     0.162 A 
ATOM      5  C   UNL     1      20.951   3.977  38.405  1.00  0.00     0.128 A 
ATOM      6  C   UNL     1      19.884   4.483  37.653  1.00  0.00     0.093 A 
ATOM      7  C   UNL     1      19.680   4.073  36.330  1.00  0.00     0.136 A 
ATOM      8  C   UNL     1      20.566   3.130  35.748  1.00  0.00     0.125 A 
ATOM      9  C   UNL     1      20.431   2.652  34.434  1.00  0.00     0.078 A 
ATOM     10  C   UNL     1      21.342   1.718  33.931  1.00  0.00     0.223 A 
ENDROOT
BRANCH   1  11
ATOM     11  C   UNL     1      23.414   0.315  34.287  1.00  0.00     0.087 A 
ATOM     12  C   UNL     1      24.524   0.722  33.526  1.00  0.00     0.022 A 
ATOM     13  C   UNL     1      25.481  -0.211  33.118  1.00  0.00     0.051 A 
ATOM     14  C   UNL     1      25.353  -1.559  33.474  1.00  0.00     0.157 A 
ATOM     15  C   UNL     1      23.301  -1.035  34.659  1.00  0.00     0.068 A 
ATOM     16  C   UNL     1      24.257  -1.972  34.252  1.00  0.00     0.158 A 
BRANCH  14  17
ATOM     17  O   UNL     1      26.308  -2.487  33.063  1.00  0.00    -0.504 OA
ATOM     18  H   UNL     1      26.225  -3.471  33.294  1.00  0.00     0.293 HD
ENDBRANCH  14  17
BRANCH  16  19
ATOM     19  O   UNL     1      24.103  -3.305  34.630  1.00  0.00    -0.504 OA
ATOM     20  H   UNL     1      24.206  -3.608  35.591  1.00  0.00     0.293 HD
ENDBRANCH  16  19
ENDBRANCH   1  11
BRANCH  10  21
ATOM     21  O   UNL     1      21.179   1.205  32.644  1.00  0.00    -0.500 OA
ATOM     22  H   UNL     1      20.312   0.771  32.349  1.00  0.00     0.294 HD
ENDBRANCH  10  21
BRANCH   5  23
ATOM     23  O   UNL     1      21.149   4.388  39.721  1.00  0.00    -0.507 OA
ATOM     24  H   UNL     1      20.762   5.259  40.069  1.00  0.00     0.293 HD
ENDBRANCH   5  23
BRANCH   7  25
ATOM     25  O   UNL     1      18.596   4.627  35.645  1.00  0.00    -0.507 OA
ATOM     26  H   UNL     1      17.877   4.088  35.183  1.00  0.00     0.293 HD
ENDBRANCH   7  25
TORSDOF 6
ENDMDL
MODEL 5
REMARK VINA RESULT:    -5.525      4.844      8.177
REMARK INTER + INTRA:          -6.754
REMARK INTER:                  -6.401
REMARK INTRA:                  -0.353
REMARK UNBOUND:                -0.099
REMARK SMILES Oc1cc(O)c2cc(O)c(-c3ccc(O)c(O)c3)[o+]c2c1
REMARK SMILES IDX 10 1 19 2 20 3 21 4 2 5 3 6 4 7 6 8 7 9 8 10 11 11 12 12
REMARK SMILES IDX 13 13 14 14 18 15 16 16 15 17 17 19 9 21 1 23 5 25
REMARK H PARENT 15 18 17 20 9 22 1 24 5 26
REMARK Flexibility Score: inf
ROOT
ATOM      1  C   UNL     1      22.920   2.484  38.319  1.00  0.00     0.402 A 
ATOM      2  O   UNL     1      23.235   2.211  39.582  1.00  0.00    -0.202 OA
ATOM      3  C   UNL     1      22.919   3.004  40.601  1.00  0.00     0.368 A 
ATOM      4  C   UNL     1      23.296   2.633  41.894  1.00  0.00     0.162 A 
ATOM      5  C   UNL     1      22.982   3.448  42.981  1.00  0.00     0.128 A 
ATOM      6  C   UNL     1      22.285   4.646  42.777  1.00  0.00     0.093 A 
ATOM      7  C   UNL     1      21.897   5.040  41.491  1.00  0.00     0.136 A 
ATOM      8  C   UNL     1      22.213   4.212  40.382  1.00  0.00     0.125 A 
ATOM      9  C   UNL     1      21.852   4.520  39.060  1.00  0.00     0.078 A 
ATOM     10  C   UNL     1      22.195   3.651  38.020  1.00  0.00     0.223 A 
ENDROOT
BRANCH   1  11
ATOM     11  C   UNL     1      23.337   1.524  37.271  1.00  0.00     0.087 A 
ATOM     12  C   UNL     1      24.578   1.641  36.620  1.00  0.00     0.022 A 
ATOM     13  C   UNL     1      24.958   0.709  35.651  1.00  0.00     0.051 A 
ATOM     14  C   UNL     1      24.113  -0.360  35.326  1.00  0.00     0.157 A 
ATOM     15  C   UNL     1      22.502   0.439  36.956  1.00  0.00     0.068 A 
ATOM     16  C   UNL     1      22.880  -0.497  35.986  1.00  0.00     0.158 A 
BRANCH  14  17
ATOM     17  O   UNL     1      24.495  -1.286  34.358  1.00  0.00    -0.504 OA
ATOM     18  H   UNL     1      23.874  -1.547  33.600  1.00  0.00     0.293 HD
ENDBRANCH  14  17
BRANCH  16  19
ATOM     19  O   UNL     1      22.018  -1.552  35.691  1.00  0.00    -0.504 OA
ATOM     20  H   UNL     1      22.143  -2.476  36.088  1.00  0.00     0.293 HD
ENDBRANCH  16  19
ENDBRANCH   1  11
BRANCH  10  21
ATOM     21  O   UNL     1      21.793   3.932  36.713  1.00  0.00    -0.500 OA
ATOM     22  H   UNL     1      21.847   3.237  35.978  1.00  0.00     0.294 HD
ENDBRANCH  10  21
BRANCH   5  23
ATOM     23  O   UNL     1      23.366   3.061  44.263  1.00  0.00    -0.507 OA
ATOM     24  H   UNL     1      22.958   3.485  45.089  1.00  0.00     0.293 HD
ENDBRANCH   5  23
BRANCH   7  25
ATOM     25  O   UNL     1      21.208   6.249  41.369  1.00  0.00    -0.507 OA
ATOM     26  H   UNL     1      20.338   6.460  41.836  1.00  0.00     0.293 HD
ENDBRANCH   7  25
TORSDOF 6
ENDMDL
MODEL 6
REMARK VINA RESULT:    -5.479      4.600      8.203
REMARK INTER + INTRA:          -6.699
REMARK INTER:                  -6.379
REMARK INTRA:                  -0.320
REMARK UNBOUND:                -0.099
REMARK SMILES Oc1cc(O)c2cc(O)c(-c3ccc(O)c(O)c3)[o+]c2c1
REMARK SMILES IDX 10 1 19 2 20 3 21 4 2 5 3 6 4 7 6 8 7 9 8 10 11 11 12 12
REMARK SMILES IDX 13 13 14 14 18 15 16 16 15 17 17 19 9 21 1 23 5 25
REMARK H PARENT 15 18 17 20 9 22 1 24 5 26
REMARK Flexibility Score: inf
ROOT
ATOM      1  C   UNL     1      23.933   2.452  38.275  1.00  0.00     0.402 A 
ATOM      2  O   UNL     1      24.349   1.250  37.884  1.00  0.00    -0.202 OA
ATOM      3  C   UNL     1      23.839   0.605  36.839  1.00  0.00     0.368 A 
ATOM      4  C   UNL     1      24.341  -0.656  36.508  1.00  0.00     0.162 A 
ATOM      5  C   UNL     1      23.821  -1.358  35.420  1.00  0.00     0.128 A 
ATOM      6  C   UNL     1      22.790  -0.797  34.656  1.00  0.00     0.093 A 
ATOM      7  C   UNL     1      22.270   0.465  34.969  1.00  0.00     0.136 A 
ATOM      8  C   UNL     1      22.797   1.183  36.073  1.00  0.00     0.125 A 
ATOM      9  C   UNL     1      22.347   2.458  36.452  1.00  0.00     0.078 A 
ATOM     10  C   UNL     1      22.920   3.106  37.551  1.00  0.00     0.223 A 
ENDROOT
BRANCH   1  11
ATOM     11  C   UNL     1      24.575   3.063  39.460  1.00  0.00     0.087 A 
ATOM     12  C   UNL     1      25.814   3.722  39.365  1.00  0.00     0.022 A 
ATOM     13  C   UNL     1      26.389   4.312  40.493  1.00  0.00     0.051 A 
ATOM     14  C   UNL     1      25.732   4.266  41.729  1.00  0.00     0.157 A 
ATOM     15  C   UNL     1      23.911   3.038  40.697  1.00  0.00     0.068 A 
ATOM     16  C   UNL     1      24.484   3.627  41.830  1.00  0.00     0.158 A 
BRANCH  14  17
ATOM     17  O   UNL     1      26.309   4.853  42.853  1.00  0.00    -0.504 OA
ATOM     18  H   UNL     1      26.848   4.310  43.518  1.00  0.00     0.293 HD
ENDBRANCH  14  17
BRANCH  16  19
ATOM     19  O   UNL     1      23.800   3.569  43.043  1.00  0.00    -0.504 OA
ATOM     20  H   UNL     1      24.239   3.819  43.921  1.00  0.00     0.293 HD
ENDBRANCH  16  19
ENDBRANCH   1  11
BRANCH  10  21
ATOM     21  O   UNL     1      22.507   4.393  37.897  1.00  0.00    -0.500 OA
ATOM     22  H   UNL     1      21.903   4.939  37.293  1.00  0.00     0.294 HD
ENDBRANCH  10  21
BRANCH   5  23
ATOM     23  O   UNL     1      24.335  -2.613  35.103  1.00  0.00    -0.507 OA
ATOM     24  H   UNL     1      23.778  -3.309  34.621  1.00  0.00     0.293 HD
ENDBRANCH   5  23
BRANCH   7  25
ATOM     25  O   UNL     1      21.240   0.955  34.161  1.00  0.00    -0.507 OA
ATOM     26  H   UNL     1      20.891   0.489  33.336  1.00  0.00     0.293 HD
ENDBRANCH   7  25
TORSDOF 6
ENDMDL
MODEL 7
REMARK VINA RESULT:    -5.462      3.887      7.876
REMARK INTER + INTRA:          -6.678
REMARK INTER:                  -6.387
REMARK INTRA:                  -0.291
REMARK UNBOUND:                -0.099
REMARK SMILES Oc1cc(O)c2cc(O)c(-c3ccc(O)c(O)c3)[o+]c2c1
REMARK SMILES IDX 10 1 19 2 20 3 21 4 2 5 3 6 4 7 6 8 7 9 8 10 11 11 12 12
REMARK SMILES IDX 13 13 14 14 18 15 16 16 15 17 17 19 9 21 1 23 5 25
REMARK H PARENT 15 18 17 20 9 22 1 24 5 26
REMARK Flexibility Score: inf
ROOT
ATOM      1  C   UNL     1      25.316   1.960  38.203  1.00  0.00     0.402 A 
ATOM      2  O   UNL     1      24.224   1.374  37.719  1.00  0.00    -0.202 OA
ATOM      3  C   UNL     1      24.257   0.409  36.805  1.00  0.00     0.368 A 
ATOM      4  C   UNL     1      23.056  -0.143  36.355  1.00  0.00     0.162 A 
ATOM      5  C   UNL     1      23.061  -1.153  35.393  1.00  0.00     0.128 A 
ATOM      6  C   UNL     1      24.276  -1.616  34.874  1.00  0.00     0.093 A 
ATOM      7  C   UNL     1      25.494  -1.078  35.308  1.00  0.00     0.136 A 
ATOM      8  C   UNL     1      25.493  -0.052  36.288  1.00  0.00     0.125 A 
ATOM      9  C   UNL     1      26.664   0.536  36.792  1.00  0.00     0.078 A 
ATOM     10  C   UNL     1      26.584   1.541  37.762  1.00  0.00     0.223 A 
ENDROOT
BRANCH   1  11
ATOM     11  C   UNL     1      25.147   3.029  39.214  1.00  0.00     0.087 A 
ATOM     12  C   UNL     1      24.707   4.315  38.853  1.00  0.00     0.022 A 
ATOM     13  C   UNL     1      24.532   5.301  39.828  1.00  0.00     0.051 A 
ATOM     14  C   UNL     1      24.780   5.015  41.176  1.00  0.00     0.157 A 
ATOM     15  C   UNL     1      25.375   2.742  40.569  1.00  0.00     0.068 A 
ATOM     16  C   UNL     1      25.201   3.727  41.549  1.00  0.00     0.158 A 
BRANCH  14  17
ATOM     17  O   UNL     1      24.608   6.002  42.146  1.00  0.00    -0.504 OA
ATOM     18  H   UNL     1      25.024   5.920  43.066  1.00  0.00     0.293 HD
ENDBRANCH  14  17
BRANCH  16  19
ATOM     19  O   UNL     1      25.451   3.408  42.882  1.00  0.00    -0.504 OA
ATOM     20  H   UNL     1      26.370   3.510  43.297  1.00  0.00     0.293 HD
ENDBRANCH  16  19
ENDBRANCH   1  11
BRANCH  10  21
ATOM     21  O   UNL     1      27.749   2.090  38.299  1.00  0.00    -0.500 OA
ATOM     22  H   UNL     1      27.957   2.033  39.289  1.00  0.00     0.294 HD
ENDBRANCH  10  21
BRANCH   5  23
ATOM     23  O   UNL     1      21.853  -1.692  34.957  1.00  0.00    -0.507 OA
ATOM     24  H   UNL     1      21.803  -2.291  34.141  1.00  0.00     0.293 HD
ENDBRANCH   5  23
BRANCH   7  25
ATOM     25  O   UNL     1      26.663  -1.591  34.740  1.00  0.00    -0.507 OA
ATOM     26  H   UNL     1      27.556  -1.627  35.208  1.00  0.00     0.293 HD
ENDBRANCH   7  25
TORSDOF 6
ENDMDL
MODEL 8
REMARK VINA RESULT:    -5.359      2.561      4.438
REMARK INTER + INTRA:          -6.554
REMARK INTER:                  -6.209
REMARK INTRA:                  -0.346
REMARK UNBOUND:                -0.099
REMARK SMILES Oc1cc(O)c2cc(O)c(-c3ccc(O)c(O)c3)[o+]c2c1
REMARK SMILES IDX 10 1 19 2 20 3 21 4 2 5 3 6 4 7 6 8 7 9 8 10 11 11 12 12
REMARK SMILES IDX 13 13 14 14 18 15 16 16 15 17 17 19 9 21 1 23 5 25
REMARK H PARENT 15 18 17 20 9 22 1 24 5 26
REMARK Flexibility Score: inf
ROOT
ATOM      1  C   UNL     1      23.850  -0.222  34.291  1.00  0.00     0.402 A 
ATOM      2  O   UNL     1      23.925   0.725  33.360  1.00  0.00    -0.202 OA
ATOM      3  C   UNL     1      22.942   1.585  33.112  1.00  0.00     0.368 A 
ATOM      4  C   UNL     1      23.113   2.544  32.111  1.00  0.00     0.162 A 
ATOM      5  C   UNL     1      22.097   3.456  31.827  1.00  0.00     0.128 A 
ATOM      6  C   UNL     1      20.897   3.410  32.548  1.00  0.00     0.093 A 
ATOM      7  C   UNL     1      20.701   2.458  33.555  1.00  0.00     0.136 A 
ATOM      8  C   UNL     1      21.734   1.530  33.849  1.00  0.00     0.125 A 
ATOM      9  C   UNL     1      21.630   0.551  34.850  1.00  0.00     0.078 A 
ATOM     10  C   UNL     1      22.693  -0.327  35.085  1.00  0.00     0.223 A 
ENDROOT
BRANCH   1  11
ATOM     11  C   UNL     1      25.010  -1.126  34.466  1.00  0.00     0.087 A 
ATOM     12  C   UNL     1      25.158  -2.288  33.689  1.00  0.00     0.022 A 
ATOM     13  C   UNL     1      26.274  -3.112  33.856  1.00  0.00     0.051 A 
ATOM     14  C   UNL     1      27.264  -2.782  34.789  1.00  0.00     0.157 A 
ATOM     15  C   UNL     1      26.017  -0.788  35.386  1.00  0.00     0.068 A 
ATOM     16  C   UNL     1      27.136  -1.612  35.556  1.00  0.00     0.158 A 
BRANCH  14  17
ATOM     17  O   UNL     1      28.375  -3.608  34.955  1.00  0.00    -0.504 OA
ATOM     18  H   UNL     1      28.850  -4.023  34.162  1.00  0.00     0.293 HD
ENDBRANCH  14  17
BRANCH  16  19
ATOM     19  O   UNL     1      28.107  -1.251  36.489  1.00  0.00    -0.504 OA
ATOM     20  H   UNL     1      28.128  -0.332  36.915  1.00  0.00     0.293 HD
ENDBRANCH  16  19
ENDBRANCH   1  11
BRANCH  10  21
ATOM     21  O   UNL     1      22.611  -1.267  36.113  1.00  0.00    -0.500 OA
ATOM     22  H   UNL     1      21.987  -2.063  36.057  1.00  0.00     0.294 HD
ENDBRANCH  10  21
BRANCH   5  23
ATOM     23  O   UNL     1      22.287   4.406  30.826  1.00  0.00    -0.507 OA
ATOM     24  H   UNL     1      22.920   4.241  30.051  1.00  0.00     0.293 HD
ENDBRANCH   5  23
BRANCH   7  25
ATOM     25  O   UNL     1      19.476   2.475  34.227  1.00  0.00    -0.507 OA
ATOM     26  H   UNL     1      18.938   1.652  34.454  1.00  0.00     0.293 HD
ENDBRANCH   7  25
TORSDOF 6
ENDMDL
MODEL 9
REMARK VINA RESULT:    -5.292      4.103      6.983
REMARK INTER + INTRA:          -6.473
REMARK INTER:                  -6.143
REMARK INTRA:                  -0.330
REMARK UNBOUND:                -0.099
REMARK SMILES Oc1cc(O)c2cc(O)c(-c3ccc(O)c(O)c3)[o+]c2c1
REMARK SMILES IDX 10 1 19 2 20 3 21 4 2 5 3 6 4 7 6 8 7 9 8 10 11 11 12 12
REMARK SMILES IDX 13 13 14 14 18 15 16 16 15 17 17 19 9 21 1 23 5 25
REMARK H PARENT 15 18 17 20 9 22 1 24 5 26
REMARK Flexibility Score: inf
ROOT
ATOM      1  C   UNL     1      23.863   1.924  37.635  1.00  0.00     0.402 A 
ATOM      2  O   UNL     1      24.684   2.195  38.646  1.00  0.00    -0.202 OA
ATOM      3  C   UNL     1      24.331   2.930  39.696  1.00  0.00     0.368 A 
ATOM      4  C   UNL     1      25.265   3.163  40.708  1.00  0.00     0.162 A 
ATOM      5  C   UNL     1      24.923   3.934  41.819  1.00  0.00     0.128 A 
ATOM      6  C   UNL     1      23.637   4.479  41.921  1.00  0.00     0.093 A 
ATOM      7  C   UNL     1      22.684   4.261  40.919  1.00  0.00     0.136 A 
ATOM      8  C   UNL     1      23.027   3.475  39.789  1.00  0.00     0.125 A 
ATOM      9  C   UNL     1      22.132   3.193  38.744  1.00  0.00     0.078 A 
ATOM     10  C   UNL     1      22.542   2.406  37.663  1.00  0.00     0.223 A 
ENDROOT
BRANCH   1  11
ATOM     11  C   UNL     1      24.378   1.100  36.517  1.00  0.00     0.087 A 
ATOM     12  C   UNL     1      25.143   1.665  35.482  1.00  0.00     0.022 A 
ATOM     13  C   UNL     1      25.638   0.863  34.450  1.00  0.00     0.051 A 
ATOM     14  C   UNL     1      25.389  -0.515  34.443  1.00  0.00     0.157 A 
ATOM     15  C   UNL     1      24.148  -0.285  36.517  1.00  0.00     0.068 A 
ATOM     16  C   UNL     1      24.642  -1.092  35.485  1.00  0.00     0.158 A 
BRANCH  14  17
ATOM     17  O   UNL     1      25.881  -1.312  33.412  1.00  0.00    -0.504 OA
ATOM     18  H   UNL     1      26.360  -0.911  32.614  1.00  0.00     0.293 HD
ENDBRANCH  14  17
BRANCH  16  19
ATOM     19  O   UNL     1      24.381  -2.462  35.512  1.00  0.00    -0.504 OA
ATOM     20  H   UNL     1      24.181  -2.988  34.670  1.00  0.00     0.293 HD
ENDBRANCH  16  19
ENDBRANCH   1  11
BRANCH  10  21
ATOM     21  O   UNL     1      21.639   2.084  36.650  1.00  0.00    -0.500 OA
ATOM     22  H   UNL     1      21.427   2.731  35.900  1.00  0.00     0.294 HD
ENDBRANCH  10  21
BRANCH   5  23
ATOM     23  O   UNL     1      25.868   4.154  42.819  1.00  0.00    -0.507 OA
ATOM     24  H   UNL     1      26.001   3.495  43.578  1.00  0.00     0.293 HD
ENDBRANCH   5  23
BRANCH   7  25
ATOM     25  O   UNL     1      21.425   4.842  41.092  1.00  0.00    -0.507 OA
ATOM     26  H   UNL     1      20.565   4.321  41.189  1.00  0.00     0.293 HD
ENDBRANCH   7  25
TORSDOF 6
ENDMDL
