MODEL 1
REMARK VINA RESULT:    -3.682      0.000      0.000
REMARK INTER + INTRA:          -3.682
REMARK INTER:                  -3.682
REMARK INTRA:                   0.000
REMARK UNBOUND:                 0.000
REMARK SMILES CC1=CC(=O)[C@@H]2C[C@H]1C2(C)C
REMARK SMILES IDX 1 1 2 2 3 3 4 4 5 5 6 6 7 7 8 8 9 9 10 10 11 11
REMARK H PARENT
REMARK Flexibility Score: inf
ROOT
ATOM      1  C   UNL     1     149.969 156.047 165.328  1.00  0.00     0.040 C 
ATOM      2  C   UNL     1     149.831 154.558 165.281  1.00  0.00    -0.066 C 
ATOM      3  C   UNL     1     150.144 153.854 164.158  1.00  0.00     0.047 C 
ATOM      4  C   UNL     1     149.992 152.365 164.247  1.00  0.00     0.159 C 
ATOM      5  O   UNL     1     150.287 151.601 163.290  1.00  0.00    -0.295 OA
ATOM      6  C   UNL     1     149.458 151.839 165.579  1.00  0.00     0.067 C 
ATOM      7  C   UNL     1     148.270 152.772 165.904  1.00  0.00     0.021 C 
ATOM      8  C   UNL     1     149.313 153.752 166.491  1.00  0.00     0.022 C 
ATOM      9  C   UNL     1     150.242 152.527 166.734  1.00  0.00    -0.019 C 
ATOM     10  C   UNL     1     151.776 152.725 166.568  1.00  0.00     0.012 C 
ATOM     11  C   UNL     1     149.985 151.854 168.105  1.00  0.00     0.012 C 
ENDROOT
TORSDOF 0
ENDMDL
MODEL 2
REMARK VINA RESULT:    -3.657      1.836      3.527
REMARK INTER + INTRA:          -3.657
REMARK INTER:                  -3.657
REMARK INTRA:                   0.000
REMARK UNBOUND:                 0.000
REMARK SMILES CC1=CC(=O)[C@@H]2C[C@H]1C2(C)C
REMARK SMILES IDX 1 1 2 2 3 3 4 4 5 5 6 6 7 7 8 8 9 9 10 10 11 11
REMARK H PARENT
REMARK Flexibility Score: inf
ROOT
ATOM      1  C   UNL     1     149.133 151.080 169.011  1.00  0.00     0.040 C 
ATOM      2  C   UNL     1     149.786 151.833 167.894  1.00  0.00    -0.066 C 
ATOM      3  C   UNL     1     151.100 152.185 167.952  1.00  0.00     0.047 C 
ATOM      4  C   UNL     1     151.644 152.909 166.758  1.00  0.00     0.159 C 
ATOM      5  O   UNL     1     152.852 153.254 166.673  1.00  0.00    -0.295 OA
ATOM      6  C   UNL     1     150.632 153.198 165.649  1.00  0.00     0.067 C 
ATOM      7  C   UNL     1     149.394 153.737 166.400  1.00  0.00     0.021 C 
ATOM      8  C   UNL     1     149.002 152.260 166.635  1.00  0.00     0.022 C 
ATOM      9  C   UNL     1     149.825 151.898 165.365  1.00  0.00    -0.019 C 
ATOM     10  C   UNL     1     150.590 150.544 165.346  1.00  0.00     0.012 C 
ATOM     11  C   UNL     1     148.983 151.998 164.068  1.00  0.00     0.012 C 
ENDROOT
TORSDOF 0
ENDMDL
MODEL 3
REMARK VINA RESULT:    -3.633      1.985      3.009
REMARK INTER + INTRA:          -3.633
REMARK INTER:                  -3.633
REMARK INTRA:                   0.000
REMARK UNBOUND:                 0.000
REMARK SMILES CC1=CC(=O)[C@@H]2C[C@H]1C2(C)C
REMARK SMILES IDX 1 1 2 2 3 3 4 4 5 5 6 6 7 7 8 8 9 9 10 10 11 11
REMARK H PARENT
REMARK Flexibility Score: inf
ROOT
ATOM      1  C   UNL     1     149.620 155.570 165.349  1.00  0.00     0.040 C 
ATOM      2  C   UNL     1     149.639 154.220 165.993  1.00  0.00    -0.066 C 
ATOM      3  C   UNL     1     148.742 153.884 166.961  1.00  0.00     0.047 C 
ATOM      4  C   UNL     1     148.845 152.491 167.505  1.00  0.00     0.159 C 
ATOM      5  O   UNL     1     148.049 152.048 168.374  1.00  0.00    -0.295 OA
ATOM      6  C   UNL     1     149.982 151.646 166.930  1.00  0.00     0.067 C 
ATOM      7  C   UNL     1     151.203 152.591 166.950  1.00  0.00     0.021 C 
ATOM      8  C   UNL     1     150.683 153.151 165.606  1.00  0.00     0.022 C 
ATOM      9  C   UNL     1     149.968 151.787 165.380  1.00  0.00    -0.019 C 
ATOM     10  C   UNL     1     148.595 151.789 164.651  1.00  0.00     0.012 C 
ATOM     11  C   UNL     1     150.885 150.748 164.686  1.00  0.00     0.012 C 
ENDROOT
TORSDOF 0
ENDMDL
MODEL 4
REMARK VINA RESULT:    -3.583      3.792      5.810
REMARK INTER + INTRA:          -3.583
REMARK INTER:                  -3.583
REMARK INTRA:                   0.000
REMARK UNBOUND:                 0.000
REMARK SMILES CC1=CC(=O)[C@@H]2C[C@H]1C2(C)C
REMARK SMILES IDX 1 1 2 2 3 3 4 4 5 5 6 6 7 7 8 8 9 9 10 10 11 11
REMARK H PARENT
REMARK Flexibility Score: inf
ROOT
ATOM      1  C   UNL     1     150.078 156.211 165.272  1.00  0.00     0.040 C 
ATOM      2  C   UNL     1     149.728 156.666 163.890  1.00  0.00    -0.066 C 
ATOM      3  C   UNL     1     150.351 156.149 162.795  1.00  0.00     0.047 C 
ATOM      4  C   UNL     1     149.890 156.664 161.465  1.00  0.00     0.159 C 
ATOM      5  O   UNL     1     150.360 156.236 160.379  1.00  0.00    -0.295 OA
ATOM      6  C   UNL     1     148.807 157.742 161.520  1.00  0.00     0.067 C 
ATOM      7  C   UNL     1     149.299 158.716 162.614  1.00  0.00     0.021 C 
ATOM      8  C   UNL     1     148.659 157.751 163.639  1.00  0.00     0.022 C 
ATOM      9  C   UNL     1     147.698 157.280 162.510  1.00  0.00    -0.019 C 
ATOM     10  C   UNL     1     147.266 155.786 162.488  1.00  0.00     0.012 C 
ATOM     11  C   UNL     1     146.422 158.155 162.416  1.00  0.00     0.012 C 
ENDROOT
TORSDOF 0
ENDMDL
MODEL 5
REMARK VINA RESULT:    -3.491      1.629      3.574
REMARK INTER + INTRA:          -3.491
REMARK INTER:                  -3.491
REMARK INTRA:                   0.000
REMARK UNBOUND:                 0.000
REMARK SMILES CC1=CC(=O)[C@@H]2C[C@H]1C2(C)C
REMARK SMILES IDX 1 1 2 2 3 3 4 4 5 5 6 6 7 7 8 8 9 9 10 10 11 11
REMARK H PARENT
REMARK Flexibility Score: inf
ROOT
ATOM      1  C   UNL     1     146.814 153.411 165.986  1.00  0.00     0.040 C 
ATOM      2  C   UNL     1     148.250 153.759 165.751  1.00  0.00    -0.066 C 
ATOM      3  C   UNL     1     149.255 153.058 166.346  1.00  0.00     0.047 C 
ATOM      4  C   UNL     1     150.651 153.484 166.006  1.00  0.00     0.159 C 
ATOM      5  O   UNL     1     151.665 152.891 166.460  1.00  0.00    -0.295 OA
ATOM      6  C   UNL     1     150.759 154.686 165.067  1.00  0.00     0.067 C 
ATOM      7  C   UNL     1     149.743 155.701 165.636  1.00  0.00     0.021 C 
ATOM      8  C   UNL     1     148.662 154.934 164.839  1.00  0.00     0.022 C 
ATOM      9  C   UNL     1     149.788 154.468 163.870  1.00  0.00    -0.019 C 
ATOM     10  C   UNL     1     149.684 153.044 163.254  1.00  0.00     0.012 C 
ATOM     11  C   UNL     1     150.034 155.478 162.721  1.00  0.00     0.012 C 
ENDROOT
TORSDOF 0
ENDMDL
MODEL 6
REMARK VINA RESULT:    -3.461      1.515      2.350
REMARK INTER + INTRA:          -3.461
REMARK INTER:                  -3.461
REMARK INTRA:                   0.000
REMARK UNBOUND:                 0.000
REMARK SMILES CC1=CC(=O)[C@@H]2C[C@H]1C2(C)C
REMARK SMILES IDX 1 1 2 2 3 3 4 4 5 5 6 6 7 7 8 8 9 9 10 10 11 11
REMARK H PARENT
REMARK Flexibility Score: inf
ROOT
ATOM      1  C   UNL     1     150.333 156.016 165.291  1.00  0.00     0.040 C 
ATOM      2  C   UNL     1     149.746 154.645 165.411  1.00  0.00    -0.066 C 
ATOM      3  C   UNL     1     150.532 153.555 165.634  1.00  0.00     0.047 C 
ATOM      4  C   UNL     1     149.821 152.242 165.765  1.00  0.00     0.159 C 
ATOM      5  O   UNL     1     150.431 151.169 166.011  1.00  0.00    -0.295 OA
ATOM      6  C   UNL     1     148.304 152.297 165.584  1.00  0.00     0.067 C 
ATOM      7  C   UNL     1     148.106 153.177 164.329  1.00  0.00     0.021 C 
ATOM      8  C   UNL     1     148.229 154.397 165.272  1.00  0.00     0.022 C 
ATOM      9  C   UNL     1     147.746 153.477 166.431  1.00  0.00    -0.019 C 
ATOM     10  C   UNL     1     148.339 153.711 167.850  1.00  0.00     0.012 C 
ATOM     11  C   UNL     1     146.201 153.439 166.551  1.00  0.00     0.012 C 
ENDROOT
TORSDOF 0
ENDMDL
MODEL 7
REMARK VINA RESULT:    -3.438      3.444      4.977
REMARK INTER + INTRA:          -3.438
REMARK INTER:                  -3.438
REMARK INTRA:                   0.000
REMARK UNBOUND:                 0.000
REMARK SMILES CC1=CC(=O)[C@@H]2C[C@H]1C2(C)C
REMARK SMILES IDX 1 1 2 2 3 3 4 4 5 5 6 6 7 7 8 8 9 9 10 10 11 11
REMARK H PARENT
REMARK Flexibility Score: inf
ROOT
ATOM      1  C   UNL     1     150.300 154.967 160.375  1.00  0.00     0.040 C 
ATOM      2  C   UNL     1     149.977 155.636 161.673  1.00  0.00    -0.066 C 
ATOM      3  C   UNL     1     149.813 156.986 161.752  1.00  0.00     0.047 C 
ATOM      4  C   UNL     1     149.462 157.533 163.103  1.00  0.00     0.159 C 
ATOM      5  O   UNL     1     149.246 158.758 163.298  1.00  0.00    -0.295 OA
ATOM      6  C   UNL     1     149.380 156.499 164.227  1.00  0.00     0.067 C 
ATOM      7  C   UNL     1     150.643 155.631 164.033  1.00  0.00     0.021 C 
ATOM      8  C   UNL     1     149.830 154.836 162.985  1.00  0.00     0.022 C 
ATOM      9  C   UNL     1     148.539 155.289 163.726  1.00  0.00    -0.019 C 
ATOM     10  C   UNL     1     147.267 155.575 162.878  1.00  0.00     0.012 C 
ATOM     11  C   UNL     1     148.149 154.326 164.876  1.00  0.00     0.012 C 
ENDROOT
TORSDOF 0
ENDMDL
MODEL 8
REMARK VINA RESULT:    -3.407      1.695      2.695
REMARK INTER + INTRA:          -3.407
REMARK INTER:                  -3.407
REMARK INTRA:                   0.000
REMARK UNBOUND:                 0.000
REMARK SMILES CC1=CC(=O)[C@@H]2C[C@H]1C2(C)C
REMARK SMILES IDX 1 1 2 2 3 3 4 4 5 5 6 6 7 7 8 8 9 9 10 10 11 11
REMARK H PARENT
REMARK Flexibility Score: inf
ROOT
ATOM      1  C   UNL     1     147.429 152.419 163.858  1.00  0.00     0.040 C 
ATOM      2  C   UNL     1     148.641 152.799 164.649  1.00  0.00    -0.066 C 
ATOM      3  C   UNL     1     149.274 153.987 164.446  1.00  0.00     0.047 C 
ATOM      4  C   UNL     1     150.458 154.264 165.322  1.00  0.00     0.159 C 
ATOM      5  O   UNL     1     151.104 155.344 165.259  1.00  0.00    -0.295 OA
ATOM      6  C   UNL     1     150.825 153.148 166.300  1.00  0.00     0.067 C 
ATOM      7  C   UNL     1     150.763 151.862 165.445  1.00  0.00     0.021 C 
ATOM      8  C   UNL     1     149.240 151.860 165.717  1.00  0.00     0.022 C 
ATOM      9  C   UNL     1     149.528 152.670 167.015  1.00  0.00    -0.019 C 
ATOM     10  C   UNL     1     148.492 153.741 167.458  1.00  0.00     0.012 C 
ATOM     11  C   UNL     1     149.828 151.753 168.228  1.00  0.00     0.012 C 
ENDROOT
TORSDOF 0
ENDMDL
MODEL 9
REMARK VINA RESULT:    -3.384      6.885      8.252
REMARK INTER + INTRA:          -3.384
REMARK INTER:                  -3.384
REMARK INTRA:                   0.000
REMARK UNBOUND:                 0.000
REMARK SMILES CC1=CC(=O)[C@@H]2C[C@H]1C2(C)C
REMARK SMILES IDX 1 1 2 2 3 3 4 4 5 5 6 6 7 7 8 8 9 9 10 10 11 11
REMARK H PARENT
REMARK Flexibility Score: inf
ROOT
ATOM      1  C   UNL     1     145.668 161.174 164.145  1.00  0.00     0.040 C 
ATOM      2  C   UNL     1     146.607 160.411 163.265  1.00  0.00    -0.066 C 
ATOM      3  C   UNL     1     147.720 159.810 163.771  1.00  0.00     0.047 C 
ATOM      4  C   UNL     1     148.564 159.049 162.793  1.00  0.00     0.159 C 
ATOM      5  O   UNL     1     149.595 158.418 163.144  1.00  0.00    -0.295 OA
ATOM      6  C   UNL     1     148.083 159.090 161.342  1.00  0.00     0.067 C 
ATOM      7  C   UNL     1     147.744 160.578 161.099  1.00  0.00     0.021 C 
ATOM      8  C   UNL     1     146.371 160.281 161.746  1.00  0.00     0.022 C 
ATOM      9  C   UNL     1     146.555 158.796 161.318  1.00  0.00    -0.019 C 
ATOM     10  C   UNL     1     146.003 157.687 162.258  1.00  0.00     0.012 C 
ATOM     11  C   UNL     1     146.030 158.524 159.886  1.00  0.00     0.012 C 
ENDROOT
TORSDOF 0
ENDMDL
