MODEL 1
REMARK VINA RESULT:    -5.398      0.000      0.000
REMARK INTER + INTRA:          -6.473
REMARK INTER:                  -6.344
REMARK INTRA:                  -0.128
REMARK UNBOUND:                -0.128
REMARK SMILES O=C([O-])C=Cc1ccc(O)c(O)c1
REMARK SMILES IDX 6 1 13 2 7 3 11 4 8 5 9 6 5 7 4 8 2 9 1 10 3 11 12 12 10 14
REMARK H PARENT 12 13 10 15
REMARK Flexibility Score: inf
ROOT
ATOM      1  C   UNL     1      41.092  22.823  18.224  1.00  0.00    -0.022 A 
ATOM      2  C   UNL     1      40.257  23.947  18.340  1.00  0.00     0.058 A 
ATOM      3  C   UNL     1      40.620  21.695  17.525  1.00  0.00     0.012 A 
ATOM      4  C   UNL     1      38.987  23.960  17.751  1.00  0.00     0.157 A 
ATOM      5  C   UNL     1      39.353  21.706  16.937  1.00  0.00     0.051 A 
ATOM      6  C   UNL     1      38.533  22.836  17.044  1.00  0.00     0.157 A 
ENDROOT
BRANCH   1   7
ATOM      7  C   UNL     1      42.425  22.859  18.875  1.00  0.00     0.010 C 
ATOM      8  C   UNL     1      42.614  22.723  20.196  1.00  0.00     0.025 C 
BRANCH   8   9
ATOM      9  C   UNL     1      43.953  22.753  20.806  1.00  0.00     0.064 C 
ATOM     10  O   UNL     1      44.958  23.148  20.156  1.00  0.00    -0.545 OA
ATOM     11  O   UNL     1      44.113  22.339  22.122  1.00  0.00    -0.545 OA
ENDBRANCH   8   9
ENDBRANCH   1   7
BRANCH   4  12
ATOM     12  O   UNL     1      38.193  25.099  17.881  1.00  0.00    -0.504 OA
ATOM     13  H   UNL     1      37.214  25.047  18.137  1.00  0.00     0.293 HD
ENDBRANCH   4  12
BRANCH   6  14
ATOM     14  O   UNL     1      37.269  22.843  16.455  1.00  0.00    -0.504 OA
ATOM     15  H   UNL     1      36.709  23.687  16.409  1.00  0.00     0.293 HD
ENDBRANCH   6  14
TORSDOF 4
ENDMDL
MODEL 2
REMARK VINA RESULT:    -5.313      2.407      6.755
REMARK INTER + INTRA:          -6.373
REMARK INTER:                  -6.243
REMARK INTRA:                  -0.130
REMARK UNBOUND:                -0.128
REMARK SMILES O=C([O-])C=Cc1ccc(O)c(O)c1
REMARK SMILES IDX 6 1 13 2 7 3 11 4 8 5 9 6 5 7 4 8 2 9 1 10 3 11 12 12 10 14
REMARK H PARENT 12 13 10 15
REMARK Flexibility Score: inf
ROOT
ATOM      1  C   UNL     1      44.373  23.261  19.944  1.00  0.00    -0.022 A 
ATOM      2  C   UNL     1      45.343  24.079  19.342  1.00  0.00     0.058 A 
ATOM      3  C   UNL     1      44.794  22.186  20.750  1.00  0.00     0.012 A 
ATOM      4  C   UNL     1      46.707  23.850  19.557  1.00  0.00     0.157 A 
ATOM      5  C   UNL     1      46.155  21.955  20.966  1.00  0.00     0.051 A 
ATOM      6  C   UNL     1      47.117  22.785  20.374  1.00  0.00     0.157 A 
ENDROOT
BRANCH   1   7
ATOM      7  C   UNL     1      42.941  23.543  19.674  1.00  0.00     0.010 C 
ATOM      8  C   UNL     1      42.228  22.934  18.715  1.00  0.00     0.025 C 
BRANCH   8   9
ATOM      9  C   UNL     1      40.805  23.232  18.484  1.00  0.00     0.064 C 
ATOM     10  O   UNL     1      40.218  24.146  19.122  1.00  0.00    -0.545 OA
ATOM     11  O   UNL     1      40.097  22.493  17.546  1.00  0.00    -0.545 OA
ENDBRANCH   8   9
ENDBRANCH   1   7
BRANCH   4  12
ATOM     12  O   UNL     1      47.639  24.691  18.948  1.00  0.00    -0.504 OA
ATOM     13  H   UNL     1      47.441  25.667  18.763  1.00  0.00     0.293 HD
ENDBRANCH   4  12
BRANCH   6  14
ATOM     14  O   UNL     1      48.474  22.552  20.593  1.00  0.00    -0.504 OA
ATOM     15  H   UNL     1      48.807  22.115  21.445  1.00  0.00     0.293 HD
ENDBRANCH   6  14
TORSDOF 4
ENDMDL
MODEL 3
REMARK VINA RESULT:    -5.241      2.136      3.315
REMARK INTER + INTRA:          -6.289
REMARK INTER:                  -6.162
REMARK INTRA:                  -0.127
REMARK UNBOUND:                -0.128
REMARK SMILES O=C([O-])C=Cc1ccc(O)c(O)c1
REMARK SMILES IDX 6 1 13 2 7 3 11 4 8 5 9 6 5 7 4 8 2 9 1 10 3 11 12 12 10 14
REMARK H PARENT 12 13 10 15
REMARK Flexibility Score: inf
ROOT
ATOM      1  C   UNL     1      42.969  23.488  19.399  1.00  0.00    -0.022 A 
ATOM      2  C   UNL     1      42.391  22.524  18.557  1.00  0.00     0.058 A 
ATOM      3  C   UNL     1      42.170  24.547  19.872  1.00  0.00     0.012 A 
ATOM      4  C   UNL     1      41.036  22.595  18.211  1.00  0.00     0.157 A 
ATOM      5  C   UNL     1      40.818  24.620  19.527  1.00  0.00     0.051 A 
ATOM      6  C   UNL     1      40.244  23.646  18.699  1.00  0.00     0.157 A 
ENDROOT
BRANCH   1   7
ATOM      7  C   UNL     1      44.412  23.370  19.727  1.00  0.00     0.010 C 
ATOM      8  C   UNL     1      45.381  24.032  19.078  1.00  0.00     0.025 C 
BRANCH   8   9
ATOM      9  C   UNL     1      46.802  23.898  19.439  1.00  0.00     0.064 C 
ATOM     10  O   UNL     1      47.254  22.827  19.925  1.00  0.00    -0.545 OA
ATOM     11  O   UNL     1      47.660  24.971  19.239  1.00  0.00    -0.545 OA
ENDBRANCH   8   9
ENDBRANCH   1   7
BRANCH   4  12
ATOM     12  O   UNL     1      40.498  21.612  17.380  1.00  0.00    -0.504 OA
ATOM     13  H   UNL     1      39.610  21.168  17.578  1.00  0.00     0.293 HD
ENDBRANCH   4  12
BRANCH   6  14
ATOM     14  O   UNL     1      38.894  23.722  18.358  1.00  0.00    -0.504 OA
ATOM     15  H   UNL     1      38.487  23.110  17.661  1.00  0.00     0.293 HD
ENDBRANCH   6  14
TORSDOF 4
ENDMDL
MODEL 4
REMARK VINA RESULT:    -5.237      2.164      6.727
REMARK INTER + INTRA:          -6.284
REMARK INTER:                  -6.155
REMARK INTRA:                  -0.129
REMARK UNBOUND:                -0.128
REMARK SMILES O=C([O-])C=Cc1ccc(O)c(O)c1
REMARK SMILES IDX 6 1 13 2 7 3 11 4 8 5 9 6 5 7 4 8 2 9 1 10 3 11 12 12 10 14
REMARK H PARENT 12 13 10 15
REMARK Flexibility Score: inf
ROOT
ATOM      1  C   UNL     1      44.101  23.236  19.750  1.00  0.00    -0.022 A 
ATOM      2  C   UNL     1      44.487  22.266  20.689  1.00  0.00     0.058 A 
ATOM      3  C   UNL     1      45.098  23.984  19.095  1.00  0.00     0.012 A 
ATOM      4  C   UNL     1      45.840  22.025  20.956  1.00  0.00     0.157 A 
ATOM      5  C   UNL     1      46.449  23.746  19.359  1.00  0.00     0.051 A 
ATOM      6  C   UNL     1      46.827  22.765  20.287  1.00  0.00     0.157 A 
ENDROOT
BRANCH   1   7
ATOM      7  C   UNL     1      42.652  23.457  19.513  1.00  0.00     0.010 C 
ATOM      8  C   UNL     1      41.971  22.912  18.495  1.00  0.00     0.025 C 
BRANCH   8   9
ATOM      9  C   UNL     1      40.531  23.145  18.298  1.00  0.00     0.064 C 
ATOM     10  O   UNL     1      39.952  24.134  18.824  1.00  0.00    -0.545 OA
ATOM     11  O   UNL     1      39.797  22.261  17.519  1.00  0.00    -0.545 OA
ENDBRANCH   8   9
ENDBRANCH   1   7
BRANCH   4  12
ATOM     12  O   UNL     1      46.182  21.046  21.889  1.00  0.00    -0.504 OA
ATOM     13  H   UNL     1      45.685  20.166  21.951  1.00  0.00     0.293 HD
ENDBRANCH   4  12
BRANCH   6  14
ATOM     14  O   UNL     1      48.177  22.530  20.547  1.00  0.00    -0.504 OA
ATOM     15  H   UNL     1      48.537  22.498  21.493  1.00  0.00     0.293 HD
ENDBRANCH   6  14
TORSDOF 4
ENDMDL
MODEL 5
REMARK VINA RESULT:    -5.070      2.847      3.156
REMARK INTER + INTRA:          -6.087
REMARK INTER:                  -5.963
REMARK INTRA:                  -0.125
REMARK UNBOUND:                -0.128
REMARK SMILES O=C([O-])C=Cc1ccc(O)c(O)c1
REMARK SMILES IDX 6 1 13 2 7 3 11 4 8 5 9 6 5 7 4 8 2 9 1 10 3 11 12 12 10 14
REMARK H PARENT 12 13 10 15
REMARK Flexibility Score: inf
ROOT
ATOM      1  C   UNL     1      41.504  23.990  19.336  1.00  0.00    -0.022 A 
ATOM      2  C   UNL     1      40.130  24.091  19.066  1.00  0.00     0.058 A 
ATOM      3  C   UNL     1      42.244  22.961  18.722  1.00  0.00     0.012 A 
ATOM      4  C   UNL     1      39.506  23.203  18.181  1.00  0.00     0.157 A 
ATOM      5  C   UNL     1      41.624  22.074  17.840  1.00  0.00     0.051 A 
ATOM      6  C   UNL     1      40.255  22.191  17.563  1.00  0.00     0.157 A 
ENDROOT
BRANCH   1   7
ATOM      7  C   UNL     1      42.112  24.952  20.290  1.00  0.00     0.010 C 
ATOM      8  C   UNL     1      42.338  26.243  20.005  1.00  0.00     0.025 C 
BRANCH   8   9
ATOM      9  C   UNL     1      42.933  27.170  20.980  1.00  0.00     0.064 C 
ATOM     10  O   UNL     1      42.238  27.694  21.892  1.00  0.00    -0.545 OA
ATOM     11  O   UNL     1      44.285  27.474  20.896  1.00  0.00    -0.545 OA
ENDBRANCH   8   9
ENDBRANCH   1   7
BRANCH   4  12
ATOM     12  O   UNL     1      38.141  23.344  17.932  1.00  0.00    -0.504 OA
ATOM     13  H   UNL     1      37.781  23.541  17.006  1.00  0.00     0.293 HD
ENDBRANCH   4  12
BRANCH   6  14
ATOM     14  O   UNL     1      39.640  21.303  16.680  1.00  0.00    -0.504 OA
ATOM     15  H   UNL     1      38.963  21.619  15.996  1.00  0.00     0.293 HD
ENDBRANCH   6  14
TORSDOF 4
ENDMDL
MODEL 6
REMARK VINA RESULT:    -5.069      4.621      6.193
REMARK INTER + INTRA:          -6.087
REMARK INTER:                  -5.953
REMARK INTRA:                  -0.134
REMARK UNBOUND:                -0.128
REMARK SMILES O=C([O-])C=Cc1ccc(O)c(O)c1
REMARK SMILES IDX 6 1 13 2 7 3 11 4 8 5 9 6 5 7 4 8 2 9 1 10 3 11 12 12 10 14
REMARK H PARENT 12 13 10 15
REMARK Flexibility Score: inf
ROOT
ATOM      1  C   UNL     1      44.953  23.372  20.641  1.00  0.00    -0.022 A 
ATOM      2  C   UNL     1      43.759  22.636  20.714  1.00  0.00     0.058 A 
ATOM      3  C   UNL     1      46.169  22.728  20.941  1.00  0.00     0.012 A 
ATOM      4  C   UNL     1      43.774  21.278  21.055  1.00  0.00     0.157 A 
ATOM      5  C   UNL     1      46.186  21.373  21.282  1.00  0.00     0.051 A 
ATOM      6  C   UNL     1      44.992  20.641  21.338  1.00  0.00     0.157 A 
ENDROOT
BRANCH   1   7
ATOM      7  C   UNL     1      44.878  24.810  20.284  1.00  0.00     0.010 C 
ATOM      8  C   UNL     1      43.741  25.521  20.284  1.00  0.00     0.025 C 
BRANCH   8   9
ATOM      9  C   UNL     1      43.707  26.950  19.935  1.00  0.00     0.064 C 
ATOM     10  O   UNL     1      44.428  27.414  19.011  1.00  0.00    -0.545 OA
ATOM     11  O   UNL     1      42.866  27.804  20.636  1.00  0.00    -0.545 OA
ENDBRANCH   8   9
ENDBRANCH   1   7
BRANCH   4  12
ATOM     12  O   UNL     1      42.567  20.580  21.107  1.00  0.00    -0.504 OA
ATOM     13  H   UNL     1      42.058  20.451  21.973  1.00  0.00     0.293 HD
ENDBRANCH   4  12
BRANCH   6  14
ATOM     14  O   UNL     1      45.014  19.289  21.678  1.00  0.00    -0.504 OA
ATOM     15  H   UNL     1      45.479  18.603  21.095  1.00  0.00     0.293 HD
ENDBRANCH   6  14
TORSDOF 4
ENDMDL
MODEL 7
REMARK VINA RESULT:    -5.013      3.735      5.484
REMARK INTER + INTRA:          -6.020
REMARK INTER:                  -5.886
REMARK INTRA:                  -0.134
REMARK UNBOUND:                -0.128
REMARK SMILES O=C([O-])C=Cc1ccc(O)c(O)c1
REMARK SMILES IDX 6 1 13 2 7 3 11 4 8 5 9 6 5 7 4 8 2 9 1 10 3 11 12 12 10 14
REMARK H PARENT 12 13 10 15
REMARK Flexibility Score: inf
ROOT
ATOM      1  C   UNL     1      44.135  24.546  20.237  1.00  0.00    -0.022 A 
ATOM      2  C   UNL     1      42.760  24.295  20.370  1.00  0.00     0.058 A 
ATOM      3  C   UNL     1      45.045  23.498  20.478  1.00  0.00     0.012 A 
ATOM      4  C   UNL     1      42.294  23.019  20.711  1.00  0.00     0.157 A 
ATOM      5  C   UNL     1      44.582  22.225  20.818  1.00  0.00     0.051 A 
ATOM      6  C   UNL     1      43.208  21.978  20.933  1.00  0.00     0.157 A 
ENDROOT
BRANCH   1   7
ATOM      7  C   UNL     1      44.574  25.919  19.884  1.00  0.00     0.010 C 
ATOM      8  C   UNL     1      43.738  26.960  19.756  1.00  0.00     0.025 C 
BRANCH   8   9
ATOM      9  C   UNL     1      44.212  28.311  19.415  1.00  0.00     0.064 C 
ATOM     10  O   UNL     1      44.963  28.509  18.422  1.00  0.00    -0.545 OA
ATOM     11  O   UNL     1      43.824  29.389  20.200  1.00  0.00    -0.545 OA
ENDBRANCH   8   9
ENDBRANCH   1   7
BRANCH   4  12
ATOM     12  O   UNL     1      40.919  22.808  20.823  1.00  0.00    -0.504 OA
ATOM     13  H   UNL     1      40.363  22.467  20.049  1.00  0.00     0.293 HD
ENDBRANCH   4  12
BRANCH   6  14
ATOM     14  O   UNL     1      42.750  20.704  21.272  1.00  0.00    -0.504 OA
ATOM     15  H   UNL     1      41.794  20.545  21.569  1.00  0.00     0.293 HD
ENDBRANCH   6  14
TORSDOF 4
ENDMDL
MODEL 8
REMARK VINA RESULT:    -4.914      4.134      5.888
REMARK INTER + INTRA:          -5.905
REMARK INTER:                  -5.772
REMARK INTRA:                  -0.133
REMARK UNBOUND:                -0.128
REMARK SMILES O=C([O-])C=Cc1ccc(O)c(O)c1
REMARK SMILES IDX 6 1 13 2 7 3 11 4 8 5 9 6 5 7 4 8 2 9 1 10 3 11 12 12 10 14
REMARK H PARENT 12 13 10 15
REMARK Flexibility Score: inf
ROOT
ATOM      1  C   UNL     1      45.814  22.954  20.339  1.00  0.00    -0.022 A 
ATOM      2  C   UNL     1      44.470  23.263  20.075  1.00  0.00     0.058 A 
ATOM      3  C   UNL     1      46.120  21.734  20.975  1.00  0.00     0.012 A 
ATOM      4  C   UNL     1      43.449  22.366  20.411  1.00  0.00     0.157 A 
ATOM      5  C   UNL     1      45.102  20.838  21.311  1.00  0.00     0.051 A 
ATOM      6  C   UNL     1      43.764  21.147  21.030  1.00  0.00     0.157 A 
ENDROOT
BRANCH   1   7
ATOM      7  C   UNL     1      46.856  23.945  19.971  1.00  0.00     0.010 C 
ATOM      8  C   UNL     1      46.586  25.174  19.509  1.00  0.00     0.025 C 
BRANCH   8   9
ATOM      9  C   UNL     1      47.646  26.135  19.164  1.00  0.00     0.064 C 
ATOM     10  O   UNL     1      47.884  27.135  19.894  1.00  0.00    -0.545 OA
ATOM     11  O   UNL     1      48.400  25.935  18.015  1.00  0.00    -0.545 OA
ENDBRANCH   8   9
ENDBRANCH   1   7
BRANCH   4  12
ATOM     12  O   UNL     1      42.127  22.707  20.122  1.00  0.00    -0.504 OA
ATOM     13  H   UNL     1      41.442  22.868  20.850  1.00  0.00     0.293 HD
ENDBRANCH   4  12
BRANCH   6  14
ATOM     14  O   UNL     1      42.752  20.249  21.367  1.00  0.00    -0.504 OA
ATOM     15  H   UNL     1      42.759  19.292  21.034  1.00  0.00     0.293 HD
ENDBRANCH   6  14
TORSDOF 4
ENDMDL
MODEL 9
REMARK VINA RESULT:    -4.652     15.083     15.722
REMARK INTER + INTRA:          -5.596
REMARK INTER:                  -5.465
REMARK INTRA:                  -0.132
REMARK UNBOUND:                -0.128
REMARK SMILES O=C([O-])C=Cc1ccc(O)c(O)c1
REMARK SMILES IDX 6 1 13 2 7 3 11 4 8 5 9 6 5 7 4 8 2 9 1 10 3 11 12 12 10 14
REMARK H PARENT 12 13 10 15
REMARK Flexibility Score: inf
ROOT
ATOM      1  C   UNL     1      45.950  25.968   4.287  1.00  0.00    -0.022 A 
ATOM      2  C   UNL     1      46.271  25.722   5.632  1.00  0.00     0.058 A 
ATOM      3  C   UNL     1      44.730  26.605   3.984  1.00  0.00     0.012 A 
ATOM      4  C   UNL     1      45.409  26.123   6.660  1.00  0.00     0.157 A 
ATOM      5  C   UNL     1      43.868  27.006   5.008  1.00  0.00     0.051 A 
ATOM      6  C   UNL     1      44.203  26.770   6.348  1.00  0.00     0.157 A 
ENDROOT
BRANCH   1   7
ATOM      7  C   UNL     1      46.895  25.513   3.237  1.00  0.00     0.010 C 
ATOM      8  C   UNL     1      47.823  24.565   3.429  1.00  0.00     0.025 C 
BRANCH   8   9
ATOM      9  C   UNL     1      48.737  24.131   2.360  1.00  0.00     0.064 C 
ATOM     10  O   UNL     1      48.670  22.969   1.875  1.00  0.00    -0.545 OA
ATOM     11  O   UNL     1      49.689  25.018   1.875  1.00  0.00    -0.545 OA
ENDBRANCH   8   9
ENDBRANCH   1   7
BRANCH   4  12
ATOM     12  O   UNL     1      45.769  25.868   7.983  1.00  0.00    -0.504 OA
ATOM     13  H   UNL     1      46.718  25.995   8.316  1.00  0.00     0.293 HD
ENDBRANCH   4  12
BRANCH   6  14
ATOM     14  O   UNL     1      43.341  27.173   7.368  1.00  0.00    -0.504 OA
ATOM     15  H   UNL     1      43.202  26.610   8.199  1.00  0.00     0.293 HD
ENDBRANCH   6  14
TORSDOF 4
ENDMDL
