MODEL 1
REMARK VINA RESULT:    -5.113      0.000      0.000
REMARK INTER + INTRA:          -6.152
REMARK INTER:                  -6.159
REMARK INTRA:                   0.008
REMARK UNBOUND:                 0.008
REMARK SMILES CCCCc1oc(O)c2ccccc12
REMARK SMILES IDX 4 1 5 2 7 3 6 4 9 5 14 6 10 7 13 8 11 9 12 10 8 11 3 13 2 14
REMARK SMILES IDX 1 15
REMARK H PARENT 8 12
REMARK Flexibility Score: inf
ROOT
ATOM      1  C   UNL     1      95.501  82.444  45.072  1.00  0.00     0.076 C 
ENDROOT
BRANCH   1   2
ATOM      2  C   UNL     1      96.335  82.321  46.310  1.00  0.00     0.116 A 
ATOM      3  C   UNL     1      98.069  82.273  47.571  1.00  0.00     0.290 A 
ATOM      4  O   UNL     1      97.647  82.472  46.337  1.00  0.00    -0.430 OA
ATOM      5  C   UNL     1      96.997  81.977  48.387  1.00  0.00     0.066 A 
ATOM      6  C   UNL     1      95.890  82.004  47.581  1.00  0.00     0.027 A 
ATOM      7  C   UNL     1      96.912  81.683  49.747  1.00  0.00     0.016 A 
ATOM      8  C   UNL     1      94.613  81.737  48.078  1.00  0.00     0.012 A 
ATOM      9  C   UNL     1      95.638  81.411  50.278  1.00  0.00     0.001 A 
ATOM     10  C   UNL     1      94.495  81.437  49.448  1.00  0.00     0.001 A 
BRANCH   3  11
ATOM     11  O   UNL     1      99.404  82.356  47.956  1.00  0.00    -0.480 OA
ATOM     12  H   UNL     1     100.055  82.958  47.466  1.00  0.00     0.297 HD
ENDBRANCH   3  11
ENDBRANCH   1   2
BRANCH   1  13
ATOM     13  C   UNL     1      95.576  81.153  44.246  1.00  0.00     0.008 C 
BRANCH  13  14
ATOM     14  C   UNL     1      96.929  80.441  44.389  1.00  0.00    -0.003 C 
ATOM     15  C   UNL     1      96.855  79.211  45.295  1.00  0.00     0.004 C 
ENDBRANCH  13  14
ENDBRANCH   1  13
TORSDOF 4
ENDMDL
MODEL 2
REMARK VINA RESULT:    -4.906      1.281      4.132
REMARK INTER + INTRA:          -5.903
REMARK INTER:                  -6.030
REMARK INTRA:                   0.128
REMARK UNBOUND:                 0.008
REMARK SMILES CCCCc1oc(O)c2ccccc12
REMARK SMILES IDX 4 1 5 2 7 3 6 4 9 5 14 6 10 7 13 8 11 9 12 10 8 11 3 13 2 14
REMARK SMILES IDX 1 15
REMARK H PARENT 8 12
REMARK Flexibility Score: inf
ROOT
ATOM      1  C   UNL     1      96.844  80.592  49.747  1.00  0.00     0.076 C 
ENDROOT
BRANCH   1   2
ATOM      2  C   UNL     1      97.354  81.219  48.486  1.00  0.00     0.116 A 
ATOM      3  C   UNL     1      98.300  82.636  47.183  1.00  0.00     0.290 A 
ATOM      4  O   UNL     1      98.027  82.355  48.443  1.00  0.00    -0.430 OA
ATOM      5  C   UNL     1      97.786  81.652  46.366  1.00  0.00     0.066 A 
ATOM      6  C   UNL     1      97.179  80.749  47.197  1.00  0.00     0.027 A 
ATOM      7  C   UNL     1      97.797  81.489  44.981  1.00  0.00     0.016 A 
ATOM      8  C   UNL     1      96.535  79.614  46.702  1.00  0.00     0.012 A 
ATOM      9  C   UNL     1      97.159  80.352  44.452  1.00  0.00     0.001 A 
ATOM     10  C   UNL     1      96.529  79.420  45.308  1.00  0.00     0.001 A 
BRANCH   3  11
ATOM     11  O   UNL     1      99.003  83.767  46.777  1.00  0.00    -0.480 OA
ATOM     12  H   UNL     1      99.119  84.562  47.393  1.00  0.00     0.297 HD
ENDBRANCH   3  11
ENDBRANCH   1   2
BRANCH   1  13
ATOM     13  C   UNL     1      95.650  81.383  50.295  1.00  0.00     0.008 C 
BRANCH  13  14
ATOM     14  C   UNL     1      94.432  81.332  49.362  1.00  0.00    -0.003 C 
ATOM     15  C   UNL     1      94.533  82.325  48.204  1.00  0.00     0.004 C 
ENDBRANCH  13  14
ENDBRANCH   1  13
TORSDOF 4
ENDMDL
MODEL 3
REMARK VINA RESULT:    -4.622      1.994      4.458
REMARK INTER + INTRA:          -5.561
REMARK INTER:                  -6.094
REMARK INTRA:                   0.534
REMARK UNBOUND:                 0.008
REMARK SMILES CCCCc1oc(O)c2ccccc12
REMARK SMILES IDX 4 1 5 2 7 3 6 4 9 5 14 6 10 7 13 8 11 9 12 10 8 11 3 13 2 14
REMARK SMILES IDX 1 15
REMARK H PARENT 8 12
REMARK Flexibility Score: inf
ROOT
ATOM      1  C   UNL     1      96.331  79.531  48.982  1.00  0.00     0.076 C 
ENDROOT
BRANCH   1   2
ATOM      2  C   UNL     1      96.718  79.997  47.612  1.00  0.00     0.116 A 
ATOM      3  C   UNL     1      96.931  80.014  45.478  1.00  0.00     0.290 A 
ATOM      4  O   UNL     1      96.423  79.350  46.498  1.00  0.00    -0.430 OA
ATOM      5  C   UNL     1      97.587  81.137  45.935  1.00  0.00     0.066 A 
ATOM      6  C   UNL     1      97.454  81.126  47.298  1.00  0.00     0.027 A 
ATOM      7  C   UNL     1      98.285  82.145  45.271  1.00  0.00     0.016 A 
ATOM      8  C   UNL     1      98.012  82.123  48.098  1.00  0.00     0.012 A 
ATOM      9  C   UNL     1      98.857  83.167  46.051  1.00  0.00     0.001 A 
ATOM     10  C   UNL     1      98.723  83.155  47.458  1.00  0.00     0.001 A 
BRANCH   3  11
ATOM     11  O   UNL     1      96.806  79.610  44.152  1.00  0.00    -0.480 OA
ATOM     12  H   UNL     1      97.592  79.223  43.644  1.00  0.00     0.297 HD
ENDBRANCH   3  11
ENDBRANCH   1   2
BRANCH   1  13
ATOM     13  C   UNL     1      96.328  80.707  49.966  1.00  0.00     0.008 C 
BRANCH  13  14
ATOM     14  C   UNL     1      94.944  81.359  50.101  1.00  0.00    -0.003 C 
ATOM     15  C   UNL     1      94.320  81.706  48.749  1.00  0.00     0.004 C 
ENDBRANCH  13  14
ENDBRANCH   1  13
TORSDOF 4
ENDMDL
MODEL 4
REMARK VINA RESULT:    -4.345      1.412      1.989
REMARK INTER + INTRA:          -5.226
REMARK INTER:                  -5.320
REMARK INTRA:                   0.094
REMARK UNBOUND:                 0.008
REMARK SMILES CCCCc1oc(O)c2ccccc12
REMARK SMILES IDX 4 1 5 2 7 3 6 4 9 5 14 6 10 7 13 8 11 9 12 10 8 11 3 13 2 14
REMARK SMILES IDX 1 15
REMARK H PARENT 8 12
REMARK Flexibility Score: inf
ROOT
ATOM      1  C   UNL     1      97.020  80.351  44.600  1.00  0.00     0.076 C 
ENDROOT
BRANCH   1   2
ATOM      2  C   UNL     1      97.368  81.074  45.865  1.00  0.00     0.116 A 
ATOM      3  C   UNL     1      98.230  82.538  47.174  1.00  0.00     0.290 A 
ATOM      4  O   UNL     1      98.088  82.180  45.912  1.00  0.00    -0.430 OA
ATOM      5  C   UNL     1      97.584  81.632  47.989  1.00  0.00     0.066 A 
ATOM      6  C   UNL     1      97.036  80.695  47.154  1.00  0.00     0.027 A 
ATOM      7  C   UNL     1      97.446  81.556  49.374  1.00  0.00     0.016 A 
ATOM      8  C   UNL     1      96.310  79.610  47.645  1.00  0.00     0.012 A 
ATOM      9  C   UNL     1      96.716  80.474  49.899  1.00  0.00     0.001 A 
ATOM     10  C   UNL     1      96.152  79.505  49.039  1.00  0.00     0.001 A 
BRANCH   3  11
ATOM     11  O   UNL     1      98.935  83.665  47.585  1.00  0.00    -0.480 OA
ATOM     12  H   UNL     1      98.774  84.569  47.159  1.00  0.00     0.297 HD
ENDBRANCH   3  11
ENDBRANCH   1   2
BRANCH   1  13
ATOM     13  C   UNL     1      95.585  80.683  44.172  1.00  0.00     0.008 C 
BRANCH  13  14
ATOM     14  C   UNL     1      95.283  82.187  44.239  1.00  0.00    -0.003 C 
ATOM     15  C   UNL     1      94.741  82.619  45.602  1.00  0.00     0.004 C 
ENDBRANCH  13  14
ENDBRANCH   1  13
TORSDOF 4
ENDMDL
MODEL 5
REMARK VINA RESULT:    -4.255      2.097      4.079
REMARK INTER + INTRA:          -5.118
REMARK INTER:                  -4.916
REMARK INTRA:                  -0.202
REMARK UNBOUND:                 0.008
REMARK SMILES CCCCc1oc(O)c2ccccc12
REMARK SMILES IDX 4 1 5 2 7 3 6 4 9 5 14 6 10 7 13 8 11 9 12 10 8 11 3 13 2 14
REMARK SMILES IDX 1 15
REMARK H PARENT 8 12
REMARK Flexibility Score: inf
ROOT
ATOM      1  C   UNL     1      94.948  81.841  49.298  1.00  0.00     0.076 C 
ENDROOT
BRANCH   1   2
ATOM      2  C   UNL     1      95.484  82.115  47.927  1.00  0.00     0.116 A 
ATOM      3  C   UNL     1      95.522  82.417  45.804  1.00  0.00     0.290 A 
ATOM      4  O   UNL     1      94.737  82.192  46.840  1.00  0.00    -0.430 OA
ATOM      5  C   UNL     1      96.835  82.486  46.221  1.00  0.00     0.066 A 
ATOM      6  C   UNL     1      96.812  82.290  47.576  1.00  0.00     0.027 A 
ATOM      7  C   UNL     1      98.025  82.693  45.526  1.00  0.00     0.016 A 
ATOM      8  C   UNL     1      97.981  82.286  48.337  1.00  0.00     0.012 A 
ATOM      9  C   UNL     1      99.221  82.697  46.267  1.00  0.00     0.001 A 
ATOM     10  C   UNL     1      99.200  82.493  47.665  1.00  0.00     0.001 A 
BRANCH   3  11
ATOM     11  O   UNL     1      95.060  82.555  44.498  1.00  0.00    -0.480 OA
ATOM     12  H   UNL     1      95.698  82.549  43.712  1.00  0.00     0.297 HD
ENDBRANCH   3  11
ENDBRANCH   1   2
BRANCH   1  13
ATOM     13  C   UNL     1      95.633  80.610  49.905  1.00  0.00     0.008 C 
BRANCH  13  14
ATOM     14  C   UNL     1      95.576  79.387  48.978  1.00  0.00    -0.003 C 
ATOM     15  C   UNL     1      96.964  78.903  48.556  1.00  0.00     0.004 C 
ENDBRANCH  13  14
ENDBRANCH   1  13
TORSDOF 4
ENDMDL
MODEL 6
REMARK VINA RESULT:    -4.171     18.027     19.507
REMARK INTER + INTRA:          -5.017
REMARK INTER:                  -4.551
REMARK INTRA:                  -0.466
REMARK UNBOUND:                 0.008
REMARK SMILES CCCCc1oc(O)c2ccccc12
REMARK SMILES IDX 4 1 5 2 7 3 6 4 9 5 14 6 10 7 13 8 11 9 12 10 8 11 3 13 2 14
REMARK SMILES IDX 1 15
REMARK H PARENT 8 12
REMARK Flexibility Score: inf
ROOT
ATOM      1  C   UNL     1      83.616  97.710  42.174  1.00  0.00     0.076 C 
ENDROOT
BRANCH   1   2
ATOM      2  C   UNL     1      85.098  97.525  42.292  1.00  0.00     0.116 A 
ATOM      3  C   UNL     1      87.196  97.945  42.143  1.00  0.00     0.290 A 
ATOM      4  O   UNL     1      85.988  98.434  41.935  1.00  0.00    -0.430 OA
ATOM      5  C   UNL     1      87.098  96.667  42.652  1.00  0.00     0.066 A 
ATOM      6  C   UNL     1      85.759  96.397  42.744  1.00  0.00     0.027 A 
ATOM      7  C   UNL     1      88.065  95.735  43.025  1.00  0.00     0.016 A 
ATOM      8  C   UNL     1      85.288  95.171  43.216  1.00  0.00     0.012 A 
ATOM      9  C   UNL     1      87.621  94.490  43.508  1.00  0.00     0.001 A 
ATOM     10  C   UNL     1      86.239  94.209  43.602  1.00  0.00     0.001 A 
BRANCH   3  11
ATOM     11  O   UNL     1      88.370  98.642  41.876  1.00  0.00    -0.480 OA
ATOM     12  H   UNL     1      88.351  99.551  41.430  1.00  0.00     0.297 HD
ENDBRANCH   3  11
ENDBRANCH   1   2
BRANCH   1  13
ATOM     13  C   UNL     1      83.093  98.584  43.320  1.00  0.00     0.008 C 
BRANCH  13  14
ATOM     14  C   UNL     1      82.504  97.756  44.472  1.00  0.00    -0.003 C 
ATOM     15  C   UNL     1      83.257  97.957  45.787  1.00  0.00     0.004 C 
ENDBRANCH  13  14
ENDBRANCH   1  13
TORSDOF 4
ENDMDL
MODEL 7
REMARK VINA RESULT:    -4.112     17.988     19.578
REMARK INTER + INTRA:          -4.946
REMARK INTER:                  -4.591
REMARK INTRA:                  -0.355
REMARK UNBOUND:                 0.008
REMARK SMILES CCCCc1oc(O)c2ccccc12
REMARK SMILES IDX 4 1 5 2 7 3 6 4 9 5 14 6 10 7 13 8 11 9 12 10 8 11 3 13 2 14
REMARK SMILES IDX 1 15
REMARK H PARENT 8 12
REMARK Flexibility Score: inf
ROOT
ATOM      1  C   UNL     1      83.541  97.587  42.503  1.00  0.00     0.076 C 
ENDROOT
BRANCH   1   2
ATOM      2  C   UNL     1      84.761  96.753  42.748  1.00  0.00     0.116 A 
ATOM      3  C   UNL     1      85.974  95.091  43.353  1.00  0.00     0.290 A 
ATOM      4  O   UNL     1      84.734  95.527  43.238  1.00  0.00    -0.430 OA
ATOM      5  C   UNL     1      86.850  96.067  42.927  1.00  0.00     0.066 A 
ATOM      6  C   UNL     1      86.076  97.130  42.544  1.00  0.00     0.027 A 
ATOM      7  C   UNL     1      88.242  96.104  42.856  1.00  0.00     0.016 A 
ATOM      8  C   UNL     1      86.640  98.312  42.063  1.00  0.00     0.012 A 
ATOM      9  C   UNL     1      88.840  97.282  42.372  1.00  0.00     0.001 A 
ATOM     10  C   UNL     1      88.043  98.381  41.979  1.00  0.00     0.001 A 
BRANCH   3  11
ATOM     11  O   UNL     1      86.309  93.830  43.837  1.00  0.00    -0.480 OA
ATOM     12  H   UNL     1      85.934  93.487  44.713  1.00  0.00     0.297 HD
ENDBRANCH   3  11
ENDBRANCH   1   2
BRANCH   1  13
ATOM     13  C   UNL     1      83.251  98.481  43.716  1.00  0.00     0.008 C 
BRANCH  13  14
ATOM     14  C   UNL     1      82.508  97.735  44.833  1.00  0.00    -0.003 C 
ATOM     15  C   UNL     1      83.075  98.036  46.221  1.00  0.00     0.004 C 
ENDBRANCH  13  14
ENDBRANCH   1  13
TORSDOF 4
ENDMDL
MODEL 8
REMARK VINA RESULT:    -3.673     17.993     19.398
REMARK INTER + INTRA:          -4.417
REMARK INTER:                  -4.347
REMARK INTRA:                  -0.070
REMARK UNBOUND:                 0.008
REMARK SMILES CCCCc1oc(O)c2ccccc12
REMARK SMILES IDX 4 1 5 2 7 3 6 4 9 5 14 6 10 7 13 8 11 9 12 10 8 11 3 13 2 14
REMARK SMILES IDX 1 15
REMARK H PARENT 8 12
REMARK Flexibility Score: inf
ROOT
ATOM      1  C   UNL     1      85.720  94.478  41.884  1.00  0.00     0.076 C 
ENDROOT
BRANCH   1   2
ATOM      2  C   UNL     1      85.328  95.850  42.339  1.00  0.00     0.116 A 
ATOM      3  C   UNL     1      85.514  97.896  42.955  1.00  0.00     0.290 A 
ATOM      4  O   UNL     1      86.182  96.839  42.533  1.00  0.00    -0.430 OA
ATOM      5  C   UNL     1      84.172  97.592  43.046  1.00  0.00     0.066 A 
ATOM      6  C   UNL     1      84.053  96.285  42.655  1.00  0.00     0.027 A 
ATOM      7  C   UNL     1      83.069  98.348  43.441  1.00  0.00     0.016 A 
ATOM      8  C   UNL     1      82.818  95.636  42.634  1.00  0.00     0.012 A 
ATOM      9  C   UNL     1      81.810  97.721  43.428  1.00  0.00     0.001 A 
ATOM     10  C   UNL     1      81.685  96.371  43.027  1.00  0.00     0.001 A 
BRANCH   3  11
ATOM     11  O   UNL     1      86.109  99.118  43.257  1.00  0.00    -0.480 OA
ATOM     12  H   UNL     1      87.083  99.295  43.041  1.00  0.00     0.297 HD
ENDBRANCH   3  11
ENDBRANCH   1   2
BRANCH   1  13
ATOM     13  C   UNL     1      87.224  94.257  42.087  1.00  0.00     0.008 C 
BRANCH  13  14
ATOM     14  C   UNL     1      87.632  94.308  43.567  1.00  0.00    -0.003 C 
ATOM     15  C   UNL     1      86.695  93.501  44.466  1.00  0.00     0.004 C 
ENDBRANCH  13  14
ENDBRANCH   1  13
TORSDOF 4
ENDMDL
