MODEL 1
REMARK VINA RESULT:    -3.047      0.000      0.000
REMARK INTER + INTRA:          -4.844
REMARK INTER:                  -4.293
REMARK INTRA:                  -0.551
REMARK UNBOUND:                -0.551
REMARK SMILES CCCCCCCCC=O
REMARK SMILES IDX 5 1 4 2 3 3 2 4 1 5 6 6 7 7 8 8 9 9 10 10
REMARK H PARENT
REMARK Flexibility Score: inf
ROOT
ATOM      1  C   UNL     1       7.997   3.524   5.655  1.00  0.00     0.000 C 
ENDROOT
BRANCH   1   2
ATOM      2  C   UNL     1       8.152   2.187   4.909  1.00  0.00    -0.000 C 
BRANCH   2   3
ATOM      3  C   UNL     1       7.888   0.972   5.814  1.00  0.00    -0.000 C 
BRANCH   3   4
ATOM      4  C   UNL     1       6.927   1.291   6.969  1.00  0.00    -0.003 C 
ATOM      5  C   UNL     1       7.565   0.975   8.318  1.00  0.00     0.004 C 
ENDBRANCH   3   4
ENDBRANCH   2   3
ENDBRANCH   1   2
BRANCH   1   6
ATOM      6  C   UNL     1       7.032   4.487   4.946  1.00  0.00     0.000 C 
BRANCH   6   7
ATOM      7  C   UNL     1       5.652   4.553   5.625  1.00  0.00     0.008 C 
BRANCH   7   8
ATOM      8  C   UNL     1       5.763   4.857   7.126  1.00  0.00     0.072 C 
BRANCH   8   9
ATOM      9  C   UNL     1       5.457   6.292   7.436  1.00  0.00     0.224 C 
ATOM     10  O   UNL     1       4.359   6.762   7.179  1.00  0.00    -0.303 OA
ENDBRANCH   8   9
ENDBRANCH   7   8
ENDBRANCH   6   7
ENDBRANCH   1   6
TORSDOF 7
ENDMDL
MODEL 2
REMARK VINA RESULT:    -2.925     13.315     14.626
REMARK INTER + INTRA:          -4.673
REMARK INTER:                  -4.206
REMARK INTRA:                  -0.467
REMARK UNBOUND:                -0.551
REMARK SMILES CCCCCCCCC=O
REMARK SMILES IDX 5 1 4 2 3 3 2 4 1 5 6 6 7 7 8 8 9 9 10 10
REMARK H PARENT
REMARK Flexibility Score: inf
ROOT
ATOM      1  C   UNL     1       4.659  -6.011  -5.665  1.00  0.00     0.000 C 
ENDROOT
BRANCH   1   2
ATOM      2  C   UNL     1       5.808  -5.028  -5.382  1.00  0.00    -0.000 C 
BRANCH   2   3
ATOM      3  C   UNL     1       5.963  -4.716  -3.885  1.00  0.00    -0.000 C 
BRANCH   3   4
ATOM      4  C   UNL     1       6.510  -3.304  -3.627  1.00  0.00    -0.003 C 
ATOM      5  C   UNL     1       5.565  -2.240  -4.180  1.00  0.00     0.004 C 
ENDBRANCH   3   4
ENDBRANCH   2   3
ENDBRANCH   1   2
BRANCH   1   6
ATOM      6  C   UNL     1       3.649  -5.463  -6.686  1.00  0.00     0.000 C 
BRANCH   6   7
ATOM      7  C   UNL     1       3.878  -3.975  -7.007  1.00  0.00     0.008 C 
BRANCH   7   8
ATOM      8  C   UNL     1       2.565  -3.247  -7.328  1.00  0.00     0.072 C 
BRANCH   8   9
ATOM      9  C   UNL     1       2.616  -1.796  -6.949  1.00  0.00     0.224 C 
ATOM     10  O   UNL     1       1.585  -1.168  -6.761  1.00  0.00    -0.303 OA
ENDBRANCH   8   9
ENDBRANCH   7   8
ENDBRANCH   6   7
ENDBRANCH   1   6
TORSDOF 7
ENDMDL
MODEL 3
REMARK VINA RESULT:    -2.902     13.956     15.112
REMARK INTER + INTRA:          -4.641
REMARK INTER:                  -4.066
REMARK INTRA:                  -0.574
REMARK UNBOUND:                -0.551
REMARK SMILES CCCCCCCCC=O
REMARK SMILES IDX 5 1 4 2 3 3 2 4 1 5 6 6 7 7 8 8 9 9 10 10
REMARK H PARENT
REMARK Flexibility Score: inf
ROOT
ATOM      1  C   UNL     1       3.327  -5.605  -7.064  1.00  0.00     0.000 C 
ENDROOT
BRANCH   1   2
ATOM      2  C   UNL     1       4.773  -5.368  -6.597  1.00  0.00    -0.000 C 
BRANCH   2   3
ATOM      3  C   UNL     1       5.070  -6.025  -5.239  1.00  0.00    -0.000 C 
BRANCH   3   4
ATOM      4  C   UNL     1       5.828  -5.092  -4.282  1.00  0.00    -0.003 C 
ATOM      5  C   UNL     1       5.923  -3.680  -4.853  1.00  0.00     0.004 C 
ENDBRANCH   3   4
ENDBRANCH   2   3
ENDBRANCH   1   2
BRANCH   1   6
ATOM      6  C   UNL     1       2.497  -4.312  -7.097  1.00  0.00     0.000 C 
BRANCH   6   7
ATOM      7  C   UNL     1       3.290  -3.111  -7.643  1.00  0.00     0.008 C 
BRANCH   7   8
ATOM      8  C   UNL     1       3.211  -1.896  -6.707  1.00  0.00     0.072 C 
BRANCH   8   9
ATOM      9  C   UNL     1       2.149  -0.925  -7.130  1.00  0.00     0.224 C 
ATOM     10  O   UNL     1       0.986  -1.095  -6.796  1.00  0.00    -0.303 OA
ENDBRANCH   8   9
ENDBRANCH   7   8
ENDBRANCH   6   7
ENDBRANCH   1   6
TORSDOF 7
ENDMDL
MODEL 4
REMARK VINA RESULT:    -2.885     14.986     15.885
REMARK INTER + INTRA:          -4.617
REMARK INTER:                  -4.305
REMARK INTRA:                  -0.312
REMARK UNBOUND:                -0.551
REMARK SMILES CCCCCCCCC=O
REMARK SMILES IDX 5 1 4 2 3 3 2 4 1 5 6 6 7 7 8 8 9 9 10 10
REMARK H PARENT
REMARK Flexibility Score: inf
ROOT
ATOM      1  C   UNL     1       2.927  -5.595  -7.187  1.00  0.00     0.000 C 
ENDROOT
BRANCH   1   2
ATOM      2  C   UNL     1       4.163  -5.518  -6.274  1.00  0.00    -0.000 C 
BRANCH   2   3
ATOM      3  C   UNL     1       4.420  -6.830  -5.516  1.00  0.00    -0.000 C 
BRANCH   3   4
ATOM      4  C   UNL     1       3.375  -7.911  -5.831  1.00  0.00    -0.003 C 
ATOM      5  C   UNL     1       3.648  -9.187  -5.039  1.00  0.00     0.004 C 
ENDBRANCH   3   4
ENDBRANCH   2   3
ENDBRANCH   1   2
BRANCH   1   6
ATOM      6  C   UNL     1       2.243  -4.231  -7.374  1.00  0.00     0.000 C 
BRANCH   6   7
ATOM      7  C   UNL     1       3.234  -3.118  -7.761  1.00  0.00     0.008 C 
BRANCH   7   8
ATOM      8  C   UNL     1       3.091  -1.882  -6.861  1.00  0.00     0.072 C 
BRANCH   8   9
ATOM      9  C   UNL     1       2.013  -0.956  -7.340  1.00  0.00     0.224 C 
ATOM     10  O   UNL     1       0.943  -0.895  -6.753  1.00  0.00    -0.303 OA
ENDBRANCH   8   9
ENDBRANCH   7   8
ENDBRANCH   6   7
ENDBRANCH   1   6
TORSDOF 7
ENDMDL
MODEL 5
REMARK VINA RESULT:    -2.848     13.694     15.124
REMARK INTER + INTRA:          -4.565
REMARK INTER:                  -4.232
REMARK INTRA:                  -0.333
REMARK UNBOUND:                -0.551
REMARK SMILES CCCCCCCCC=O
REMARK SMILES IDX 5 1 4 2 3 3 2 4 1 5 6 6 7 7 8 8 9 9 10 10
REMARK H PARENT
REMARK Flexibility Score: inf
ROOT
ATOM      1  C   UNL     1       4.933  -5.250  -5.890  1.00  0.00     0.000 C 
ENDROOT
BRANCH   1   2
ATOM      2  C   UNL     1       3.680  -5.922  -6.478  1.00  0.00    -0.000 C 
BRANCH   2   3
ATOM      3  C   UNL     1       3.492  -7.363  -5.976  1.00  0.00    -0.000 C 
BRANCH   3   4
ATOM      4  C   UNL     1       2.315  -8.079  -6.656  1.00  0.00    -0.003 C 
ATOM      5  C   UNL     1       1.465  -7.097  -7.458  1.00  0.00     0.004 C 
ENDBRANCH   3   4
ENDBRANCH   2   3
ENDBRANCH   1   2
BRANCH   1   6
ATOM      6  C   UNL     1       5.594  -6.094  -4.789  1.00  0.00     0.000 C 
BRANCH   6   7
ATOM      7  C   UNL     1       6.176  -5.235  -3.651  1.00  0.00     0.008 C 
BRANCH   7   8
ATOM      8  C   UNL     1       5.940  -3.736  -3.883  1.00  0.00     0.072 C 
BRANCH   8   9
ATOM      9  C   UNL     1       7.147  -2.914  -3.539  1.00  0.00     0.224 C 
ATOM     10  O   UNL     1       7.237  -2.370  -2.449  1.00  0.00    -0.303 OA
ENDBRANCH   8   9
ENDBRANCH   7   8
ENDBRANCH   6   7
ENDBRANCH   1   6
TORSDOF 7
ENDMDL
MODEL 6
REMARK VINA RESULT:    -2.839     15.193     16.373
REMARK INTER + INTRA:          -4.552
REMARK INTER:                  -3.929
REMARK INTRA:                  -0.623
REMARK UNBOUND:                -0.551
REMARK SMILES CCCCCCCCC=O
REMARK SMILES IDX 5 1 4 2 3 3 2 4 1 5 6 6 7 7 8 8 9 9 10 10
REMARK H PARENT
REMARK Flexibility Score: inf
ROOT
ATOM      1  C   UNL     1       1.661  -6.878  -7.341  1.00  0.00     0.000 C 
ENDROOT
BRANCH   1   2
ATOM      2  C   UNL     1       2.859  -7.789  -7.020  1.00  0.00    -0.000 C 
BRANCH   2   3
ATOM      3  C   UNL     1       3.600  -7.362  -5.743  1.00  0.00    -0.000 C 
BRANCH   3   4
ATOM      4  C   UNL     1       4.964  -6.719  -6.035  1.00  0.00    -0.003 C 
ATOM      5  C   UNL     1       5.187  -5.485  -5.165  1.00  0.00     0.004 C 
ENDBRANCH   3   4
ENDBRANCH   2   3
ENDBRANCH   1   2
BRANCH   1   6
ATOM      6  C   UNL     1       2.065  -5.629  -8.139  1.00  0.00     0.000 C 
BRANCH   6   7
ATOM      7  C   UNL     1       1.986  -4.338  -7.303  1.00  0.00     0.008 C 
BRANCH   7   8
ATOM      8  C   UNL     1       3.186  -3.414  -7.555  1.00  0.00     0.072 C 
BRANCH   8   9
ATOM      9  C   UNL     1       2.913  -2.004  -7.124  1.00  0.00     0.224 C 
ATOM     10  O   UNL     1       1.815  -1.689  -6.690  1.00  0.00    -0.303 OA
ENDBRANCH   8   9
ENDBRANCH   7   8
ENDBRANCH   6   7
ENDBRANCH   1   6
TORSDOF 7
ENDMDL
MODEL 7
REMARK VINA RESULT:    -2.826     13.833     15.236
REMARK INTER + INTRA:          -4.533
REMARK INTER:                  -4.133
REMARK INTRA:                  -0.400
REMARK UNBOUND:                -0.551
REMARK SMILES CCCCCCCCC=O
REMARK SMILES IDX 5 1 4 2 3 3 2 4 1 5 6 6 7 7 8 8 9 9 10 10
REMARK H PARENT
REMARK Flexibility Score: inf
ROOT
ATOM      1  C   UNL     1       5.092  -6.178  -5.680  1.00  0.00     0.000 C 
ENDROOT
BRANCH   1   2
ATOM      2  C   UNL     1       5.685  -6.447  -4.286  1.00  0.00    -0.000 C 
BRANCH   2   3
ATOM      3  C   UNL     1       6.227  -5.173  -3.619  1.00  0.00    -0.000 C 
BRANCH   3   4
ATOM      4  C   UNL     1       5.830  -3.895  -4.372  1.00  0.00    -0.003 C 
ATOM      5  C   UNL     1       6.193  -2.649  -3.569  1.00  0.00     0.004 C 
ENDBRANCH   3   4
ENDBRANCH   2   3
ENDBRANCH   1   2
BRANCH   1   6
ATOM      6  C   UNL     1       3.838  -7.020  -5.962  1.00  0.00     0.000 C 
BRANCH   6   7
ATOM      7  C   UNL     1       2.824  -6.294  -6.865  1.00  0.00     0.008 C 
BRANCH   7   8
ATOM      8  C   UNL     1       3.130  -4.794  -6.983  1.00  0.00     0.072 C 
BRANCH   8   9
ATOM      9  C   UNL     1       1.930  -4.004  -7.415  1.00  0.00     0.224 C 
ATOM     10  O   UNL     1       1.779  -2.851  -7.041  1.00  0.00    -0.303 OA
ENDBRANCH   8   9
ENDBRANCH   7   8
ENDBRANCH   6   7
ENDBRANCH   1   6
TORSDOF 7
ENDMDL
MODEL 8
REMARK VINA RESULT:    -2.800     14.917     16.123
REMARK INTER + INTRA:          -4.496
REMARK INTER:                  -4.191
REMARK INTRA:                  -0.305
REMARK UNBOUND:                -0.551
REMARK SMILES CCCCCCCCC=O
REMARK SMILES IDX 5 1 4 2 3 3 2 4 1 5 6 6 7 7 8 8 9 9 10 10
REMARK H PARENT
REMARK Flexibility Score: inf
ROOT
ATOM      1  C   UNL     1       4.864  -5.997  -5.489  1.00  0.00     0.000 C 
ENDROOT
BRANCH   1   2
ATOM      2  C   UNL     1       3.776  -6.630  -6.373  1.00  0.00    -0.000 C 
BRANCH   2   3
ATOM      3  C   UNL     1       3.340  -8.016  -5.870  1.00  0.00    -0.000 C 
BRANCH   3   4
ATOM      4  C   UNL     1       2.040  -8.503  -6.528  1.00  0.00    -0.003 C 
ATOM      5  C   UNL     1       1.471  -7.445  -7.469  1.00  0.00     0.004 C 
ENDBRANCH   3   4
ENDBRANCH   2   3
ENDBRANCH   1   2
BRANCH   1   6
ATOM      6  C   UNL     1       5.106  -4.515  -5.820  1.00  0.00     0.000 C 
BRANCH   6   7
ATOM      7  C   UNL     1       4.092  -3.961  -6.837  1.00  0.00     0.008 C 
BRANCH   7   8
ATOM      8  C   UNL     1       4.204  -2.437  -6.989  1.00  0.00     0.072 C 
BRANCH   8   9
ATOM      9  C   UNL     1       2.866  -1.763  -6.917  1.00  0.00     0.224 C 
ATOM     10  O   UNL     1       1.837  -2.421  -6.942  1.00  0.00    -0.303 OA
ENDBRANCH   8   9
ENDBRANCH   7   8
ENDBRANCH   6   7
ENDBRANCH   1   6
TORSDOF 7
ENDMDL
MODEL 9
REMARK VINA RESULT:    -2.745     13.175     14.686
REMARK INTER + INTRA:          -4.418
REMARK INTER:                  -3.902
REMARK INTRA:                  -0.517
REMARK UNBOUND:                -0.551
REMARK SMILES CCCCCCCCC=O
REMARK SMILES IDX 5 1 4 2 3 3 2 4 1 5 6 6 7 7 8 8 9 9 10 10
REMARK H PARENT
REMARK Flexibility Score: inf
ROOT
ATOM      1  C   UNL     1       4.697  -4.899  -6.507  1.00  0.00     0.000 C 
ENDROOT
BRANCH   1   2
ATOM      2  C   UNL     1       3.244  -5.220  -6.894  1.00  0.00    -0.000 C 
BRANCH   2   3
ATOM      3  C   UNL     1       2.450  -3.967  -7.298  1.00  0.00    -0.000 C 
BRANCH   3   4
ATOM      4  C   UNL     1       3.351  -2.747  -7.540  1.00  0.00    -0.003 C 
ATOM      5  C   UNL     1       2.853  -1.533  -6.761  1.00  0.00     0.004 C 
ENDBRANCH   3   4
ENDBRANCH   2   3
ENDBRANCH   1   2
BRANCH   1   6
ATOM      6  C   UNL     1       5.131  -5.597  -5.208  1.00  0.00     0.000 C 
BRANCH   6   7
ATOM      7  C   UNL     1       5.986  -4.692  -4.303  1.00  0.00     0.008 C 
BRANCH   7   8
ATOM      8  C   UNL     1       5.925  -3.221  -4.738  1.00  0.00     0.072 C 
BRANCH   8   9
ATOM      9  C   UNL     1       6.241  -2.285  -3.609  1.00  0.00     0.224 C 
ATOM     10  O   UNL     1       6.968  -2.640  -2.694  1.00  0.00    -0.303 OA
ENDBRANCH   8   9
ENDBRANCH   7   8
ENDBRANCH   6   7
ENDBRANCH   1   6
TORSDOF 7
ENDMDL
