MODEL 1
REMARK VINA RESULT:    -2.900      0.000      0.000
REMARK INTER + INTRA:          -3.400
REMARK INTER:                  -3.154
REMARK INTRA:                  -0.246
REMARK UNBOUND:                -0.246
REMARK SMILES O=C([O-])c1ccccc1O
REMARK SMILES IDX 4 1 9 2 5 3 8 4 6 5 7 6 2 7 1 8 3 9 10 10
REMARK H PARENT 10 11
REMARK Flexibility Score: inf
ROOT
ATOM      1  C   UNL     1     121.768 124.054 123.044  1.00  0.00     0.039 A 
ATOM      2  C   UNL     1     122.731 124.048 122.003  1.00  0.00     0.124 A 
ATOM      3  C   UNL     1     121.253 122.825 123.500  1.00  0.00     0.014 A 
ATOM      4  C   UNL     1     123.104 122.836 121.409  1.00  0.00     0.047 A 
ATOM      5  C   UNL     1     121.650 121.623 122.910  1.00  0.00     0.001 A 
ATOM      6  C   UNL     1     122.566 121.630 121.860  1.00  0.00     0.004 A 
ENDROOT
BRANCH   1   7
ATOM      7  C   UNL     1     121.254 125.304 123.645  1.00  0.00     0.075 C 
ATOM      8  O   UNL     1     120.875 126.251 122.907  1.00  0.00    -0.545 OA
ATOM      9  O   UNL     1     121.247 125.481 125.024  1.00  0.00    -0.545 OA
ENDBRANCH   1   7
BRANCH   2  10
ATOM     10  O   UNL     1     123.364 125.211 121.560  1.00  0.00    -0.507 OA
ATOM     11  H   UNL     1     123.090 125.711 120.725  1.00  0.00     0.293 HD
ENDBRANCH   2  10
TORSDOF 2
ENDMDL
MODEL 2
REMARK VINA RESULT:    -2.821      2.458      4.121
REMARK INTER + INTRA:          -3.315
REMARK INTER:                  -3.064
REMARK INTRA:                  -0.250
REMARK UNBOUND:                -0.246
REMARK SMILES O=C([O-])c1ccccc1O
REMARK SMILES IDX 4 1 9 2 5 3 8 4 6 5 7 6 2 7 1 8 3 9 10 10
REMARK H PARENT 10 11
REMARK Flexibility Score: inf
ROOT
ATOM      1  C   UNL     1     122.637 123.113 122.126  1.00  0.00     0.039 A 
ATOM      2  C   UNL     1     121.717 122.659 123.106  1.00  0.00     0.124 A 
ATOM      3  C   UNL     1     122.725 124.493 121.864  1.00  0.00     0.014 A 
ATOM      4  C   UNL     1     120.875 123.578 123.745  1.00  0.00     0.047 A 
ATOM      5  C   UNL     1     121.892 125.399 122.525  1.00  0.00     0.001 A 
ATOM      6  C   UNL     1     120.962 124.941 123.457  1.00  0.00     0.004 A 
ENDROOT
BRANCH   1   7
ATOM      7  C   UNL     1     123.482 122.187 121.340  1.00  0.00     0.075 C 
ATOM      8  O   UNL     1     123.001 121.107 120.906  1.00  0.00    -0.545 OA
ATOM      9  O   UNL     1     124.828 122.458 121.129  1.00  0.00    -0.545 OA
ENDBRANCH   1   7
BRANCH   2  10
ATOM     10  O   UNL     1     121.635 121.321 123.496  1.00  0.00    -0.507 OA
ATOM     11  H   UNL     1     121.766 121.010 124.449  1.00  0.00     0.293 HD
ENDBRANCH   2  10
TORSDOF 2
ENDMDL
MODEL 3
REMARK VINA RESULT:    -2.813      8.390      9.480
REMARK INTER + INTRA:          -3.305
REMARK INTER:                  -3.054
REMARK INTRA:                  -0.251
REMARK UNBOUND:                -0.246
REMARK SMILES O=C([O-])c1ccccc1O
REMARK SMILES IDX 4 1 9 2 5 3 8 4 6 5 7 6 2 7 1 8 3 9 10 10
REMARK H PARENT 10 11
REMARK Flexibility Score: inf
ROOT
ATOM      1  C   UNL     1     121.568 125.026 131.955  1.00  0.00     0.039 A 
ATOM      2  C   UNL     1     122.407 123.962 131.535  1.00  0.00     0.124 A 
ATOM      3  C   UNL     1     121.119 125.052 133.289  1.00  0.00     0.014 A 
ATOM      4  C   UNL     1     122.720 122.931 132.430  1.00  0.00     0.047 A 
ATOM      5  C   UNL     1     121.457 124.026 134.175  1.00  0.00     0.001 A 
ATOM      6  C   UNL     1     122.248 122.963 133.743  1.00  0.00     0.004 A 
ENDROOT
BRANCH   1   7
ATOM      7  C   UNL     1     121.115 126.091 131.034  1.00  0.00     0.075 C 
ATOM      8  O   UNL     1     120.878 127.248 131.472  1.00  0.00    -0.545 OA
ATOM      9  O   UNL     1     120.878 125.818 129.692  1.00  0.00    -0.545 OA
ENDBRANCH   1   7
BRANCH   2  10
ATOM     10  O   UNL     1     122.975 123.912 130.260  1.00  0.00    -0.507 OA
ATOM     11  H   UNL     1     122.610 124.422 129.468  1.00  0.00     0.293 HD
ENDBRANCH   2  10
TORSDOF 2
ENDMDL
MODEL 4
REMARK VINA RESULT:    -2.804     16.349     16.953
REMARK INTER + INTRA:          -3.296
REMARK INTER:                  -3.055
REMARK INTRA:                  -0.242
REMARK UNBOUND:                -0.246
REMARK SMILES O=C([O-])c1ccccc1O
REMARK SMILES IDX 4 1 9 2 5 3 8 4 6 5 7 6 2 7 1 8 3 9 10 10
REMARK H PARENT 10 11
REMARK Flexibility Score: inf
ROOT
ATOM      1  C   UNL     1     121.917 123.799 139.785  1.00  0.00     0.039 A 
ATOM      2  C   UNL     1     123.184 123.435 139.263  1.00  0.00     0.124 A 
ATOM      3  C   UNL     1     121.186 122.847 140.522  1.00  0.00     0.014 A 
ATOM      4  C   UNL     1     123.655 122.127 139.433  1.00  0.00     0.047 A 
ATOM      5  C   UNL     1     121.679 121.553 140.701  1.00  0.00     0.001 A 
ATOM      6  C   UNL     1     122.907 121.190 140.149  1.00  0.00     0.004 A 
ENDROOT
BRANCH   1   7
ATOM      7  C   UNL     1     121.314 125.130 139.553  1.00  0.00     0.075 C 
ATOM      8  O   UNL     1     121.249 125.600 138.387  1.00  0.00    -0.545 OA
ATOM      9  O   UNL     1     120.878 125.909 140.618  1.00  0.00    -0.545 OA
ENDBRANCH   1   7
BRANCH   2  10
ATOM     10  O   UNL     1     124.015 124.344 138.606  1.00  0.00    -0.507 OA
ATOM     11  H   UNL     1     124.117 124.380 137.601  1.00  0.00     0.293 HD
ENDBRANCH   2  10
TORSDOF 2
ENDMDL
MODEL 5
REMARK VINA RESULT:    -2.780      2.165      3.530
REMARK INTER + INTRA:          -3.270
REMARK INTER:                  -3.023
REMARK INTRA:                  -0.247
REMARK UNBOUND:                -0.246
REMARK SMILES O=C([O-])c1ccccc1O
REMARK SMILES IDX 4 1 9 2 5 3 8 4 6 5 7 6 2 7 1 8 3 9 10 10
REMARK H PARENT 10 11
REMARK Flexibility Score: inf
ROOT
ATOM      1  C   UNL     1     122.011 123.579 122.591  1.00  0.00     0.039 A 
ATOM      2  C   UNL     1     123.028 124.523 122.292  1.00  0.00     0.124 A 
ATOM      3  C   UNL     1     120.929 123.978 123.398  1.00  0.00     0.014 A 
ATOM      4  C   UNL     1     122.970 125.805 122.852  1.00  0.00     0.047 A 
ATOM      5  C   UNL     1     120.876 125.268 123.932  1.00  0.00     0.001 A 
ATOM      6  C   UNL     1     121.899 126.176 123.668  1.00  0.00     0.004 A 
ENDROOT
BRANCH   1   7
ATOM      7  C   UNL     1     122.064 122.178 122.118  1.00  0.00     0.075 C 
ATOM      8  O   UNL     1     121.670 121.244 122.864  1.00  0.00    -0.545 OA
ATOM      9  O   UNL     1     122.609 121.866 120.878  1.00  0.00    -0.545 OA
ENDBRANCH   1   7
BRANCH   2  10
ATOM     10  O   UNL     1     124.082 124.240 121.422  1.00  0.00    -0.507 OA
ATOM     11  H   UNL     1     124.608 123.377 121.446  1.00  0.00     0.293 HD
ENDBRANCH   2  10
TORSDOF 2
ENDMDL
MODEL 6
REMARK VINA RESULT:    -2.747      8.937     10.437
REMARK INTER + INTRA:          -3.234
REMARK INTER:                  -2.992
REMARK INTRA:                  -0.241
REMARK UNBOUND:                -0.246
REMARK SMILES O=C([O-])c1ccccc1O
REMARK SMILES IDX 4 1 9 2 5 3 8 4 6 5 7 6 2 7 1 8 3 9 10 10
REMARK H PARENT 10 11
REMARK Flexibility Score: inf
ROOT
ATOM      1  C   UNL     1     122.380 123.804 132.518  1.00  0.00     0.039 A 
ATOM      2  C   UNL     1     121.637 124.784 133.225  1.00  0.00     0.124 A 
ATOM      3  C   UNL     1     122.384 123.838 131.110  1.00  0.00     0.014 A 
ATOM      4  C   UNL     1     120.876 125.722 132.517  1.00  0.00     0.047 A 
ATOM      5  C   UNL     1     121.635 124.794 130.419  1.00  0.00     0.001 A 
ATOM      6  C   UNL     1     120.875 125.728 131.121  1.00  0.00     0.004 A 
ENDROOT
BRANCH   1   7
ATOM      7  C   UNL     1     123.122 122.722 133.202  1.00  0.00     0.075 C 
ATOM      8  O   UNL     1     122.715 122.278 134.308  1.00  0.00    -0.545 OA
ATOM      9  O   UNL     1     124.310 122.230 132.675  1.00  0.00    -0.545 OA
ENDBRANCH   1   7
BRANCH   2  10
ATOM     10  O   UNL     1     121.658 124.882 134.618  1.00  0.00    -0.507 OA
ATOM     11  H   UNL     1     121.810 125.750 135.113  1.00  0.00     0.293 HD
ENDBRANCH   2  10
TORSDOF 2
ENDMDL
MODEL 7
REMARK VINA RESULT:    -2.746     24.523     24.843
REMARK INTER + INTRA:          -3.233
REMARK INTER:                  -2.988
REMARK INTRA:                  -0.245
REMARK UNBOUND:                -0.246
REMARK SMILES O=C([O-])c1ccccc1O
REMARK SMILES IDX 4 1 9 2 5 3 8 4 6 5 7 6 2 7 1 8 3 9 10 10
REMARK H PARENT 10 11
REMARK Flexibility Score: inf
ROOT
ATOM      1  C   UNL     1     140.362 124.066 139.250  1.00  0.00     0.039 A 
ATOM      2  C   UNL     1     139.378 124.029 140.271  1.00  0.00     0.124 A 
ATOM      3  C   UNL     1     140.972 122.861 138.851  1.00  0.00     0.014 A 
ATOM      4  C   UNL     1     139.077 122.816 140.901  1.00  0.00     0.047 A 
ATOM      5  C   UNL     1     140.646 121.655 139.476  1.00  0.00     0.001 A 
ATOM      6  C   UNL     1     139.707 121.635 140.506  1.00  0.00     0.004 A 
ENDROOT
BRANCH   1   7
ATOM      7  C   UNL     1     140.802 125.327 138.615  1.00  0.00     0.075 C 
ATOM      8  O   UNL     1     140.827 126.395 139.281  1.00  0.00    -0.545 OA
ATOM      9  O   UNL     1     141.125 125.368 137.264  1.00  0.00    -0.545 OA
ENDBRANCH   1   7
BRANCH   2  10
ATOM     10  O   UNL     1     138.655 125.160 140.658  1.00  0.00    -0.507 OA
ATOM     11  H   UNL     1     138.885 126.097 140.358  1.00  0.00     0.293 HD
ENDBRANCH   2  10
TORSDOF 2
ENDMDL
MODEL 8
REMARK VINA RESULT:    -2.738      9.090     10.412
REMARK INTER + INTRA:          -3.224
REMARK INTER:                  -2.978
REMARK INTRA:                  -0.246
REMARK UNBOUND:                -0.246
REMARK SMILES O=C([O-])c1ccccc1O
REMARK SMILES IDX 4 1 9 2 5 3 8 4 6 5 7 6 2 7 1 8 3 9 10 10
REMARK H PARENT 10 11
REMARK Flexibility Score: inf
ROOT
ATOM      1  C   UNL     1     122.243 124.011 133.132  1.00  0.00     0.039 A 
ATOM      2  C   UNL     1     122.593 123.515 131.851  1.00  0.00     0.124 A 
ATOM      3  C   UNL     1     121.367 125.110 133.219  1.00  0.00     0.014 A 
ATOM      4  C   UNL     1     122.117 124.160 130.703  1.00  0.00     0.047 A 
ATOM      5  C   UNL     1     120.884 125.731 132.065  1.00  0.00     0.001 A 
ATOM      6  C   UNL     1     121.267 125.262 130.809  1.00  0.00     0.004 A 
ENDROOT
BRANCH   1   7
ATOM      7  C   UNL     1     122.792 123.442 134.383  1.00  0.00     0.075 C 
ATOM      8  O   UNL     1     123.084 124.198 135.346  1.00  0.00    -0.545 OA
ATOM      9  O   UNL     1     123.058 122.082 134.488  1.00  0.00    -0.545 OA
ENDBRANCH   1   7
BRANCH   2  10
ATOM     10  O   UNL     1     123.376 122.371 131.677  1.00  0.00    -0.507 OA
ATOM     11  H   UNL     1     123.332 121.568 132.289  1.00  0.00     0.293 HD
ENDBRANCH   2  10
TORSDOF 2
ENDMDL
