MODEL 1
REMARK VINA RESULT:    -4.417      0.000      0.000
REMARK INTER + INTRA:         -10.251
REMARK INTER:                  -8.291
REMARK INTRA:                  -1.960
REMARK UNBOUND:                -1.960
REMARK SMILES O=C([O-])CCCCCCCCCCCCCCC(=O)[O-]
REMARK SMILES IDX 10 1 9 2 8 3 7 4 6 5 5 6 4 7 2 8 1 9 3 10 11 11 12 12 13 13
REMARK SMILES IDX 14 14 15 15 16 16 17 17 18 18 19 19 20 20
REMARK H PARENT
REMARK Flexibility Score: inf
ROOT
ATOM      1  C   UNL     1      16.019  31.142  70.687  1.00  0.00     0.000 C 
ENDROOT
BRANCH   1   2
ATOM      2  C   UNL     1      15.091  30.276  69.820  1.00  0.00     0.000 C 
BRANCH   2   3
ATOM      3  C   UNL     1      13.991  31.097  69.132  1.00  0.00     0.000 C 
BRANCH   3   4
ATOM      4  C   UNL     1      14.560  32.392  68.541  1.00  0.00     0.000 C 
BRANCH   4   5
ATOM      5  C   UNL     1      14.140  32.560  67.076  1.00  0.00     0.000 C 
BRANCH   5   6
ATOM      6  C   UNL     1      14.278  34.020  66.627  1.00  0.00     0.006 C 
BRANCH   6   7
ATOM      7  C   UNL     1      14.050  34.979  67.798  1.00  0.00     0.053 C 
BRANCH   7   8
ATOM      8  C   UNL     1      14.601  36.333  67.482  1.00  0.00     0.041 C 
ATOM      9  O   UNL     1      15.833  36.561  67.609  1.00  0.00    -0.550 OA
ATOM     10  O   UNL     1      13.746  37.358  67.097  1.00  0.00    -0.550 OA
ENDBRANCH   7   8
ENDBRANCH   6   7
ENDBRANCH   5   6
ENDBRANCH   4   5
ENDBRANCH   3   4
ENDBRANCH   2   3
ENDBRANCH   1   2
BRANCH   1  11
ATOM     11  C   UNL     1      17.259  30.374  71.175  1.00  0.00     0.000 C 
BRANCH  11  12
ATOM     12  C   UNL     1      18.578  31.051  70.763  1.00  0.00     0.000 C 
BRANCH  12  13
ATOM     13  C   UNL     1      19.332  30.355  69.612  1.00  0.00     0.000 C 
BRANCH  13  14
ATOM     14  C   UNL     1      19.246  31.067  68.246  1.00  0.00     0.000 C 
BRANCH  14  15
ATOM     15  C   UNL     1      17.988  30.740  67.421  1.00  0.00     0.000 C 
BRANCH  15  16
ATOM     16  C   UNL     1      17.676  31.808  66.360  1.00  0.00     0.006 C 
BRANCH  16  17
ATOM     17  C   UNL     1      17.901  33.232  66.886  1.00  0.00     0.053 C 
BRANCH  17  18
ATOM     18  C   UNL     1      18.963  33.951  66.111  1.00  0.00     0.041 C 
ATOM     19  O   UNL     1      20.102  34.134  66.617  1.00  0.00    -0.550 OA
ATOM     20  O   UNL     1      18.687  34.444  64.842  1.00  0.00    -0.550 OA
ENDBRANCH  17  18
ENDBRANCH  16  17
ENDBRANCH  15  16
ENDBRANCH  14  15
ENDBRANCH  13  14
ENDBRANCH  12  13
ENDBRANCH  11  12
ENDBRANCH   1  11
TORSDOF 15
ENDMDL
MODEL 2
REMARK VINA RESULT:    -4.416      0.917      4.669
REMARK INTER + INTRA:         -10.248
REMARK INTER:                  -8.598
REMARK INTRA:                  -1.650
REMARK UNBOUND:                -1.960
REMARK SMILES O=C([O-])CCCCCCCCCCCCCCC(=O)[O-]
REMARK SMILES IDX 10 1 9 2 8 3 7 4 6 5 5 6 4 7 2 8 1 9 3 10 11 11 12 12 13 13
REMARK SMILES IDX 14 14 15 15 16 16 17 17 18 18 19 19 20 20
REMARK H PARENT
REMARK Flexibility Score: inf
ROOT
ATOM      1  C   UNL     1      19.079  30.842  70.438  1.00  0.00     0.000 C 
ENDROOT
BRANCH   1   2
ATOM      2  C   UNL     1      19.969  30.409  69.263  1.00  0.00     0.000 C 
BRANCH   2   3
ATOM      3  C   UNL     1      19.177  29.703  68.152  1.00  0.00     0.000 C 
BRANCH   3   4
ATOM      4  C   UNL     1      19.375  30.407  66.805  1.00  0.00     0.000 C 
BRANCH   4   5
ATOM      5  C   UNL     1      18.032  30.852  66.213  1.00  0.00     0.000 C 
BRANCH   5   6
ATOM      6  C   UNL     1      17.984  32.375  66.040  1.00  0.00     0.006 C 
BRANCH   6   7
ATOM      7  C   UNL     1      19.120  33.052  66.812  1.00  0.00     0.053 C 
BRANCH   7   8
ATOM      8  C   UNL     1      19.759  34.117  65.979  1.00  0.00     0.041 C 
ATOM      9  O   UNL     1      20.986  34.372  66.108  1.00  0.00    -0.550 OA
ATOM     10  O   UNL     1      18.990  34.863  65.096  1.00  0.00    -0.550 OA
ENDBRANCH   7   8
ENDBRANCH   6   7
ENDBRANCH   5   6
ENDBRANCH   4   5
ENDBRANCH   3   4
ENDBRANCH   2   3
ENDBRANCH   1   2
BRANCH   1  11
ATOM     11  C   UNL     1      17.871  29.910  70.640  1.00  0.00     0.000 C 
BRANCH  11  12
ATOM     12  C   UNL     1      16.692  30.609  71.340  1.00  0.00     0.000 C 
BRANCH  12  13
ATOM     13  C   UNL     1      15.483  30.907  70.431  1.00  0.00     0.000 C 
BRANCH  13  14
ATOM     14  C   UNL     1      15.816  31.641  69.117  1.00  0.00     0.000 C 
BRANCH  14  15
ATOM     15  C   UNL     1      14.611  32.286  68.408  1.00  0.00     0.000 C 
BRANCH  15  16
ATOM     16  C   UNL     1      14.988  33.553  67.623  1.00  0.00     0.006 C 
BRANCH  16  17
ATOM     17  C   UNL     1      13.935  34.660  67.766  1.00  0.00     0.053 C 
BRANCH  17  18
ATOM     18  C   UNL     1      14.518  36.019  67.527  1.00  0.00     0.041 C 
ATOM     19  O   UNL     1      13.764  37.021  67.416  1.00  0.00    -0.550 OA
ATOM     20  O   UNL     1      15.893  36.174  67.399  1.00  0.00    -0.550 OA
ENDBRANCH  17  18
ENDBRANCH  16  17
ENDBRANCH  15  16
ENDBRANCH  14  15
ENDBRANCH  13  14
ENDBRANCH  12  13
ENDBRANCH  11  12
ENDBRANCH   1  11
TORSDOF 15
ENDMDL
MODEL 3
REMARK VINA RESULT:    -4.402      1.051      4.881
REMARK INTER + INTRA:         -10.223
REMARK INTER:                  -8.141
REMARK INTRA:                  -2.083
REMARK UNBOUND:                -1.960
REMARK SMILES O=C([O-])CCCCCCCCCCCCCCC(=O)[O-]
REMARK SMILES IDX 10 1 9 2 8 3 7 4 6 5 5 6 4 7 2 8 1 9 3 10 11 11 12 12 13 13
REMARK SMILES IDX 14 14 15 15 16 16 17 17 18 18 19 19 20 20
REMARK H PARENT
REMARK Flexibility Score: inf
ROOT
ATOM      1  C   UNL     1      15.256  29.425  71.159  1.00  0.00     0.000 C 
ENDROOT
BRANCH   1   2
ATOM      2  C   UNL     1      16.714  29.548  71.628  1.00  0.00     0.000 C 
BRANCH   2   3
ATOM      3  C   UNL     1      17.353  30.884  71.223  1.00  0.00     0.000 C 
BRANCH   3   4
ATOM      4  C   UNL     1      18.771  30.672  70.681  1.00  0.00     0.000 C 
BRANCH   4   5
ATOM      5  C   UNL     1      18.755  29.796  69.422  1.00  0.00     0.000 C 
BRANCH   5   6
ATOM      6  C   UNL     1      18.470  30.636  68.170  1.00  0.00     0.006 C 
BRANCH   6   7
ATOM      7  C   UNL     1      19.279  31.935  68.185  1.00  0.00     0.053 C 
BRANCH   7   8
ATOM      8  C   UNL     1      19.246  32.590  66.840  1.00  0.00     0.041 C 
ATOM      9  O   UNL     1      19.544  31.933  65.808  1.00  0.00    -0.550 OA
ATOM     10  O   UNL     1      18.935  33.939  66.732  1.00  0.00    -0.550 OA
ENDBRANCH   7   8
ENDBRANCH   6   7
ENDBRANCH   5   6
ENDBRANCH   4   5
ENDBRANCH   3   4
ENDBRANCH   2   3
ENDBRANCH   1   2
BRANCH   1  11
ATOM     11  C   UNL     1      15.133  28.746  69.783  1.00  0.00     0.000 C 
BRANCH  11  12
ATOM     12  C   UNL     1      14.890  29.752  68.644  1.00  0.00     0.000 C 
BRANCH  12  13
ATOM     13  C   UNL     1      14.234  31.078  69.078  1.00  0.00     0.000 C 
BRANCH  13  14
ATOM     14  C   UNL     1      15.059  32.346  68.779  1.00  0.00     0.000 C 
BRANCH  14  15
ATOM     15  C   UNL     1      15.197  32.696  67.287  1.00  0.00     0.000 C 
BRANCH  15  16
ATOM     16  C   UNL     1      14.114  33.673  66.800  1.00  0.00     0.006 C 
BRANCH  16  17
ATOM     17  C   UNL     1      13.814  34.768  67.832  1.00  0.00     0.053 C 
BRANCH  17  18
ATOM     18  C   UNL     1      14.528  36.046  67.512  1.00  0.00     0.041 C 
ATOM     19  O   UNL     1      15.785  36.097  67.552  1.00  0.00    -0.550 OA
ATOM     20  O   UNL     1      13.802  37.189  67.196  1.00  0.00    -0.550 OA
ENDBRANCH  17  18
ENDBRANCH  16  17
ENDBRANCH  15  16
ENDBRANCH  14  15
ENDBRANCH  13  14
ENDBRANCH  12  13
ENDBRANCH  11  12
ENDBRANCH   1  11
TORSDOF 15
ENDMDL
MODEL 4
REMARK VINA RESULT:    -4.382      1.796      4.900
REMARK INTER + INTRA:         -10.184
REMARK INTER:                  -8.071
REMARK INTRA:                  -2.113
REMARK UNBOUND:                -1.960
REMARK SMILES O=C([O-])CCCCCCCCCCCCCCC(=O)[O-]
REMARK SMILES IDX 10 1 9 2 8 3 7 4 6 5 5 6 4 7 2 8 1 9 3 10 11 11 12 12 13 13
REMARK SMILES IDX 14 14 15 15 16 16 17 17 18 18 19 19 20 20
REMARK H PARENT
REMARK Flexibility Score: inf
ROOT
ATOM      1  C   UNL     1      17.376  30.885  71.259  1.00  0.00     0.000 C 
ENDROOT
BRANCH   1   2
ATOM      2  C   UNL     1      18.662  30.345  70.615  1.00  0.00     0.000 C 
BRANCH   2   3
ATOM      3  C   UNL     1      18.383  29.310  69.516  1.00  0.00     0.000 C 
BRANCH   3   4
ATOM      4  C   UNL     1      18.959  29.768  68.171  1.00  0.00     0.000 C 
BRANCH   4   5
ATOM      5  C   UNL     1      19.325  31.257  68.207  1.00  0.00     0.000 C 
BRANCH   5   6
ATOM      6  C   UNL     1      18.850  31.973  66.937  1.00  0.00     0.006 C 
BRANCH   6   7
ATOM      7  C   UNL     1      19.351  31.255  65.682  1.00  0.00     0.053 C 
BRANCH   7   8
ATOM      8  C   UNL     1      18.220  30.997  64.737  1.00  0.00     0.041 C 
ATOM      9  O   UNL     1      17.083  30.687  65.181  1.00  0.00    -0.550 OA
ATOM     10  O   UNL     1      18.434  31.049  63.366  1.00  0.00    -0.550 OA
ENDBRANCH   7   8
ENDBRANCH   6   7
ENDBRANCH   5   6
ENDBRANCH   4   5
ENDBRANCH   3   4
ENDBRANCH   2   3
ENDBRANCH   1   2
BRANCH   1  11
ATOM     11  C   UNL     1      16.221  29.869  71.215  1.00  0.00     0.000 C 
BRANCH  11  12
ATOM     12  C   UNL     1      14.924  30.467  70.642  1.00  0.00     0.000 C 
BRANCH  12  13
ATOM     13  C   UNL     1      14.602  30.049  69.194  1.00  0.00     0.000 C 
BRANCH  13  14
ATOM     14  C   UNL     1      15.274  30.904  68.099  1.00  0.00     0.000 C 
BRANCH  14  15
ATOM     15  C   UNL     1      15.443  32.393  68.449  1.00  0.00     0.000 C 
BRANCH  15  16
ATOM     16  C   UNL     1      15.515  33.294  67.205  1.00  0.00     0.006 C 
BRANCH  16  17
ATOM     17  C   UNL     1      14.476  34.422  67.244  1.00  0.00     0.053 C 
BRANCH  17  18
ATOM     18  C   UNL     1      15.071  35.741  66.851  1.00  0.00     0.041 C 
ATOM     19  O   UNL     1      15.730  36.413  67.687  1.00  0.00    -0.550 OA
ATOM     20  O   UNL     1      14.875  36.239  65.569  1.00  0.00    -0.550 OA
ENDBRANCH  17  18
ENDBRANCH  16  17
ENDBRANCH  15  16
ENDBRANCH  14  15
ENDBRANCH  13  14
ENDBRANCH  12  13
ENDBRANCH  11  12
ENDBRANCH   1  11
TORSDOF 15
ENDMDL
MODEL 5
REMARK VINA RESULT:    -4.319      0.972      1.384
REMARK INTER + INTRA:         -10.067
REMARK INTER:                  -8.071
REMARK INTRA:                  -1.996
REMARK UNBOUND:                -1.960
REMARK SMILES O=C([O-])CCCCCCCCCCCCCCC(=O)[O-]
REMARK SMILES IDX 10 1 9 2 8 3 7 4 6 5 5 6 4 7 2 8 1 9 3 10 11 11 12 12 13 13
REMARK SMILES IDX 14 14 15 15 16 16 17 17 18 18 19 19 20 20
REMARK H PARENT
REMARK Flexibility Score: inf
ROOT
ATOM      1  C   UNL     1      16.735  30.338  71.485  1.00  0.00     0.000 C 
ENDROOT
BRANCH   1   2
ATOM      2  C   UNL     1      15.454  30.349  70.636  1.00  0.00     0.000 C 
BRANCH   2   3
ATOM      3  C   UNL     1      15.714  29.966  69.172  1.00  0.00     0.000 C 
BRANCH   3   4
ATOM      4  C   UNL     1      14.959  30.900  68.218  1.00  0.00     0.000 C 
BRANCH   4   5
ATOM      5  C   UNL     1      15.264  32.370  68.530  1.00  0.00     0.000 C 
BRANCH   5   6
ATOM      6  C   UNL     1      14.224  33.297  67.889  1.00  0.00     0.006 C 
BRANCH   6   7
ATOM      7  C   UNL     1      14.889  34.290  66.932  1.00  0.00     0.053 C 
BRANCH   7   8
ATOM      8  C   UNL     1      14.751  35.688  67.447  1.00  0.00     0.041 C 
ATOM      9  O   UNL     1      13.618  36.137  67.766  1.00  0.00    -0.550 OA
ATOM     10  O   UNL     1      15.866  36.512  67.527  1.00  0.00    -0.550 OA
ENDBRANCH   7   8
ENDBRANCH   6   7
ENDBRANCH   5   6
ENDBRANCH   4   5
ENDBRANCH   3   4
ENDBRANCH   2   3
ENDBRANCH   1   2
BRANCH   1  11
ATOM     11  C   UNL     1      17.859  31.189  70.870  1.00  0.00     0.000 C 
BRANCH  11  12
ATOM     12  C   UNL     1      19.193  30.429  70.768  1.00  0.00     0.000 C 
BRANCH  12  13
ATOM     13  C   UNL     1      19.910  30.556  69.409  1.00  0.00     0.000 C 
BRANCH  13  14
ATOM     14  C   UNL     1      19.227  29.823  68.237  1.00  0.00     0.000 C 
BRANCH  14  15
ATOM     15  C   UNL     1      19.076  30.652  66.950  1.00  0.00     0.000 C 
BRANCH  15  16
ATOM     16  C   UNL     1      18.587  32.086  67.217  1.00  0.00     0.006 C 
BRANCH  16  17
ATOM     17  C   UNL     1      18.423  32.894  65.923  1.00  0.00     0.053 C 
BRANCH  17  18
ATOM     18  C   UNL     1      19.281  34.123  65.921  1.00  0.00     0.041 C 
ATOM     19  O   UNL     1      20.524  34.028  66.096  1.00  0.00    -0.550 OA
ATOM     20  O   UNL     1      18.703  35.375  65.752  1.00  0.00    -0.550 OA
ENDBRANCH  17  18
ENDBRANCH  16  17
ENDBRANCH  15  16
ENDBRANCH  14  15
ENDBRANCH  13  14
ENDBRANCH  12  13
ENDBRANCH  11  12
ENDBRANCH   1  11
TORSDOF 15
ENDMDL
MODEL 6
REMARK VINA RESULT:    -4.300      1.968      4.839
REMARK INTER + INTRA:         -10.030
REMARK INTER:                  -7.729
REMARK INTRA:                  -2.301
REMARK UNBOUND:                -1.960
REMARK SMILES O=C([O-])CCCCCCCCCCCCCCC(=O)[O-]
REMARK SMILES IDX 10 1 9 2 8 3 7 4 6 5 5 6 4 7 2 8 1 9 3 10 11 11 12 12 13 13
REMARK SMILES IDX 14 14 15 15 16 16 17 17 18 18 19 19 20 20
REMARK H PARENT
REMARK Flexibility Score: inf
ROOT
ATOM      1  C   UNL     1      17.373  30.866  71.398  1.00  0.00     0.000 C 
ENDROOT
BRANCH   1   2
ATOM      2  C   UNL     1      18.721  30.893  70.659  1.00  0.00     0.000 C 
BRANCH   2   3
ATOM      3  C   UNL     1      18.874  29.728  69.671  1.00  0.00     0.000 C 
BRANCH   3   4
ATOM      4  C   UNL     1      19.038  30.243  68.236  1.00  0.00     0.000 C 
BRANCH   4   5
ATOM      5  C   UNL     1      19.332  31.748  68.221  1.00  0.00     0.000 C 
BRANCH   5   6
ATOM      6  C   UNL     1      18.718  32.417  66.986  1.00  0.00     0.006 C 
BRANCH   6   7
ATOM      7  C   UNL     1      19.626  33.529  66.454  1.00  0.00     0.053 C 
BRANCH   7   8
ATOM      8  C   UNL     1      18.812  34.696  65.993  1.00  0.00     0.041 C 
ATOM      9  O   UNL     1      19.355  35.634  65.351  1.00  0.00    -0.550 OA
ATOM     10  O   UNL     1      17.463  34.773  66.315  1.00  0.00    -0.550 OA
ENDBRANCH   7   8
ENDBRANCH   6   7
ENDBRANCH   5   6
ENDBRANCH   4   5
ENDBRANCH   3   4
ENDBRANCH   2   3
ENDBRANCH   1   2
BRANCH   1  11
ATOM     11  C   UNL     1      16.824  29.440  71.574  1.00  0.00     0.000 C 
BRANCH  11  12
ATOM     12  C   UNL     1      15.302  29.359  71.360  1.00  0.00     0.000 C 
BRANCH  12  13
ATOM     13  C   UNL     1      14.757  30.259  70.233  1.00  0.00     0.000 C 
BRANCH  13  14
ATOM     14  C   UNL     1      15.187  29.857  68.807  1.00  0.00     0.000 C 
BRANCH  14  15
ATOM     15  C   UNL     1      15.358  31.030  67.825  1.00  0.00     0.000 C 
BRANCH  15  16
ATOM     16  C   UNL     1      15.326  32.401  68.520  1.00  0.00     0.006 C 
BRANCH  16  17
ATOM     17  C   UNL     1      14.326  33.361  67.862  1.00  0.00     0.053 C 
BRANCH  17  18
ATOM     18  C   UNL     1      12.930  32.816  67.889  1.00  0.00     0.041 C 
ATOM     19  O   UNL     1      12.352  32.501  66.816  1.00  0.00    -0.550 OA
ATOM     20  O   UNL     1      12.257  32.683  69.098  1.00  0.00    -0.550 OA
ENDBRANCH  17  18
ENDBRANCH  16  17
ENDBRANCH  15  16
ENDBRANCH  14  15
ENDBRANCH  13  14
ENDBRANCH  12  13
ENDBRANCH  11  12
ENDBRANCH   1  11
TORSDOF 15
ENDMDL
MODEL 7
REMARK VINA RESULT:    -4.221      2.209      2.865
REMARK INTER + INTRA:          -9.883
REMARK INTER:                  -7.596
REMARK INTRA:                  -2.287
REMARK UNBOUND:                -1.960
REMARK SMILES O=C([O-])CCCCCCCCCCCCCCC(=O)[O-]
REMARK SMILES IDX 10 1 9 2 8 3 7 4 6 5 5 6 4 7 2 8 1 9 3 10 11 11 12 12 13 13
REMARK SMILES IDX 14 14 15 15 16 16 17 17 18 18 19 19 20 20
REMARK H PARENT
REMARK Flexibility Score: inf
ROOT
ATOM      1  C   UNL     1      14.834  30.560  70.104  1.00  0.00     0.000 C 
ENDROOT
BRANCH   1   2
ATOM      2  C   UNL     1      14.790  29.966  68.687  1.00  0.00     0.000 C 
BRANCH   2   3
ATOM      3  C   UNL     1      15.548  30.823  67.663  1.00  0.00     0.000 C 
BRANCH   3   4
ATOM      4  C   UNL     1      15.667  32.274  68.144  1.00  0.00     0.000 C 
BRANCH   4   5
ATOM      5  C   UNL     1      15.474  33.257  66.982  1.00  0.00     0.000 C 
BRANCH   5   6
ATOM      6  C   UNL     1      14.161  34.035  67.131  1.00  0.00     0.006 C 
BRANCH   6   7
ATOM      7  C   UNL     1      13.413  33.614  68.398  1.00  0.00     0.053 C 
BRANCH   7   8
ATOM      8  C   UNL     1      12.278  32.700  68.059  1.00  0.00     0.041 C 
ATOM      9  O   UNL     1      11.687  32.059  68.968  1.00  0.00    -0.550 OA
ATOM     10  O   UNL     1      11.906  32.517  66.734  1.00  0.00    -0.550 OA
ENDBRANCH   7   8
ENDBRANCH   6   7
ENDBRANCH   5   6
ENDBRANCH   4   5
ENDBRANCH   3   4
ENDBRANCH   2   3
ENDBRANCH   1   2
BRANCH   1  11
ATOM     11  C   UNL     1      15.263  29.531  71.164  1.00  0.00     0.000 C 
BRANCH  11  12
ATOM     12  C   UNL     1      16.783  29.524  71.404  1.00  0.00     0.000 C 
BRANCH  12  13
ATOM     13  C   UNL     1      17.484  30.875  71.159  1.00  0.00     0.000 C 
BRANCH  13  14
ATOM     14  C   UNL     1      18.747  30.808  70.277  1.00  0.00     0.000 C 
BRANCH  14  15
ATOM     15  C   UNL     1      18.684  29.787  69.127  1.00  0.00     0.000 C 
BRANCH  15  16
ATOM     16  C   UNL     1      19.690  30.090  68.003  1.00  0.00     0.006 C 
BRANCH  16  17
ATOM     17  C   UNL     1      18.995  30.444  66.682  1.00  0.00     0.053 C 
BRANCH  17  18
ATOM     18  C   UNL     1      19.131  31.900  66.353  1.00  0.00     0.041 C 
ATOM     19  O   UNL     1      19.183  32.276  65.152  1.00  0.00    -0.550 OA
ATOM     20  O   UNL     1      19.228  32.838  67.373  1.00  0.00    -0.550 OA
ENDBRANCH  17  18
ENDBRANCH  16  17
ENDBRANCH  15  16
ENDBRANCH  14  15
ENDBRANCH  13  14
ENDBRANCH  12  13
ENDBRANCH  11  12
ENDBRANCH   1  11
TORSDOF 15
ENDMDL
MODEL 8
REMARK VINA RESULT:    -4.195      3.203      6.258
REMARK INTER + INTRA:          -9.834
REMARK INTER:                  -8.323
REMARK INTRA:                  -1.511
REMARK UNBOUND:                -1.960
REMARK SMILES O=C([O-])CCCCCCCCCCCCCCC(=O)[O-]
REMARK SMILES IDX 10 1 9 2 8 3 7 4 6 5 5 6 4 7 2 8 1 9 3 10 11 11 12 12 13 13
REMARK SMILES IDX 14 14 15 15 16 16 17 17 18 18 19 19 20 20
REMARK H PARENT
REMARK Flexibility Score: inf
ROOT
ATOM      1  C   UNL     1      16.112  35.978  66.953  1.00  0.00     0.000 C 
ENDROOT
BRANCH   1   2
ATOM      2  C   UNL     1      17.087  35.311  65.971  1.00  0.00     0.000 C 
BRANCH   2   3
ATOM      3  C   UNL     1      17.882  34.166  66.615  1.00  0.00     0.000 C 
BRANCH   3   4
ATOM      4  C   UNL     1      18.828  33.515  65.599  1.00  0.00     0.000 C 
BRANCH   4   5
ATOM      5  C   UNL     1      19.007  32.020  65.891  1.00  0.00     0.000 C 
BRANCH   5   6
ATOM      6  C   UNL     1      17.963  31.184  65.142  1.00  0.00     0.006 C 
BRANCH   6   7
ATOM      7  C   UNL     1      18.256  31.157  63.639  1.00  0.00     0.053 C 
BRANCH   7   8
ATOM      8  C   UNL     1      17.055  30.689  62.879  1.00  0.00     0.041 C 
ATOM      9  O   UNL     1      16.085  30.164  63.486  1.00  0.00    -0.550 OA
ATOM     10  O   UNL     1      17.029  30.788  61.494  1.00  0.00    -0.550 OA
ENDBRANCH   7   8
ENDBRANCH   6   7
ENDBRANCH   5   6
ENDBRANCH   4   5
ENDBRANCH   3   4
ENDBRANCH   2   3
ENDBRANCH   1   2
BRANCH   1  11
ATOM     11  C   UNL     1      14.639  35.726  66.586  1.00  0.00     0.000 C 
BRANCH  11  12
ATOM     12  C   UNL     1      13.825  35.148  67.757  1.00  0.00     0.000 C 
BRANCH  12  13
ATOM     13  C   UNL     1      13.328  33.703  67.550  1.00  0.00     0.000 C 
BRANCH  13  14
ATOM     14  C   UNL     1      13.917  32.661  68.522  1.00  0.00     0.000 C 
BRANCH  14  15
ATOM     15  C   UNL     1      15.334  32.173  68.172  1.00  0.00     0.000 C 
BRANCH  15  16
ATOM     16  C   UNL     1      15.876  31.142  69.176  1.00  0.00     0.006 C 
BRANCH  16  17
ATOM     17  C   UNL     1      17.409  31.080  69.173  1.00  0.00     0.053 C 
BRANCH  17  18
ATOM     18  C   UNL     1      17.961  30.873  70.552  1.00  0.00     0.041 C 
ATOM     19  O   UNL     1      17.182  30.747  71.533  1.00  0.00    -0.550 OA
ATOM     20  O   UNL     1      19.335  30.848  70.755  1.00  0.00    -0.550 OA
ENDBRANCH  17  18
ENDBRANCH  16  17
ENDBRANCH  15  16
ENDBRANCH  14  15
ENDBRANCH  13  14
ENDBRANCH  12  13
ENDBRANCH  11  12
ENDBRANCH   1  11
TORSDOF 15
ENDMDL
MODEL 9
REMARK VINA RESULT:    -4.167      2.358      4.172
REMARK INTER + INTRA:          -9.781
REMARK INTER:                  -7.964
REMARK INTRA:                  -1.818
REMARK UNBOUND:                -1.960
REMARK SMILES O=C([O-])CCCCCCCCCCCCCCC(=O)[O-]
REMARK SMILES IDX 10 1 9 2 8 3 7 4 6 5 5 6 4 7 2 8 1 9 3 10 11 11 12 12 13 13
REMARK SMILES IDX 14 14 15 15 16 16 17 17 18 18 19 19 20 20
REMARK H PARENT
REMARK Flexibility Score: inf
ROOT
ATOM      1  C   UNL     1      18.998  30.278  67.464  1.00  0.00     0.000 C 
ENDROOT
BRANCH   1   2
ATOM      2  C   UNL     1      18.159  31.088  66.465  1.00  0.00     0.000 C 
BRANCH   2   3
ATOM      3  C   UNL     1      18.973  32.187  65.765  1.00  0.00     0.000 C 
BRANCH   3   4
ATOM      4  C   UNL     1      18.405  33.575  66.080  1.00  0.00     0.000 C 
BRANCH   4   5
ATOM      5  C   UNL     1      16.998  33.473  66.681  1.00  0.00     0.000 C 
BRANCH   5   6
ATOM      6  C   UNL     1      16.351  34.857  66.811  1.00  0.00     0.006 C 
BRANCH   6   7
ATOM      7  C   UNL     1      14.867  34.807  66.441  1.00  0.00     0.053 C 
BRANCH   7   8
ATOM      8  C   UNL     1      14.052  35.575  67.432  1.00  0.00     0.041 C 
ATOM      9  O   UNL     1      14.002  36.832  67.374  1.00  0.00    -0.550 OA
ATOM     10  O   UNL     1      13.388  34.906  68.452  1.00  0.00    -0.550 OA
ENDBRANCH   7   8
ENDBRANCH   6   7
ENDBRANCH   5   6
ENDBRANCH   4   5
ENDBRANCH   3   4
ENDBRANCH   2   3
ENDBRANCH   1   2
BRANCH   1  11
ATOM     11  C   UNL     1      19.521  31.135  68.630  1.00  0.00     0.000 C 
BRANCH  11  12
ATOM     12  C   UNL     1      19.417  30.420  69.988  1.00  0.00     0.000 C 
BRANCH  12  13
ATOM     13  C   UNL     1      18.381  31.022  70.959  1.00  0.00     0.000 C 
BRANCH  13  14
ATOM     14  C   UNL     1      17.161  30.126  71.254  1.00  0.00     0.000 C 
BRANCH  14  15
ATOM     15  C   UNL     1      15.809  30.693  70.785  1.00  0.00     0.000 C 
BRANCH  15  16
ATOM     16  C   UNL     1      15.889  31.360  69.402  1.00  0.00     0.006 C 
BRANCH  16  17
ATOM     17  C   UNL     1      14.507  31.769  68.875  1.00  0.00     0.053 C 
BRANCH  17  18
ATOM     18  C   UNL     1      14.041  30.865  67.773  1.00  0.00     0.041 C 
ATOM     19  O   UNL     1      14.370  31.099  66.581  1.00  0.00    -0.550 OA
ATOM     20  O   UNL     1      13.222  29.781  68.062  1.00  0.00    -0.550 OA
ENDBRANCH  17  18
ENDBRANCH  16  17
ENDBRANCH  15  16
ENDBRANCH  14  15
ENDBRANCH  13  14
ENDBRANCH  12  13
ENDBRANCH  11  12
ENDBRANCH   1  11
TORSDOF 15
ENDMDL
