MODEL 1
REMARK VINA RESULT:    -4.040      0.000      0.000
REMARK INTER + INTRA:          -4.158
REMARK INTER:                  -4.158
REMARK INTRA:                   0.000
REMARK UNBOUND:                 0.000
REMARK SMILES O=c1ccc2ccc(O)cc2o1
REMARK SMILES IDX 6 1 7 2 8 3 10 4 11 5 5 6 4 7 3 8 2 9 1 10 12 11 9 12
REMARK H PARENT 9 13
REMARK Flexibility Score: inf
ROOT
ATOM      1  C   UNL     1      12.113  41.292 151.051  1.00  0.00     0.016 A 
ATOM      2  C   UNL     1      11.580  40.167 150.412  1.00  0.00     0.047 A 
ATOM      3  C   UNL     1      10.548  39.433 151.017  1.00  0.00     0.119 A 
ATOM      4  C   UNL     1      10.050  39.826 152.264  1.00  0.00     0.094 A 
ATOM      5  C   UNL     1      10.576  40.950 152.910  1.00  0.00     0.142 A 
ATOM      6  C   UNL     1      11.615  41.688 152.300  1.00  0.00     0.018 A 
ATOM      7  C   UNL     1      12.120  42.806 152.970  1.00  0.00     0.019 A 
ATOM      8  C   UNL     1      11.591  43.158 154.211  1.00  0.00     0.094 A 
ATOM      9  C   UNL     1      10.563  42.380 154.754  1.00  0.00     0.336 A 
ATOM     10  O   UNL     1      10.071  42.682 155.873  1.00  0.00    -0.246 OA
ATOM     11  O   UNL     1      10.099  41.321 154.095  1.00  0.00    -0.423 OA
ENDROOT
BRANCH   3  12
ATOM     12  O   UNL     1      10.014  38.311 150.386  1.00  0.00    -0.508 OA
ATOM     13  H   UNL     1      10.424  37.934 149.540  1.00  0.00     0.293 HD
ENDBRANCH   3  12
TORSDOF 1
ENDMDL
MODEL 2
REMARK VINA RESULT:    -3.988      0.774      4.217
REMARK INTER + INTRA:          -4.105
REMARK INTER:                  -4.105
REMARK INTRA:                   0.000
REMARK UNBOUND:                 0.000
REMARK SMILES O=c1ccc2ccc(O)cc2o1
REMARK SMILES IDX 6 1 7 2 8 3 10 4 11 5 5 6 4 7 3 8 2 9 1 10 12 11 9 12
REMARK H PARENT 9 13
REMARK Flexibility Score: inf
ROOT
ATOM      1  C   UNL     1      12.006  42.746 152.934  1.00  0.00     0.016 A 
ATOM      2  C   UNL     1      11.382  43.119 154.129  1.00  0.00     0.047 A 
ATOM      3  C   UNL     1      10.337  42.344 154.654  1.00  0.00     0.119 A 
ATOM      4  C   UNL     1       9.915  41.192 153.980  1.00  0.00     0.094 A 
ATOM      5  C   UNL     1      10.534  40.810 152.785  1.00  0.00     0.142 A 
ATOM      6  C   UNL     1      11.586  41.592 152.258  1.00  0.00     0.018 A 
ATOM      7  C   UNL     1      12.184  41.185 151.062  1.00  0.00     0.019 A 
ATOM      8  C   UNL     1      11.729  40.030 150.427  1.00  0.00     0.094 A 
ATOM      9  C   UNL     1      10.682  39.305 151.008  1.00  0.00     0.336 A 
ATOM     10  O   UNL     1      10.258  38.259 150.450  1.00  0.00    -0.246 OA
ATOM     11  O   UNL     1      10.130  39.714 152.147  1.00  0.00    -0.423 OA
ENDROOT
BRANCH   3  12
ATOM     12  O   UNL     1       9.711  42.712 155.844  1.00  0.00    -0.508 OA
ATOM     13  H   UNL     1      10.108  43.415 156.455  1.00  0.00     0.293 HD
ENDBRANCH   3  12
TORSDOF 1
ENDMDL
MODEL 3
REMARK VINA RESULT:    -3.987      1.793      4.766
REMARK INTER + INTRA:          -4.104
REMARK INTER:                  -4.104
REMARK INTRA:                   0.000
REMARK UNBOUND:                 0.000
REMARK SMILES O=c1ccc2ccc(O)cc2o1
REMARK SMILES IDX 6 1 7 2 8 3 10 4 11 5 5 6 4 7 3 8 2 9 1 10 12 11 9 12
REMARK H PARENT 9 13
REMARK Flexibility Score: inf
ROOT
ATOM      1  C   UNL     1      10.371  41.952 153.996  1.00  0.00     0.016 A 
ATOM      2  C   UNL     1      11.069  43.113 154.344  1.00  0.00     0.047 A 
ATOM      3  C   UNL     1      12.149  43.550 153.563  1.00  0.00     0.119 A 
ATOM      4  C   UNL     1      12.532  42.821 152.430  1.00  0.00     0.094 A 
ATOM      5  C   UNL     1      11.839  41.660 152.075  1.00  0.00     0.142 A 
ATOM      6  C   UNL     1      10.751  41.221 152.863  1.00  0.00     0.018 A 
ATOM      7  C   UNL     1      10.079  40.056 152.482  1.00  0.00     0.019 A 
ATOM      8  C   UNL     1      10.497  39.365 151.345  1.00  0.00     0.094 A 
ATOM      9  C   UNL     1      11.583  39.858 150.613  1.00  0.00     0.336 A 
ATOM     10  O   UNL     1      11.976  39.248 149.584  1.00  0.00    -0.246 OA
ATOM     11  O   UNL     1      12.206  40.970 150.997  1.00  0.00    -0.423 OA
ENDROOT
BRANCH   3  12
ATOM     12  O   UNL     1      12.849  44.706 153.904  1.00  0.00    -0.508 OA
ATOM     13  H   UNL     1      13.594  44.690 154.592  1.00  0.00     0.293 HD
ENDBRANCH   3  12
TORSDOF 1
ENDMDL
MODEL 4
REMARK VINA RESULT:    -3.946      1.693      2.122
REMARK INTER + INTRA:          -4.062
REMARK INTER:                  -4.062
REMARK INTRA:                   0.000
REMARK UNBOUND:                 0.000
REMARK SMILES O=c1ccc2ccc(O)cc2o1
REMARK SMILES IDX 6 1 7 2 8 3 10 4 11 5 5 6 4 7 3 8 2 9 1 10 12 11 9 12
REMARK H PARENT 9 13
REMARK Flexibility Score: inf
ROOT
ATOM      1  C   UNL     1      12.145  40.946 149.097  1.00  0.00     0.016 A 
ATOM      2  C   UNL     1      11.762  39.602 149.038  1.00  0.00     0.047 A 
ATOM      3  C   UNL     1      11.397  38.919 150.208  1.00  0.00     0.119 A 
ATOM      4  C   UNL     1      11.417  39.583 151.440  1.00  0.00     0.094 A 
ATOM      5  C   UNL     1      11.799  40.927 151.508  1.00  0.00     0.142 A 
ATOM      6  C   UNL     1      12.166  41.613 150.329  1.00  0.00     0.018 A 
ATOM      7  C   UNL     1      12.543  42.956 150.429  1.00  0.00     0.019 A 
ATOM      8  C   UNL     1      12.547  43.575 151.679  1.00  0.00     0.094 A 
ATOM      9  C   UNL     1      12.171  42.832 152.804  1.00  0.00     0.336 A 
ATOM     10  O   UNL     1      12.168  43.372 153.941  1.00  0.00    -0.246 OA
ATOM     11  O   UNL     1      11.816  41.555 152.681  1.00  0.00    -0.423 OA
ENDROOT
BRANCH   3  12
ATOM     12  O   UNL     1      11.015  37.579 150.156  1.00  0.00    -0.508 OA
ATOM     13  H   UNL     1      10.387  37.181 150.845  1.00  0.00     0.293 HD
ENDBRANCH   3  12
TORSDOF 1
ENDMDL
MODEL 5
REMARK VINA RESULT:    -3.881     14.180     14.555
REMARK INTER + INTRA:          -3.994
REMARK INTER:                  -3.994
REMARK INTRA:                   0.000
REMARK UNBOUND:                 0.000
REMARK SMILES O=c1ccc2ccc(O)cc2o1
REMARK SMILES IDX 6 1 7 2 8 3 10 4 11 5 5 6 4 7 3 8 2 9 1 10 12 11 9 12
REMARK H PARENT 9 13
REMARK Flexibility Score: inf
ROOT
ATOM      1  C   UNL     1      10.458  38.159 138.939  1.00  0.00     0.016 A 
ATOM      2  C   UNL     1      11.686  37.536 138.696  1.00  0.00     0.047 A 
ATOM      3  C   UNL     1      11.802  36.140 138.787  1.00  0.00     0.119 A 
ATOM      4  C   UNL     1      10.684  35.367 139.123  1.00  0.00     0.094 A 
ATOM      5  C   UNL     1       9.452  35.982 139.366  1.00  0.00     0.142 A 
ATOM      6  C   UNL     1       9.337  37.387 139.274  1.00  0.00     0.018 A 
ATOM      7  C   UNL     1       8.092  37.972 139.524  1.00  0.00     0.019 A 
ATOM      8  C   UNL     1       7.008  37.160 139.855  1.00  0.00     0.094 A 
ATOM      9  C   UNL     1       7.196  35.776 139.928  1.00  0.00     0.336 A 
ATOM     10  O   UNL     1       6.229  35.026 140.224  1.00  0.00    -0.246 OA
ATOM     11  O   UNL     1       8.391  35.244 139.685  1.00  0.00    -0.423 OA
ENDROOT
BRANCH   3  12
ATOM     12  O   UNL     1      13.023  35.513 138.547  1.00  0.00    -0.508 OA
ATOM     13  H   UNL     1      13.805  36.014 138.141  1.00  0.00     0.293 HD
ENDBRANCH   3  12
TORSDOF 1
ENDMDL
MODEL 6
REMARK VINA RESULT:    -3.769     13.727     14.536
REMARK INTER + INTRA:          -3.879
REMARK INTER:                  -3.879
REMARK INTRA:                   0.000
REMARK UNBOUND:                 0.000
REMARK SMILES O=c1ccc2ccc(O)cc2o1
REMARK SMILES IDX 6 1 7 2 8 3 10 4 11 5 5 6 4 7 3 8 2 9 1 10 12 11 9 12
REMARK H PARENT 9 13
REMARK Flexibility Score: inf
ROOT
ATOM      1  C   UNL     1      12.309  40.095 139.625  1.00  0.00     0.016 A 
ATOM      2  C   UNL     1      11.409  41.058 139.157  1.00  0.00     0.047 A 
ATOM      3  C   UNL     1      10.254  40.669 138.462  1.00  0.00     0.119 A 
ATOM      4  C   UNL     1       9.999  39.312 138.236  1.00  0.00     0.094 A 
ATOM      5  C   UNL     1      10.893  38.341 138.701  1.00  0.00     0.142 A 
ATOM      6  C   UNL     1      12.056  38.735 139.400  1.00  0.00     0.018 A 
ATOM      7  C   UNL     1      12.930  37.742 139.852  1.00  0.00     0.019 A 
ATOM      8  C   UNL     1      12.633  36.402 139.602  1.00  0.00     0.094 A 
ATOM      9  C   UNL     1      11.462  36.087 138.903  1.00  0.00     0.336 A 
ATOM     10  O   UNL     1      11.176  34.884 138.668  1.00  0.00    -0.246 OA
ATOM     11  O   UNL     1      10.647  37.052 138.484  1.00  0.00    -0.423 OA
ENDROOT
BRANCH   3  12
ATOM     12  O   UNL     1       9.354  41.624 137.992  1.00  0.00    -0.508 OA
ATOM     13  H   UNL     1       9.514  42.119 137.122  1.00  0.00     0.293 HD
ENDBRANCH   3  12
TORSDOF 1
ENDMDL
MODEL 7
REMARK VINA RESULT:    -3.755      1.837      2.708
REMARK INTER + INTRA:          -3.865
REMARK INTER:                  -3.865
REMARK INTRA:                   0.000
REMARK UNBOUND:                 0.000
REMARK SMILES O=c1ccc2ccc(O)cc2o1
REMARK SMILES IDX 6 1 7 2 8 3 10 4 11 5 5 6 4 7 3 8 2 9 1 10 12 11 9 12
REMARK H PARENT 9 13
REMARK Flexibility Score: inf
ROOT
ATOM      1  C   UNL     1       9.270  38.950 150.383  1.00  0.00     0.016 A 
ATOM      2  C   UNL     1      10.418  38.511 149.715  1.00  0.00     0.047 A 
ATOM      3  C   UNL     1      11.690  38.871 150.184  1.00  0.00     0.119 A 
ATOM      4  C   UNL     1      11.813  39.674 151.324  1.00  0.00     0.094 A 
ATOM      5  C   UNL     1      10.671  40.117 151.999  1.00  0.00     0.142 A 
ATOM      6  C   UNL     1       9.390  39.753 151.526  1.00  0.00     0.018 A 
ATOM      7  C   UNL     1       8.268  40.211 152.222  1.00  0.00     0.019 A 
ATOM      8  C   UNL     1       8.441  41.008 153.353  1.00  0.00     0.094 A 
ATOM      9  C   UNL     1       9.740  41.329 153.763  1.00  0.00     0.336 A 
ATOM     10  O   UNL     1       9.918  42.047 154.782  1.00  0.00    -0.246 OA
ATOM     11  O   UNL     1      10.792  40.879 153.083  1.00  0.00    -0.423 OA
ENDROOT
BRANCH   3  12
ATOM     12  O   UNL     1      12.838  38.438 149.522  1.00  0.00    -0.508 OA
ATOM     13  H   UNL     1      13.562  39.088 149.238  1.00  0.00     0.293 HD
ENDBRANCH   3  12
TORSDOF 1
ENDMDL
MODEL 8
REMARK VINA RESULT:    -3.725     14.125     14.533
REMARK INTER + INTRA:          -3.834
REMARK INTER:                  -3.834
REMARK INTRA:                   0.000
REMARK UNBOUND:                 0.000
REMARK SMILES O=c1ccc2ccc(O)cc2o1
REMARK SMILES IDX 6 1 7 2 8 3 10 4 11 5 5 6 4 7 3 8 2 9 1 10 12 11 9 12
REMARK H PARENT 9 13
REMARK Flexibility Score: inf
ROOT
ATOM      1  C   UNL     1       9.948  34.994 140.173  1.00  0.00     0.016 A 
ATOM      2  C   UNL     1      11.262  34.883 139.707  1.00  0.00     0.047 A 
ATOM      3  C   UNL     1      11.811  35.888 138.896  1.00  0.00     0.119 A 
ATOM      4  C   UNL     1      11.042  37.005 138.550  1.00  0.00     0.094 A 
ATOM      5  C   UNL     1       9.727  37.124 139.013  1.00  0.00     0.142 A 
ATOM      6  C   UNL     1       9.176  36.112 139.829  1.00  0.00     0.018 A 
ATOM      7  C   UNL     1       7.859  36.259 140.275  1.00  0.00     0.019 A 
ATOM      8  C   UNL     1       7.132  37.390 139.905  1.00  0.00     0.094 A 
ATOM      9  C   UNL     1       7.744  38.352 139.093  1.00  0.00     0.336 A 
ATOM     10  O   UNL     1       7.105  39.381 138.748  1.00  0.00    -0.246 OA
ATOM     11  O   UNL     1       8.999  38.188 138.683  1.00  0.00    -0.423 OA
ENDROOT
BRANCH   3  12
ATOM     12  O   UNL     1      13.120  35.784 138.427  1.00  0.00    -0.508 OA
ATOM     13  H   UNL     1      13.877  36.307 138.851  1.00  0.00     0.293 HD
ENDBRANCH   3  12
TORSDOF 1
ENDMDL
MODEL 9
REMARK VINA RESULT:    -3.703      1.538      2.184
REMARK INTER + INTRA:          -3.812
REMARK INTER:                  -3.812
REMARK INTRA:                   0.000
REMARK UNBOUND:                 0.000
REMARK SMILES O=c1ccc2ccc(O)cc2o1
REMARK SMILES IDX 6 1 7 2 8 3 10 4 11 5 5 6 4 7 3 8 2 9 1 10 12 11 9 12
REMARK H PARENT 9 13
REMARK Flexibility Score: inf
ROOT
ATOM      1  C   UNL     1       9.267  40.119 152.079  1.00  0.00     0.016 A 
ATOM      2  C   UNL     1       9.699  39.209 151.109  1.00  0.00     0.047 A 
ATOM      3  C   UNL     1      11.041  39.197 150.699  1.00  0.00     0.119 A 
ATOM      4  C   UNL     1      11.951  40.099 151.261  1.00  0.00     0.094 A 
ATOM      5  C   UNL     1      11.528  41.012 152.231  1.00  0.00     0.142 A 
ATOM      6  C   UNL     1      10.177  41.023 152.644  1.00  0.00     0.018 A 
ATOM      7  C   UNL     1       9.784  41.948 153.616  1.00  0.00     0.019 A 
ATOM      8  C   UNL     1      10.728  42.827 154.146  1.00  0.00     0.094 A 
ATOM      9  C   UNL     1      12.049  42.759 153.690  1.00  0.00     0.336 A 
ATOM     10  O   UNL     1      12.916  43.543 154.157  1.00  0.00    -0.246 OA
ATOM     11  O   UNL     1      12.397  41.868 152.764  1.00  0.00    -0.423 OA
ENDROOT
BRANCH   3  12
ATOM     12  O   UNL     1      11.478  38.293 149.732  1.00  0.00    -0.508 OA
ATOM     13  H   UNL     1      11.068  37.370 149.647  1.00  0.00     0.293 HD
ENDBRANCH   3  12
TORSDOF 1
ENDMDL
