MODEL 1
REMARK VINA RESULT:    -5.621      0.000      0.000
REMARK INTER + INTRA:          -5.621
REMARK INTER:                  -5.621
REMARK INTRA:                   0.000
REMARK UNBOUND:                 0.000
REMARK SMILES C[C@@H]1CCC=C2CC[C@H]3[C@@H](C3(C)C)[C@@]21C
REMARK SMILES IDX 1 1 2 2 3 3 4 4 5 5 6 6 14 7 10 8 9 9 11 10 12 11 13 12 8 13
REMARK SMILES IDX 7 14 15 15
REMARK H PARENT
REMARK Flexibility Score: inf
ROOT
ATOM      1  C   UNL     1      55.533  43.003  42.426  1.00  0.00     0.008 C 
ATOM      2  C   UNL     1      56.328  43.838  43.457  1.00  0.00    -0.004 C 
ATOM      3  C   UNL     1      55.388  44.886  44.093  1.00  0.00     0.008 C 
ATOM      4  C   UNL     1      55.028  46.012  43.116  1.00  0.00     0.027 C 
ATOM      5  C   UNL     1      56.161  46.450  42.223  1.00  0.00    -0.027 C 
ATOM      6  C   UNL     1      57.278  45.724  42.000  1.00  0.00    -0.068 C 
ATOM      7  C   UNL     1      57.639  44.516  42.895  1.00  0.00    -0.005 C 
ATOM      8  C   UNL     1      58.397  43.513  41.964  1.00  0.00     0.009 C 
ATOM      9  C   UNL     1      59.678  44.266  41.461  1.00  0.00    -0.000 C 
ATOM     10  C   UNL     1      59.730  42.797  41.833  1.00  0.00    -0.028 C 
ATOM     11  C   UNL     1      59.867  41.816  40.661  1.00  0.00     0.012 C 
ATOM     12  C   UNL     1      60.402  42.406  43.155  1.00  0.00     0.012 C 
ATOM     13  C   UNL     1      59.137  45.082  40.294  1.00  0.00     0.009 C 
ATOM     14  C   UNL     1      58.231  46.195  40.884  1.00  0.00     0.031 C 
ATOM     15  C   UNL     1      58.481  45.010  44.110  1.00  0.00     0.017 C 
ENDROOT
TORSDOF 0
ENDMDL
MODEL 2
REMARK VINA RESULT:    -4.019     21.781     23.026
REMARK INTER + INTRA:          -4.019
REMARK INTER:                  -4.019
REMARK INTRA:                   0.000
REMARK UNBOUND:                 0.000
REMARK SMILES C[C@@H]1CCC=C2CC[C@H]3[C@@H](C3(C)C)[C@@]21C
REMARK SMILES IDX 1 1 2 2 3 3 4 4 5 5 6 6 14 7 10 8 9 9 11 10 12 11 13 12 8 13
REMARK SMILES IDX 7 14 15 15
REMARK H PARENT
REMARK Flexibility Score: inf
ROOT
ATOM      1  C   UNL     1      52.870  26.911  24.871  1.00  0.00     0.008 C 
ATOM      2  C   UNL     1      53.268  27.280  26.319  1.00  0.00    -0.004 C 
ATOM      3  C   UNL     1      52.007  27.719  27.096  1.00  0.00     0.008 C 
ATOM      4  C   UNL     1      51.495  29.093  26.643  1.00  0.00     0.027 C 
ATOM      5  C   UNL     1      52.581  30.091  26.328  1.00  0.00    -0.027 C 
ATOM      6  C   UNL     1      53.870  29.763  26.092  1.00  0.00    -0.068 C 
ATOM      7  C   UNL     1      54.415  28.359  26.440  1.00  0.00    -0.005 C 
ATOM      8  C   UNL     1      55.530  28.066  25.382  1.00  0.00     0.009 C 
ATOM      9  C   UNL     1      56.621  29.177  25.578  1.00  0.00    -0.000 C 
ATOM     10  C   UNL     1      57.011  27.742  25.283  1.00  0.00    -0.028 C 
ATOM     11  C   UNL     1      57.560  27.475  23.875  1.00  0.00     0.012 C 
ATOM     12  C   UNL     1      57.578  26.893  26.428  1.00  0.00     0.012 C 
ATOM     13  C   UNL     1      56.044  30.341  24.783  1.00  0.00     0.009 C 
ATOM     14  C   UNL     1      54.804  30.865  25.555  1.00  0.00     0.031 C 
ATOM     15  C   UNL     1      54.924  28.354  27.913  1.00  0.00     0.017 C 
ENDROOT
TORSDOF 0
ENDMDL
MODEL 3
REMARK VINA RESULT:    -3.934     18.454     20.154
REMARK INTER + INTRA:          -3.934
REMARK INTER:                  -3.934
REMARK INTRA:                   0.000
REMARK UNBOUND:                 0.000
REMARK SMILES C[C@@H]1CCC=C2CC[C@H]3[C@@H](C3(C)C)[C@@]21C
REMARK SMILES IDX 1 1 2 2 3 3 4 4 5 5 6 6 14 7 10 8 9 9 11 10 12 11 13 12 8 13
REMARK SMILES IDX 7 14 15 15
REMARK H PARENT
REMARK Flexibility Score: inf
ROOT
ATOM      1  C   UNL     1      50.483  31.525  30.415  1.00  0.00     0.008 C 
ATOM      2  C   UNL     1      50.835  32.902  29.807  1.00  0.00    -0.004 C 
ATOM      3  C   UNL     1      50.074  34.006  30.576  1.00  0.00     0.008 C 
ATOM      4  C   UNL     1      48.572  33.997  30.268  1.00  0.00     0.027 C 
ATOM      5  C   UNL     1      48.231  33.700  28.829  1.00  0.00    -0.027 C 
ATOM      6  C   UNL     1      49.083  33.130  27.948  1.00  0.00    -0.068 C 
ATOM      7  C   UNL     1      50.595  33.024  28.251  1.00  0.00    -0.005 C 
ATOM      8  C   UNL     1      51.078  31.719  27.537  1.00  0.00     0.009 C 
ATOM      9  C   UNL     1      50.806  31.932  26.007  1.00  0.00    -0.000 C 
ATOM     10  C   UNL     1      52.067  31.240  26.488  1.00  0.00    -0.028 C 
ATOM     11  C   UNL     1      52.130  29.726  26.249  1.00  0.00     0.012 C 
ATOM     12  C   UNL     1      53.388  32.015  26.426  1.00  0.00     0.012 C 
ATOM     13  C   UNL     1      49.332  31.563  25.884  1.00  0.00     0.009 C 
ATOM     14  C   UNL     1      48.514  32.676  26.590  1.00  0.00     0.031 C 
ATOM     15  C   UNL     1      51.311  34.317  27.756  1.00  0.00     0.017 C 
ENDROOT
TORSDOF 0
ENDMDL
MODEL 4
REMARK VINA RESULT:    -3.891     21.064     23.118
REMARK INTER + INTRA:          -3.891
REMARK INTER:                  -3.891
REMARK INTRA:                   0.000
REMARK UNBOUND:                 0.000
REMARK SMILES C[C@@H]1CCC=C2CC[C@H]3[C@@H](C3(C)C)[C@@]21C
REMARK SMILES IDX 1 1 2 2 3 3 4 4 5 5 6 6 14 7 10 8 9 9 11 10 12 11 13 12 8 13
REMARK SMILES IDX 7 14 15 15
REMARK H PARENT
REMARK Flexibility Score: inf
ROOT
ATOM      1  C   UNL     1      54.196  27.114  27.770  1.00  0.00     0.008 C 
ATOM      2  C   UNL     1      54.777  27.387  26.363  1.00  0.00    -0.004 C 
ATOM      3  C   UNL     1      56.320  27.344  26.434  1.00  0.00     0.008 C 
ATOM      4  C   UNL     1      56.901  28.562  27.163  1.00  0.00     0.027 C 
ATOM      5  C   UNL     1      56.189  29.860  26.877  1.00  0.00    -0.027 C 
ATOM      6  C   UNL     1      54.950  29.947  26.345  1.00  0.00    -0.068 C 
ATOM      7  C   UNL     1      54.276  28.723  25.684  1.00  0.00    -0.005 C 
ATOM      8  C   UNL     1      52.742  28.900  25.935  1.00  0.00     0.009 C 
ATOM      9  C   UNL     1      52.336  30.240  25.226  1.00  0.00    -0.000 C 
ATOM     10  C   UNL     1      51.426  29.027  25.184  1.00  0.00    -0.028 C 
ATOM     11  C   UNL     1      50.156  29.114  26.040  1.00  0.00     0.012 C 
ATOM     12  C   UNL     1      51.336  28.233  23.876  1.00  0.00     0.012 C 
ATOM     13  C   UNL     1      52.720  31.286  26.265  1.00  0.00     0.009 C 
ATOM     14  C   UNL     1      54.269  31.329  26.333  1.00  0.00     0.031 C 
ATOM     15  C   UNL     1      54.668  28.670  24.177  1.00  0.00     0.017 C 
ENDROOT
TORSDOF 0
ENDMDL
MODEL 5
REMARK VINA RESULT:    -3.875     18.896     20.844
REMARK INTER + INTRA:          -3.875
REMARK INTER:                  -3.875
REMARK INTRA:                   0.000
REMARK UNBOUND:                 0.000
REMARK SMILES C[C@@H]1CCC=C2CC[C@H]3[C@@H](C3(C)C)[C@@]21C
REMARK SMILES IDX 1 1 2 2 3 3 4 4 5 5 6 6 14 7 10 8 9 9 11 10 12 11 13 12 8 13
REMARK SMILES IDX 7 14 15 15
REMARK H PARENT
REMARK Flexibility Score: inf
ROOT
ATOM      1  C   UNL     1      52.175  31.837  26.623  1.00  0.00     0.008 C 
ATOM      2  C   UNL     1      51.337  30.699  27.250  1.00  0.00    -0.004 C 
ATOM      3  C   UNL     1      50.926  29.702  26.143  1.00  0.00     0.008 C 
ATOM      4  C   UNL     1      49.859  30.283  25.206  1.00  0.00     0.027 C 
ATOM      5  C   UNL     1      48.816  31.128  25.895  1.00  0.00    -0.027 C 
ATOM      6  C   UNL     1      48.960  31.657  27.130  1.00  0.00    -0.068 C 
ATOM      7  C   UNL     1      50.081  31.177  28.080  1.00  0.00    -0.005 C 
ATOM      8  C   UNL     1      50.462  32.423  28.946  1.00  0.00     0.009 C 
ATOM      9  C   UNL     1      49.165  32.822  29.733  1.00  0.00    -0.000 C 
ATOM     10  C   UNL     1      50.529  32.884  30.392  1.00  0.00    -0.028 C 
ATOM     11  C   UNL     1      51.089  34.291  30.636  1.00  0.00     0.012 C 
ATOM     12  C   UNL     1      50.892  31.799  31.413  1.00  0.00     0.012 C 
ATOM     13  C   UNL     1      48.405  33.652  28.706  1.00  0.00     0.009 C 
ATOM     14  C   UNL     1      47.913  32.686  27.597  1.00  0.00     0.031 C 
ATOM     15  C   UNL     1      49.566  29.963  28.912  1.00  0.00     0.017 C 
ENDROOT
TORSDOF 0
ENDMDL
MODEL 6
REMARK VINA RESULT:    -3.863     21.074     23.275
REMARK INTER + INTRA:          -3.863
REMARK INTER:                  -3.863
REMARK INTRA:                   0.000
REMARK UNBOUND:                 0.000
REMARK SMILES C[C@@H]1CCC=C2CC[C@H]3[C@@H](C3(C)C)[C@@]21C
REMARK SMILES IDX 1 1 2 2 3 3 4 4 5 5 6 6 14 7 10 8 9 9 11 10 12 11 13 12 8 13
REMARK SMILES IDX 7 14 15 15
REMARK H PARENT
REMARK Flexibility Score: inf
ROOT
ATOM      1  C   UNL     1      56.096  30.250  26.946  1.00  0.00     0.008 C 
ATOM      2  C   UNL     1      55.745  28.765  27.198  1.00  0.00    -0.004 C 
ATOM      3  C   UNL     1      56.977  27.890  26.876  1.00  0.00     0.008 C 
ATOM      4  C   UNL     1      57.252  27.808  25.370  1.00  0.00     0.027 C 
ATOM      5  C   UNL     1      56.014  27.723  24.512  1.00  0.00    -0.027 C 
ATOM      6  C   UNL     1      54.774  28.054  24.932  1.00  0.00    -0.068 C 
ATOM      7  C   UNL     1      54.463  28.246  26.434  1.00  0.00    -0.005 C 
ATOM      8  C   UNL     1      53.335  29.329  26.496  1.00  0.00     0.009 C 
ATOM      9  C   UNL     1      52.110  28.728  25.722  1.00  0.00    -0.000 C 
ATOM     10  C   UNL     1      51.914  29.530  26.994  1.00  0.00    -0.028 C 
ATOM     11  C   UNL     1      51.318  30.932  26.814  1.00  0.00     0.012 C 
ATOM     12  C   UNL     1      51.553  28.775  28.279  1.00  0.00     0.012 C 
ATOM     13  C   UNL     1      52.458  29.041  24.272  1.00  0.00     0.009 C 
ATOM     14  C   UNL     1      53.656  28.140  23.875  1.00  0.00     0.031 C 
ATOM     15  C   UNL     1      54.058  26.875  27.056  1.00  0.00     0.017 C 
ENDROOT
TORSDOF 0
ENDMDL
MODEL 7
REMARK VINA RESULT:    -3.763     21.414     23.303
REMARK INTER + INTRA:          -3.763
REMARK INTER:                  -3.763
REMARK INTRA:                   0.000
REMARK UNBOUND:                 0.000
REMARK SMILES C[C@@H]1CCC=C2CC[C@H]3[C@@H](C3(C)C)[C@@]21C
REMARK SMILES IDX 1 1 2 2 3 3 4 4 5 5 6 6 14 7 10 8 9 9 11 10 12 11 13 12 8 13
REMARK SMILES IDX 7 14 15 15
REMARK H PARENT
REMARK Flexibility Score: inf
ROOT
ATOM      1  C   UNL     1      55.112  27.539  23.875  1.00  0.00     0.008 C 
ATOM      2  C   UNL     1      55.536  28.814  24.639  1.00  0.00    -0.004 C 
ATOM      3  C   UNL     1      57.023  28.694  25.041  1.00  0.00     0.008 C 
ATOM      4  C   UNL     1      57.240  27.673  26.164  1.00  0.00     0.027 C 
ATOM      5  C   UNL     1      56.163  27.668  27.221  1.00  0.00    -0.027 C 
ATOM      6  C   UNL     1      54.937  28.212  27.060  1.00  0.00    -0.068 C 
ATOM      7  C   UNL     1      54.636  29.173  25.887  1.00  0.00    -0.005 C 
ATOM      8  C   UNL     1      53.129  28.949  25.534  1.00  0.00     0.009 C 
ATOM      9  C   UNL     1      52.317  29.332  26.821  1.00  0.00    -0.000 C 
ATOM     10  C   UNL     1      51.811  29.699  25.440  1.00  0.00    -0.028 C 
ATOM     11  C   UNL     1      50.603  28.899  24.936  1.00  0.00     0.012 C 
ATOM     12  C   UNL     1      51.916  31.162  24.993  1.00  0.00     0.012 C 
ATOM     13  C   UNL     1      52.407  28.058  27.652  1.00  0.00     0.009 C 
ATOM     14  C   UNL     1      53.874  27.920  28.137  1.00  0.00     0.031 C 
ATOM     15  C   UNL     1      54.974  30.633  26.317  1.00  0.00     0.017 C 
ENDROOT
TORSDOF 0
ENDMDL
MODEL 8
REMARK VINA RESULT:    -3.609     20.515     22.381
REMARK INTER + INTRA:          -3.609
REMARK INTER:                  -3.609
REMARK INTRA:                   0.000
REMARK UNBOUND:                 0.000
REMARK SMILES C[C@@H]1CCC=C2CC[C@H]3[C@@H](C3(C)C)[C@@]21C
REMARK SMILES IDX 1 1 2 2 3 3 4 4 5 5 6 6 14 7 10 8 9 9 11 10 12 11 13 12 8 13
REMARK SMILES IDX 7 14 15 15
REMARK H PARENT
REMARK Flexibility Score: inf
ROOT
ATOM      1  C   UNL     1      53.125  32.397  26.423  1.00  0.00     0.008 C 
ATOM      2  C   UNL     1      52.983  31.409  25.243  1.00  0.00    -0.004 C 
ATOM      3  C   UNL     1      51.555  31.514  24.661  1.00  0.00     0.008 C 
ATOM      4  C   UNL     1      50.502  30.907  25.596  1.00  0.00     0.027 C 
ATOM      5  C   UNL     1      50.944  29.650  26.304  1.00  0.00    -0.027 C 
ATOM      6  C   UNL     1      52.232  29.262  26.430  1.00  0.00    -0.068 C 
ATOM      7  C   UNL     1      53.350  29.910  25.582  1.00  0.00    -0.005 C 
ATOM      8  C   UNL     1      54.634  29.869  26.474  1.00  0.00     0.009 C 
ATOM      9  C   UNL     1      54.923  28.352  26.755  1.00  0.00    -0.000 C 
ATOM     10  C   UNL     1      56.053  29.326  26.482  1.00  0.00    -0.028 C 
ATOM     11  C   UNL     1      56.921  29.697  27.691  1.00  0.00     0.012 C 
ATOM     12  C   UNL     1      56.745  29.270  25.114  1.00  0.00     0.012 C 
ATOM     13  C   UNL     1      53.990  28.055  27.922  1.00  0.00     0.009 C 
ATOM     14  C   UNL     1      52.538  28.087  27.379  1.00  0.00     0.031 C 
ATOM     15  C   UNL     1      53.490  29.135  24.237  1.00  0.00     0.017 C 
ENDROOT
TORSDOF 0
ENDMDL
MODEL 9
REMARK VINA RESULT:    -3.580     18.935     20.821
REMARK INTER + INTRA:          -3.580
REMARK INTER:                  -3.580
REMARK INTRA:                   0.000
REMARK UNBOUND:                 0.000
REMARK SMILES C[C@@H]1CCC=C2CC[C@H]3[C@@H](C3(C)C)[C@@]21C
REMARK SMILES IDX 1 1 2 2 3 3 4 4 5 5 6 6 14 7 10 8 9 9 11 10 12 11 13 12 8 13
REMARK SMILES IDX 7 14 15 15
REMARK H PARENT
REMARK Flexibility Score: inf
ROOT
ATOM      1  C   UNL     1      51.346  29.773  27.243  1.00  0.00     0.008 C 
ATOM      2  C   UNL     1      49.897  30.261  27.014  1.00  0.00    -0.004 C 
ATOM      3  C   UNL     1      49.592  30.256  25.500  1.00  0.00     0.008 C 
ATOM      4  C   UNL     1      50.331  31.375  24.756  1.00  0.00     0.027 C 
ATOM      5  C   UNL     1      50.413  32.679  25.511  1.00  0.00    -0.027 C 
ATOM      6  C   UNL     1      50.210  32.801  26.840  1.00  0.00    -0.068 C 
ATOM      7  C   UNL     1      49.558  31.663  27.659  1.00  0.00    -0.005 C 
ATOM      8  C   UNL     1      50.189  31.755  29.087  1.00  0.00     0.009 C 
ATOM      9  C   UNL     1      49.799  33.169  29.646  1.00  0.00    -0.000 C 
ATOM     10  C   UNL     1      49.799  31.946  30.543  1.00  0.00    -0.028 C 
ATOM     11  C   UNL     1      50.936  31.872  31.571  1.00  0.00     0.012 C 
ATOM     12  C   UNL     1      48.448  31.343  30.948  1.00  0.00     0.012 C 
ATOM     13  C   UNL     1      50.858  34.068  29.020  1.00  0.00     0.009 C 
ATOM     14  C   UNL     1      50.561  34.149  27.499  1.00  0.00     0.031 C 
ATOM     15  C   UNL     1      48.009  31.837  27.639  1.00  0.00     0.017 C 
ENDROOT
TORSDOF 0
ENDMDL
