MODEL 1
REMARK VINA RESULT:    -5.236      0.000      0.000
REMARK INTER + INTRA:          -5.236
REMARK INTER:                  -5.236
REMARK INTRA:                   0.000
REMARK UNBOUND:                 0.000
REMARK SMILES CC1=CC(=O)[C@H]2C[C@@H]1C2(C)C
REMARK SMILES IDX 1 1 2 2 3 3 4 4 5 5 6 6 7 7 8 8 9 9 10 10 11 11
REMARK H PARENT
REMARK Flexibility Score: inf
ROOT
ATOM      1  C   UNL     1      15.750  18.609  27.834  1.00  0.00     0.040 C 
ATOM      2  C   UNL     1      15.087  17.306  27.519  1.00  0.00    -0.066 C 
ATOM      3  C   UNL     1      15.710  16.117  27.755  1.00  0.00     0.047 C 
ATOM      4  C   UNL     1      14.953  14.883  27.367  1.00  0.00     0.159 C 
ATOM      5  O   UNL     1      15.436  13.729  27.499  1.00  0.00    -0.295 OA
ATOM      6  C   UNL     1      13.554  15.125  26.797  1.00  0.00     0.067 C 
ATOM      7  C   UNL     1      12.930  16.162  27.756  1.00  0.00     0.021 C 
ATOM      8  C   UNL     1      13.662  17.241  26.928  1.00  0.00     0.022 C 
ATOM      9  C   UNL     1      13.644  16.250  25.727  1.00  0.00    -0.019 C 
ATOM     10  C   UNL     1      14.857  16.251  24.755  1.00  0.00     0.012 C 
ATOM     11  C   UNL     1      12.347  16.367  24.886  1.00  0.00     0.012 C 
ENDROOT
TORSDOF 0
ENDMDL
MODEL 2
REMARK VINA RESULT:    -5.197      1.753      2.839
REMARK INTER + INTRA:          -5.197
REMARK INTER:                  -5.197
REMARK INTRA:                   0.000
REMARK UNBOUND:                 0.000
REMARK SMILES CC1=CC(=O)[C@H]2C[C@@H]1C2(C)C
REMARK SMILES IDX 1 1 2 2 3 3 4 4 5 5 6 6 7 7 8 8 9 9 10 10 11 11
REMARK H PARENT
REMARK Flexibility Score: inf
ROOT
ATOM      1  C   UNL     1      16.035  13.561  27.393  1.00  0.00     0.040 C 
ATOM      2  C   UNL     1      14.988  14.612  27.201  1.00  0.00    -0.066 C 
ATOM      3  C   UNL     1      13.678  14.284  27.017  1.00  0.00     0.047 C 
ATOM      4  C   UNL     1      12.732  15.426  26.805  1.00  0.00     0.159 C 
ATOM      5  O   UNL     1      11.506  15.251  26.585  1.00  0.00    -0.295 OA
ATOM      6  C   UNL     1      13.361  16.819  26.872  1.00  0.00     0.067 C 
ATOM      7  C   UNL     1      14.263  16.766  28.125  1.00  0.00     0.021 C 
ATOM      8  C   UNL     1      15.334  16.117  27.220  1.00  0.00     0.022 C 
ATOM      9  C   UNL     1      14.654  16.820  26.009  1.00  0.00    -0.019 C 
ATOM     10  C   UNL     1      14.633  16.075  24.644  1.00  0.00     0.012 C 
ATOM     11  C   UNL     1      15.204  18.250  25.773  1.00  0.00     0.012 C 
ENDROOT
TORSDOF 0
ENDMDL
MODEL 3
REMARK VINA RESULT:    -5.150      1.820      2.721
REMARK INTER + INTRA:          -5.150
REMARK INTER:                  -5.150
REMARK INTRA:                   0.000
REMARK UNBOUND:                 0.000
REMARK SMILES CC1=CC(=O)[C@H]2C[C@@H]1C2(C)C
REMARK SMILES IDX 1 1 2 2 3 3 4 4 5 5 6 6 7 7 8 8 9 9 10 10 11 11
REMARK H PARENT
REMARK Flexibility Score: inf
ROOT
ATOM      1  C   UNL     1      16.565  18.857  28.116  1.00  0.00     0.040 C 
ATOM      2  C   UNL     1      15.745  17.928  27.277  1.00  0.00    -0.066 C 
ATOM      3  C   UNL     1      15.668  18.075  25.925  1.00  0.00     0.047 C 
ATOM      4  C   UNL     1      14.790  17.100  25.201  1.00  0.00     0.159 C 
ATOM      5  O   UNL     1      14.606  17.156  23.958  1.00  0.00    -0.295 OA
ATOM      6  C   UNL     1      14.131  16.035  26.080  1.00  0.00     0.067 C 
ATOM      7  C   UNL     1      15.274  15.538  26.991  1.00  0.00     0.021 C 
ATOM      8  C   UNL     1      14.963  16.751  27.897  1.00  0.00     0.022 C 
ATOM      9  C   UNL     1      13.514  16.733  27.325  1.00  0.00    -0.019 C 
ATOM     10  C   UNL     1      12.787  18.092  27.126  1.00  0.00     0.012 C 
ATOM     11  C   UNL     1      12.577  15.792  28.124  1.00  0.00     0.012 C 
ENDROOT
TORSDOF 0
ENDMDL
MODEL 4
REMARK VINA RESULT:    -5.014      1.806      2.953
REMARK INTER + INTRA:          -5.014
REMARK INTER:                  -5.014
REMARK INTRA:                   0.000
REMARK UNBOUND:                 0.000
REMARK SMILES CC1=CC(=O)[C@H]2C[C@@H]1C2(C)C
REMARK SMILES IDX 1 1 2 2 3 3 4 4 5 5 6 6 7 7 8 8 9 9 10 10 11 11
REMARK H PARENT
REMARK Flexibility Score: inf
ROOT
ATOM      1  C   UNL     1      14.269  17.315  23.884  1.00  0.00     0.040 C 
ATOM      2  C   UNL     1      14.430  17.324  25.371  1.00  0.00    -0.066 C 
ATOM      3  C   UNL     1      15.490  17.938  25.967  1.00  0.00     0.047 C 
ATOM      4  C   UNL     1      15.554  17.851  27.461  1.00  0.00     0.159 C 
ATOM      5  O   UNL     1      16.503  18.343  28.124  1.00  0.00    -0.295 OA
ATOM      6  C   UNL     1      14.385  17.120  28.125  1.00  0.00     0.067 C 
ATOM      7  C   UNL     1      13.134  17.691  27.422  1.00  0.00     0.021 C 
ATOM      8  C   UNL     1      13.396  16.657  26.304  1.00  0.00     0.022 C 
ATOM      9  C   UNL     1      14.138  15.787  27.362  1.00  0.00    -0.019 C 
ATOM     10  C   UNL     1      15.370  14.961  26.899  1.00  0.00     0.012 C 
ATOM     11  C   UNL     1      13.177  14.841  28.125  1.00  0.00     0.012 C 
ENDROOT
TORSDOF 0
ENDMDL
MODEL 5
REMARK VINA RESULT:    -4.994      1.040      3.212
REMARK INTER + INTRA:          -4.994
REMARK INTER:                  -4.994
REMARK INTRA:                   0.000
REMARK UNBOUND:                 0.000
REMARK SMILES CC1=CC(=O)[C@H]2C[C@@H]1C2(C)C
REMARK SMILES IDX 1 1 2 2 3 3 4 4 5 5 6 6 7 7 8 8 9 9 10 10 11 11
REMARK H PARENT
REMARK Flexibility Score: inf
ROOT
ATOM      1  C   UNL     1      11.288  15.626  24.749  1.00  0.00     0.040 C 
ATOM      2  C   UNL     1      12.547  15.532  25.551  1.00  0.00    -0.066 C 
ATOM      3  C   UNL     1      12.735  14.538  26.464  1.00  0.00     0.047 C 
ATOM      4  C   UNL     1      14.025  14.572  27.226  1.00  0.00     0.159 C 
ATOM      5  O   UNL     1      14.298  13.733  28.122  1.00  0.00    -0.295 OA
ATOM      6  C   UNL     1      14.985  15.699  26.839  1.00  0.00     0.067 C 
ATOM      7  C   UNL     1      14.982  15.683  25.295  1.00  0.00     0.021 C 
ATOM      8  C   UNL     1      13.701  16.543  25.374  1.00  0.00     0.022 C 
ATOM      9  C   UNL     1      14.183  17.030  26.772  1.00  0.00    -0.019 C 
ATOM     10  C   UNL     1      13.112  17.304  27.864  1.00  0.00     0.012 C 
ATOM     11  C   UNL     1      15.109  18.270  26.677  1.00  0.00     0.012 C 
ENDROOT
TORSDOF 0
ENDMDL
MODEL 6
REMARK VINA RESULT:    -4.828      1.651      2.970
REMARK INTER + INTRA:          -4.828
REMARK INTER:                  -4.828
REMARK INTRA:                   0.000
REMARK UNBOUND:                 0.000
REMARK SMILES CC1=CC(=O)[C@H]2C[C@@H]1C2(C)C
REMARK SMILES IDX 1 1 2 2 3 3 4 4 5 5 6 6 7 7 8 8 9 9 10 10 11 11
REMARK H PARENT
REMARK Flexibility Score: inf
ROOT
ATOM      1  C   UNL     1      15.692  13.646  27.383  1.00  0.00     0.040 C 
ATOM      2  C   UNL     1      15.175  14.994  26.991  1.00  0.00    -0.066 C 
ATOM      3  C   UNL     1      15.441  16.101  27.740  1.00  0.00     0.047 C 
ATOM      4  C   UNL     1      14.841  17.387  27.259  1.00  0.00     0.159 C 
ATOM      5  O   UNL     1      14.981  18.469  27.884  1.00  0.00    -0.295 OA
ATOM      6  C   UNL     1      14.045  17.291  25.956  1.00  0.00     0.067 C 
ATOM      7  C   UNL     1      14.942  16.445  25.027  1.00  0.00     0.021 C 
ATOM      8  C   UNL     1      14.333  15.202  25.714  1.00  0.00     0.022 C 
ATOM      9  C   UNL     1      13.086  16.071  26.052  1.00  0.00    -0.019 C 
ATOM     10  C   UNL     1      12.352  15.810  27.397  1.00  0.00     0.012 C 
ATOM     11  C   UNL     1      12.034  16.058  24.913  1.00  0.00     0.012 C 
ENDROOT
TORSDOF 0
ENDMDL
MODEL 7
REMARK VINA RESULT:    -4.669      1.386      2.421
REMARK INTER + INTRA:          -4.669
REMARK INTER:                  -4.669
REMARK INTRA:                   0.000
REMARK UNBOUND:                 0.000
REMARK SMILES CC1=CC(=O)[C@H]2C[C@@H]1C2(C)C
REMARK SMILES IDX 1 1 2 2 3 3 4 4 5 5 6 6 7 7 8 8 9 9 10 10 11 11
REMARK H PARENT
REMARK Flexibility Score: inf
ROOT
ATOM      1  C   UNL     1      12.495  17.779  28.125  1.00  0.00     0.040 C 
ATOM      2  C   UNL     1      13.381  17.120  27.116  1.00  0.00    -0.066 C 
ATOM      3  C   UNL     1      14.059  15.975  27.408  1.00  0.00     0.047 C 
ATOM      4  C   UNL     1      14.938  15.430  26.324  1.00  0.00     0.159 C 
ATOM      5  O   UNL     1      15.644  14.402  26.484  1.00  0.00    -0.295 OA
ATOM      6  C   UNL     1      14.917  16.212  25.009  1.00  0.00     0.067 C 
ATOM      7  C   UNL     1      13.418  16.475  24.750  1.00  0.00     0.021 C 
ATOM      8  C   UNL     1      13.557  17.691  25.693  1.00  0.00     0.022 C 
ATOM      9  C   UNL     1      15.071  17.725  25.332  1.00  0.00    -0.019 C 
ATOM     10  C   UNL     1      16.080  18.147  26.436  1.00  0.00     0.012 C 
ATOM     11  C   UNL     1      15.356  18.572  24.064  1.00  0.00     0.012 C 
ENDROOT
TORSDOF 0
ENDMDL
MODEL 8
REMARK VINA RESULT:    -4.616      1.665      3.443
REMARK INTER + INTRA:          -4.616
REMARK INTER:                  -4.616
REMARK INTRA:                   0.000
REMARK UNBOUND:                 0.000
REMARK SMILES CC1=CC(=O)[C@H]2C[C@@H]1C2(C)C
REMARK SMILES IDX 1 1 2 2 3 3 4 4 5 5 6 6 7 7 8 8 9 9 10 10 11 11
REMARK H PARENT
REMARK Flexibility Score: inf
ROOT
ATOM      1  C   UNL     1      11.802  15.039  27.885  1.00  0.00     0.040 C 
ATOM      2  C   UNL     1      12.724  15.897  27.077  1.00  0.00    -0.066 C 
ATOM      3  C   UNL     1      12.979  15.624  25.767  1.00  0.00     0.047 C 
ATOM      4  C   UNL     1      13.944  16.539  25.075  1.00  0.00     0.159 C 
ATOM      5  O   UNL     1      14.290  16.370  23.878  1.00  0.00    -0.295 OA
ATOM      6  C   UNL     1      14.479  17.692  25.927  1.00  0.00     0.067 C 
ATOM      7  C   UNL     1      13.225  18.256  26.629  1.00  0.00     0.021 C 
ATOM      8  C   UNL     1      13.416  17.138  27.679  1.00  0.00     0.022 C 
ATOM      9  C   UNL     1      14.927  17.123  27.303  1.00  0.00    -0.019 C 
ATOM     10  C   UNL     1      15.677  15.762  27.332  1.00  0.00     0.012 C 
ATOM     11  C   UNL     1      15.749  18.148  28.125  1.00  0.00     0.012 C 
ENDROOT
TORSDOF 0
ENDMDL
