MODEL 1
REMARK VINA RESULT:    -8.227      0.000      0.000
REMARK INTER + INTRA:         -12.269
REMARK INTER:                 -12.074
REMARK INTRA:                  -0.195
REMARK UNBOUND:                -0.195
REMARK SMILES Cc1cc2c(C(C)C)c(O)c(O)c(C=O)c2c(O)c1-c1c(C)cc2c(C(C)C)c(O)c(O)c(C=O)c2c1O
REMARK SMILES IDX 1 1 2 2 3 3 4 4 16 5 13 6 11 7 9 8 5 9 17 10 19 11 20 12
REMARK SMILES IDX 37 13 21 14 36 15 23 16 22 17 24 18 33 19 25 20 31 21 29 22
REMARK SMILES IDX 38 23 34 25 35 26 26 27 27 28 28 29 32 30 30 32 18 34 6 36
REMARK SMILES IDX 7 37 8 38 14 39 15 40 10 41 12 43
REMARK H PARENT 38 24 32 31 30 33 18 35 10 42 12 44
REMARK Flexibility Score: inf
ROOT
ATOM      1  C   UNL     1       3.481   3.240 -20.877  1.00  0.00     0.045 C 
ATOM      2  C   UNL     1       4.022   2.464 -22.054  1.00  0.00    -0.039 A 
ATOM      3  C   UNL     1       4.157   1.079 -21.955  1.00  0.00     0.013 A 
ATOM      4  C   UNL     1       4.685   0.302 -23.011  1.00  0.00    -0.006 A 
ATOM      5  C   UNL     1       5.012   0.951 -24.241  1.00  0.00     0.039 A 
ATOM      6  C   UNL     1       5.525   0.168 -25.316  1.00  0.00     0.072 A 
ATOM      7  C   UNL     1       5.529  -1.236 -25.222  1.00  0.00     0.169 A 
ATOM      8  C   UNL     1       5.107  -1.871 -24.042  1.00  0.00     0.162 A 
ATOM      9  C   UNL     1       4.845  -1.112 -22.880  1.00  0.00     0.008 A 
ATOM     10  C   UNL     1       4.770   2.351 -24.371  1.00  0.00     0.132 A 
ATOM     11  C   UNL     1       4.323   3.105 -23.266  1.00  0.00     0.031 A 
ENDROOT
BRANCH  11  12
ATOM     12  C   UNL     1       4.137   4.575 -23.387  1.00  0.00     0.031 A 
ATOM     13  C   UNL     1       3.094   5.096 -24.182  1.00  0.00     0.132 A 
ATOM     14  C   UNL     1       5.020   5.445 -22.728  1.00  0.00    -0.039 A 
ATOM     15  C   UNL     1       2.864   6.503 -24.242  1.00  0.00     0.039 A 
ATOM     16  C   UNL     1       4.859   6.825 -22.866  1.00  0.00     0.013 A 
ATOM     17  C   UNL     1       6.182   4.912 -21.925  1.00  0.00     0.045 C 
ATOM     18  C   UNL     1       3.774   7.382 -23.578  1.00  0.00    -0.006 A 
ATOM     19  C   UNL     1       1.782   7.063 -24.982  1.00  0.00     0.072 A 
ATOM     20  C   UNL     1       3.604   8.797 -23.679  1.00  0.00     0.008 A 
ATOM     21  C   UNL     1       1.725   8.451 -25.201  1.00  0.00     0.169 A 
ATOM     22  C   UNL     1       2.683   9.301 -24.623  1.00  0.00     0.162 A 
BRANCH  13  23
ATOM     23  O   UNL     1       2.318   4.220 -24.950  1.00  0.00    -0.507 OA
ATOM     24  H   UNL     1       2.699   3.588 -25.644  1.00  0.00     0.293 HD
ENDBRANCH  13  23
BRANCH  19  25
ATOM     25  C   UNL     1       0.646   6.237 -25.462  1.00  0.00     0.264 C 
ATOM     26  O   UNL     1       0.604   5.814 -26.648  1.00  0.00    -0.298 OA
ENDBRANCH  19  25
BRANCH  20  27
ATOM     27  C   UNL     1       4.431   9.776 -22.825  1.00  0.00     0.017 C 
ATOM     28  C   UNL     1       5.696  10.219 -23.569  1.00  0.00     0.012 C 
ATOM     29  C   UNL     1       3.629  10.987 -22.314  1.00  0.00     0.012 C 
ENDBRANCH  20  27
BRANCH  21  30
ATOM     30  O   UNL     1       0.671   8.970 -25.962  1.00  0.00    -0.504 OA
ATOM     31  H   UNL     1       0.098   8.419 -26.586  1.00  0.00     0.293 HD
ENDBRANCH  21  30
BRANCH  22  32
ATOM     32  O   UNL     1       2.745  10.650 -24.982  1.00  0.00    -0.504 OA
ATOM     33  H   UNL     1       3.605  11.167 -25.097  1.00  0.00     0.293 HD
ENDBRANCH  22  32
ENDBRANCH  11  12
BRANCH  10  34
ATOM     34  O   UNL     1       4.925   2.982 -25.610  1.00  0.00    -0.507 OA
ATOM     35  H   UNL     1       4.395   3.795 -25.900  1.00  0.00     0.293 HD
ENDBRANCH  10  34
BRANCH   9  36
ATOM     36  C   UNL     1       4.687  -1.823 -21.524  1.00  0.00     0.017 C 
ATOM     37  C   UNL     1       5.173  -0.930 -20.378  1.00  0.00     0.012 C 
ATOM     38  C   UNL     1       3.263  -2.349 -21.257  1.00  0.00     0.012 C 
ENDBRANCH   9  36
BRANCH   6  39
ATOM     39  C   UNL     1       6.144   0.786 -26.514  1.00  0.00     0.264 C 
ATOM     40  O   UNL     1       7.344   0.555 -26.821  1.00  0.00    -0.298 OA
ENDBRANCH   6  39
BRANCH   8  41
ATOM     41  O   UNL     1       4.929  -3.257 -24.005  1.00  0.00    -0.504 OA
ATOM     42  H   UNL     1       4.637  -3.768 -23.184  1.00  0.00     0.293 HD
ENDBRANCH   8  41
BRANCH   7  43
ATOM     43  O   UNL     1       6.011  -1.981 -26.305  1.00  0.00    -0.504 OA
ATOM     44  H   UNL     1       6.570  -1.595 -27.055  1.00  0.00     0.293 HD
ENDBRANCH   7  43
TORSDOF 11
ENDMDL
MODEL 2
REMARK VINA RESULT:    -8.100      0.239      8.875
REMARK INTER + INTRA:         -12.084
REMARK INTER:                 -12.022
REMARK INTRA:                  -0.062
REMARK UNBOUND:                -0.195
REMARK SMILES Cc1cc2c(C(C)C)c(O)c(O)c(C=O)c2c(O)c1-c1c(C)cc2c(C(C)C)c(O)c(O)c(C=O)c2c1O
REMARK SMILES IDX 1 1 2 2 3 3 4 4 16 5 13 6 11 7 9 8 5 9 17 10 19 11 20 12
REMARK SMILES IDX 37 13 21 14 36 15 23 16 22 17 24 18 33 19 25 20 31 21 29 22
REMARK SMILES IDX 38 23 34 25 35 26 26 27 27 28 28 29 32 30 30 32 18 34 6 36
REMARK SMILES IDX 7 37 8 38 14 39 15 40 10 41 12 43
REMARK H PARENT 38 24 32 31 30 33 18 35 10 42 12 44
REMARK Flexibility Score: inf
ROOT
ATOM      1  C   UNL     1       6.236   4.765 -21.914  1.00  0.00     0.045 C 
ATOM      2  C   UNL     1       5.124   5.324 -22.769  1.00  0.00    -0.039 A 
ATOM      3  C   UNL     1       5.012   6.706 -22.926  1.00  0.00     0.013 A 
ATOM      4  C   UNL     1       3.975   7.290 -23.688  1.00  0.00    -0.006 A 
ATOM      5  C   UNL     1       3.067   6.432 -24.379  1.00  0.00     0.039 A 
ATOM      6  C   UNL     1       2.032   7.017 -25.166  1.00  0.00     0.072 A 
ATOM      7  C   UNL     1       2.028   8.404 -25.401  1.00  0.00     0.169 A 
ATOM      8  C   UNL     1       2.991   9.230 -24.797  1.00  0.00     0.162 A 
ATOM      9  C   UNL     1       3.858   8.709 -23.813  1.00  0.00     0.008 A 
ATOM     10  C   UNL     1       3.253   5.020 -24.301  1.00  0.00     0.132 A 
ATOM     11  C   UNL     1       4.246   4.474 -23.461  1.00  0.00     0.031 A 
ENDROOT
BRANCH  11  12
ATOM     12  C   UNL     1       4.393   3.001 -23.329  1.00  0.00     0.031 A 
ATOM     13  C   UNL     1       4.847   2.232 -24.422  1.00  0.00     0.132 A 
ATOM     14  C   UNL     1       4.050   2.373 -22.121  1.00  0.00    -0.039 A 
ATOM     15  C   UNL     1       5.060   0.829 -24.279  1.00  0.00     0.039 A 
ATOM     16  C   UNL     1       4.162   0.986 -22.010  1.00  0.00     0.013 A 
ATOM     17  C   UNL     1       3.500   3.166 -20.961  1.00  0.00     0.045 C 
ATOM     18  C   UNL     1       4.699   0.195 -23.051  1.00  0.00    -0.006 A 
ATOM     19  C   UNL     1       5.580   0.030 -25.339  1.00  0.00     0.072 A 
ATOM     20  C   UNL     1       4.841  -1.220 -22.906  1.00  0.00     0.008 A 
ATOM     21  C   UNL     1       5.561  -1.373 -25.235  1.00  0.00     0.169 A 
ATOM     22  C   UNL     1       5.111  -1.992 -24.056  1.00  0.00     0.162 A 
BRANCH  13  23
ATOM     23  O   UNL     1       5.040   2.854 -25.661  1.00  0.00    -0.507 OA
ATOM     24  H   UNL     1       5.268   2.356 -26.513  1.00  0.00     0.293 HD
ENDBRANCH  13  23
BRANCH  19  25
ATOM     25  C   UNL     1       6.233   0.628 -26.529  1.00  0.00     0.264 C 
ATOM     26  O   UNL     1       7.427   0.354 -26.825  1.00  0.00    -0.298 OA
ENDBRANCH  19  25
BRANCH  20  27
ATOM     27  C   UNL     1       4.657  -1.918 -21.546  1.00  0.00     0.017 C 
ATOM     28  C   UNL     1       5.152  -1.028 -20.401  1.00  0.00     0.012 C 
ATOM     29  C   UNL     1       3.220  -2.413 -21.289  1.00  0.00     0.012 C 
ENDBRANCH  20  27
BRANCH  21  30
ATOM     30  O   UNL     1       6.044  -2.134 -26.306  1.00  0.00    -0.504 OA
ATOM     31  H   UNL     1       7.022  -2.217 -26.545  1.00  0.00     0.293 HD
ENDBRANCH  21  30
BRANCH  22  32
ATOM     32  O   UNL     1       4.915  -3.375 -24.010  1.00  0.00    -0.504 OA
ATOM     33  H   UNL     1       4.473  -3.859 -23.242  1.00  0.00     0.293 HD
ENDBRANCH  22  32
ENDBRANCH  11  12
BRANCH  10  34
ATOM     34  O   UNL     1       2.484   4.161 -25.094  1.00  0.00    -0.507 OA
ATOM     35  H   UNL     1       2.700   3.182 -25.241  1.00  0.00     0.293 HD
ENDBRANCH  10  34
BRANCH   9  36
ATOM     36  C   UNL     1       4.688   9.670 -22.942  1.00  0.00     0.017 C 
ATOM     37  C   UNL     1       6.037   9.978 -23.601  1.00  0.00     0.012 C 
ATOM     38  C   UNL     1       3.945  10.965 -22.560  1.00  0.00     0.012 C 
ENDBRANCH   9  36
BRANCH   6  39
ATOM     39  C   UNL     1       0.892   6.221 -25.685  1.00  0.00     0.264 C 
ATOM     40  O   UNL     1       0.847   5.856 -26.890  1.00  0.00    -0.298 OA
ENDBRANCH   6  39
BRANCH   8  41
ATOM     41  O   UNL     1       3.110  10.571 -25.170  1.00  0.00    -0.504 OA
ATOM     42  H   UNL     1       3.604  10.888 -25.993  1.00  0.00     0.293 HD
ENDBRANCH   8  41
BRANCH   7  43
ATOM     43  O   UNL     1       1.016   8.947 -26.202  1.00  0.00    -0.504 OA
ATOM     44  H   UNL     1       0.547   8.442 -26.943  1.00  0.00     0.293 HD
ENDBRANCH   7  43
TORSDOF 11
ENDMDL
MODEL 3
REMARK VINA RESULT:    -7.889      1.655      3.019
REMARK INTER + INTRA:         -11.773
REMARK INTER:                 -11.403
REMARK INTRA:                  -0.370
REMARK UNBOUND:                -0.195
REMARK SMILES Cc1cc2c(C(C)C)c(O)c(O)c(C=O)c2c(O)c1-c1c(C)cc2c(C(C)C)c(O)c(O)c(C=O)c2c1O
REMARK SMILES IDX 1 1 2 2 3 3 4 4 16 5 13 6 11 7 9 8 5 9 17 10 19 11 20 12
REMARK SMILES IDX 37 13 21 14 36 15 23 16 22 17 24 18 33 19 25 20 31 21 29 22
REMARK SMILES IDX 38 23 34 25 35 26 26 27 27 28 28 29 32 30 30 32 18 34 6 36
REMARK SMILES IDX 7 37 8 38 14 39 15 40 10 41 12 43
REMARK H PARENT 38 24 32 31 30 33 18 35 10 42 12 44
REMARK Flexibility Score: inf
ROOT
ATOM      1  C   UNL     1       3.554   3.658 -21.101  1.00  0.00     0.045 C 
ATOM      2  C   UNL     1       3.982   2.880 -22.322  1.00  0.00    -0.039 A 
ATOM      3  C   UNL     1       4.242   1.514 -22.205  1.00  0.00     0.013 A 
ATOM      4  C   UNL     1       4.675   0.739 -23.305  1.00  0.00    -0.006 A 
ATOM      5  C   UNL     1       4.769   1.362 -24.587  1.00  0.00     0.039 A 
ATOM      6  C   UNL     1       5.185   0.578 -25.703  1.00  0.00     0.072 A 
ATOM      7  C   UNL     1       5.316  -0.816 -25.572  1.00  0.00     0.169 A 
ATOM      8  C   UNL     1       5.120  -1.435 -24.325  1.00  0.00     0.162 A 
ATOM      9  C   UNL     1       4.966  -0.653 -23.160  1.00  0.00     0.008 A 
ATOM     10  C   UNL     1       4.397   2.733 -24.720  1.00  0.00     0.132 A 
ATOM     11  C   UNL     1       4.054   3.494 -23.583  1.00  0.00     0.031 A 
ENDROOT
BRANCH  11  12
ATOM     12  C   UNL     1       3.733   4.939 -23.716  1.00  0.00     0.031 A 
ATOM     13  C   UNL     1       4.643   5.915 -23.254  1.00  0.00     0.132 A 
ATOM     14  C   UNL     1       2.508   5.331 -24.278  1.00  0.00    -0.039 A 
ATOM     15  C   UNL     1       4.373   7.302 -23.446  1.00  0.00     0.039 A 
ATOM     16  C   UNL     1       2.197   6.688 -24.375  1.00  0.00     0.013 A 
ATOM     17  C   UNL     1       1.492   4.306 -24.718  1.00  0.00     0.045 C 
ATOM     18  C   UNL     1       3.120   7.693 -24.008  1.00  0.00    -0.006 A 
ATOM     19  C   UNL     1       5.297   8.315 -23.053  1.00  0.00     0.072 A 
ATOM     20  C   UNL     1       2.798   9.079 -24.150  1.00  0.00     0.008 A 
ATOM     21  C   UNL     1       4.900   9.664 -23.050  1.00  0.00     0.169 A 
ATOM     22  C   UNL     1       3.625  10.031 -23.515  1.00  0.00     0.162 A 
BRANCH  13  23
ATOM     23  O   UNL     1       5.789   5.506 -22.562  1.00  0.00    -0.507 OA
ATOM     24  H   UNL     1       5.927   5.641 -21.568  1.00  0.00     0.293 HD
ENDBRANCH  13  23
BRANCH  19  25
ATOM     25  C   UNL     1       6.711   8.007 -22.725  1.00  0.00     0.264 C 
ATOM     26  O   UNL     1       7.151   8.136 -21.552  1.00  0.00    -0.298 OA
ENDBRANCH  19  25
BRANCH  20  27
ATOM     27  C   UNL     1       1.556   9.548 -24.928  1.00  0.00     0.017 C 
ATOM     28  C   UNL     1       1.780   9.432 -26.440  1.00  0.00     0.012 C 
ATOM     29  C   UNL     1       0.252   8.848 -24.500  1.00  0.00     0.012 C 
ENDBRANCH  20  27
BRANCH  21  30
ATOM     30  O   UNL     1       5.815  10.634 -22.625  1.00  0.00    -0.504 OA
ATOM     31  H   UNL     1       6.116  10.747 -21.666  1.00  0.00     0.293 HD
ENDBRANCH  21  30
BRANCH  22  32
ATOM     32  O   UNL     1       3.156  11.336 -23.346  1.00  0.00    -0.504 OA
ATOM     33  H   UNL     1       2.525  11.620 -22.611  1.00  0.00     0.293 HD
ENDBRANCH  22  32
ENDBRANCH  11  12
BRANCH  10  34
ATOM     34  O   UNL     1       4.322   3.325 -25.985  1.00  0.00    -0.507 OA
ATOM     35  H   UNL     1       3.453   3.593 -26.433  1.00  0.00     0.293 HD
ENDBRANCH  10  34
BRANCH   9  36
ATOM     36  C   UNL     1       5.063  -1.320 -21.775  1.00  0.00     0.017 C 
ATOM     37  C   UNL     1       5.944  -0.495 -20.831  1.00  0.00     0.012 C 
ATOM     38  C   UNL     1       3.696  -1.630 -21.136  1.00  0.00     0.012 C 
ENDBRANCH   9  36
BRANCH   6  39
ATOM     39  C   UNL     1       5.573   1.194 -26.995  1.00  0.00     0.264 C 
ATOM     40  O   UNL     1       6.668   1.805 -27.124  1.00  0.00    -0.298 OA
ENDBRANCH   6  39
BRANCH   8  41
ATOM     41  O   UNL     1       5.063  -2.827 -24.224  1.00  0.00    -0.504 OA
ATOM     42  H   UNL     1       5.813  -3.446 -24.497  1.00  0.00     0.293 HD
ENDBRANCH   8  41
BRANCH   7  43
ATOM     43  O   UNL     1       5.697  -1.564 -26.692  1.00  0.00    -0.504 OA
ATOM     44  H   UNL     1       5.210  -2.390 -27.014  1.00  0.00     0.293 HD
ENDBRANCH   7  43
TORSDOF 11
ENDMDL
MODEL 4
REMARK VINA RESULT:    -7.870      1.685      8.874
REMARK INTER + INTRA:         -11.746
REMARK INTER:                 -11.317
REMARK INTRA:                  -0.429
REMARK UNBOUND:                -0.195
REMARK SMILES Cc1cc2c(C(C)C)c(O)c(O)c(C=O)c2c(O)c1-c1c(C)cc2c(C(C)C)c(O)c(O)c(C=O)c2c1O
REMARK SMILES IDX 1 1 2 2 3 3 4 4 16 5 13 6 11 7 9 8 5 9 17 10 19 11 20 12
REMARK SMILES IDX 37 13 21 14 36 15 23 16 22 17 24 18 33 19 25 20 31 21 29 22
REMARK SMILES IDX 38 23 34 25 35 26 26 27 27 28 28 29 32 30 30 32 18 34 6 36
REMARK SMILES IDX 7 37 8 38 14 39 15 40 10 41 12 43
REMARK H PARENT 38 24 32 31 30 33 18 35 10 42 12 44
REMARK Flexibility Score: inf
ROOT
ATOM      1  C   UNL     1       1.544   4.362 -24.721  1.00  0.00     0.045 C 
ATOM      2  C   UNL     1       2.550   5.401 -24.288  1.00  0.00    -0.039 A 
ATOM      3  C   UNL     1       2.216   6.752 -24.374  1.00  0.00     0.013 A 
ATOM      4  C   UNL     1       3.126   7.772 -24.013  1.00  0.00    -0.006 A 
ATOM      5  C   UNL     1       4.394   7.397 -23.471  1.00  0.00     0.039 A 
ATOM      6  C   UNL     1       5.307   8.422 -23.085  1.00  0.00     0.072 A 
ATOM      7  C   UNL     1       4.888   9.765 -23.069  1.00  0.00     0.169 A 
ATOM      8  C   UNL     1       3.600  10.114 -23.509  1.00  0.00     0.162 A 
ATOM      9  C   UNL     1       2.778   9.152 -24.137  1.00  0.00     0.008 A 
ATOM     10  C   UNL     1       4.686   6.013 -23.285  1.00  0.00     0.132 A 
ATOM     11  C   UNL     1       3.787   5.025 -23.738  1.00  0.00     0.031 A 
ENDROOT
BRANCH  11  12
ATOM     12  C   UNL     1       4.125   3.584 -23.605  1.00  0.00     0.031 A 
ATOM     13  C   UNL     1       4.486   2.831 -24.742  1.00  0.00     0.132 A 
ATOM     14  C   UNL     1       4.056   2.967 -22.346  1.00  0.00    -0.039 A 
ATOM     15  C   UNL     1       4.883   1.467 -24.609  1.00  0.00     0.039 A 
ATOM     16  C   UNL     1       4.347   1.607 -22.228  1.00  0.00     0.013 A 
ATOM     17  C   UNL     1       3.609   3.736 -21.126  1.00  0.00     0.045 C 
ATOM     18  C   UNL     1       4.800   0.843 -23.327  1.00  0.00    -0.006 A 
ATOM     19  C   UNL     1       5.318   0.693 -25.725  1.00  0.00     0.072 A 
ATOM     20  C   UNL     1       5.129  -0.540 -23.180  1.00  0.00     0.008 A 
ATOM     21  C   UNL     1       5.480  -0.699 -25.593  1.00  0.00     0.169 A 
ATOM     22  C   UNL     1       5.301  -1.320 -24.345  1.00  0.00     0.162 A 
BRANCH  13  23
ATOM     23  O   UNL     1       4.404   3.423 -26.008  1.00  0.00    -0.507 OA
ATOM     24  H   UNL     1       5.139   3.375 -26.703  1.00  0.00     0.293 HD
ENDBRANCH  13  23
BRANCH  19  25
ATOM     25  C   UNL     1       5.697   1.316 -27.017  1.00  0.00     0.264 C 
ATOM     26  O   UNL     1       6.746   2.004 -27.125  1.00  0.00    -0.298 OA
ENDBRANCH  19  25
BRANCH  20  27
ATOM     27  C   UNL     1       5.248  -1.203 -21.796  1.00  0.00     0.017 C 
ATOM     28  C   UNL     1       6.229  -0.435 -20.903  1.00  0.00     0.012 C 
ATOM     29  C   UNL     1       3.896  -1.415 -21.089  1.00  0.00     0.012 C 
ENDBRANCH  20  27
BRANCH  21  30
ATOM     30  O   UNL     1       5.872  -1.440 -26.713  1.00  0.00    -0.504 OA
ATOM     31  H   UNL     1       5.414  -2.287 -27.020  1.00  0.00     0.293 HD
ENDBRANCH  21  30
BRANCH  22  32
ATOM     32  O   UNL     1       5.279  -2.713 -24.241  1.00  0.00    -0.504 OA
ATOM     33  H   UNL     1       5.360  -3.217 -23.370  1.00  0.00     0.293 HD
ENDBRANCH  22  32
ENDBRANCH  11  12
BRANCH  10  34
ATOM     34  O   UNL     1       5.846   5.621 -22.608  1.00  0.00    -0.507 OA
ATOM     35  H   UNL     1       6.264   6.149 -21.851  1.00  0.00     0.293 HD
ENDBRANCH  10  34
BRANCH   9  36
ATOM     36  C   UNL     1       1.511   9.604 -24.886  1.00  0.00     0.017 C 
ATOM     37  C   UNL     1       1.744   9.609 -26.401  1.00  0.00     0.012 C 
ATOM     38  C   UNL     1       0.249   8.801 -24.518  1.00  0.00     0.012 C 
ENDBRANCH   9  36
BRANCH   6  39
ATOM     39  C   UNL     1       6.729   8.134 -22.778  1.00  0.00     0.264 C 
ATOM     40  O   UNL     1       7.174   8.227 -21.604  1.00  0.00    -0.298 OA
ENDBRANCH   6  39
BRANCH   8  41
ATOM     41  O   UNL     1       3.111  11.409 -23.322  1.00  0.00    -0.504 OA
ATOM     42  H   UNL     1       3.680  12.193 -23.036  1.00  0.00     0.293 HD
ENDBRANCH   8  41
BRANCH   7  43
ATOM     43  O   UNL     1       5.796  10.748 -22.658  1.00  0.00    -0.504 OA
ATOM     44  H   UNL     1       6.189  11.449 -23.273  1.00  0.00     0.293 HD
ENDBRANCH   7  43
TORSDOF 11
ENDMDL
MODEL 5
REMARK VINA RESULT:    -7.818      1.711      9.040
REMARK INTER + INTRA:         -11.669
REMARK INTER:                 -11.278
REMARK INTRA:                  -0.391
REMARK UNBOUND:                -0.195
REMARK SMILES Cc1cc2c(C(C)C)c(O)c(O)c(C=O)c2c(O)c1-c1c(C)cc2c(C(C)C)c(O)c(O)c(C=O)c2c1O
REMARK SMILES IDX 1 1 2 2 3 3 4 4 16 5 13 6 11 7 9 8 5 9 17 10 19 11 20 12
REMARK SMILES IDX 37 13 21 14 36 15 23 16 22 17 24 18 33 19 25 20 31 21 29 22
REMARK SMILES IDX 38 23 34 25 35 26 26 27 27 28 28 29 32 30 30 32 18 34 6 36
REMARK SMILES IDX 7 37 8 38 14 39 15 40 10 41 12 43
REMARK H PARENT 38 24 32 31 30 33 18 35 10 42 12 44
REMARK Flexibility Score: inf
ROOT
ATOM      1  C   UNL     1       6.575   3.510 -22.407  1.00  0.00     0.045 C 
ATOM      2  C   UNL     1       5.365   4.204 -22.985  1.00  0.00    -0.039 A 
ATOM      3  C   UNL     1       5.226   5.582 -22.823  1.00  0.00     0.013 A 
ATOM      4  C   UNL     1       4.101   6.283 -23.315  1.00  0.00    -0.006 A 
ATOM      5  C   UNL     1       3.122   5.564 -24.067  1.00  0.00     0.039 A 
ATOM      6  C   UNL     1       1.996   6.270 -24.583  1.00  0.00     0.072 A 
ATOM      7  C   UNL     1       1.954   7.675 -24.508  1.00  0.00     0.169 A 
ATOM      8  C   UNL     1       2.977   8.383 -23.854  1.00  0.00     0.162 A 
ATOM      9  C   UNL     1       3.960   7.691 -23.113  1.00  0.00     0.008 A 
ATOM     10  C   UNL     1       3.325   4.175 -24.320  1.00  0.00     0.132 A 
ATOM     11  C   UNL     1       4.416   3.495 -23.739  1.00  0.00     0.031 A 
ENDROOT
BRANCH  11  12
ATOM     12  C   UNL     1       4.588   2.033 -23.950  1.00  0.00     0.031 A 
ATOM     13  C   UNL     1       4.364   1.131 -22.887  1.00  0.00     0.132 A 
ATOM     14  C   UNL     1       5.001   1.554 -25.203  1.00  0.00    -0.039 A 
ATOM     15  C   UNL     1       4.455  -0.276 -23.103  1.00  0.00     0.039 A 
ATOM     16  C   UNL     1       5.188   0.184 -25.390  1.00  0.00     0.013 A 
ATOM     17  C   UNL     1       5.309   2.505 -26.335  1.00  0.00     0.045 C 
ATOM     18  C   UNL     1       4.887  -0.755 -24.378  1.00  0.00    -0.006 A 
ATOM     19  C   UNL     1       4.173  -1.220 -22.073  1.00  0.00     0.072 A 
ATOM     20  C   UNL     1       5.050  -2.158 -24.599  1.00  0.00     0.008 A 
ATOM     21  C   UNL     1       4.492  -2.578 -22.258  1.00  0.00     0.169 A 
ATOM     22  C   UNL     1       5.009  -3.025 -23.486  1.00  0.00     0.162 A 
BRANCH  13  23
ATOM     23  O   UNL     1       4.100   1.635 -21.608  1.00  0.00    -0.507 OA
ATOM     24  H   UNL     1       3.478   1.191 -20.944  1.00  0.00     0.293 HD
ENDBRANCH  13  23
BRANCH  19  25
ATOM     25  C   UNL     1       3.463  -0.838 -20.827  1.00  0.00     0.264 C 
ATOM     26  O   UNL     1       4.097  -0.572 -19.771  1.00  0.00    -0.298 OA
ENDBRANCH  19  25
BRANCH  20  27
ATOM     27  C   UNL     1       5.316  -2.732 -26.002  1.00  0.00     0.017 C 
ATOM     28  C   UNL     1       4.034  -2.745 -26.842  1.00  0.00     0.012 C 
ATOM     29  C   UNL     1       6.468  -2.035 -26.752  1.00  0.00     0.012 C 
ENDBRANCH  20  27
BRANCH  21  30
ATOM     30  O   UNL     1       4.238  -3.477 -21.216  1.00  0.00    -0.504 OA
ATOM     31  H   UNL     1       4.218  -3.220 -20.239  1.00  0.00     0.293 HD
ENDBRANCH  21  30
BRANCH  22  32
ATOM     32  O   UNL     1       5.499  -4.327 -23.618  1.00  0.00    -0.504 OA
ATOM     33  H   UNL     1       4.921  -5.132 -23.812  1.00  0.00     0.293 HD
ENDBRANCH  22  32
ENDBRANCH  11  12
BRANCH  10  34
ATOM     34  O   UNL     1       2.473   3.482 -25.187  1.00  0.00    -0.507 OA
ATOM     35  H   UNL     1       2.789   2.790 -25.856  1.00  0.00     0.293 HD
ENDBRANCH  10  34
BRANCH   9  36
ATOM     36  C   UNL     1       4.882   8.468 -22.156  1.00  0.00     0.017 C 
ATOM     37  C   UNL     1       4.909   7.814 -20.771  1.00  0.00     0.012 C 
ATOM     38  C   UNL     1       6.308   8.682 -22.700  1.00  0.00     0.012 C 
ENDBRANCH   9  36
BRANCH   6  39
ATOM     39  C   UNL     1       0.808   5.568 -25.127  1.00  0.00     0.264 C 
ATOM     40  O   UNL     1       0.636   5.445 -26.369  1.00  0.00    -0.298 OA
ENDBRANCH   6  39
BRANCH   8  41
ATOM     41  O   UNL     1       3.042   9.776 -23.937  1.00  0.00    -0.504 OA
ATOM     42  H   UNL     1       3.019  10.293 -24.804  1.00  0.00     0.293 HD
ENDBRANCH   8  41
BRANCH   7  43
ATOM     43  O   UNL     1       0.851   8.345 -25.049  1.00  0.00    -0.504 OA
ATOM     44  H   UNL     1       0.660   8.414 -26.040  1.00  0.00     0.293 HD
ENDBRANCH   7  43
TORSDOF 11
ENDMDL
MODEL 6
REMARK VINA RESULT:    -7.780      1.718      3.305
REMARK INTER + INTRA:         -11.613
REMARK INTER:                 -11.188
REMARK INTRA:                  -0.425
REMARK UNBOUND:                -0.195
REMARK SMILES Cc1cc2c(C(C)C)c(O)c(O)c(C=O)c2c(O)c1-c1c(C)cc2c(C(C)C)c(O)c(O)c(C=O)c2c1O
REMARK SMILES IDX 1 1 2 2 3 3 4 4 16 5 13 6 11 7 9 8 5 9 17 10 19 11 20 12
REMARK SMILES IDX 37 13 21 14 36 15 23 16 22 17 24 18 33 19 25 20 31 21 29 22
REMARK SMILES IDX 38 23 34 25 35 26 26 27 27 28 28 29 32 30 30 32 18 34 6 36
REMARK SMILES IDX 7 37 8 38 14 39 15 40 10 41 12 43
REMARK H PARENT 38 24 32 31 30 33 18 35 10 42 12 44
REMARK Flexibility Score: inf
ROOT
ATOM      1  C   UNL     1       5.266   2.508 -26.384  1.00  0.00     0.045 C 
ATOM      2  C   UNL     1       4.981   1.565 -25.240  1.00  0.00    -0.039 A 
ATOM      3  C   UNL     1       5.156   0.194 -25.427  1.00  0.00     0.013 A 
ATOM      4  C   UNL     1       4.877  -0.741 -24.404  1.00  0.00    -0.006 A 
ATOM      5  C   UNL     1       4.482  -0.254 -23.121  1.00  0.00     0.039 A 
ATOM      6  C   UNL     1       4.219  -1.193 -22.080  1.00  0.00     0.072 A 
ATOM      7  C   UNL     1       4.527  -2.553 -22.267  1.00  0.00     0.169 A 
ATOM      8  C   UNL     1       5.014  -3.008 -23.505  1.00  0.00     0.162 A 
ATOM      9  C   UNL     1       5.033  -2.145 -24.623  1.00  0.00     0.008 A 
ATOM     10  C   UNL     1       4.409   1.154 -22.907  1.00  0.00     0.132 A 
ATOM     11  C   UNL     1       4.611   2.051 -23.976  1.00  0.00     0.031 A 
ENDROOT
BRANCH  11  12
ATOM     12  C   UNL     1       4.469   3.516 -23.765  1.00  0.00     0.031 A 
ATOM     13  C   UNL     1       3.372   4.210 -24.319  1.00  0.00     0.132 A 
ATOM     14  C   UNL     1       5.445   4.212 -23.035  1.00  0.00    -0.039 A 
ATOM     15  C   UNL     1       3.191   5.601 -24.057  1.00  0.00     0.039 A 
ATOM     16  C   UNL     1       5.323   5.592 -22.862  1.00  0.00     0.013 A 
ATOM     17  C   UNL     1       6.660   3.502 -22.489  1.00  0.00     0.045 C 
ATOM     18  C   UNL     1       4.194   6.304 -23.323  1.00  0.00    -0.006 A 
ATOM     19  C   UNL     1       2.062   6.322 -24.544  1.00  0.00     0.072 A 
ATOM     20  C   UNL     1       4.068   7.711 -23.105  1.00  0.00     0.008 A 
ATOM     21  C   UNL     1       2.035   7.726 -24.460  1.00  0.00     0.169 A 
ATOM     22  C   UNL     1       3.078   8.419 -23.820  1.00  0.00     0.162 A 
BRANCH  13  23
ATOM     23  O   UNL     1       2.491   3.530 -25.168  1.00  0.00    -0.507 OA
ATOM     24  H   UNL     1       1.483   3.569 -25.084  1.00  0.00     0.293 HD
ENDBRANCH  13  23
BRANCH  19  25
ATOM     25  C   UNL     1       0.853   5.636 -25.065  1.00  0.00     0.264 C 
ATOM     26  O   UNL     1       0.655   5.517 -26.304  1.00  0.00    -0.298 OA
ENDBRANCH  19  25
BRANCH  20  27
ATOM     27  C   UNL     1       5.012   8.472 -22.156  1.00  0.00     0.017 C 
ATOM     28  C   UNL     1       5.046   7.814 -20.773  1.00  0.00     0.012 C 
ATOM     29  C   UNL     1       6.434   8.669 -22.717  1.00  0.00     0.012 C 
ENDBRANCH  20  27
BRANCH  21  30
ATOM     30  O   UNL     1       0.931   8.412 -24.979  1.00  0.00    -0.504 OA
ATOM     31  H   UNL     1      -0.005   8.343 -24.604  1.00  0.00     0.293 HD
ENDBRANCH  21  30
BRANCH  22  32
ATOM     32  O   UNL     1       3.153   9.812 -23.891  1.00  0.00    -0.504 OA
ATOM     33  H   UNL     1       2.375  10.410 -24.128  1.00  0.00     0.293 HD
ENDBRANCH  22  32
ENDBRANCH  11  12
BRANCH  10  34
ATOM     34  O   UNL     1       4.186   1.663 -21.622  1.00  0.00    -0.507 OA
ATOM     35  H   UNL     1       4.638   2.493 -21.256  1.00  0.00     0.293 HD
ENDBRANCH  10  34
BRANCH   9  36
ATOM     36  C   UNL     1       5.270  -2.725 -26.029  1.00  0.00     0.017 C 
ATOM     37  C   UNL     1       3.986  -2.676 -26.864  1.00  0.00     0.012 C 
ATOM     38  C   UNL     1       6.449  -2.076 -26.780  1.00  0.00     0.012 C 
ENDBRANCH   9  36
BRANCH   6  39
ATOM     39  C   UNL     1       3.546  -0.801 -20.818  1.00  0.00     0.264 C 
ATOM     40  O   UNL     1       4.206  -0.572 -19.770  1.00  0.00    -0.298 OA
ENDBRANCH   6  39
BRANCH   8  41
ATOM     41  O   UNL     1       5.497  -4.312 -23.643  1.00  0.00    -0.504 OA
ATOM     42  H   UNL     1       5.081  -5.119 -23.200  1.00  0.00     0.293 HD
ENDBRANCH   8  41
BRANCH   7  43
ATOM     43  O   UNL     1       4.287  -3.448 -21.218  1.00  0.00    -0.504 OA
ATOM     44  H   UNL     1       4.068  -4.427 -21.348  1.00  0.00     0.293 HD
ENDBRANCH   7  43
TORSDOF 11
ENDMDL
MODEL 7
REMARK VINA RESULT:    -6.892      2.253      8.908
REMARK INTER + INTRA:         -10.311
REMARK INTER:                  -9.779
REMARK INTRA:                  -0.532
REMARK UNBOUND:                -0.195
REMARK SMILES Cc1cc2c(C(C)C)c(O)c(O)c(C=O)c2c(O)c1-c1c(C)cc2c(C(C)C)c(O)c(O)c(C=O)c2c1O
REMARK SMILES IDX 1 1 2 2 3 3 4 4 16 5 13 6 11 7 9 8 5 9 17 10 19 11 20 12
REMARK SMILES IDX 37 13 21 14 36 15 23 16 22 17 24 18 33 19 25 20 31 21 29 22
REMARK SMILES IDX 38 23 34 25 35 26 26 27 27 28 28 29 32 30 30 32 18 34 6 36
REMARK SMILES IDX 7 37 8 38 14 39 15 40 10 41 12 43
REMARK H PARENT 38 24 32 31 30 33 18 35 10 42 12 44
REMARK Flexibility Score: inf
ROOT
ATOM      1  C   UNL     1       5.029   3.738 -22.314  1.00  0.00     0.045 C 
ATOM      2  C   UNL     1       4.698   4.846 -23.285  1.00  0.00    -0.039 A 
ATOM      3  C   UNL     1       5.075   6.154 -22.982  1.00  0.00     0.013 A 
ATOM      4  C   UNL     1       4.767   7.238 -23.837  1.00  0.00    -0.006 A 
ATOM      5  C   UNL     1       4.121   6.965 -25.081  1.00  0.00     0.039 A 
ATOM      6  C   UNL     1       3.827   8.052 -25.956  1.00  0.00     0.072 A 
ATOM      7  C   UNL     1       4.332   9.335 -25.675  1.00  0.00     0.169 A 
ATOM      8  C   UNL     1       5.056   9.571 -24.494  1.00  0.00     0.162 A 
ATOM      9  C   UNL     1       5.133   8.576 -23.495  1.00  0.00     0.008 A 
ATOM     10  C   UNL     1       3.836   5.612 -25.432  1.00  0.00     0.132 A 
ATOM     11  C   UNL     1       4.081   4.569 -24.515  1.00  0.00     0.031 A 
ENDROOT
BRANCH  11  12
ATOM     12  C   UNL     1       3.720   3.168 -24.858  1.00  0.00     0.031 A 
ATOM     13  C   UNL     1       4.687   2.298 -25.405  1.00  0.00     0.132 A 
ATOM     14  C   UNL     1       2.403   2.721 -24.662  1.00  0.00    -0.039 A 
ATOM     15  C   UNL     1       4.366   0.933 -25.667  1.00  0.00     0.039 A 
ATOM     16  C   UNL     1       2.061   1.414 -25.011  1.00  0.00     0.013 A 
ATOM     17  C   UNL     1       1.336   3.651 -24.139  1.00  0.00     0.045 C 
ATOM     18  C   UNL     1       3.023   0.489 -25.474  1.00  0.00    -0.006 A 
ATOM     19  C   UNL     1       5.334   0.008 -26.157  1.00  0.00     0.072 A 
ATOM     20  C   UNL     1       2.661  -0.857 -25.793  1.00  0.00     0.008 A 
ATOM     21  C   UNL     1       4.926  -1.258 -26.614  1.00  0.00     0.169 A 
ATOM     22  C   UNL     1       3.581  -1.651 -26.511  1.00  0.00     0.162 A 
BRANCH  13  23
ATOM     23  O   UNL     1       5.951   2.803 -25.734  1.00  0.00    -0.507 OA
ATOM     24  H   UNL     1       6.429   2.606 -26.604  1.00  0.00     0.293 HD
ENDBRANCH  13  23
BRANCH  19  25
ATOM     25  C   UNL     1       6.789   0.298 -26.122  1.00  0.00     0.264 C 
ATOM     26  O   UNL     1       7.612  -0.421 -26.750  1.00  0.00    -0.298 OA
ENDBRANCH  19  25
BRANCH  20  27
ATOM     27  C   UNL     1       1.285  -1.437 -25.418  1.00  0.00     0.017 C 
ATOM     28  C   UNL     1       0.432  -1.676 -26.668  1.00  0.00     0.012 C 
ATOM     29  C   UNL     1       1.360  -2.702 -24.542  1.00  0.00     0.012 C 
ENDBRANCH  20  27
BRANCH  21  30
ATOM     30  O   UNL     1       5.892  -2.133 -27.125  1.00  0.00    -0.504 OA
ATOM     31  H   UNL     1       6.764  -1.833 -27.540  1.00  0.00     0.293 HD
ENDBRANCH  21  30
BRANCH  22  32
ATOM     32  O   UNL     1       3.135  -2.824 -27.125  1.00  0.00    -0.504 OA
ATOM     33  H   UNL     1       2.399  -3.411 -26.758  1.00  0.00     0.293 HD
ENDBRANCH  22  32
ENDBRANCH  11  12
BRANCH  10  34
ATOM     34  O   UNL     1       3.356   5.300 -26.709  1.00  0.00    -0.507 OA
ATOM     35  H   UNL     1       2.534   4.732 -26.881  1.00  0.00     0.293 HD
ENDBRANCH  10  34
BRANCH   9  36
ATOM     36  C   UNL     1       5.654   8.941 -22.093  1.00  0.00     0.017 C 
ATOM     37  C   UNL     1       4.800   8.283 -21.004  1.00  0.00     0.012 C 
ATOM     38  C   UNL     1       7.151   8.640 -21.886  1.00  0.00     0.012 C 
ENDBRANCH   9  36
BRANCH   6  39
ATOM     39  C   UNL     1       2.924   7.902 -27.123  1.00  0.00     0.264 C 
ATOM     40  O   UNL     1       1.680   7.775 -26.973  1.00  0.00    -0.298 OA
ENDBRANCH   6  39
BRANCH   8  41
ATOM     41  O   UNL     1       5.719  10.786 -24.297  1.00  0.00    -0.504 OA
ATOM     42  H   UNL     1       6.722  10.878 -24.217  1.00  0.00     0.293 HD
ENDBRANCH   8  41
BRANCH   7  43
ATOM     43  O   UNL     1       4.053  10.378 -26.566  1.00  0.00    -0.504 OA
ATOM     44  H   UNL     1       3.506  11.195 -26.328  1.00  0.00     0.293 HD
ENDBRANCH   7  43
TORSDOF 11
ENDMDL
MODEL 8
REMARK VINA RESULT:    -6.849      2.584      9.034
REMARK INTER + INTRA:         -10.248
REMARK INTER:                  -9.911
REMARK INTRA:                  -0.337
REMARK UNBOUND:                -0.195
REMARK SMILES Cc1cc2c(C(C)C)c(O)c(O)c(C=O)c2c(O)c1-c1c(C)cc2c(C(C)C)c(O)c(O)c(C=O)c2c1O
REMARK SMILES IDX 1 1 2 2 3 3 4 4 16 5 13 6 11 7 9 8 5 9 17 10 19 11 20 12
REMARK SMILES IDX 37 13 21 14 36 15 23 16 22 17 24 18 33 19 25 20 31 21 29 22
REMARK SMILES IDX 38 23 34 25 35 26 26 27 27 28 28 29 32 30 30 32 18 34 6 36
REMARK SMILES IDX 7 37 8 38 14 39 15 40 10 41 12 43
REMARK H PARENT 38 24 32 31 30 33 18 35 10 42 12 44
REMARK Flexibility Score: inf
ROOT
ATOM      1  C   UNL     1       4.503   3.797 -27.125  1.00  0.00     0.045 C 
ATOM      2  C   UNL     1       4.378   4.679 -25.906  1.00  0.00    -0.039 A 
ATOM      3  C   UNL     1       4.419   6.065 -26.059  1.00  0.00     0.013 A 
ATOM      4  C   UNL     1       4.338   6.942 -24.954  1.00  0.00    -0.006 A 
ATOM      5  C   UNL     1       4.126   6.388 -23.654  1.00  0.00     0.039 A 
ATOM      6  C   UNL     1       4.022   7.270 -22.539  1.00  0.00     0.072 A 
ATOM      7  C   UNL     1       3.944   8.659 -22.748  1.00  0.00     0.169 A 
ATOM      8  C   UNL     1       4.051   9.190 -24.045  1.00  0.00     0.162 A 
ATOM      9  C   UNL     1       4.414   8.359 -25.126  1.00  0.00     0.008 A 
ATOM     10  C   UNL     1       3.976   4.976 -23.520  1.00  0.00     0.132 A 
ATOM     11  C   UNL     1       4.151   4.129 -24.635  1.00  0.00     0.031 A 
ENDROOT
BRANCH  11  12
ATOM     12  C   UNL     1       4.060   2.653 -24.478  1.00  0.00     0.031 A 
ATOM     13  C   UNL     1       2.947   1.951 -24.986  1.00  0.00     0.132 A 
ATOM     14  C   UNL     1       5.075   1.963 -23.796  1.00  0.00    -0.039 A 
ATOM     15  C   UNL     1       2.891   0.528 -24.904  1.00  0.00     0.039 A 
ATOM     16  C   UNL     1       4.974   0.581 -23.625  1.00  0.00     0.013 A 
ATOM     17  C   UNL     1       6.243   2.700 -23.187  1.00  0.00     0.045 C 
ATOM     18  C   UNL     1       3.921  -0.166 -24.199  1.00  0.00    -0.006 A 
ATOM     19  C   UNL     1       1.815  -0.221 -25.463  1.00  0.00     0.072 A 
ATOM     20  C   UNL     1       3.853  -1.585 -24.045  1.00  0.00     0.008 A 
ATOM     21  C   UNL     1       1.682  -1.589 -25.165  1.00  0.00     0.169 A 
ATOM     22  C   UNL     1       2.652  -2.245 -24.387  1.00  0.00     0.162 A 
BRANCH  13  23
ATOM     23  O   UNL     1       1.875   2.671 -25.528  1.00  0.00    -0.507 OA
ATOM     24  H   UNL     1       1.871   3.677 -25.641  1.00  0.00     0.293 HD
ENDBRANCH  13  23
BRANCH  19  25
ATOM     25  C   UNL     1       0.863   0.373 -26.435  1.00  0.00     0.264 C 
ATOM     26  O   UNL     1      -0.382   0.291 -26.261  1.00  0.00    -0.298 OA
ENDBRANCH  19  25
BRANCH  20  27
ATOM     27  C   UNL     1       5.030  -2.397 -23.473  1.00  0.00     0.017 C 
ATOM     28  C   UNL     1       4.713  -2.901 -22.061  1.00  0.00     0.012 C 
ATOM     29  C   UNL     1       5.496  -3.546 -24.387  1.00  0.00     0.012 C 
ENDBRANCH  20  27
BRANCH  21  30
ATOM     30  O   UNL     1       0.595  -2.293 -25.698  1.00  0.00    -0.504 OA
ATOM     31  H   UNL     1       0.633  -2.827 -26.555  1.00  0.00     0.293 HD
ENDBRANCH  21  30
BRANCH  22  32
ATOM     32  O   UNL     1       2.437  -3.548 -23.934  1.00  0.00    -0.504 OA
ATOM     33  H   UNL     1       3.162  -4.247 -23.853  1.00  0.00     0.293 HD
ENDBRANCH  22  32
ENDBRANCH  11  12
BRANCH  10  34
ATOM     34  O   UNL     1       3.606   4.418 -22.291  1.00  0.00    -0.507 OA
ATOM     35  H   UNL     1       3.202   3.495 -22.188  1.00  0.00     0.293 HD
ENDBRANCH  10  34
BRANCH   9  36
ATOM     36  C   UNL     1       4.828   8.991 -26.468  1.00  0.00     0.017 C 
ATOM     37  C   UNL     1       3.643   9.706 -27.125  1.00  0.00     0.012 C 
ATOM     38  C   UNL     1       6.055   9.918 -26.368  1.00  0.00     0.012 C 
ENDBRANCH   9  36
BRANCH   6  39
ATOM     39  C   UNL     1       4.081   6.780 -21.140  1.00  0.00     0.264 C 
ATOM     40  O   UNL     1       4.738   7.397 -20.260  1.00  0.00    -0.298 OA
ENDBRANCH   6  39
BRANCH   8  41
ATOM     41  O   UNL     1       3.787  10.542 -24.283  1.00  0.00    -0.504 OA
ATOM     42  H   UNL     1       2.957  11.022 -23.964  1.00  0.00     0.293 HD
ENDBRANCH   8  41
BRANCH   7  43
ATOM     43  O   UNL     1       3.813   9.500 -21.637  1.00  0.00    -0.504 OA
ATOM     44  H   UNL     1       3.803  10.510 -21.688  1.00  0.00     0.293 HD
ENDBRANCH   7  43
TORSDOF 11
ENDMDL
MODEL 9
REMARK VINA RESULT:    -6.622      2.435      3.464
REMARK INTER + INTRA:          -9.915
REMARK INTER:                  -9.582
REMARK INTRA:                  -0.333
REMARK UNBOUND:                -0.195
REMARK SMILES Cc1cc2c(C(C)C)c(O)c(O)c(C=O)c2c(O)c1-c1c(C)cc2c(C(C)C)c(O)c(O)c(C=O)c2c1O
REMARK SMILES IDX 1 1 2 2 3 3 4 4 16 5 13 6 11 7 9 8 5 9 17 10 19 11 20 12
REMARK SMILES IDX 37 13 21 14 36 15 23 16 22 17 24 18 33 19 25 20 31 21 29 22
REMARK SMILES IDX 38 23 34 25 35 26 26 27 27 28 28 29 32 30 30 32 18 34 6 36
REMARK SMILES IDX 7 37 8 38 14 39 15 40 10 41 12 43
REMARK H PARENT 38 24 32 31 30 33 18 35 10 42 12 44
REMARK Flexibility Score: inf
ROOT
ATOM      1  C   UNL     1       1.649   2.394 -27.122  1.00  0.00     0.045 C 
ATOM      2  C   UNL     1       2.373   1.703 -25.992  1.00  0.00    -0.039 A 
ATOM      3  C   UNL     1       2.313   0.313 -25.889  1.00  0.00     0.013 A 
ATOM      4  C   UNL     1       2.945  -0.387 -24.837  1.00  0.00    -0.006 A 
ATOM      5  C   UNL     1       3.733   0.349 -23.901  1.00  0.00     0.039 A 
ATOM      6  C   UNL     1       4.390  -0.356 -22.850  1.00  0.00     0.072 A 
ATOM      7  C   UNL     1       4.408  -1.762 -22.853  1.00  0.00     0.169 A 
ATOM      8  C   UNL     1       3.712  -2.481 -23.841  1.00  0.00     0.162 A 
ATOM      9  C   UNL     1       2.846  -1.809 -24.731  1.00  0.00     0.008 A 
ATOM     10  C   UNL     1       3.879   1.758 -24.075  1.00  0.00     0.132 A 
ATOM     11  C   UNL     1       3.162   2.431 -25.086  1.00  0.00     0.031 A 
ENDROOT
BRANCH  11  12
ATOM     12  C   UNL     1       3.264   3.908 -25.222  1.00  0.00     0.031 A 
ATOM     13  C   UNL     1       2.228   4.739 -24.744  1.00  0.00     0.132 A 
ATOM     14  C   UNL     1       4.383   4.473 -25.854  1.00  0.00    -0.039 A 
ATOM     15  C   UNL     1       2.353   6.158 -24.805  1.00  0.00     0.039 A 
ATOM     16  C   UNL     1       4.462   5.859 -26.005  1.00  0.00     0.013 A 
ATOM     17  C   UNL     1       5.472   3.602 -26.431  1.00  0.00     0.045 C 
ATOM     18  C   UNL     1       3.490   6.726 -25.458  1.00  0.00    -0.006 A 
ATOM     19  C   UNL     1       1.359   7.030 -24.274  1.00  0.00     0.072 A 
ATOM     20  C   UNL     1       3.606   8.144 -25.591  1.00  0.00     0.008 A 
ATOM     21  C   UNL     1       1.410   8.408 -24.554  1.00  0.00     0.169 A 
ATOM     22  C   UNL     1       2.485   8.945 -25.284  1.00  0.00     0.162 A 
BRANCH  13  23
ATOM     23  O   UNL     1       1.054   4.153 -24.254  1.00  0.00    -0.507 OA
ATOM     24  H   UNL     1       0.906   3.154 -24.192  1.00  0.00     0.293 HD
ENDBRANCH  13  23
BRANCH  19  25
ATOM     25  C   UNL     1       0.303   6.549 -23.348  1.00  0.00     0.264 C 
ATOM     26  O   UNL     1      -0.901   6.891 -23.499  1.00  0.00    -0.298 OA
ENDBRANCH  19  25
BRANCH  20  27
ATOM     27  C   UNL     1       4.897   8.807 -26.105  1.00  0.00     0.017 C 
ATOM     28  C   UNL     1       4.580   9.906 -27.125  1.00  0.00     0.012 C 
ATOM     29  C   UNL     1       5.816   9.332 -24.985  1.00  0.00     0.012 C 
ENDBRANCH  20  27
BRANCH  21  30
ATOM     30  O   UNL     1       0.400   9.236 -24.050  1.00  0.00    -0.504 OA
ATOM     31  H   UNL     1       0.545   9.931 -23.331  1.00  0.00     0.293 HD
ENDBRANCH  21  30
BRANCH  22  32
ATOM     32  O   UNL     1       2.453  10.270 -25.723  1.00  0.00    -0.504 OA
ATOM     33  H   UNL     1       3.274  10.807 -25.963  1.00  0.00     0.293 HD
ENDBRANCH  22  32
ENDBRANCH  11  12
BRANCH  10  34
ATOM     34  O   UNL     1       4.772   2.480 -23.276  1.00  0.00    -0.507 OA
ATOM     35  H   UNL     1       5.404   2.054 -22.608  1.00  0.00     0.293 HD
ENDBRANCH  10  34
BRANCH   9  36
ATOM     36  C   UNL     1       1.862  -2.620 -25.595  1.00  0.00     0.017 C 
ATOM     37  C   UNL     1       0.440  -2.061 -25.475  1.00  0.00     0.012 C 
ATOM     38  C   UNL     1       2.288  -2.749 -27.070  1.00  0.00     0.012 C 
ENDBRANCH   9  36
BRANCH   6  39
ATOM     39  C   UNL     1       4.991   0.344 -21.689  1.00  0.00     0.264 C 
ATOM     40  O   UNL     1       4.276   0.973 -20.864  1.00  0.00    -0.298 OA
ENDBRANCH   6  39
BRANCH   8  41
ATOM     41  O   UNL     1       3.877  -3.863 -23.964  1.00  0.00    -0.504 OA
ATOM     42  H   UNL     1       3.334  -4.545 -23.454  1.00  0.00     0.293 HD
ENDBRANCH   8  41
BRANCH   7  43
ATOM     43  O   UNL     1       5.085  -2.429 -21.825  1.00  0.00    -0.504 OA
ATOM     44  H   UNL     1       5.560  -1.962 -21.064  1.00  0.00     0.293 HD
ENDBRANCH   7  43
TORSDOF 11
ENDMDL
