MODEL 1
REMARK VINA RESULT:    -5.100      0.000      0.000
REMARK INTER + INTRA:          -5.100
REMARK INTER:                  -5.100
REMARK INTRA:                   0.000
REMARK UNBOUND:                 0.000
REMARK SMILES CC1=CC(=O)[C@@H]2C[C@H]1C2(C)C
REMARK SMILES IDX 1 1 2 2 3 3 4 4 5 5 6 6 7 7 8 8 9 9 10 10 11 11
REMARK H PARENT
REMARK Flexibility Score: inf
ROOT
ATOM      1  C   UNL     1       1.281 -18.771  -4.132  1.00  0.00     0.040 C 
ATOM      2  C   UNL     1       2.137 -19.584  -5.050  1.00  0.00    -0.066 C 
ATOM      3  C   UNL     1       3.105 -20.412  -4.568  1.00  0.00     0.047 C 
ATOM      4  C   UNL     1       3.874 -21.197  -5.588  1.00  0.00     0.159 C 
ATOM      5  O   UNL     1       4.767 -22.024  -5.266  1.00  0.00    -0.295 OA
ATOM      6  C   UNL     1       3.498 -20.924  -7.044  1.00  0.00     0.067 C 
ATOM      7  C   UNL     1       3.418 -19.384  -7.131  1.00  0.00     0.021 C 
ATOM      8  C   UNL     1       1.979 -19.513  -6.584  1.00  0.00     0.022 C 
ATOM      9  C   UNL     1       1.948 -20.955  -7.168  1.00  0.00    -0.019 C 
ATOM     10  C   UNL     1       1.166 -22.049  -6.387  1.00  0.00     0.012 C 
ATOM     11  C   UNL     1       1.475 -20.984  -8.644  1.00  0.00     0.012 C 
ENDROOT
TORSDOF 0
ENDMDL
MODEL 2
REMARK VINA RESULT:    -4.864     11.784     12.783
REMARK INTER + INTRA:          -4.864
REMARK INTER:                  -4.864
REMARK INTRA:                   0.000
REMARK UNBOUND:                 0.000
REMARK SMILES CC1=CC(=O)[C@@H]2C[C@H]1C2(C)C
REMARK SMILES IDX 1 1 2 2 3 3 4 4 5 5 6 6 7 7 8 8 9 9 10 10 11 11
REMARK H PARENT
REMARK Flexibility Score: inf
ROOT
ATOM      1  C   UNL     1      -7.584 -24.705  -1.879  1.00  0.00     0.040 C 
ATOM      2  C   UNL     1      -7.331 -26.176  -1.768  1.00  0.00    -0.066 C 
ATOM      3  C   UNL     1      -8.293 -27.027  -1.315  1.00  0.00     0.047 C 
ATOM      4  C   UNL     1      -7.928 -28.481  -1.280  1.00  0.00     0.159 C 
ATOM      5  O   UNL     1      -8.742 -29.369  -0.918  1.00  0.00    -0.295 OA
ATOM      6  C   UNL     1      -6.499 -28.807  -1.716  1.00  0.00     0.067 C 
ATOM      7  C   UNL     1      -5.632 -27.760  -0.984  1.00  0.00     0.021 C 
ATOM      8  C   UNL     1      -5.969 -26.797  -2.144  1.00  0.00     0.022 C 
ATOM      9  C   UNL     1      -6.200 -28.048  -3.040  1.00  0.00    -0.019 C 
ATOM     10  C   UNL     1      -7.315 -27.982  -4.122  1.00  0.00     0.012 C 
ATOM     11  C   UNL     1      -4.895 -28.536  -3.719  1.00  0.00     0.012 C 
ENDROOT
TORSDOF 0
ENDMDL
MODEL 3
REMARK VINA RESULT:    -4.851     12.061     13.885
REMARK INTER + INTRA:          -4.851
REMARK INTER:                  -4.851
REMARK INTRA:                   0.000
REMARK UNBOUND:                 0.000
REMARK SMILES CC1=CC(=O)[C@@H]2C[C@H]1C2(C)C
REMARK SMILES IDX 1 1 2 2 3 3 4 4 5 5 6 6 7 7 8 8 9 9 10 10 11 11
REMARK H PARENT
REMARK Flexibility Score: inf
ROOT
ATOM      1  C   UNL     1      -7.941 -31.032  -0.779  1.00  0.00     0.040 C 
ATOM      2  C   UNL     1      -7.863 -30.060  -1.913  1.00  0.00    -0.066 C 
ATOM      3  C   UNL     1      -8.894 -29.216  -2.195  1.00  0.00     0.047 C 
ATOM      4  C   UNL     1      -8.681 -28.268  -3.336  1.00  0.00     0.159 C 
ATOM      5  O   UNL     1      -9.543 -27.414  -3.670  1.00  0.00    -0.295 OA
ATOM      6  C   UNL     1      -7.345 -28.410  -4.065  1.00  0.00     0.067 C 
ATOM      7  C   UNL     1      -7.184 -29.932  -4.266  1.00  0.00     0.021 C 
ATOM      8  C   UNL     1      -6.621 -29.976  -2.827  1.00  0.00     0.022 C 
ATOM      9  C   UNL     1      -6.210 -28.486  -3.005  1.00  0.00    -0.019 C 
ATOM     10  C   UNL     1      -6.290 -27.548  -1.767  1.00  0.00     0.012 C 
ATOM     11  C   UNL     1      -4.802 -28.335  -3.635  1.00  0.00     0.012 C 
ENDROOT
TORSDOF 0
ENDMDL
MODEL 4
REMARK VINA RESULT:    -4.843     11.289     12.503
REMARK INTER + INTRA:          -4.843
REMARK INTER:                  -4.843
REMARK INTRA:                   0.000
REMARK UNBOUND:                 0.000
REMARK SMILES CC1=CC(=O)[C@@H]2C[C@H]1C2(C)C
REMARK SMILES IDX 1 1 2 2 3 3 4 4 5 5 6 6 7 7 8 8 9 9 10 10 11 11
REMARK H PARENT
REMARK Flexibility Score: inf
ROOT
ATOM      1  C   UNL     1      -8.665 -25.654  -3.267  1.00  0.00     0.040 C 
ATOM      2  C   UNL     1      -7.569 -26.617  -2.936  1.00  0.00    -0.066 C 
ATOM      3  C   UNL     1      -6.921 -26.569  -1.739  1.00  0.00     0.047 C 
ATOM      4  C   UNL     1      -5.863 -27.608  -1.517  1.00  0.00     0.159 C 
ATOM      5  O   UNL     1      -5.222 -27.692  -0.437  1.00  0.00    -0.295 OA
ATOM      6  C   UNL     1      -5.620 -28.556  -2.690  1.00  0.00     0.067 C 
ATOM      7  C   UNL     1      -5.564 -27.626  -3.922  1.00  0.00     0.021 C 
ATOM      8  C   UNL     1      -7.107 -27.697  -3.938  1.00  0.00     0.022 C 
ATOM      9  C   UNL     1      -6.995 -29.066  -3.208  1.00  0.00    -0.019 C 
ATOM     10  C   UNL     1      -8.087 -29.434  -2.164  1.00  0.00     0.012 C 
ATOM     11  C   UNL     1      -6.851 -30.251  -4.196  1.00  0.00     0.012 C 
ENDROOT
TORSDOF 0
ENDMDL
MODEL 5
REMARK VINA RESULT:    -4.787      1.890      2.919
REMARK INTER + INTRA:          -4.787
REMARK INTER:                  -4.787
REMARK INTRA:                   0.000
REMARK UNBOUND:                 0.000
REMARK SMILES CC1=CC(=O)[C@@H]2C[C@H]1C2(C)C
REMARK SMILES IDX 1 1 2 2 3 3 4 4 5 5 6 6 7 7 8 8 9 9 10 10 11 11
REMARK H PARENT
REMARK Flexibility Score: inf
ROOT
ATOM      1  C   UNL     1       0.333 -21.433  -5.231  1.00  0.00     0.040 C 
ATOM      2  C   UNL     1       1.463 -20.653  -5.825  1.00  0.00    -0.066 C 
ATOM      3  C   UNL     1       1.560 -19.305  -5.656  1.00  0.00     0.047 C 
ATOM      4  C   UNL     1       2.754 -18.644  -6.274  1.00  0.00     0.159 C 
ATOM      5  O   UNL     1       2.976 -17.411  -6.155  1.00  0.00    -0.295 OA
ATOM      6  C   UNL     1       3.683 -19.571  -7.058  1.00  0.00     0.067 C 
ATOM      7  C   UNL     1       2.726 -20.428  -7.915  1.00  0.00     0.021 C 
ATOM      8  C   UNL     1       2.561 -21.332  -6.672  1.00  0.00     0.022 C 
ATOM      9  C   UNL     1       3.959 -20.837  -6.198  1.00  0.00    -0.019 C 
ATOM     10  C   UNL     1       4.196 -20.657  -4.672  1.00  0.00     0.012 C 
ATOM     11  C   UNL     1       5.113 -21.699  -6.770  1.00  0.00     0.012 C 
ENDROOT
TORSDOF 0
ENDMDL
MODEL 6
REMARK VINA RESULT:    -4.728      1.929      3.226
REMARK INTER + INTRA:          -4.728
REMARK INTER:                  -4.728
REMARK INTRA:                   0.000
REMARK UNBOUND:                 0.000
REMARK SMILES CC1=CC(=O)[C@@H]2C[C@H]1C2(C)C
REMARK SMILES IDX 1 1 2 2 3 3 4 4 5 5 6 6 7 7 8 8 9 9 10 10 11 11
REMARK H PARENT
REMARK Flexibility Score: inf
ROOT
ATOM      1  C   UNL     1       5.211 -20.867  -7.107  1.00  0.00     0.040 C 
ATOM      2  C   UNL     1       3.860 -20.402  -6.661  1.00  0.00    -0.066 C 
ATOM      3  C   UNL     1       3.517 -19.084  -6.696  1.00  0.00     0.047 C 
ATOM      4  C   UNL     1       2.124 -18.751  -6.253  1.00  0.00     0.159 C 
ATOM      5  O   UNL     1       1.676 -17.575  -6.276  1.00  0.00    -0.295 OA
ATOM      6  C   UNL     1       1.288 -19.936  -5.771  1.00  0.00     0.067 C 
ATOM      7  C   UNL     1       2.243 -20.720  -4.845  1.00  0.00     0.021 C 
ATOM      8  C   UNL     1       2.799 -21.386  -6.124  1.00  0.00     0.022 C 
ATOM      9  C   UNL     1       1.430 -21.092  -6.803  1.00  0.00    -0.019 C 
ATOM     10  C   UNL     1       1.421 -20.736  -8.317  1.00  0.00     0.012 C 
ATOM     11  C   UNL     1       0.398 -22.224  -6.565  1.00  0.00     0.012 C 
ENDROOT
TORSDOF 0
ENDMDL
MODEL 7
REMARK VINA RESULT:    -4.680     12.339     13.797
REMARK INTER + INTRA:          -4.680
REMARK INTER:                  -4.680
REMARK INTRA:                   0.000
REMARK UNBOUND:                 0.000
REMARK SMILES CC1=CC(=O)[C@@H]2C[C@H]1C2(C)C
REMARK SMILES IDX 1 1 2 2 3 3 4 4 5 5 6 6 7 7 8 8 9 9 10 10 11 11
REMARK H PARENT
REMARK Flexibility Score: inf
ROOT
ATOM      1  C   UNL     1       5.030 -23.013   9.533  1.00  0.00     0.040 C 
ATOM      2  C   UNL     1       5.406 -23.673   8.244  1.00  0.00    -0.066 C 
ATOM      3  C   UNL     1       5.852 -24.959   8.210  1.00  0.00     0.047 C 
ATOM      4  C   UNL     1       6.166 -25.516   6.854  1.00  0.00     0.159 C 
ATOM      5  O   UNL     1       6.549 -26.703   6.688  1.00  0.00    -0.295 OA
ATOM      6  C   UNL     1       5.988 -24.543   5.689  1.00  0.00     0.067 C 
ATOM      7  C   UNL     1       6.657 -23.240   6.180  1.00  0.00     0.021 C 
ATOM      8  C   UNL     1       5.324 -22.926   6.895  1.00  0.00     0.022 C 
ATOM      9  C   UNL     1       4.615 -23.830   5.846  1.00  0.00    -0.019 C 
ATOM     10  C   UNL     1       3.393 -24.674   6.308  1.00  0.00     0.012 C 
ATOM     11  C   UNL     1       4.208 -23.047   4.572  1.00  0.00     0.012 C 
ENDROOT
TORSDOF 0
ENDMDL
MODEL 8
REMARK VINA RESULT:    -4.656      1.779      3.398
REMARK INTER + INTRA:          -4.656
REMARK INTER:                  -4.656
REMARK INTRA:                   0.000
REMARK UNBOUND:                 0.000
REMARK SMILES CC1=CC(=O)[C@@H]2C[C@H]1C2(C)C
REMARK SMILES IDX 1 1 2 2 3 3 4 4 5 5 6 6 7 7 8 8 9 9 10 10 11 11
REMARK H PARENT
REMARK Flexibility Score: inf
ROOT
ATOM      1  C   UNL     1       1.508 -21.407  -8.344  1.00  0.00     0.040 C 
ATOM      2  C   UNL     1       1.596 -20.750  -7.003  1.00  0.00    -0.066 C 
ATOM      3  C   UNL     1       0.855 -21.190  -5.948  1.00  0.00     0.047 C 
ATOM      4  C   UNL     1       1.057 -20.468  -4.650  1.00  0.00     0.159 C 
ATOM      5  O   UNL     1       0.460 -20.804  -3.595  1.00  0.00    -0.295 OA
ATOM      6  C   UNL     1       2.037 -19.296  -4.698  1.00  0.00     0.067 C 
ATOM      7  C   UNL     1       1.641 -18.524  -5.976  1.00  0.00     0.021 C 
ATOM      8  C   UNL     1       2.514 -19.534  -6.754  1.00  0.00     0.022 C 
ATOM      9  C   UNL     1       3.322 -19.756  -5.443  1.00  0.00    -0.019 C 
ATOM     10  C   UNL     1       3.874 -21.181  -5.152  1.00  0.00     0.012 C 
ATOM     11  C   UNL     1       4.487 -18.746  -5.290  1.00  0.00     0.012 C 
ENDROOT
TORSDOF 0
ENDMDL
MODEL 9
REMARK VINA RESULT:    -4.506     11.637     12.940
REMARK INTER + INTRA:          -4.506
REMARK INTER:                  -4.506
REMARK INTRA:                   0.000
REMARK UNBOUND:                 0.000
REMARK SMILES CC1=CC(=O)[C@@H]2C[C@H]1C2(C)C
REMARK SMILES IDX 1 1 2 2 3 3 4 4 5 5 6 6 7 7 8 8 9 9 10 10 11 11
REMARK H PARENT
REMARK Flexibility Score: inf
ROOT
ATOM      1  C   UNL     1      -9.276 -28.915  -0.609  1.00  0.00     0.040 C 
ATOM      2  C   UNL     1      -8.412 -27.974  -1.388  1.00  0.00    -0.066 C 
ATOM      3  C   UNL     1      -8.371 -26.644  -1.097  1.00  0.00     0.047 C 
ATOM      4  C   UNL     1      -7.442 -25.813  -1.930  1.00  0.00     0.159 C 
ATOM      5  O   UNL     1      -7.286 -24.580  -1.733  1.00  0.00    -0.295 OA
ATOM      6  C   UNL     1      -6.698 -26.567  -3.032  1.00  0.00     0.067 C 
ATOM      7  C   UNL     1      -7.787 -27.436  -3.697  1.00  0.00     0.021 C 
ATOM      8  C   UNL     1      -7.540 -28.459  -2.566  1.00  0.00     0.022 C 
ATOM      9  C   UNL     1      -6.106 -27.871  -2.425  1.00  0.00    -0.019 C 
ATOM     10  C   UNL     1      -5.474 -27.806  -1.006  1.00  0.00     0.012 C 
ATOM     11  C   UNL     1      -5.092 -28.557  -3.376  1.00  0.00     0.012 C 
ENDROOT
TORSDOF 0
ENDMDL
