MODEL 1
REMARK VINA RESULT:    -6.275      0.000      0.000
REMARK INTER + INTRA:          -7.497
REMARK INTER:                  -7.742
REMARK INTRA:                   0.246
REMARK UNBOUND:                 0.246
REMARK SMILES Oc1cc(O)c2cc(O)c(-c3cc(O)c(O)c(O)c3)[o+]c2c1
REMARK SMILES IDX 10 1 20 2 21 3 22 4 2 5 3 6 4 7 6 8 7 9 8 10 11 11 12 12
REMARK SMILES IDX 13 13 19 14 15 15 17 16 14 17 16 19 18 21 9 23 1 25 5 27
REMARK H PARENT 14 18 16 20 18 22 9 24 1 26 5 28
REMARK Flexibility Score: inf
ROOT
ATOM      1  C   UNL     1      49.324 -39.484  29.891  1.00  0.00     0.402 A 
ATOM      2  O   UNL     1      48.993 -40.760  29.702  1.00  0.00    -0.202 OA
ATOM      3  C   UNL     1      47.870 -41.297  30.170  1.00  0.00     0.368 A 
ATOM      4  C   UNL     1      47.597 -42.648  29.932  1.00  0.00     0.162 A 
ATOM      5  C   UNL     1      46.422 -43.226  30.420  1.00  0.00     0.128 A 
ATOM      6  C   UNL     1      45.512 -42.449  31.152  1.00  0.00     0.093 A 
ATOM      7  C   UNL     1      45.772 -41.093  31.397  1.00  0.00     0.136 A 
ATOM      8  C   UNL     1      46.956 -40.512  30.904  1.00  0.00     0.125 A 
ATOM      9  C   UNL     1      47.263 -39.163  31.112  1.00  0.00     0.078 A 
ATOM     10  C   UNL     1      48.450 -38.633  30.595  1.00  0.00     0.223 A 
ENDROOT
BRANCH   1  11
ATOM     11  C   UNL     1      50.608 -39.004  29.329  1.00  0.00     0.091 A 
ATOM     12  C   UNL     1      50.718 -37.672  28.903  1.00  0.00     0.068 A 
ATOM     13  C   UNL     1      51.912 -37.196  28.350  1.00  0.00     0.162 A 
ATOM     14  C   UNL     1      51.702 -39.869  29.160  1.00  0.00     0.068 A 
ATOM     15  C   UNL     1      53.011 -38.059  28.202  1.00  0.00     0.200 A 
ATOM     16  C   UNL     1      52.901 -39.400  28.605  1.00  0.00     0.162 A 
BRANCH  13  17
ATOM     17  O   UNL     1      51.986 -35.861  27.952  1.00  0.00    -0.504 OA
ATOM     18  H   UNL     1      52.449 -35.156  28.514  1.00  0.00     0.293 HD
ENDBRANCH  13  17
BRANCH  15  19
ATOM     19  O   UNL     1      54.198 -37.575  27.653  1.00  0.00    -0.502 OA
ATOM     20  H   UNL     1      55.108 -37.851  28.005  1.00  0.00     0.293 HD
ENDBRANCH  15  19
BRANCH  16  21
ATOM     21  O   UNL     1      53.982 -40.267  28.448  1.00  0.00    -0.504 OA
ATOM     22  H   UNL     1      54.661 -40.143  27.706  1.00  0.00     0.293 HD
ENDBRANCH  16  21
ENDBRANCH   1  11
BRANCH  10  23
ATOM     23  O   UNL     1      48.738 -37.278  30.755  1.00  0.00    -0.500 OA
ATOM     24  H   UNL     1      49.670 -36.956  30.988  1.00  0.00     0.294 HD
ENDBRANCH  10  23
BRANCH   5  25
ATOM     25  O   UNL     1      46.166 -44.573  30.175  1.00  0.00    -0.507 OA
ATOM     26  H   UNL     1      46.817 -45.296  30.454  1.00  0.00     0.293 HD
ENDBRANCH   5  25
BRANCH   7  27
ATOM     27  O   UNL     1      44.859 -40.330  32.125  1.00  0.00    -0.507 OA
ATOM     28  H   UNL     1      44.399 -39.522  31.720  1.00  0.00     0.293 HD
ENDBRANCH   7  27
TORSDOF 7
ENDMDL
MODEL 2
REMARK VINA RESULT:    -6.176      1.503      7.450
REMARK INTER + INTRA:          -7.374
REMARK INTER:                  -7.131
REMARK INTRA:                  -0.244
REMARK UNBOUND:                 0.246
REMARK SMILES Oc1cc(O)c2cc(O)c(-c3cc(O)c(O)c(O)c3)[o+]c2c1
REMARK SMILES IDX 10 1 20 2 21 3 22 4 2 5 3 6 4 7 6 8 7 9 8 10 11 11 12 12
REMARK SMILES IDX 13 13 19 14 15 15 17 16 14 17 16 19 18 21 9 23 1 25 5 27
REMARK H PARENT 14 18 16 20 18 22 9 24 1 26 5 28
REMARK Flexibility Score: inf
ROOT
ATOM      1  C   UNL     1      49.312 -41.286  30.602  1.00  0.00     0.402 A 
ATOM      2  O   UNL     1      49.470 -40.237  29.795  1.00  0.00    -0.202 OA
ATOM      3  C   UNL     1      50.646 -39.651  29.587  1.00  0.00     0.368 A 
ATOM      4  C   UNL     1      50.728 -38.551  28.728  1.00  0.00     0.162 A 
ATOM      5  C   UNL     1      51.956 -37.923  28.502  1.00  0.00     0.128 A 
ATOM      6  C   UNL     1      53.112 -38.399  29.138  1.00  0.00     0.093 A 
ATOM      7  C   UNL     1      53.045 -39.503  30.002  1.00  0.00     0.136 A 
ATOM      8  C   UNL     1      51.807 -40.133  30.228  1.00  0.00     0.125 A 
ATOM      9  C   UNL     1      51.682 -41.243  31.072  1.00  0.00     0.078 A 
ATOM     10  C   UNL     1      50.430 -41.837  31.258  1.00  0.00     0.223 A 
ENDROOT
BRANCH   1  11
ATOM     11  C   UNL     1      47.950 -41.846  30.761  1.00  0.00     0.091 A 
ATOM     12  C   UNL     1      47.660 -43.113  30.233  1.00  0.00     0.068 A 
ATOM     13  C   UNL     1      46.377 -43.659  30.352  1.00  0.00     0.162 A 
ATOM     14  C   UNL     1      46.925 -41.112  31.381  1.00  0.00     0.068 A 
ATOM     15  C   UNL     1      45.360 -42.930  30.990  1.00  0.00     0.200 A 
ATOM     16  C   UNL     1      45.636 -41.651  31.502  1.00  0.00     0.162 A 
BRANCH  13  17
ATOM     17  O   UNL     1      46.133 -44.928  29.826  1.00  0.00    -0.504 OA
ATOM     18  H   UNL     1      45.782 -45.689  30.396  1.00  0.00     0.293 HD
ENDBRANCH  13  17
BRANCH  15  19
ATOM     19  O   UNL     1      44.085 -43.484  31.107  1.00  0.00    -0.502 OA
ATOM     20  H   UNL     1      43.445 -43.216  31.847  1.00  0.00     0.293 HD
ENDBRANCH  15  19
BRANCH  16  21
ATOM     21  O   UNL     1      44.628 -40.916  32.125  1.00  0.00    -0.504 OA
ATOM     22  H   UNL     1      43.767 -41.350  32.435  1.00  0.00     0.293 HD
ENDBRANCH  16  21
ENDBRANCH   1  11
BRANCH  10  23
ATOM     23  O   UNL     1      50.307 -42.973  32.058  1.00  0.00    -0.500 OA
ATOM     24  H   UNL     1      49.529 -43.614  31.956  1.00  0.00     0.294 HD
ENDBRANCH  10  23
BRANCH   5  25
ATOM     25  O   UNL     1      52.020 -36.828  27.645  1.00  0.00    -0.507 OA
ATOM     26  H   UNL     1      52.744 -36.125  27.734  1.00  0.00     0.293 HD
ENDBRANCH   5  25
BRANCH   7  27
ATOM     27  O   UNL     1      54.201 -39.968  30.628  1.00  0.00    -0.507 OA
ATOM     28  H   UNL     1      54.230 -40.870  31.089  1.00  0.00     0.293 HD
ENDBRANCH   7  27
TORSDOF 7
ENDMDL
MODEL 3
REMARK VINA RESULT:    -6.153      1.495      7.271
REMARK INTER + INTRA:          -7.346
REMARK INTER:                  -7.109
REMARK INTRA:                  -0.237
REMARK UNBOUND:                 0.246
REMARK SMILES Oc1cc(O)c2cc(O)c(-c3cc(O)c(O)c(O)c3)[o+]c2c1
REMARK SMILES IDX 10 1 20 2 21 3 22 4 2 5 3 6 4 7 6 8 7 9 8 10 11 11 12 12
REMARK SMILES IDX 13 13 19 14 15 15 17 16 14 17 16 19 18 21 9 23 1 25 5 27
REMARK H PARENT 14 18 16 20 18 22 9 24 1 26 5 28
REMARK Flexibility Score: inf
ROOT
ATOM      1  C   UNL     1      49.332 -41.295  30.520  1.00  0.00     0.402 A 
ATOM      2  O   UNL     1      49.498 -40.236  29.731  1.00  0.00    -0.202 OA
ATOM      3  C   UNL     1      50.673 -39.640  29.551  1.00  0.00     0.368 A 
ATOM      4  C   UNL     1      50.764 -38.528  28.708  1.00  0.00     0.162 A 
ATOM      5  C   UNL     1      51.992 -37.891  28.512  1.00  0.00     0.128 A 
ATOM      6  C   UNL     1      53.139 -38.368  29.163  1.00  0.00     0.093 A 
ATOM      7  C   UNL     1      53.063 -39.483  30.010  1.00  0.00     0.136 A 
ATOM      8  C   UNL     1      51.826 -40.124  30.206  1.00  0.00     0.125 A 
ATOM      9  C   UNL     1      51.693 -41.245  31.034  1.00  0.00     0.078 A 
ATOM     10  C   UNL     1      50.441 -41.849  31.190  1.00  0.00     0.223 A 
ENDROOT
BRANCH   1  11
ATOM     11  C   UNL     1      47.971 -41.866  30.648  1.00  0.00     0.091 A 
ATOM     12  C   UNL     1      46.976 -41.135  31.315  1.00  0.00     0.068 A 
ATOM     13  C   UNL     1      45.687 -41.658  31.467  1.00  0.00     0.162 A 
ATOM     14  C   UNL     1      47.667 -43.149  30.163  1.00  0.00     0.068 A 
ATOM     15  C   UNL     1      45.382 -42.933  30.963  1.00  0.00     0.200 A 
ATOM     16  C   UNL     1      46.378 -43.681  30.313  1.00  0.00     0.162 A 
BRANCH  13  17
ATOM     17  O   UNL     1      44.723 -40.893  32.125  1.00  0.00    -0.504 OA
ATOM     18  H   UNL     1      44.788 -39.883  32.189  1.00  0.00     0.293 HD
ENDBRANCH  13  17
BRANCH  15  19
ATOM     19  O   UNL     1      44.093 -43.444  31.117  1.00  0.00    -0.502 OA
ATOM     20  H   UNL     1      43.540 -43.273  31.948  1.00  0.00     0.293 HD
ENDBRANCH  15  19
BRANCH  16  21
ATOM     21  O   UNL     1      46.087 -44.953  29.822  1.00  0.00    -0.504 OA
ATOM     22  H   UNL     1      46.619 -45.767  30.107  1.00  0.00     0.293 HD
ENDBRANCH  16  21
ENDBRANCH   1  11
BRANCH  10  23
ATOM     23  O   UNL     1      50.311 -42.996  31.972  1.00  0.00    -0.500 OA
ATOM     24  H   UNL     1      51.109 -43.420  32.431  1.00  0.00     0.294 HD
ENDBRANCH  10  23
BRANCH   5  25
ATOM     25  O   UNL     1      52.065 -36.784  27.670  1.00  0.00    -0.507 OA
ATOM     26  H   UNL     1      52.602 -35.962  27.919  1.00  0.00     0.293 HD
ENDBRANCH   5  25
BRANCH   7  27
ATOM     27  O   UNL     1      54.212 -39.949  30.651  1.00  0.00    -0.507 OA
ATOM     28  H   UNL     1      54.962 -39.323  30.920  1.00  0.00     0.293 HD
ENDBRANCH   7  27
TORSDOF 7
ENDMDL
MODEL 4
REMARK VINA RESULT:    -6.139      1.448      1.744
REMARK INTER + INTRA:          -7.329
REMARK INTER:                  -6.944
REMARK INTRA:                  -0.385
REMARK UNBOUND:                 0.246
REMARK SMILES Oc1cc(O)c2cc(O)c(-c3cc(O)c(O)c(O)c3)[o+]c2c1
REMARK SMILES IDX 10 1 20 2 21 3 22 4 2 5 3 6 4 7 6 8 7 9 8 10 11 11 12 12
REMARK SMILES IDX 13 13 19 14 15 15 17 16 14 17 16 19 18 21 9 23 1 25 5 27
REMARK H PARENT 14 18 16 20 18 22 9 24 1 26 5 28
REMARK Flexibility Score: inf
ROOT
ATOM      1  C   UNL     1      49.322 -40.615  30.642  1.00  0.00     0.402 A 
ATOM      2  O   UNL     1      48.865 -41.776  30.178  1.00  0.00    -0.202 OA
ATOM      3  C   UNL     1      47.628 -42.212  30.399  1.00  0.00     0.368 A 
ATOM      4  C   UNL     1      47.225 -43.447  29.881  1.00  0.00     0.162 A 
ATOM      5  C   UNL     1      45.930 -43.918  30.107  1.00  0.00     0.128 A 
ATOM      6  C   UNL     1      45.027 -43.149  30.857  1.00  0.00     0.093 A 
ATOM      7  C   UNL     1      45.416 -41.908  31.382  1.00  0.00     0.136 A 
ATOM      8  C   UNL     1      46.722 -41.435  31.153  1.00  0.00     0.125 A 
ATOM      9  C   UNL     1      47.162 -40.201  31.645  1.00  0.00     0.078 A 
ATOM     10  C   UNL     1      48.468 -39.774  31.384  1.00  0.00     0.223 A 
ENDROOT
BRANCH   1  11
ATOM     11  C   UNL     1      50.723 -40.243  30.338  1.00  0.00     0.091 A 
ATOM     12  C   UNL     1      51.015 -39.578  29.138  1.00  0.00     0.068 A 
ATOM     13  C   UNL     1      52.332 -39.231  28.816  1.00  0.00     0.162 A 
ATOM     14  C   UNL     1      51.776 -40.591  31.201  1.00  0.00     0.068 A 
ATOM     15  C   UNL     1      53.380 -39.564  29.691  1.00  0.00     0.200 A 
ATOM     16  C   UNL     1      53.099 -40.249  30.884  1.00  0.00     0.162 A 
BRANCH  13  17
ATOM     17  O   UNL     1      52.578 -38.558  27.619  1.00  0.00    -0.504 OA
ATOM     18  H   UNL     1      52.753 -37.560  27.589  1.00  0.00     0.293 HD
ENDBRANCH  13  17
BRANCH  15  19
ATOM     19  O   UNL     1      54.689 -39.211  29.363  1.00  0.00    -0.502 OA
ATOM     20  H   UNL     1      55.167 -38.436  29.808  1.00  0.00     0.293 HD
ENDBRANCH  15  19
BRANCH  16  21
ATOM     21  O   UNL     1      54.135 -40.595  31.751  1.00  0.00    -0.504 OA
ATOM     22  H   UNL     1      54.856 -41.254  31.483  1.00  0.00     0.293 HD
ENDBRANCH  16  21
ENDBRANCH   1  11
BRANCH  10  23
ATOM     23  O   UNL     1      48.897 -38.524  31.828  1.00  0.00    -0.500 OA
ATOM     24  H   UNL     1      48.244 -37.767  31.997  1.00  0.00     0.294 HD
ENDBRANCH  10  23
BRANCH   5  25
ATOM     25  O   UNL     1      45.545 -45.150  29.585  1.00  0.00    -0.507 OA
ATOM     26  H   UNL     1      46.214 -45.775  29.152  1.00  0.00     0.293 HD
ENDBRANCH   5  25
BRANCH   7  27
ATOM     27  O   UNL     1      44.510 -41.151  32.125  1.00  0.00    -0.507 OA
ATOM     28  H   UNL     1      43.522 -41.134  31.900  1.00  0.00     0.293 HD
ENDBRANCH   7  27
TORSDOF 7
ENDMDL
MODEL 5
REMARK VINA RESULT:    -5.803      1.110      7.097
REMARK INTER + INTRA:          -6.914
REMARK INTER:                  -7.056
REMARK INTRA:                   0.141
REMARK UNBOUND:                 0.246
REMARK SMILES Oc1cc(O)c2cc(O)c(-c3cc(O)c(O)c(O)c3)[o+]c2c1
REMARK SMILES IDX 10 1 20 2 21 3 22 4 2 5 3 6 4 7 6 8 7 9 8 10 11 11 12 12
REMARK SMILES IDX 13 13 19 14 15 15 17 16 14 17 16 19 18 21 9 23 1 25 5 27
REMARK H PARENT 14 18 16 20 18 22 9 24 1 26 5 28
REMARK Flexibility Score: inf
ROOT
ATOM      1  C   UNL     1      48.703 -40.151  29.872  1.00  0.00     0.402 A 
ATOM      2  O   UNL     1      49.982 -40.519  29.857  1.00  0.00    -0.202 OA
ATOM      3  C   UNL     1      50.969 -39.705  29.492  1.00  0.00     0.368 A 
ATOM      4  C   UNL     1      52.288 -40.170  29.499  1.00  0.00     0.162 A 
ATOM      5  C   UNL     1      53.335 -39.328  29.116  1.00  0.00     0.128 A 
ATOM      6  C   UNL     1      53.062 -38.009  28.723  1.00  0.00     0.093 A 
ATOM      7  C   UNL     1      51.745 -37.529  28.712  1.00  0.00     0.136 A 
ATOM      8  C   UNL     1      50.692 -38.379  29.099  1.00  0.00     0.125 A 
ATOM      9  C   UNL     1      49.359 -37.951  29.116  1.00  0.00     0.078 A 
ATOM     10  C   UNL     1      48.351 -38.834  29.514  1.00  0.00     0.223 A 
ENDROOT
BRANCH   1  11
ATOM     11  C   UNL     1      47.692 -41.150  30.288  1.00  0.00     0.091 A 
ATOM     12  C   UNL     1      47.842 -42.489  29.894  1.00  0.00     0.068 A 
ATOM     13  C   UNL     1      46.893 -43.450  30.257  1.00  0.00     0.162 A 
ATOM     14  C   UNL     1      46.554 -40.778  31.024  1.00  0.00     0.068 A 
ATOM     15  C   UNL     1      45.767 -43.077  31.010  1.00  0.00     0.200 A 
ATOM     16  C   UNL     1      45.597 -41.735  31.389  1.00  0.00     0.162 A 
BRANCH  13  17
ATOM     17  O   UNL     1      47.087 -44.773  29.857  1.00  0.00    -0.504 OA
ATOM     18  H   UNL     1      47.924 -45.291  30.099  1.00  0.00     0.293 HD
ENDBRANCH  13  17
BRANCH  15  19
ATOM     19  O   UNL     1      44.827 -44.043  31.369  1.00  0.00    -0.502 OA
ATOM     20  H   UNL     1      43.945 -44.146  30.882  1.00  0.00     0.293 HD
ENDBRANCH  15  19
BRANCH  16  21
ATOM     21  O   UNL     1      44.475 -41.354  32.124  1.00  0.00    -0.504 OA
ATOM     22  H   UNL     1      44.527 -40.643  32.844  1.00  0.00     0.293 HD
ENDBRANCH  16  21
ENDBRANCH   1  11
BRANCH  10  23
ATOM     23  O   UNL     1      47.027 -38.399  29.581  1.00  0.00    -0.500 OA
ATOM     24  H   UNL     1      46.506 -38.150  28.748  1.00  0.00     0.294 HD
ENDBRANCH  10  23
BRANCH   5  25
ATOM     25  O   UNL     1      54.642 -39.807  29.127  1.00  0.00    -0.507 OA
ATOM     26  H   UNL     1      54.916 -40.590  29.708  1.00  0.00     0.293 HD
ENDBRANCH   5  25
BRANCH   7  27
ATOM     27  O   UNL     1      51.486 -36.215  28.321  1.00  0.00    -0.507 OA
ATOM     28  H   UNL     1      50.541 -35.881  28.172  1.00  0.00     0.293 HD
ENDBRANCH   7  27
TORSDOF 7
ENDMDL
MODEL 6
REMARK VINA RESULT:    -5.062      2.057      3.703
REMARK INTER + INTRA:          -6.000
REMARK INTER:                  -5.686
REMARK INTRA:                  -0.314
REMARK UNBOUND:                 0.246
REMARK SMILES Oc1cc(O)c2cc(O)c(-c3cc(O)c(O)c(O)c3)[o+]c2c1
REMARK SMILES IDX 10 1 20 2 21 3 22 4 2 5 3 6 4 7 6 8 7 9 8 10 11 11 12 12
REMARK SMILES IDX 13 13 19 14 15 15 17 16 14 17 16 19 18 21 9 23 1 25 5 27
REMARK H PARENT 14 18 16 20 18 22 9 24 1 26 5 28
REMARK Flexibility Score: inf
ROOT
ATOM      1  C   UNL     1      48.317 -40.806  30.192  1.00  0.00     0.402 A 
ATOM      2  O   UNL     1      47.095 -41.004  29.699  1.00  0.00    -0.202 OA
ATOM      3  C   UNL     1      46.543 -42.209  29.586  1.00  0.00     0.368 A 
ATOM      4  C   UNL     1      45.256 -42.333  29.052  1.00  0.00     0.162 A 
ATOM      5  C   UNL     1      44.665 -43.592  28.925  1.00  0.00     0.128 A 
ATOM      6  C   UNL     1      45.363 -44.737  29.334  1.00  0.00     0.093 A 
ATOM      7  C   UNL     1      46.654 -44.628  29.871  1.00  0.00     0.136 A 
ATOM      8  C   UNL     1      47.248 -43.359  29.999  1.00  0.00     0.125 A 
ATOM      9  C   UNL     1      48.530 -43.189  30.536  1.00  0.00     0.078 A 
ATOM     10  C   UNL     1      49.072 -41.905  30.647  1.00  0.00     0.223 A 
ENDROOT
BRANCH   1  11
ATOM     11  C   UNL     1      48.827 -39.418  30.258  1.00  0.00     0.091 A 
ATOM     12  C   UNL     1      48.236 -38.507  31.147  1.00  0.00     0.068 A 
ATOM     13  C   UNL     1      48.685 -37.184  31.218  1.00  0.00     0.162 A 
ATOM     14  C   UNL     1      49.857 -38.975  29.411  1.00  0.00     0.068 A 
ATOM     15  C   UNL     1      49.728 -36.751  30.382  1.00  0.00     0.200 A 
ATOM     16  C   UNL     1      50.311 -37.650  29.474  1.00  0.00     0.162 A 
BRANCH  13  17
ATOM     17  O   UNL     1      48.080 -36.314  32.125  1.00  0.00    -0.504 OA
ATOM     18  H   UNL     1      47.589 -35.480  31.825  1.00  0.00     0.293 HD
ENDBRANCH  13  17
BRANCH  15  19
ATOM     19  O   UNL     1      50.172 -35.431  30.462  1.00  0.00    -0.502 OA
ATOM     20  H   UNL     1      49.714 -34.676  29.963  1.00  0.00     0.293 HD
ENDBRANCH  15  19
BRANCH  16  21
ATOM     21  O   UNL     1      51.337 -37.224  28.631  1.00  0.00    -0.504 OA
ATOM     22  H   UNL     1      51.686 -36.273  28.656  1.00  0.00     0.293 HD
ENDBRANCH  16  21
ENDBRANCH   1  11
BRANCH  10  23
ATOM     23  O   UNL     1      50.328 -41.724  31.227  1.00  0.00    -0.500 OA
ATOM     24  H   UNL     1      50.497 -41.932  32.205  1.00  0.00     0.294 HD
ENDBRANCH  10  23
BRANCH   5  25
ATOM     25  O   UNL     1      43.383 -43.699  28.391  1.00  0.00    -0.507 OA
ATOM     26  H   UNL     1      43.105 -44.497  27.834  1.00  0.00     0.293 HD
ENDBRANCH   5  25
BRANCH   7  27
ATOM     27  O   UNL     1      47.339 -45.774  30.276  1.00  0.00    -0.507 OA
ATOM     28  H   UNL     1      47.113 -46.251  31.142  1.00  0.00     0.293 HD
ENDBRANCH   7  27
TORSDOF 7
ENDMDL
MODEL 7
REMARK VINA RESULT:    -5.036      1.811      2.440
REMARK INTER + INTRA:          -5.968
REMARK INTER:                  -5.583
REMARK INTRA:                  -0.385
REMARK UNBOUND:                 0.246
REMARK SMILES Oc1cc(O)c2cc(O)c(-c3cc(O)c(O)c(O)c3)[o+]c2c1
REMARK SMILES IDX 10 1 20 2 21 3 22 4 2 5 3 6 4 7 6 8 7 9 8 10 11 11 12 12
REMARK SMILES IDX 13 13 19 14 15 15 17 16 14 17 16 19 18 21 9 23 1 25 5 27
REMARK H PARENT 14 18 16 20 18 22 9 24 1 26 5 28
REMARK Flexibility Score: inf
ROOT
ATOM      1  C   UNL     1      48.026 -41.134  30.481  1.00  0.00     0.402 A 
ATOM      2  O   UNL     1      47.603 -42.182  29.776  1.00  0.00    -0.202 OA
ATOM      3  C   UNL     1      46.396 -42.719  29.925  1.00  0.00     0.368 A 
ATOM      4  C   UNL     1      46.029 -43.823  29.150  1.00  0.00     0.162 A 
ATOM      5  C   UNL     1      44.765 -44.400  29.297  1.00  0.00     0.128 A 
ATOM      6  C   UNL     1      43.859 -43.869  30.227  1.00  0.00     0.093 A 
ATOM      7  C   UNL     1      44.212 -42.761  31.011  1.00  0.00     0.136 A 
ATOM      8  C   UNL     1      45.486 -42.182  30.861  1.00  0.00     0.125 A 
ATOM      9  C   UNL     1      45.890 -41.071  31.610  1.00  0.00     0.078 A 
ATOM     10  C   UNL     1      47.165 -40.529  31.418  1.00  0.00     0.223 A 
ENDROOT
BRANCH   1  11
ATOM     11  C   UNL     1      49.397 -40.631  30.232  1.00  0.00     0.091 A 
ATOM     12  C   UNL     1      49.620 -39.727  29.183  1.00  0.00     0.068 A 
ATOM     13  C   UNL     1      50.907 -39.250  28.912  1.00  0.00     0.162 A 
ATOM     14  C   UNL     1      50.491 -41.082  30.990  1.00  0.00     0.068 A 
ATOM     15  C   UNL     1      51.995 -39.688  29.685  1.00  0.00     0.200 A 
ATOM     16  C   UNL     1      51.784 -40.610  30.724  1.00  0.00     0.162 A 
BRANCH  13  17
ATOM     17  O   UNL     1      51.084 -38.341  27.869  1.00  0.00    -0.504 OA
ATOM     18  H   UNL     1      50.867 -37.356  27.970  1.00  0.00     0.293 HD
ENDBRANCH  13  17
BRANCH  15  19
ATOM     19  O   UNL     1      53.274 -39.205  29.411  1.00  0.00    -0.502 OA
ATOM     20  H   UNL     1      53.710 -39.314  28.502  1.00  0.00     0.293 HD
ENDBRANCH  15  19
BRANCH  16  21
ATOM     21  O   UNL     1      52.861 -41.061  31.487  1.00  0.00    -0.504 OA
ATOM     22  H   UNL     1      53.351 -40.450  32.129  1.00  0.00     0.293 HD
ENDBRANCH  16  21
ENDBRANCH   1  11
BRANCH  10  23
ATOM     23  O   UNL     1      47.555 -39.392  32.125  1.00  0.00    -0.500 OA
ATOM     24  H   UNL     1      46.947 -38.957  32.810  1.00  0.00     0.294 HD
ENDBRANCH  10  23
BRANCH   5  25
ATOM     25  O   UNL     1      44.415 -45.500  28.518  1.00  0.00    -0.507 OA
ATOM     26  H   UNL     1      43.872 -45.398  27.670  1.00  0.00     0.293 HD
ENDBRANCH   5  25
BRANCH   7  27
ATOM     27  O   UNL     1      43.302 -42.241  31.932  1.00  0.00    -0.507 OA
ATOM     28  H   UNL     1      43.609 -41.740  32.758  1.00  0.00     0.293 HD
ENDBRANCH   7  27
TORSDOF 7
ENDMDL
MODEL 8
REMARK VINA RESULT:    -4.793      2.569      7.587
REMARK INTER + INTRA:          -5.668
REMARK INTER:                  -5.300
REMARK INTRA:                  -0.368
REMARK UNBOUND:                 0.246
REMARK SMILES Oc1cc(O)c2cc(O)c(-c3cc(O)c(O)c(O)c3)[o+]c2c1
REMARK SMILES IDX 10 1 20 2 21 3 22 4 2 5 3 6 4 7 6 8 7 9 8 10 11 11 12 12
REMARK SMILES IDX 13 13 19 14 15 15 17 16 14 17 16 19 18 21 9 23 1 25 5 27
REMARK H PARENT 14 18 16 20 18 22 9 24 1 26 5 28
REMARK Flexibility Score: inf
ROOT
ATOM      1  C   UNL     1      46.916 -41.872  30.051  1.00  0.00     0.402 A 
ATOM      2  O   UNL     1      47.966 -42.422  30.659  1.00  0.00    -0.202 OA
ATOM      3  C   UNL     1      49.155 -41.831  30.735  1.00  0.00     0.368 A 
ATOM      4  C   UNL     1      50.209 -42.477  31.388  1.00  0.00     0.162 A 
ATOM      5  C   UNL     1      51.464 -41.870  31.472  1.00  0.00     0.128 A 
ATOM      6  C   UNL     1      51.669 -40.606  30.900  1.00  0.00     0.093 A 
ATOM      7  C   UNL     1      50.621 -39.945  30.243  1.00  0.00     0.136 A 
ATOM      8  C   UNL     1      49.357 -40.558  30.160  1.00  0.00     0.125 A 
ATOM      9  C   UNL     1      48.273 -39.942  29.523  1.00  0.00     0.078 A 
ATOM     10  C   UNL     1      47.036 -40.592  29.473  1.00  0.00     0.223 A 
ENDROOT
BRANCH   1  11
ATOM     11  C   UNL     1      45.645 -42.632  30.024  1.00  0.00     0.091 A 
ATOM     12  C   UNL     1      45.305 -43.367  28.878  1.00  0.00     0.068 A 
ATOM     13  C   UNL     1      44.103 -44.079  28.818  1.00  0.00     0.162 A 
ATOM     14  C   UNL     1      44.744 -42.589  31.101  1.00  0.00     0.068 A 
ATOM     15  C   UNL     1      43.213 -44.049  29.905  1.00  0.00     0.200 A 
ATOM     16  C   UNL     1      43.535 -43.297  31.047  1.00  0.00     0.162 A 
BRANCH  13  17
ATOM     17  O   UNL     1      43.809 -44.809  27.666  1.00  0.00    -0.504 OA
ATOM     18  H   UNL     1      43.990 -45.804  27.597  1.00  0.00     0.293 HD
ENDBRANCH  13  17
BRANCH  15  19
ATOM     19  O   UNL     1      42.018 -44.765  29.837  1.00  0.00    -0.502 OA
ATOM     20  H   UNL     1      41.486 -44.848  28.978  1.00  0.00     0.293 HD
ENDBRANCH  15  19
BRANCH  16  21
ATOM     21  O   UNL     1      42.652 -43.251  32.125  1.00  0.00    -0.504 OA
ATOM     22  H   UNL     1      42.371 -42.373  32.546  1.00  0.00     0.293 HD
ENDBRANCH  16  21
ENDBRANCH   1  11
BRANCH  10  23
ATOM     23  O   UNL     1      45.939 -39.962  28.886  1.00  0.00    -0.500 OA
ATOM     24  H   UNL     1      45.855 -39.868  27.880  1.00  0.00     0.294 HD
ENDBRANCH  10  23
BRANCH   5  25
ATOM     25  O   UNL     1      52.504 -42.528  32.125  1.00  0.00    -0.507 OA
ATOM     26  H   UNL     1      53.443 -42.151  32.142  1.00  0.00     0.293 HD
ENDBRANCH   5  25
BRANCH   7  27
ATOM     27  O   UNL     1      50.836 -38.687  29.679  1.00  0.00    -0.507 OA
ATOM     28  H   UNL     1      51.514 -38.545  28.940  1.00  0.00     0.293 HD
ENDBRANCH   7  27
TORSDOF 7
ENDMDL
