MODEL 1
REMARK VINA RESULT:    -7.027      0.000      0.000
REMARK INTER + INTRA:         -23.322
REMARK INTER:                 -16.682
REMARK INTRA:                  -6.640
REMARK UNBOUND:                -6.640
REMARK SMILES O=C(OC[C@H]1O[C@H](OC(=O)c2cc(O)c(O)c(O)c2)[C@H](OC(=O)c2cc(O)c(O)c(O)c2)[C@@H](OC(=O)c2cc(O)c(O)c(O)c2)[C@H]1OC(=O)c1cc(O)c(O)c(O)c1)c1cc(O)c(O)c(O)c1
REMARK SMILES IDX 5 1 46 2 33 3 20 4 7 5 6 6 4 7 3 8 2 9 1 10 59 11 60 12
REMARK SMILES IDX 61 13 67 14 63 15 65 16 62 17 64 19 66 21 47 23 48 24 49 25
REMARK SMILES IDX 50 26 58 27 51 28 56 29 52 30 54 31 57 32 53 34 55 36 34 38
REMARK SMILES IDX 35 39 36 40 37 41 45 42 38 43 43 44 39 45 41 46 44 47 40 49
REMARK SMILES IDX 42 51 8 53 9 54 10 55 11 56 19 57 12 58 17 59 13 60 15 61
REMARK SMILES IDX 18 62 14 64 16 66 21 68 22 69 23 70 24 71 32 72 25 73 30 74
REMARK SMILES IDX 26 75 28 76 31 77 27 79 29 81
REMARK H PARENT 62 18 64 20 66 22 57 33 53 35 55 37 44 48 40 50 42 52 18 63
REMARK H PARENT 14 65 16 67 31 78 27 80 29 82
REMARK Flexibility Score: inf
ROOT
ATOM      1  C   UNL     1      16.355  24.947  40.307  1.00  0.00     0.205 C 
ATOM      2  C   UNL     1      15.856  23.943  41.362  1.00  0.00     0.254 C 
ATOM      3  C   UNL     1      16.909  23.883  42.474  1.00  0.00     0.267 C 
ATOM      4  C   UNL     1      17.130  25.293  43.054  1.00  0.00     0.290 C 
ATOM      5  C   UNL     1      17.443  26.282  41.907  1.00  0.00     0.357 C 
ATOM      6  O   UNL     1      16.460  26.244  40.879  1.00  0.00    -0.329 OA
ENDROOT
BRANCH   1   7
ATOM      7  C   UNL     1      15.432  25.011  39.077  1.00  0.00     0.269 C 
BRANCH   7   8
ATOM      8  O   UNL     1      15.925  24.135  38.068  1.00  0.00    -0.459 OA
BRANCH   8   9
ATOM      9  C   UNL     1      17.214  24.258  37.532  1.00  0.00     0.338 C 
ATOM     10  O   UNL     1      17.411  24.999  36.526  1.00  0.00    -0.246 OA
BRANCH   9  11
ATOM     11  C   UNL     1      18.334  23.496  38.123  1.00  0.00     0.067 A 
ATOM     12  C   UNL     1      18.925  22.443  37.412  1.00  0.00     0.066 A 
ATOM     13  C   UNL     1      19.950  21.680  37.977  1.00  0.00     0.162 A 
ATOM     14  C   UNL     1      18.792  23.791  39.423  1.00  0.00     0.066 A 
ATOM     15  C   UNL     1      20.382  21.954  39.296  1.00  0.00     0.200 A 
ATOM     16  C   UNL     1      19.800  23.018  40.009  1.00  0.00     0.162 A 
BRANCH  13  17
ATOM     17  O   UNL     1      20.515  20.674  37.193  1.00  0.00    -0.504 OA
ATOM     18  H   UNL     1      21.203  20.843  36.480  1.00  0.00     0.293 HD
ENDBRANCH  13  17
BRANCH  15  19
ATOM     19  O   UNL     1      21.374  21.193  39.924  1.00  0.00    -0.502 OA
ATOM     20  H   UNL     1      21.577  20.230  39.708  1.00  0.00     0.293 HD
ENDBRANCH  15  19
BRANCH  16  21
ATOM     21  O   UNL     1      20.206  23.324  41.308  1.00  0.00    -0.504 OA
ATOM     22  H   UNL     1      19.721  24.007  41.876  1.00  0.00     0.293 HD
ENDBRANCH  16  21
ENDBRANCH   9  11
ENDBRANCH   8   9
ENDBRANCH   7   8
ENDBRANCH   1   7
BRANCH   2  23
ATOM     23  O   UNL     1      14.617  24.385  41.920  1.00  0.00    -0.452 OA
BRANCH  23  24
ATOM     24  C   UNL     1      13.482  23.574  42.058  1.00  0.00     0.338 C 
ATOM     25  O   UNL     1      12.768  23.321  41.053  1.00  0.00    -0.246 OA
BRANCH  24  26
ATOM     26  C   UNL     1      13.147  23.009  43.383  1.00  0.00     0.067 A 
ATOM     27  C   UNL     1      12.977  23.846  44.502  1.00  0.00     0.066 A 
ATOM     28  C   UNL     1      13.048  21.618  43.551  1.00  0.00     0.066 A 
ATOM     29  C   UNL     1      12.727  23.299  45.772  1.00  0.00     0.162 A 
ATOM     30  C   UNL     1      12.789  21.070  44.811  1.00  0.00     0.162 A 
ATOM     31  C   UNL     1      12.630  21.906  45.926  1.00  0.00     0.200 A 
BRANCH  29  32
ATOM     32  O   UNL     1      12.582  24.132  46.878  1.00  0.00    -0.504 OA
ATOM     33  H   UNL     1      12.855  25.108  46.845  1.00  0.00     0.293 HD
ENDBRANCH  29  32
BRANCH  30  34
ATOM     34  O   UNL     1      12.700  19.685  44.936  1.00  0.00    -0.504 OA
ATOM     35  H   UNL     1      12.441  19.088  44.157  1.00  0.00     0.293 HD
ENDBRANCH  30  34
BRANCH  31  36
ATOM     36  O   UNL     1      12.384  21.337  47.174  1.00  0.00    -0.502 OA
ATOM     37  H   UNL     1      12.969  20.608  47.562  1.00  0.00     0.293 HD
ENDBRANCH  31  36
ENDBRANCH  24  26
ENDBRANCH  23  24
ENDBRANCH   2  23
BRANCH   3  38
ATOM     38  O   UNL     1      16.509  22.964  43.490  1.00  0.00    -0.450 OA
BRANCH  38  39
ATOM     39  C   UNL     1      17.331  21.914  43.924  1.00  0.00     0.338 C 
ATOM     40  O   UNL     1      18.539  21.868  43.565  1.00  0.00    -0.246 OA
BRANCH  39  41
ATOM     41  C   UNL     1      16.789  20.868  44.820  1.00  0.00     0.067 A 
ATOM     42  C   UNL     1      16.224  21.217  46.058  1.00  0.00     0.066 A 
ATOM     43  C   UNL     1      16.831  19.516  44.441  1.00  0.00     0.066 A 
ATOM     44  C   UNL     1      15.712  20.233  46.908  1.00  0.00     0.162 A 
ATOM     45  C   UNL     1      16.327  18.521  45.284  1.00  0.00     0.162 A 
ATOM     46  C   UNL     1      15.768  18.879  46.539  1.00  0.00     0.200 A 
BRANCH  44  47
ATOM     47  O   UNL     1      15.142  20.600  48.129  1.00  0.00    -0.504 OA
ATOM     48  H   UNL     1      15.262  21.534  48.514  1.00  0.00     0.293 HD
ENDBRANCH  44  47
BRANCH  45  49
ATOM     49  O   UNL     1      16.403  17.201  44.841  1.00  0.00    -0.504 OA
ATOM     50  H   UNL     1      17.219  16.795  44.407  1.00  0.00     0.293 HD
ENDBRANCH  45  49
BRANCH  46  51
ATOM     51  O   UNL     1      15.267  17.937  47.441  1.00  0.00    -0.502 OA
ATOM     52  H   UNL     1      15.322  16.935  47.295  1.00  0.00     0.293 HD
ENDBRANCH  46  51
ENDBRANCH  39  41
ENDBRANCH  38  39
ENDBRANCH   3  38
BRANCH   5  53
ATOM     53  O   UNL     1      18.744  26.035  41.377  1.00  0.00    -0.428 OA
BRANCH  53  54
ATOM     54  C   UNL     1      19.754  27.003  41.337  1.00  0.00     0.340 C 
ATOM     55  O   UNL     1      20.427  27.270  42.365  1.00  0.00    -0.246 OA
BRANCH  54  56
ATOM     56  C   UNL     1      20.030  27.706  40.074  1.00  0.00     0.067 A 
ATOM     57  C   UNL     1      19.546  27.211  38.857  1.00  0.00     0.066 A 
ATOM     58  C   UNL     1      20.772  28.893  40.085  1.00  0.00     0.066 A 
ATOM     59  C   UNL     1      19.766  27.902  37.659  1.00  0.00     0.162 A 
ATOM     60  C   UNL     1      21.029  29.582  38.899  1.00  0.00     0.162 A 
ATOM     61  C   UNL     1      20.515  29.106  37.675  1.00  0.00     0.200 A 
BRANCH  59  62
ATOM     62  O   UNL     1      19.219  27.360  36.491  1.00  0.00    -0.504 OA
ATOM     63  H   UNL     1      18.268  27.525  36.181  1.00  0.00     0.293 HD
ENDBRANCH  59  62
BRANCH  60  64
ATOM     64  O   UNL     1      21.804  30.740  38.958  1.00  0.00    -0.504 OA
ATOM     65  H   UNL     1      22.490  30.890  39.691  1.00  0.00     0.293 HD
ENDBRANCH  60  64
BRANCH  61  66
ATOM     66  O   UNL     1      20.762  29.847  36.509  1.00  0.00    -0.502 OA
ATOM     67  H   UNL     1      21.682  30.137  36.206  1.00  0.00     0.293 HD
ENDBRANCH  61  66
ENDBRANCH  54  56
ENDBRANCH  53  54
ENDBRANCH   5  53
BRANCH   4  68
ATOM     68  O   UNL     1      18.239  25.287  43.950  1.00  0.00    -0.448 OA
BRANCH  68  69
ATOM     69  C   UNL     1      18.342  26.106  45.079  1.00  0.00     0.339 C 
ATOM     70  O   UNL     1      19.329  26.882  45.215  1.00  0.00    -0.246 OA
BRANCH  69  71
ATOM     71  C   UNL     1      17.294  26.046  46.119  1.00  0.00     0.067 A 
ATOM     72  C   UNL     1      16.724  27.217  46.636  1.00  0.00     0.066 A 
ATOM     73  C   UNL     1      16.847  24.805  46.601  1.00  0.00     0.066 A 
ATOM     74  C   UNL     1      15.714  27.156  47.608  1.00  0.00     0.162 A 
ATOM     75  C   UNL     1      15.838  24.732  47.566  1.00  0.00     0.162 A 
ATOM     76  C   UNL     1      15.266  25.908  48.073  1.00  0.00     0.200 A 
BRANCH  74  77
ATOM     77  O   UNL     1      15.146  28.329  48.105  1.00  0.00    -0.504 OA
ATOM     78  H   UNL     1      14.143  28.485  48.079  1.00  0.00     0.293 HD
ENDBRANCH  74  77
BRANCH  75  79
ATOM     79  O   UNL     1      15.414  23.478  48.008  1.00  0.00    -0.504 OA
ATOM     80  H   UNL     1      14.601  23.016  47.624  1.00  0.00     0.293 HD
ENDBRANCH  75  79
BRANCH  76  81
ATOM     81  O   UNL     1      14.259  25.827  49.037  1.00  0.00    -0.502 OA
ATOM     82  H   UNL     1      13.435  25.258  48.914  1.00  0.00     0.293 HD
ENDBRANCH  76  81
ENDBRANCH  69  71
ENDBRANCH  68  69
ENDBRANCH   4  68
TORSDOF 31
ENDMDL
MODEL 2
REMARK VINA RESULT:    -6.687      2.235      4.889
REMARK INTER + INTRA:         -22.513
REMARK INTER:                 -15.997
REMARK INTRA:                  -6.516
REMARK UNBOUND:                -6.640
REMARK SMILES O=C(OC[C@H]1O[C@H](OC(=O)c2cc(O)c(O)c(O)c2)[C@H](OC(=O)c2cc(O)c(O)c(O)c2)[C@@H](OC(=O)c2cc(O)c(O)c(O)c2)[C@H]1OC(=O)c1cc(O)c(O)c(O)c1)c1cc(O)c(O)c(O)c1
REMARK SMILES IDX 5 1 46 2 33 3 20 4 7 5 6 6 4 7 3 8 2 9 1 10 59 11 60 12
REMARK SMILES IDX 61 13 67 14 63 15 65 16 62 17 64 19 66 21 47 23 48 24 49 25
REMARK SMILES IDX 50 26 58 27 51 28 56 29 52 30 54 31 57 32 53 34 55 36 34 38
REMARK SMILES IDX 35 39 36 40 37 41 45 42 38 43 43 44 39 45 41 46 44 47 40 49
REMARK SMILES IDX 42 51 8 53 9 54 10 55 11 56 19 57 12 58 17 59 13 60 15 61
REMARK SMILES IDX 18 62 14 64 16 66 21 68 22 69 23 70 24 71 32 72 25 73 30 74
REMARK SMILES IDX 26 75 28 76 31 77 27 79 29 81
REMARK H PARENT 62 18 64 20 66 22 57 33 53 35 55 37 44 48 40 50 42 52 18 63
REMARK H PARENT 14 65 16 67 31 78 27 80 29 82
REMARK Flexibility Score: inf
ROOT
ATOM      1  C   UNL     1      17.299  23.037  43.373  1.00  0.00     0.205 C 
ATOM      2  C   UNL     1      16.843  22.303  44.647  1.00  0.00     0.254 C 
ATOM      3  C   UNL     1      15.859  23.221  45.380  1.00  0.00     0.267 C 
ATOM      4  C   UNL     1      14.687  23.573  44.445  1.00  0.00     0.290 C 
ATOM      5  C   UNL     1      15.236  24.131  43.112  1.00  0.00     0.357 C 
ATOM      6  O   UNL     1      16.189  23.261  42.515  1.00  0.00    -0.329 OA
ENDROOT
BRANCH   1   7
ATOM      7  C   UNL     1      18.383  22.259  42.605  1.00  0.00     0.269 C 
BRANCH   7   8
ATOM      8  O   UNL     1      19.189  23.172  41.866  1.00  0.00    -0.459 OA
BRANCH   8   9
ATOM      9  C   UNL     1      19.518  22.962  40.519  1.00  0.00     0.338 C 
ATOM     10  O   UNL     1      20.429  22.139  40.214  1.00  0.00    -0.246 OA
BRANCH   9  11
ATOM     11  C   UNL     1      18.824  23.726  39.462  1.00  0.00     0.067 A 
ATOM     12  C   UNL     1      19.547  24.263  38.388  1.00  0.00     0.066 A 
ATOM     13  C   UNL     1      18.913  25.031  37.409  1.00  0.00     0.162 A 
ATOM     14  C   UNL     1      17.436  23.960  39.545  1.00  0.00     0.066 A 
ATOM     15  C   UNL     1      17.527  25.296  37.513  1.00  0.00     0.200 A 
ATOM     16  C   UNL     1      16.796  24.750  38.583  1.00  0.00     0.162 A 
BRANCH  13  17
ATOM     17  O   UNL     1      19.692  25.499  36.350  1.00  0.00    -0.504 OA
ATOM     18  H   UNL     1      19.764  26.469  36.097  1.00  0.00     0.293 HD
ENDBRANCH  13  17
BRANCH  15  19
ATOM     19  O   UNL     1      16.854  26.095  36.583  1.00  0.00    -0.502 OA
ATOM     20  H   UNL     1      15.976  25.852  36.151  1.00  0.00     0.293 HD
ENDBRANCH  15  19
BRANCH  16  21
ATOM     21  O   UNL     1      15.427  24.982  38.714  1.00  0.00    -0.504 OA
ATOM     22  H   UNL     1      15.025  25.364  39.561  1.00  0.00     0.293 HD
ENDBRANCH  16  21
ENDBRANCH   9  11
ENDBRANCH   8   9
ENDBRANCH   7   8
ENDBRANCH   1   7
BRANCH   2  23
ATOM     23  O   UNL     1      16.177  21.086  44.305  1.00  0.00    -0.452 OA
BRANCH  23  24
ATOM     24  C   UNL     1      16.505  19.832  44.837  1.00  0.00     0.338 C 
ATOM     25  O   UNL     1      17.464  19.177  44.351  1.00  0.00    -0.246 OA
BRANCH  24  26
ATOM     26  C   UNL     1      15.730  19.299  45.979  1.00  0.00     0.067 A 
ATOM     27  C   UNL     1      14.330  19.426  46.022  1.00  0.00     0.066 A 
ATOM     28  C   UNL     1      16.395  18.706  47.065  1.00  0.00     0.066 A 
ATOM     29  C   UNL     1      13.606  18.979  47.141  1.00  0.00     0.162 A 
ATOM     30  C   UNL     1      15.678  18.251  48.176  1.00  0.00     0.162 A 
ATOM     31  C   UNL     1      14.283  18.387  48.221  1.00  0.00     0.200 A 
BRANCH  29  32
ATOM     32  O   UNL     1      12.222  19.128  47.186  1.00  0.00    -0.504 OA
ATOM     33  H   UNL     1      11.628  18.780  46.442  1.00  0.00     0.293 HD
ENDBRANCH  29  32
BRANCH  30  34
ATOM     34  O   UNL     1      16.375  17.671  49.234  1.00  0.00    -0.504 OA
ATOM     35  H   UNL     1      17.089  16.965  49.087  1.00  0.00     0.293 HD
ENDBRANCH  30  34
BRANCH  31  36
ATOM     36  O   UNL     1      13.590  17.938  49.343  1.00  0.00    -0.502 OA
ATOM     37  H   UNL     1      12.580  17.959  49.400  1.00  0.00     0.293 HD
ENDBRANCH  31  36
ENDBRANCH  24  26
ENDBRANCH  23  24
ENDBRANCH   2  23
BRANCH   3  38
ATOM     38  O   UNL     1      15.397  22.599  46.578  1.00  0.00    -0.450 OA
BRANCH  38  39
ATOM     39  C   UNL     1      15.751  23.061  47.854  1.00  0.00     0.338 C 
ATOM     40  O   UNL     1      15.909  24.296  48.057  1.00  0.00    -0.246 OA
BRANCH  39  41
ATOM     41  C   UNL     1      15.920  22.105  48.970  1.00  0.00     0.067 A 
ATOM     42  C   UNL     1      17.197  21.617  49.300  1.00  0.00     0.066 A 
ATOM     43  C   UNL     1      14.809  21.678  49.715  1.00  0.00     0.066 A 
ATOM     44  C   UNL     1      17.362  20.713  50.352  1.00  0.00     0.162 A 
ATOM     45  C   UNL     1      14.960  20.771  50.768  1.00  0.00     0.162 A 
ATOM     46  C   UNL     1      16.250  20.272  51.087  1.00  0.00     0.200 A 
BRANCH  44  47
ATOM     47  O   UNL     1      18.639  20.249  50.673  1.00  0.00    -0.504 OA
ATOM     48  H   UNL     1      19.110  19.547  50.107  1.00  0.00     0.293 HD
ENDBRANCH  44  47
BRANCH  45  49
ATOM     49  O   UNL     1      13.811  20.391  51.462  1.00  0.00    -0.504 OA
ATOM     50  H   UNL     1      13.807  20.083  52.424  1.00  0.00     0.293 HD
ENDBRANCH  45  49
BRANCH  46  51
ATOM     51  O   UNL     1      16.471  19.346  52.111  1.00  0.00    -0.502 OA
ATOM     52  H   UNL     1      15.735  18.797  52.541  1.00  0.00     0.293 HD
ENDBRANCH  46  51
ENDBRANCH  39  41
ENDBRANCH  38  39
ENDBRANCH   3  38
BRANCH   5  53
ATOM     53  O   UNL     1      15.786  25.433  43.306  1.00  0.00    -0.428 OA
BRANCH  53  54
ATOM     54  C   UNL     1      16.308  26.210  42.265  1.00  0.00     0.340 C 
ATOM     55  O   UNL     1      15.573  26.594  41.320  1.00  0.00    -0.246 OA
BRANCH  54  56
ATOM     56  C   UNL     1      17.732  26.582  42.287  1.00  0.00     0.067 A 
ATOM     57  C   UNL     1      18.427  26.687  43.499  1.00  0.00     0.066 A 
ATOM     58  C   UNL     1      18.409  26.821  41.086  1.00  0.00     0.066 A 
ATOM     59  C   UNL     1      19.793  26.995  43.522  1.00  0.00     0.162 A 
ATOM     60  C   UNL     1      19.763  27.158  41.087  1.00  0.00     0.162 A 
ATOM     61  C   UNL     1      20.476  27.233  42.301  1.00  0.00     0.200 A 
BRANCH  59  62
ATOM     62  O   UNL     1      20.422  27.048  44.770  1.00  0.00    -0.504 OA
ATOM     63  H   UNL     1      21.238  26.499  45.017  1.00  0.00     0.293 HD
ENDBRANCH  59  62
BRANCH  60  64
ATOM     64  O   UNL     1      20.383  27.422  39.865  1.00  0.00    -0.504 OA
ATOM     65  H   UNL     1      20.579  26.688  39.193  1.00  0.00     0.293 HD
ENDBRANCH  60  64
BRANCH  61  66
ATOM     66  O   UNL     1      21.845  27.538  42.259  1.00  0.00    -0.502 OA
ATOM     67  H   UNL     1      22.499  27.314  42.997  1.00  0.00     0.293 HD
ENDBRANCH  61  66
ENDBRANCH  54  56
ENDBRANCH  53  54
ENDBRANCH   5  53
BRANCH   4  68
ATOM     68  O   UNL     1      13.867  24.576  45.043  1.00  0.00    -0.448 OA
BRANCH  68  69
ATOM     69  C   UNL     1      12.772  24.306  45.870  1.00  0.00     0.339 C 
ATOM     70  O   UNL     1      11.963  23.383  45.574  1.00  0.00    -0.246 OA
BRANCH  69  71
ATOM     71  C   UNL     1      12.561  25.121  47.085  1.00  0.00     0.067 A 
ATOM     72  C   UNL     1      12.384  24.516  48.336  1.00  0.00     0.066 A 
ATOM     73  C   UNL     1      12.542  26.522  47.001  1.00  0.00     0.066 A 
ATOM     74  C   UNL     1      12.205  25.292  49.490  1.00  0.00     0.162 A 
ATOM     75  C   UNL     1      12.368  27.306  48.145  1.00  0.00     0.162 A 
ATOM     76  C   UNL     1      12.200  26.694  49.396  1.00  0.00     0.200 A 
BRANCH  74  77
ATOM     77  O   UNL     1      12.044  24.677  50.732  1.00  0.00    -0.504 OA
ATOM     78  H   UNL     1      11.189  24.783  51.269  1.00  0.00     0.293 HD
ENDBRANCH  74  77
BRANCH  75  79
ATOM     79  O   UNL     1      12.369  28.696  48.021  1.00  0.00    -0.504 OA
ATOM     80  H   UNL     1      11.996  29.166  47.207  1.00  0.00     0.293 HD
ENDBRANCH  75  79
BRANCH  76  81
ATOM     81  O   UNL     1      12.028  27.484  50.535  1.00  0.00    -0.502 OA
ATOM     82  H   UNL     1      11.725  27.103  51.419  1.00  0.00     0.293 HD
ENDBRANCH  76  81
ENDBRANCH  69  71
ENDBRANCH  68  69
ENDBRANCH   4  68
TORSDOF 31
ENDMDL
MODEL 3
REMARK VINA RESULT:    -6.644      2.307      9.598
REMARK INTER + INTRA:         -22.412
REMARK INTER:                 -17.573
REMARK INTRA:                  -4.839
REMARK UNBOUND:                -6.640
REMARK SMILES O=C(OC[C@H]1O[C@H](OC(=O)c2cc(O)c(O)c(O)c2)[C@H](OC(=O)c2cc(O)c(O)c(O)c2)[C@@H](OC(=O)c2cc(O)c(O)c(O)c2)[C@H]1OC(=O)c1cc(O)c(O)c(O)c1)c1cc(O)c(O)c(O)c1
REMARK SMILES IDX 5 1 46 2 33 3 20 4 7 5 6 6 4 7 3 8 2 9 1 10 59 11 60 12
REMARK SMILES IDX 61 13 67 14 63 15 65 16 62 17 64 19 66 21 47 23 48 24 49 25
REMARK SMILES IDX 50 26 58 27 51 28 56 29 52 30 54 31 57 32 53 34 55 36 34 38
REMARK SMILES IDX 35 39 36 40 37 41 45 42 38 43 43 44 39 45 41 46 44 47 40 49
REMARK SMILES IDX 42 51 8 53 9 54 10 55 11 56 19 57 12 58 17 59 13 60 15 61
REMARK SMILES IDX 18 62 14 64 16 66 21 68 22 69 23 70 24 71 32 72 25 73 30 74
REMARK SMILES IDX 26 75 28 76 31 77 27 79 29 81
REMARK H PARENT 62 18 64 20 66 22 57 33 53 35 55 37 44 48 40 50 42 52 18 63
REMARK H PARENT 14 65 16 67 31 78 27 80 29 82
REMARK Flexibility Score: inf
ROOT
ATOM      1  C   UNL     1      16.201  23.249  44.591  1.00  0.00     0.205 C 
ATOM      2  C   UNL     1      16.957  24.351  43.826  1.00  0.00     0.254 C 
ATOM      3  C   UNL     1      16.534  24.263  42.355  1.00  0.00     0.267 C 
ATOM      4  C   UNL     1      15.005  24.407  42.247  1.00  0.00     0.290 C 
ATOM      5  C   UNL     1      14.320  23.390  43.188  1.00  0.00     0.357 C 
ATOM      6  O   UNL     1      14.801  23.482  44.524  1.00  0.00    -0.329 OA
ENDROOT
BRANCH   1   7
ATOM      7  C   UNL     1      16.629  23.162  46.067  1.00  0.00     0.269 C 
BRANCH   7   8
ATOM      8  O   UNL     1      15.823  22.200  46.739  1.00  0.00    -0.459 OA
BRANCH   8   9
ATOM      9  C   UNL     1      15.428  22.354  48.075  1.00  0.00     0.338 C 
ATOM     10  O   UNL     1      14.413  23.054  48.356  1.00  0.00    -0.246 OA
BRANCH   9  11
ATOM     11  C   UNL     1      16.217  21.726  49.155  1.00  0.00     0.067 A 
ATOM     12  C   UNL     1      15.724  21.698  50.466  1.00  0.00     0.066 A 
ATOM     13  C   UNL     1      16.481  21.155  51.507  1.00  0.00     0.162 A 
ATOM     14  C   UNL     1      17.493  21.189  48.888  1.00  0.00     0.066 A 
ATOM     15  C   UNL     1      17.776  20.650  51.244  1.00  0.00     0.200 A 
ATOM     16  C   UNL     1      18.270  20.666  49.927  1.00  0.00     0.162 A 
BRANCH  13  17
ATOM     17  O   UNL     1      15.906  21.128  52.779  1.00  0.00    -0.504 OA
ATOM     18  H   UNL     1      14.941  21.346  52.959  1.00  0.00     0.293 HD
ENDBRANCH  13  17
BRANCH  15  19
ATOM     19  O   UNL     1      18.591  20.135  52.257  1.00  0.00    -0.502 OA
ATOM     20  H   UNL     1      18.284  19.954  53.200  1.00  0.00     0.293 HD
ENDBRANCH  15  19
BRANCH  16  21
ATOM     21  O   UNL     1      19.538  20.168  49.627  1.00  0.00    -0.504 OA
ATOM     22  H   UNL     1      19.791  19.869  48.693  1.00  0.00     0.293 HD
ENDBRANCH  16  21
ENDBRANCH   9  11
ENDBRANCH   8   9
ENDBRANCH   7   8
ENDBRANCH   1   7
BRANCH   2  23
ATOM     23  O   UNL     1      16.603  25.639  44.334  1.00  0.00    -0.452 OA
BRANCH  23  24
ATOM     24  C   UNL     1      17.097  26.177  45.530  1.00  0.00     0.338 C 
ATOM     25  O   UNL     1      18.334  26.351  45.675  1.00  0.00    -0.246 OA
BRANCH  24  26
ATOM     26  C   UNL     1      16.152  26.553  46.605  1.00  0.00     0.067 A 
ATOM     27  C   UNL     1      16.540  27.433  47.631  1.00  0.00     0.066 A 
ATOM     28  C   UNL     1      14.867  25.987  46.642  1.00  0.00     0.066 A 
ATOM     29  C   UNL     1      15.662  27.733  48.686  1.00  0.00     0.162 A 
ATOM     30  C   UNL     1      13.986  26.290  47.684  1.00  0.00     0.162 A 
ATOM     31  C   UNL     1      14.379  27.161  48.711  1.00  0.00     0.200 A 
BRANCH  29  32
ATOM     32  O   UNL     1      16.062  28.588  49.710  1.00  0.00    -0.504 OA
ATOM     33  H   UNL     1      16.412  29.519  49.515  1.00  0.00     0.293 HD
ENDBRANCH  29  32
BRANCH  30  34
ATOM     34  O   UNL     1      12.721  25.706  47.686  1.00  0.00    -0.504 OA
ATOM     35  H   UNL     1      12.394  25.124  46.921  1.00  0.00     0.293 HD
ENDBRANCH  30  34
BRANCH  31  36
ATOM     36  O   UNL     1      13.489  27.439  49.747  1.00  0.00    -0.502 OA
ATOM     37  H   UNL     1      13.116  26.717  50.349  1.00  0.00     0.293 HD
ENDBRANCH  31  36
ENDBRANCH  24  26
ENDBRANCH  23  24
ENDBRANCH   2  23
BRANCH   3  38
ATOM     38  O   UNL     1      17.204  25.260  41.584  1.00  0.00    -0.450 OA
BRANCH  38  39
ATOM     39  C   UNL     1      18.574  25.198  41.296  1.00  0.00     0.338 C 
ATOM     40  O   UNL     1      19.370  26.014  41.835  1.00  0.00    -0.246 OA
BRANCH  39  41
ATOM     41  C   UNL     1      19.095  24.162  40.376  1.00  0.00     0.067 A 
ATOM     42  C   UNL     1      18.622  24.084  39.054  1.00  0.00     0.066 A 
ATOM     43  C   UNL     1      20.069  23.250  40.812  1.00  0.00     0.066 A 
ATOM     44  C   UNL     1      19.110  23.107  38.182  1.00  0.00     0.162 A 
ATOM     45  C   UNL     1      20.562  22.265  39.950  1.00  0.00     0.162 A 
ATOM     46  C   UNL     1      20.072  22.183  38.621  1.00  0.00     0.200 A 
BRANCH  44  47
ATOM     47  O   UNL     1      18.638  23.054  36.869  1.00  0.00    -0.504 OA
ATOM     48  H   UNL     1      19.199  23.380  36.087  1.00  0.00     0.293 HD
ENDBRANCH  44  47
BRANCH  45  49
ATOM     49  O   UNL     1      21.528  21.393  40.452  1.00  0.00    -0.504 OA
ATOM     50  H   UNL     1      21.428  20.871  41.311  1.00  0.00     0.293 HD
ENDBRANCH  45  49
BRANCH  46  51
ATOM     51  O   UNL     1      20.502  21.211  37.713  1.00  0.00    -0.502 OA
ATOM     52  H   UNL     1      21.413  20.768  37.755  1.00  0.00     0.293 HD
ENDBRANCH  46  51
ENDBRANCH  39  41
ENDBRANCH  38  39
ENDBRANCH   3  38
BRANCH   5  53
ATOM     53  O   UNL     1      14.471  22.064  42.684  1.00  0.00    -0.428 OA
BRANCH  53  54
ATOM     54  C   UNL     1      13.785  20.960  43.204  1.00  0.00     0.340 C 
ATOM     55  O   UNL     1      12.652  20.642  42.760  1.00  0.00    -0.246 OA
BRANCH  54  56
ATOM     56  C   UNL     1      14.405  20.166  44.277  1.00  0.00     0.067 A 
ATOM     57  C   UNL     1      15.704  19.664  44.138  1.00  0.00     0.066 A 
ATOM     58  C   UNL     1      13.697  19.919  45.458  1.00  0.00     0.066 A 
ATOM     59  C   UNL     1      16.315  18.947  45.175  1.00  0.00     0.162 A 
ATOM     60  C   UNL     1      14.275  19.183  46.493  1.00  0.00     0.162 A 
ATOM     61  C   UNL     1      15.595  18.702  46.372  1.00  0.00     0.200 A 
BRANCH  59  62
ATOM     62  O   UNL     1      17.628  18.510  44.971  1.00  0.00    -0.504 OA
ATOM     63  H   UNL     1      18.320  19.024  44.438  1.00  0.00     0.293 HD
ENDBRANCH  59  62
BRANCH  60  64
ATOM     64  O   UNL     1      13.515  18.932  47.636  1.00  0.00    -0.504 OA
ATOM     65  H   UNL     1      12.593  18.511  47.586  1.00  0.00     0.293 HD
ENDBRANCH  60  64
BRANCH  61  66
ATOM     66  O   UNL     1      16.155  17.999  47.449  1.00  0.00    -0.502 OA
ATOM     67  H   UNL     1      17.082  17.594  47.442  1.00  0.00     0.293 HD
ENDBRANCH  61  66
ENDBRANCH  54  56
ENDBRANCH  53  54
ENDBRANCH   5  53
BRANCH   4  68
ATOM     68  O   UNL     1      14.579  24.135  40.913  1.00  0.00    -0.448 OA
BRANCH  68  69
ATOM     69  C   UNL     1      13.635  24.898  40.219  1.00  0.00     0.339 C 
ATOM     70  O   UNL     1      12.530  25.186  40.756  1.00  0.00    -0.246 OA
BRANCH  69  71
ATOM     71  C   UNL     1      13.935  25.351  38.845  1.00  0.00     0.067 A 
ATOM     72  C   UNL     1      12.950  25.957  38.054  1.00  0.00     0.066 A 
ATOM     73  C   UNL     1      15.225  25.187  38.312  1.00  0.00     0.066 A 
ATOM     74  C   UNL     1      13.245  26.407  36.759  1.00  0.00     0.162 A 
ATOM     75  C   UNL     1      15.530  25.634  37.024  1.00  0.00     0.162 A 
ATOM     76  C   UNL     1      14.541  26.248  36.241  1.00  0.00     0.200 A 
BRANCH  74  77
ATOM     77  O   UNL     1      12.258  27.021  35.987  1.00  0.00    -0.504 OA
ATOM     78  H   UNL     1      11.661  26.485  35.365  1.00  0.00     0.293 HD
ENDBRANCH  74  77
BRANCH  75  79
ATOM     79  O   UNL     1      16.827  25.463  36.537  1.00  0.00    -0.504 OA
ATOM     80  H   UNL     1      17.025  24.926  35.704  1.00  0.00     0.293 HD
ENDBRANCH  75  79
BRANCH  76  81
ATOM     81  O   UNL     1      14.854  26.692  34.955  1.00  0.00    -0.502 OA
ATOM     82  H   UNL     1      15.747  27.102  34.724  1.00  0.00     0.293 HD
ENDBRANCH  76  81
ENDBRANCH  69  71
ENDBRANCH  68  69
ENDBRANCH   4  68
TORSDOF 31
ENDMDL
MODEL 4
REMARK VINA RESULT:    -6.589      2.171      5.988
REMARK INTER + INTRA:         -22.280
REMARK INTER:                 -15.816
REMARK INTRA:                  -6.464
REMARK UNBOUND:                -6.640
REMARK SMILES O=C(OC[C@H]1O[C@H](OC(=O)c2cc(O)c(O)c(O)c2)[C@H](OC(=O)c2cc(O)c(O)c(O)c2)[C@@H](OC(=O)c2cc(O)c(O)c(O)c2)[C@H]1OC(=O)c1cc(O)c(O)c(O)c1)c1cc(O)c(O)c(O)c1
REMARK SMILES IDX 5 1 46 2 33 3 20 4 7 5 6 6 4 7 3 8 2 9 1 10 59 11 60 12
REMARK SMILES IDX 61 13 67 14 63 15 65 16 62 17 64 19 66 21 47 23 48 24 49 25
REMARK SMILES IDX 50 26 58 27 51 28 56 29 52 30 54 31 57 32 53 34 55 36 34 38
REMARK SMILES IDX 35 39 36 40 37 41 45 42 38 43 43 44 39 45 41 46 44 47 40 49
REMARK SMILES IDX 42 51 8 53 9 54 10 55 11 56 19 57 12 58 17 59 13 60 15 61
REMARK SMILES IDX 18 62 14 64 16 66 21 68 22 69 23 70 24 71 32 72 25 73 30 74
REMARK SMILES IDX 26 75 28 76 31 77 27 79 29 81
REMARK H PARENT 62 18 64 20 66 22 57 33 53 35 55 37 44 48 40 50 42 52 18 63
REMARK H PARENT 14 65 16 67 31 78 27 80 29 82
REMARK Flexibility Score: inf
ROOT
ATOM      1  C   UNL     1      16.369  25.712  42.676  1.00  0.00     0.205 C 
ATOM      2  C   UNL     1      16.064  25.320  44.133  1.00  0.00     0.254 C 
ATOM      3  C   UNL     1      14.623  24.799  44.177  1.00  0.00     0.267 C 
ATOM      4  C   UNL     1      14.471  23.618  43.200  1.00  0.00     0.290 C 
ATOM      5  C   UNL     1      14.976  24.035  41.800  1.00  0.00     0.357 C 
ATOM      6  O   UNL     1      16.294  24.567  41.838  1.00  0.00    -0.329 OA
ENDROOT
BRANCH   1   7
ATOM      7  C   UNL     1      17.757  26.361  42.523  1.00  0.00     0.269 C 
BRANCH   7   8
ATOM      8  O   UNL     1      18.651  25.432  41.917  1.00  0.00    -0.459 OA
BRANCH   8   9
ATOM      9  C   UNL     1      18.872  25.397  40.534  1.00  0.00     0.338 C 
ATOM     10  O   UNL     1      18.697  26.440  39.841  1.00  0.00    -0.246 OA
BRANCH   9  11
ATOM     11  C   UNL     1      19.275  24.133  39.882  1.00  0.00     0.067 A 
ATOM     12  C   UNL     1      20.226  23.299  40.486  1.00  0.00     0.066 A 
ATOM     13  C   UNL     1      20.656  22.128  39.858  1.00  0.00     0.162 A 
ATOM     14  C   UNL     1      18.740  23.774  38.628  1.00  0.00     0.066 A 
ATOM     15  C   UNL     1      20.146  21.788  38.583  1.00  0.00     0.200 A 
ATOM     16  C   UNL     1      19.182  22.616  37.979  1.00  0.00     0.162 A 
BRANCH  13  17
ATOM     17  O   UNL     1      21.576  21.330  40.538  1.00  0.00    -0.504 OA
ATOM     18  H   UNL     1      22.360  21.696  41.051  1.00  0.00     0.293 HD
ENDBRANCH  13  17
BRANCH  15  19
ATOM     19  O   UNL     1      20.575  20.650  37.892  1.00  0.00    -0.502 OA
ATOM     20  H   UNL     1      20.518  19.709  38.251  1.00  0.00     0.293 HD
ENDBRANCH  15  19
BRANCH  16  21
ATOM     21  O   UNL     1      18.650  22.309  36.726  1.00  0.00    -0.504 OA
ATOM     22  H   UNL     1      18.985  21.525  36.178  1.00  0.00     0.293 HD
ENDBRANCH  16  21
ENDBRANCH   9  11
ENDBRANCH   8   9
ENDBRANCH   7   8
ENDBRANCH   1   7
BRANCH   2  23
ATOM     23  O   UNL     1      16.946  24.283  44.563  1.00  0.00    -0.452 OA
BRANCH  23  24
ATOM     24  C   UNL     1      17.146  23.923  45.903  1.00  0.00     0.338 C 
ATOM     25  O   UNL     1      17.484  24.797  46.742  1.00  0.00    -0.246 OA
BRANCH  24  26
ATOM     26  C   UNL     1      16.939  22.519  46.320  1.00  0.00     0.067 A 
ATOM     27  C   UNL     1      16.780  22.185  47.678  1.00  0.00     0.066 A 
ATOM     28  C   UNL     1      16.953  21.491  45.362  1.00  0.00     0.066 A 
ATOM     29  C   UNL     1      16.652  20.843  48.073  1.00  0.00     0.162 A 
ATOM     30  C   UNL     1      16.815  20.155  45.750  1.00  0.00     0.162 A 
ATOM     31  C   UNL     1      16.667  19.825  47.106  1.00  0.00     0.200 A 
BRANCH  29  32
ATOM     32  O   UNL     1      16.517  20.519  49.421  1.00  0.00    -0.504 OA
ATOM     33  H   UNL     1      15.628  20.227  49.809  1.00  0.00     0.293 HD
ENDBRANCH  29  32
BRANCH  30  34
ATOM     34  O   UNL     1      16.837  19.165  44.771  1.00  0.00    -0.504 OA
ATOM     35  H   UNL     1      17.641  19.019  44.168  1.00  0.00     0.293 HD
ENDBRANCH  30  34
BRANCH  31  36
ATOM     36  O   UNL     1      16.544  18.485  47.471  1.00  0.00    -0.502 OA
ATOM     37  H   UNL     1      16.299  17.763  46.806  1.00  0.00     0.293 HD
ENDBRANCH  31  36
ENDBRANCH  24  26
ENDBRANCH  23  24
ENDBRANCH   2  23
BRANCH   3  38
ATOM     38  O   UNL     1      14.271  24.419  45.507  1.00  0.00    -0.450 OA
BRANCH  38  39
ATOM     39  C   UNL     1      13.618  25.287  46.393  1.00  0.00     0.338 C 
ATOM     40  O   UNL     1      12.470  25.728  46.113  1.00  0.00    -0.246 OA
BRANCH  39  41
ATOM     41  C   UNL     1      14.263  25.673  47.667  1.00  0.00     0.067 A 
ATOM     42  C   UNL     1      14.307  24.769  48.743  1.00  0.00     0.066 A 
ATOM     43  C   UNL     1      14.842  26.944  47.814  1.00  0.00     0.066 A 
ATOM     44  C   UNL     1      14.914  25.129  49.949  1.00  0.00     0.162 A 
ATOM     45  C   UNL     1      15.449  27.318  49.017  1.00  0.00     0.162 A 
ATOM     46  C   UNL     1      15.479  26.406  50.104  1.00  0.00     0.200 A 
BRANCH  44  47
ATOM     47  O   UNL     1      14.960  24.213  51.002  1.00  0.00    -0.504 OA
ATOM     48  H   UNL     1      14.142  23.674  51.275  1.00  0.00     0.293 HD
ENDBRANCH  44  47
BRANCH  45  49
ATOM     49  O   UNL     1      16.001  28.597  49.090  1.00  0.00    -0.504 OA
ATOM     50  H   UNL     1      15.459  29.445  49.168  1.00  0.00     0.293 HD
ENDBRANCH  45  49
BRANCH  46  51
ATOM     51  O   UNL     1      16.047  26.720  51.341  1.00  0.00    -0.502 OA
ATOM     52  H   UNL     1      15.505  26.952  52.166  1.00  0.00     0.293 HD
ENDBRANCH  46  51
ENDBRANCH  39  41
ENDBRANCH  38  39
ENDBRANCH   3  38
BRANCH   5  53
ATOM     53  O   UNL     1      14.070  24.959  41.199  1.00  0.00    -0.428 OA
BRANCH  53  54
ATOM     54  C   UNL     1      13.414  24.716  39.987  1.00  0.00     0.340 C 
ATOM     55  O   UNL     1      12.164  24.588  39.949  1.00  0.00    -0.246 OA
BRANCH  54  56
ATOM     56  C   UNL     1      14.202  24.616  38.748  1.00  0.00     0.067 A 
ATOM     57  C   UNL     1      15.261  25.497  38.498  1.00  0.00     0.066 A 
ATOM     58  C   UNL     1      13.903  23.621  37.810  1.00  0.00     0.066 A 
ATOM     59  C   UNL     1      16.043  25.376  37.342  1.00  0.00     0.162 A 
ATOM     60  C   UNL     1      14.650  23.500  36.638  1.00  0.00     0.162 A 
ATOM     61  C   UNL     1      15.738  24.364  36.396  1.00  0.00     0.200 A 
BRANCH  59  62
ATOM     62  O   UNL     1      17.104  26.274  37.184  1.00  0.00    -0.504 OA
ATOM     63  H   UNL     1      17.107  27.035  36.515  1.00  0.00     0.293 HD
ENDBRANCH  59  62
BRANCH  60  64
ATOM     64  O   UNL     1      14.289  22.516  35.717  1.00  0.00    -0.504 OA
ATOM     65  H   UNL     1      14.373  22.660  34.716  1.00  0.00     0.293 HD
ENDBRANCH  60  64
BRANCH  61  66
ATOM     66  O   UNL     1      16.489  24.188  35.225  1.00  0.00    -0.502 OA
ATOM     67  H   UNL     1      16.086  24.018  34.313  1.00  0.00     0.293 HD
ENDBRANCH  61  66
ENDBRANCH  54  56
ENDBRANCH  53  54
ENDBRANCH   5  53
BRANCH   4  68
ATOM     68  O   UNL     1      13.099  23.248  43.087  1.00  0.00    -0.448 OA
BRANCH  68  69
ATOM     69  C   UNL     1      12.620  21.944  43.243  1.00  0.00     0.339 C 
ATOM     70  O   UNL     1      12.012  21.371  42.296  1.00  0.00    -0.246 OA
BRANCH  69  71
ATOM     71  C   UNL     1      12.819  21.245  44.529  1.00  0.00     0.067 A 
ATOM     72  C   UNL     1      12.467  21.852  45.741  1.00  0.00     0.066 A 
ATOM     73  C   UNL     1      13.359  19.949  44.553  1.00  0.00     0.066 A 
ATOM     74  C   UNL     1      12.636  21.177  46.959  1.00  0.00     0.162 A 
ATOM     75  C   UNL     1      13.529  19.265  45.760  1.00  0.00     0.162 A 
ATOM     76  C   UNL     1      13.167  19.876  46.970  1.00  0.00     0.200 A 
BRANCH  74  77
ATOM     77  O   UNL     1      12.269  21.789  48.158  1.00  0.00    -0.504 OA
ATOM     78  H   UNL     1      11.950  21.246  48.955  1.00  0.00     0.293 HD
ENDBRANCH  74  77
BRANCH  75  79
ATOM     79  O   UNL     1      14.059  17.974  45.739  1.00  0.00    -0.504 OA
ATOM     80  H   UNL     1      14.002  17.380  44.923  1.00  0.00     0.293 HD
ENDBRANCH  75  79
BRANCH  76  81
ATOM     81  O   UNL     1      13.339  19.187  48.172  1.00  0.00    -0.502 OA
ATOM     82  H   UNL     1      13.973  18.407  48.264  1.00  0.00     0.293 HD
ENDBRANCH  76  81
ENDBRANCH  69  71
ENDBRANCH  68  69
ENDBRANCH   4  68
TORSDOF 31
ENDMDL
MODEL 5
REMARK VINA RESULT:    -6.551      2.016      4.650
REMARK INTER + INTRA:         -22.192
REMARK INTER:                 -16.158
REMARK INTRA:                  -6.034
REMARK UNBOUND:                -6.640
REMARK SMILES O=C(OC[C@H]1O[C@H](OC(=O)c2cc(O)c(O)c(O)c2)[C@H](OC(=O)c2cc(O)c(O)c(O)c2)[C@@H](OC(=O)c2cc(O)c(O)c(O)c2)[C@H]1OC(=O)c1cc(O)c(O)c(O)c1)c1cc(O)c(O)c(O)c1
REMARK SMILES IDX 5 1 46 2 33 3 20 4 7 5 6 6 4 7 3 8 2 9 1 10 59 11 60 12
REMARK SMILES IDX 61 13 67 14 63 15 65 16 62 17 64 19 66 21 47 23 48 24 49 25
REMARK SMILES IDX 50 26 58 27 51 28 56 29 52 30 54 31 57 32 53 34 55 36 34 38
REMARK SMILES IDX 35 39 36 40 37 41 45 42 38 43 43 44 39 45 41 46 44 47 40 49
REMARK SMILES IDX 42 51 8 53 9 54 10 55 11 56 19 57 12 58 17 59 13 60 15 61
REMARK SMILES IDX 18 62 14 64 16 66 21 68 22 69 23 70 24 71 32 72 25 73 30 74
REMARK SMILES IDX 26 75 28 76 31 77 27 79 29 81
REMARK H PARENT 62 18 64 20 66 22 57 33 53 35 55 37 44 48 40 50 42 52 18 63
REMARK H PARENT 14 65 16 67 31 78 27 80 29 82
REMARK Flexibility Score: inf
ROOT
ATOM      1  C   UNL     1      17.421  22.918  43.233  1.00  0.00     0.205 C 
ATOM      2  C   UNL     1      17.042  22.140  44.506  1.00  0.00     0.254 C 
ATOM      3  C   UNL     1      16.043  22.999  45.289  1.00  0.00     0.267 C 
ATOM      4  C   UNL     1      14.825  23.313  44.402  1.00  0.00     0.290 C 
ATOM      5  C   UNL     1      15.302  23.920  43.062  1.00  0.00     0.357 C 
ATOM      6  O   UNL     1      16.273  23.105  42.416  1.00  0.00    -0.329 OA
ENDROOT
BRANCH   1   7
ATOM      7  C   UNL     1      18.512  22.205  42.414  1.00  0.00     0.269 C 
BRANCH   7   8
ATOM      8  O   UNL     1      19.262  23.169  41.682  1.00  0.00    -0.459 OA
BRANCH   8   9
ATOM      9  C   UNL     1      19.582  23.000  40.327  1.00  0.00     0.338 C 
ATOM     10  O   UNL     1      20.506  22.203  39.993  1.00  0.00    -0.246 OA
BRANCH   9  11
ATOM     11  C   UNL     1      18.863  23.776  39.296  1.00  0.00     0.067 A 
ATOM     12  C   UNL     1      19.572  24.408  38.265  1.00  0.00     0.066 A 
ATOM     13  C   UNL     1      18.912  25.188  37.313  1.00  0.00     0.162 A 
ATOM     14  C   UNL     1      17.463  23.927  39.363  1.00  0.00     0.066 A 
ATOM     15  C   UNL     1      17.511  25.368  37.403  1.00  0.00     0.200 A 
ATOM     16  C   UNL     1      16.795  24.727  38.430  1.00  0.00     0.162 A 
BRANCH  13  17
ATOM     17  O   UNL     1      19.680  25.753  36.295  1.00  0.00    -0.504 OA
ATOM     18  H   UNL     1      19.913  26.730  36.249  1.00  0.00     0.293 HD
ENDBRANCH  13  17
BRANCH  15  19
ATOM     19  O   UNL     1      16.809  26.174  36.501  1.00  0.00    -0.502 OA
ATOM     20  H   UNL     1      17.240  26.787  35.826  1.00  0.00     0.293 HD
ENDBRANCH  15  19
BRANCH  16  21
ATOM     21  O   UNL     1      15.412  24.874  38.545  1.00  0.00    -0.504 OA
ATOM     22  H   UNL     1      14.985  25.756  38.800  1.00  0.00     0.293 HD
ENDBRANCH  16  21
ENDBRANCH   9  11
ENDBRANCH   8   9
ENDBRANCH   7   8
ENDBRANCH   1   7
BRANCH   2  23
ATOM     23  O   UNL     1      16.421  20.901  44.164  1.00  0.00    -0.452 OA
BRANCH  23  24
ATOM     24  C   UNL     1      16.731  19.672  44.762  1.00  0.00     0.338 C 
ATOM     25  O   UNL     1      17.706  18.998  44.339  1.00  0.00    -0.246 OA
BRANCH  24  26
ATOM     26  C   UNL     1      15.918  19.189  45.900  1.00  0.00     0.067 A 
ATOM     27  C   UNL     1      16.531  18.683  47.061  1.00  0.00     0.066 A 
ATOM     28  C   UNL     1      14.517  19.180  45.809  1.00  0.00     0.066 A 
ATOM     29  C   UNL     1      15.755  18.162  48.110  1.00  0.00     0.162 A 
ATOM     30  C   UNL     1      13.739  18.672  46.856  1.00  0.00     0.162 A 
ATOM     31  C   UNL     1      14.354  18.160  48.008  1.00  0.00     0.200 A 
BRANCH  29  32
ATOM     32  O   UNL     1      16.370  17.643  49.246  1.00  0.00    -0.504 OA
ATOM     33  H   UNL     1      17.321  17.891  49.494  1.00  0.00     0.293 HD
ENDBRANCH  29  32
BRANCH  30  34
ATOM     34  O   UNL     1      12.352  18.679  46.727  1.00  0.00    -0.504 OA
ATOM     35  H   UNL     1      11.894  18.771  45.825  1.00  0.00     0.293 HD
ENDBRANCH  30  34
BRANCH  31  36
ATOM     36  O   UNL     1      13.560  17.648  49.033  1.00  0.00    -0.502 OA
ATOM     37  H   UNL     1      12.582  17.428  48.901  1.00  0.00     0.293 HD
ENDBRANCH  31  36
ENDBRANCH  24  26
ENDBRANCH  23  24
ENDBRANCH   2  23
BRANCH   3  38
ATOM     38  O   UNL     1      15.650  22.335  46.490  1.00  0.00    -0.450 OA
BRANCH  38  39
ATOM     39  C   UNL     1      16.414  22.383  47.665  1.00  0.00     0.338 C 
ATOM     40  O   UNL     1      17.504  23.018  47.683  1.00  0.00    -0.246 OA
BRANCH  39  41
ATOM     41  C   UNL     1      15.936  21.709  48.892  1.00  0.00     0.067 A 
ATOM     42  C   UNL     1      14.558  21.594  49.148  1.00  0.00     0.066 A 
ATOM     43  C   UNL     1      16.852  21.173  49.811  1.00  0.00     0.066 A 
ATOM     44  C   UNL     1      14.101  20.959  50.306  1.00  0.00     0.162 A 
ATOM     45  C   UNL     1      16.407  20.539  50.976  1.00  0.00     0.162 A 
ATOM     46  C   UNL     1      15.016  20.438  51.235  1.00  0.00     0.200 A 
BRANCH  44  47
ATOM     47  O   UNL     1      12.729  20.843  50.536  1.00  0.00    -0.504 OA
ATOM     48  H   UNL     1      12.176  20.107  50.103  1.00  0.00     0.293 HD
ENDBRANCH  44  47
BRANCH  45  49
ATOM     49  O   UNL     1      17.375  20.032  51.843  1.00  0.00    -0.504 OA
ATOM     50  H   UNL     1      17.971  20.604  52.424  1.00  0.00     0.293 HD
ENDBRANCH  45  49
BRANCH  46  51
ATOM     51  O   UNL     1      14.502  19.838  52.388  1.00  0.00    -0.502 OA
ATOM     52  H   UNL     1      13.789  20.262  52.971  1.00  0.00     0.293 HD
ENDBRANCH  46  51
ENDBRANCH  39  41
ENDBRANCH  38  39
ENDBRANCH   3  38
BRANCH   5  53
ATOM     53  O   UNL     1      15.798  25.242  43.263  1.00  0.00    -0.428 OA
BRANCH  53  54
ATOM     54  C   UNL     1      16.294  26.043  42.227  1.00  0.00     0.340 C 
ATOM     55  O   UNL     1      15.552  26.387  41.272  1.00  0.00    -0.246 OA
BRANCH  54  56
ATOM     56  C   UNL     1      17.696  26.487  42.268  1.00  0.00     0.067 A 
ATOM     57  C   UNL     1      18.370  26.624  43.487  1.00  0.00     0.066 A 
ATOM     58  C   UNL     1      18.374  26.765  41.075  1.00  0.00     0.066 A 
ATOM     59  C   UNL     1      19.719  27.002  43.527  1.00  0.00     0.162 A 
ATOM     60  C   UNL     1      19.709  27.171  41.093  1.00  0.00     0.162 A 
ATOM     61  C   UNL     1      20.403  27.278  42.316  1.00  0.00     0.200 A 
BRANCH  59  62
ATOM     62  O   UNL     1      20.329  27.081  44.783  1.00  0.00    -0.504 OA
ATOM     63  H   UNL     1      21.293  26.822  44.962  1.00  0.00     0.293 HD
ENDBRANCH  59  62
BRANCH  60  64
ATOM     64  O   UNL     1      20.329  27.471  39.880  1.00  0.00    -0.504 OA
ATOM     65  H   UNL     1      21.316  27.297  39.724  1.00  0.00     0.293 HD
ENDBRANCH  60  64
BRANCH  61  66
ATOM     66  O   UNL     1      21.754  27.653  42.291  1.00  0.00    -0.502 OA
ATOM     67  H   UNL     1      22.165  28.248  41.584  1.00  0.00     0.293 HD
ENDBRANCH  61  66
ENDBRANCH  54  56
ENDBRANCH  53  54
ENDBRANCH   5  53
BRANCH   4  68
ATOM     68  O   UNL     1      13.980  24.265  45.045  1.00  0.00    -0.448 OA
BRANCH  68  69
ATOM     69  C   UNL     1      13.645  24.229  46.402  1.00  0.00     0.339 C 
ATOM     70  O   UNL     1      12.815  23.380  46.830  1.00  0.00    -0.246 OA
BRANCH  69  71
ATOM     71  C   UNL     1      14.259  25.203  47.329  1.00  0.00     0.067 A 
ATOM     72  C   UNL     1      15.183  26.151  46.871  1.00  0.00     0.066 A 
ATOM     73  C   UNL     1      13.915  25.195  48.691  1.00  0.00     0.066 A 
ATOM     74  C   UNL     1      15.746  27.088  47.751  1.00  0.00     0.162 A 
ATOM     75  C   UNL     1      14.468  26.125  49.575  1.00  0.00     0.162 A 
ATOM     76  C   UNL     1      15.386  27.078  49.108  1.00  0.00     0.200 A 
BRANCH  74  77
ATOM     77  O   UNL     1      16.655  28.035  47.278  1.00  0.00    -0.504 OA
ATOM     78  H   UNL     1      17.065  27.962  46.353  1.00  0.00     0.293 HD
ENDBRANCH  74  77
BRANCH  75  79
ATOM     79  O   UNL     1      14.089  26.091  50.918  1.00  0.00    -0.504 OA
ATOM     80  H   UNL     1      13.125  25.994  51.206  1.00  0.00     0.293 HD
ENDBRANCH  75  79
BRANCH  76  81
ATOM     81  O   UNL     1      15.933  28.004  49.998  1.00  0.00    -0.502 OA
ATOM     82  H   UNL     1      15.387  28.740  50.420  1.00  0.00     0.293 HD
ENDBRANCH  76  81
ENDBRANCH  69  71
ENDBRANCH  68  69
ENDBRANCH   4  68
TORSDOF 31
ENDMDL
MODEL 6
REMARK VINA RESULT:    -6.506      2.328      9.846
REMARK INTER + INTRA:         -22.084
REMARK INTER:                 -16.574
REMARK INTRA:                  -5.510
REMARK UNBOUND:                -6.640
REMARK SMILES O=C(OC[C@H]1O[C@H](OC(=O)c2cc(O)c(O)c(O)c2)[C@H](OC(=O)c2cc(O)c(O)c(O)c2)[C@@H](OC(=O)c2cc(O)c(O)c(O)c2)[C@H]1OC(=O)c1cc(O)c(O)c(O)c1)c1cc(O)c(O)c(O)c1
REMARK SMILES IDX 5 1 46 2 33 3 20 4 7 5 6 6 4 7 3 8 2 9 1 10 59 11 60 12
REMARK SMILES IDX 61 13 67 14 63 15 65 16 62 17 64 19 66 21 47 23 48 24 49 25
REMARK SMILES IDX 50 26 58 27 51 28 56 29 52 30 54 31 57 32 53 34 55 36 34 38
REMARK SMILES IDX 35 39 36 40 37 41 45 42 38 43 43 44 39 45 41 46 44 47 40 49
REMARK SMILES IDX 42 51 8 53 9 54 10 55 11 56 19 57 12 58 17 59 13 60 15 61
REMARK SMILES IDX 18 62 14 64 16 66 21 68 22 69 23 70 24 71 32 72 25 73 30 74
REMARK SMILES IDX 26 75 28 76 31 77 27 79 29 81
REMARK H PARENT 62 18 64 20 66 22 57 33 53 35 55 37 44 48 40 50 42 52 18 63
REMARK H PARENT 14 65 16 67 31 78 27 80 29 82
REMARK Flexibility Score: inf
ROOT
ATOM      1  C   UNL     1      16.532  23.157  44.651  1.00  0.00     0.205 C 
ATOM      2  C   UNL     1      17.178  24.273  43.809  1.00  0.00     0.254 C 
ATOM      3  C   UNL     1      16.653  24.131  42.377  1.00  0.00     0.267 C 
ATOM      4  C   UNL     1      15.115  24.204  42.380  1.00  0.00     0.290 C 
ATOM      5  C   UNL     1      14.549  23.180  43.391  1.00  0.00     0.357 C 
ATOM      6  O   UNL     1      15.121  23.326  44.684  1.00  0.00    -0.329 OA
ENDROOT
BRANCH   1   7
ATOM      7  C   UNL     1      17.072  23.125  46.093  1.00  0.00     0.269 C 
BRANCH   7   8
ATOM      8  O   UNL     1      16.059  22.637  46.967  1.00  0.00    -0.459 OA
BRANCH   8   9
ATOM      9  C   UNL     1      16.352  22.100  48.229  1.00  0.00     0.338 C 
ATOM     10  O   UNL     1      17.325  21.303  48.364  1.00  0.00    -0.246 OA
BRANCH   9  11
ATOM     11  C   UNL     1      15.505  22.440  49.391  1.00  0.00     0.067 A 
ATOM     12  C   UNL     1      14.458  23.362  49.256  1.00  0.00     0.066 A 
ATOM     13  C   UNL     1      13.682  23.732  50.356  1.00  0.00     0.162 A 
ATOM     14  C   UNL     1      15.767  21.875  50.655  1.00  0.00     0.066 A 
ATOM     15  C   UNL     1      13.969  23.192  51.632  1.00  0.00     0.200 A 
ATOM     16  C   UNL     1      15.012  22.258  51.769  1.00  0.00     0.162 A 
BRANCH  13  17
ATOM     17  O   UNL     1      12.632  24.625  50.136  1.00  0.00    -0.504 OA
ATOM     18  H   UNL     1      12.311  25.287  50.822  1.00  0.00     0.293 HD
ENDBRANCH  13  17
BRANCH  15  19
ATOM     19  O   UNL     1      13.251  23.562  52.773  1.00  0.00    -0.502 OA
ATOM     20  H   UNL     1      13.455  23.239  53.706  1.00  0.00     0.293 HD
ENDBRANCH  15  19
BRANCH  16  21
ATOM     21  O   UNL     1      15.320  21.697  53.009  1.00  0.00    -0.504 OA
ATOM     22  H   UNL     1      14.742  20.982  53.433  1.00  0.00     0.293 HD
ENDBRANCH  16  21
ENDBRANCH   9  11
ENDBRANCH   8   9
ENDBRANCH   7   8
ENDBRANCH   1   7
BRANCH   2  23
ATOM     23  O   UNL     1      16.804  25.555  44.315  1.00  0.00    -0.452 OA
BRANCH  23  24
ATOM     24  C   UNL     1      17.213  26.063  45.556  1.00  0.00     0.338 C 
ATOM     25  O   UNL     1      18.437  26.241  45.787  1.00  0.00    -0.246 OA
BRANCH  24  26
ATOM     26  C   UNL     1      16.196  26.401  46.576  1.00  0.00     0.067 A 
ATOM     27  C   UNL     1      14.883  25.906  46.477  1.00  0.00     0.066 A 
ATOM     28  C   UNL     1      16.519  27.271  47.630  1.00  0.00     0.066 A 
ATOM     29  C   UNL     1      13.903  26.286  47.411  1.00  0.00     0.162 A 
ATOM     30  C   UNL     1      15.550  27.645  48.567  1.00  0.00     0.162 A 
ATOM     31  C   UNL     1      14.239  27.156  48.461  1.00  0.00     0.200 A 
BRANCH  29  32
ATOM     32  O   UNL     1      12.601  25.808  47.293  1.00  0.00    -0.504 OA
ATOM     33  H   UNL     1      11.801  26.423  47.388  1.00  0.00     0.293 HD
ENDBRANCH  29  32
BRANCH  30  34
ATOM     34  O   UNL     1      15.909  28.511  49.597  1.00  0.00    -0.504 OA
ATOM     35  H   UNL     1      16.862  28.575  49.941  1.00  0.00     0.293 HD
ENDBRANCH  30  34
BRANCH  31  36
ATOM     36  O   UNL     1      13.287  27.551  49.399  1.00  0.00    -0.502 OA
ATOM     37  H   UNL     1      13.040  26.976  50.194  1.00  0.00     0.293 HD
ENDBRANCH  31  36
ENDBRANCH  24  26
ENDBRANCH  23  24
ENDBRANCH   2  23
BRANCH   3  38
ATOM     38  O   UNL     1      17.217  25.138  41.537  1.00  0.00    -0.450 OA
BRANCH  38  39
ATOM     39  C   UNL     1      18.572  25.150  41.179  1.00  0.00     0.338 C 
ATOM     40  O   UNL     1      19.335  26.051  41.623  1.00  0.00    -0.246 OA
BRANCH  39  41
ATOM     41  C   UNL     1      19.117  24.095  40.295  1.00  0.00     0.067 A 
ATOM     42  C   UNL     1      18.683  23.990  38.962  1.00  0.00     0.066 A 
ATOM     43  C   UNL     1      20.077  23.190  40.778  1.00  0.00     0.066 A 
ATOM     44  C   UNL     1      19.194  22.995  38.125  1.00  0.00     0.162 A 
ATOM     45  C   UNL     1      20.593  22.187  39.951  1.00  0.00     0.162 A 
ATOM     46  C   UNL     1      20.141  22.079  38.610  1.00  0.00     0.200 A 
BRANCH  44  47
ATOM     47  O   UNL     1      18.760  22.916  36.800  1.00  0.00    -0.504 OA
ATOM     48  H   UNL     1      19.045  23.599  36.103  1.00  0.00     0.293 HD
ENDBRANCH  44  47
BRANCH  45  49
ATOM     49  O   UNL     1      21.542  21.325  40.499  1.00  0.00    -0.504 OA
ATOM     50  H   UNL     1      22.540  21.442  40.396  1.00  0.00     0.293 HD
ENDBRANCH  45  49
BRANCH  46  51
ATOM     51  O   UNL     1      20.596  21.088  37.735  1.00  0.00    -0.502 OA
ATOM     52  H   UNL     1      21.287  20.390  37.988  1.00  0.00     0.293 HD
ENDBRANCH  46  51
ENDBRANCH  39  41
ENDBRANCH  38  39
ENDBRANCH   3  38
BRANCH   5  53
ATOM     53  O   UNL     1      14.722  21.851  42.903  1.00  0.00    -0.428 OA
BRANCH  53  54
ATOM     54  C   UNL     1      14.087  20.737  43.464  1.00  0.00     0.340 C 
ATOM     55  O   UNL     1      12.981  20.337  43.017  1.00  0.00    -0.246 OA
BRANCH  54  56
ATOM     56  C   UNL     1      14.727  20.029  44.584  1.00  0.00     0.067 A 
ATOM     57  C   UNL     1      15.948  19.366  44.409  1.00  0.00     0.066 A 
ATOM     58  C   UNL     1      14.120  20.026  45.845  1.00  0.00     0.066 A 
ATOM     59  C   UNL     1      16.584  18.731  45.483  1.00  0.00     0.162 A 
ATOM     60  C   UNL     1      14.722  19.375  46.922  1.00  0.00     0.162 A 
ATOM     61  C   UNL     1      15.967  18.734  46.760  1.00  0.00     0.200 A 
BRANCH  59  62
ATOM     62  O   UNL     1      17.818  18.122  45.233  1.00  0.00    -0.504 OA
ATOM     63  H   UNL     1      18.537  18.520  44.639  1.00  0.00     0.293 HD
ENDBRANCH  59  62
BRANCH  60  64
ATOM     64  O   UNL     1      14.059  19.369  48.150  1.00  0.00    -0.504 OA
ATOM     65  H   UNL     1      14.510  19.054  49.003  1.00  0.00     0.293 HD
ENDBRANCH  60  64
BRANCH  61  66
ATOM     66  O   UNL     1      16.558  18.122  47.876  1.00  0.00    -0.502 OA
ATOM     67  H   UNL     1      16.383  18.397  48.833  1.00  0.00     0.293 HD
ENDBRANCH  61  66
ENDBRANCH  54  56
ENDBRANCH  53  54
ENDBRANCH   5  53
BRANCH   4  68
ATOM     68  O   UNL     1      14.604  23.882  41.088  1.00  0.00    -0.448 OA
BRANCH  68  69
ATOM     69  C   UNL     1      13.635  24.632  40.416  1.00  0.00     0.339 C 
ATOM     70  O   UNL     1      12.519  24.863  40.960  1.00  0.00    -0.246 OA
BRANCH  69  71
ATOM     71  C   UNL     1      13.919  25.140  39.057  1.00  0.00     0.067 A 
ATOM     72  C   UNL     1      15.137  24.861  38.424  1.00  0.00     0.066 A 
ATOM     73  C   UNL     1      12.961  25.907  38.375  1.00  0.00     0.066 A 
ATOM     74  C   UNL     1      15.394  25.325  37.126  1.00  0.00     0.162 A 
ATOM     75  C   UNL     1      13.206  26.372  37.080  1.00  0.00     0.162 A 
ATOM     76  C   UNL     1      14.424  26.083  36.449  1.00  0.00     0.200 A 
BRANCH  74  77
ATOM     77  O   UNL     1      16.607  25.029  36.502  1.00  0.00    -0.504 OA
ATOM     78  H   UNL     1      16.749  24.155  36.007  1.00  0.00     0.293 HD
ENDBRANCH  74  77
BRANCH  75  79
ATOM     79  O   UNL     1      12.222  27.121  36.432  1.00  0.00    -0.504 OA
ATOM     80  H   UNL     1      11.250  27.092  36.710  1.00  0.00     0.293 HD
ENDBRANCH  75  79
BRANCH  76  81
ATOM     81  O   UNL     1      14.661  26.551  35.155  1.00  0.00    -0.502 OA
ATOM     82  H   UNL     1      14.055  27.216  34.699  1.00  0.00     0.293 HD
ENDBRANCH  76  81
ENDBRANCH  69  71
ENDBRANCH  68  69
ENDBRANCH   4  68
TORSDOF 31
ENDMDL
MODEL 7
REMARK VINA RESULT:    -6.481      0.988      2.203
REMARK INTER + INTRA:         -22.024
REMARK INTER:                 -15.202
REMARK INTRA:                  -6.822
REMARK UNBOUND:                -6.640
REMARK SMILES O=C(OC[C@H]1O[C@H](OC(=O)c2cc(O)c(O)c(O)c2)[C@H](OC(=O)c2cc(O)c(O)c(O)c2)[C@@H](OC(=O)c2cc(O)c(O)c(O)c2)[C@H]1OC(=O)c1cc(O)c(O)c(O)c1)c1cc(O)c(O)c(O)c1
REMARK SMILES IDX 5 1 46 2 33 3 20 4 7 5 6 6 4 7 3 8 2 9 1 10 59 11 60 12
REMARK SMILES IDX 61 13 67 14 63 15 65 16 62 17 64 19 66 21 47 23 48 24 49 25
REMARK SMILES IDX 50 26 58 27 51 28 56 29 52 30 54 31 57 32 53 34 55 36 34 38
REMARK SMILES IDX 35 39 36 40 37 41 45 42 38 43 43 44 39 45 41 46 44 47 40 49
REMARK SMILES IDX 42 51 8 53 9 54 10 55 11 56 19 57 12 58 17 59 13 60 15 61
REMARK SMILES IDX 18 62 14 64 16 66 21 68 22 69 23 70 24 71 32 72 25 73 30 74
REMARK SMILES IDX 26 75 28 76 31 77 27 79 29 81
REMARK H PARENT 62 18 64 20 66 22 57 33 53 35 55 37 44 48 40 50 42 52 18 63
REMARK H PARENT 14 65 16 67 31 78 27 80 29 82
REMARK Flexibility Score: inf
ROOT
ATOM      1  C   UNL     1      16.180  25.090  40.205  1.00  0.00     0.205 C 
ATOM      2  C   UNL     1      15.702  24.078  41.262  1.00  0.00     0.254 C 
ATOM      3  C   UNL     1      16.818  23.939  42.303  1.00  0.00     0.267 C 
ATOM      4  C   UNL     1      17.138  25.320  42.905  1.00  0.00     0.290 C 
ATOM      5  C   UNL     1      17.424  26.328  41.768  1.00  0.00     0.357 C 
ATOM      6  O   UNL     1      16.379  26.364  40.804  1.00  0.00    -0.329 OA
ENDROOT
BRANCH   1   7
ATOM      7  C   UNL     1      15.186  25.231  39.037  1.00  0.00     0.269 C 
BRANCH   7   8
ATOM      8  O   UNL     1      15.227  24.055  38.235  1.00  0.00    -0.459 OA
BRANCH   8   9
ATOM      9  C   UNL     1      15.784  24.043  36.949  1.00  0.00     0.338 C 
ATOM     10  O   UNL     1      15.073  24.359  35.951  1.00  0.00    -0.246 OA
BRANCH   9  11
ATOM     11  C   UNL     1      17.190  23.630  36.757  1.00  0.00     0.067 A 
ATOM     12  C   UNL     1      17.625  22.376  37.206  1.00  0.00     0.066 A 
ATOM     13  C   UNL     1      18.962  21.992  37.079  1.00  0.00     0.162 A 
ATOM     14  C   UNL     1      18.117  24.509  36.161  1.00  0.00     0.066 A 
ATOM     15  C   UNL     1      19.899  22.889  36.514  1.00  0.00     0.200 A 
ATOM     16  C   UNL     1      19.464  24.145  36.052  1.00  0.00     0.162 A 
BRANCH  13  17
ATOM     17  O   UNL     1      19.311  20.713  37.514  1.00  0.00    -0.504 OA
ATOM     18  H   UNL     1      18.653  19.960  37.617  1.00  0.00     0.293 HD
ENDBRANCH  13  17
BRANCH  15  19
ATOM     19  O   UNL     1      21.256  22.571  36.404  1.00  0.00    -0.502 OA
ATOM     20  H   UNL     1      21.928  23.110  35.880  1.00  0.00     0.293 HD
ENDBRANCH  15  19
BRANCH  16  21
ATOM     21  O   UNL     1      20.357  25.052  35.481  1.00  0.00    -0.504 OA
ATOM     22  H   UNL     1      20.983  24.790  34.730  1.00  0.00     0.293 HD
ENDBRANCH  16  21
ENDBRANCH   9  11
ENDBRANCH   8   9
ENDBRANCH   7   8
ENDBRANCH   1   7
BRANCH   2  23
ATOM     23  O   UNL     1      14.521  24.557  41.908  1.00  0.00    -0.452 OA
BRANCH  23  24
ATOM     24  C   UNL     1      13.323  23.835  41.997  1.00  0.00     0.338 C 
ATOM     25  O   UNL     1      12.599  23.695  40.978  1.00  0.00    -0.246 OA
BRANCH  24  26
ATOM     26  C   UNL     1      12.933  23.227  43.289  1.00  0.00     0.067 A 
ATOM     27  C   UNL     1      12.986  23.972  44.481  1.00  0.00     0.066 A 
ATOM     28  C   UNL     1      12.557  21.875  43.345  1.00  0.00     0.066 A 
ATOM     29  C   UNL     1      12.680  23.370  45.713  1.00  0.00     0.162 A 
ATOM     30  C   UNL     1      12.242  21.274  44.568  1.00  0.00     0.162 A 
ATOM     31  C   UNL     1      12.304  22.017  45.756  1.00  0.00     0.200 A 
BRANCH  29  32
ATOM     32  O   UNL     1      12.755  24.108  46.892  1.00  0.00    -0.504 OA
ATOM     33  H   UNL     1      12.002  24.102  47.569  1.00  0.00     0.293 HD
ENDBRANCH  29  32
BRANCH  30  34
ATOM     34  O   UNL     1      11.875  19.931  44.582  1.00  0.00    -0.504 OA
ATOM     35  H   UNL     1      11.141  19.565  43.984  1.00  0.00     0.293 HD
ENDBRANCH  30  34
BRANCH  31  36
ATOM     36  O   UNL     1      11.998  21.395  46.965  1.00  0.00    -0.502 OA
ATOM     37  H   UNL     1      12.399  20.506  47.234  1.00  0.00     0.293 HD
ENDBRANCH  31  36
ENDBRANCH  24  26
ENDBRANCH  23  24
ENDBRANCH   2  23
BRANCH   3  38
ATOM     38  O   UNL     1      16.440  23.008  43.316  1.00  0.00    -0.450 OA
BRANCH  38  39
ATOM     39  C   UNL     1      17.230  21.902  43.658  1.00  0.00     0.338 C 
ATOM     40  O   UNL     1      18.414  21.817  43.234  1.00  0.00    -0.246 OA
BRANCH  39  41
ATOM     41  C   UNL     1      16.684  20.841  44.534  1.00  0.00     0.067 A 
ATOM     42  C   UNL     1      16.930  19.487  44.247  1.00  0.00     0.066 A 
ATOM     43  C   UNL     1      15.919  21.175  45.663  1.00  0.00     0.066 A 
ATOM     44  C   UNL     1      16.417  18.481  45.070  1.00  0.00     0.162 A 
ATOM     45  C   UNL     1      15.396  20.178  46.492  1.00  0.00     0.162 A 
ATOM     46  C   UNL     1      15.637  18.813  46.190  1.00  0.00     0.200 A 
BRANCH  44  47
ATOM     47  O   UNL     1      16.683  17.142  44.776  1.00  0.00    -0.504 OA
ATOM     48  H   UNL     1      16.453  16.739  43.871  1.00  0.00     0.293 HD
ENDBRANCH  44  47
BRANCH  45  49
ATOM     49  O   UNL     1      14.645  20.585  47.595  1.00  0.00    -0.504 OA
ATOM     50  H   UNL     1      13.879  21.242  47.547  1.00  0.00     0.293 HD
ENDBRANCH  45  49
BRANCH  46  51
ATOM     51  O   UNL     1      15.127  17.765  46.961  1.00  0.00    -0.502 OA
ATOM     52  H   UNL     1      14.897  16.851  46.586  1.00  0.00     0.293 HD
ENDBRANCH  46  51
ENDBRANCH  39  41
ENDBRANCH  38  39
ENDBRANCH   3  38
BRANCH   5  53
ATOM     53  O   UNL     1      18.678  26.040  41.150  1.00  0.00    -0.428 OA
BRANCH  53  54
ATOM     54  C   UNL     1      19.767  26.918  41.176  1.00  0.00     0.340 C 
ATOM     55  O   UNL     1      20.502  26.999  42.193  1.00  0.00    -0.246 OA
BRANCH  54  56
ATOM     56  C   UNL     1      20.052  27.748  39.994  1.00  0.00     0.067 A 
ATOM     57  C   UNL     1      20.799  28.927  40.108  1.00  0.00     0.066 A 
ATOM     58  C   UNL     1      19.586  27.351  38.735  1.00  0.00     0.066 A 
ATOM     59  C   UNL     1      21.112  29.694  38.979  1.00  0.00     0.162 A 
ATOM     60  C   UNL     1      19.862  28.116  37.601  1.00  0.00     0.162 A 
ATOM     61  C   UNL     1      20.641  29.286  37.705  1.00  0.00     0.200 A 
BRANCH  59  62
ATOM     62  O   UNL     1      21.892  30.839  39.173  1.00  0.00    -0.504 OA
ATOM     63  H   UNL     1      22.904  30.850  39.123  1.00  0.00     0.293 HD
ENDBRANCH  59  62
BRANCH  60  64
ATOM     64  O   UNL     1      19.344  27.697  36.375  1.00  0.00    -0.504 OA
ATOM     65  H   UNL     1      19.600  28.147  35.502  1.00  0.00     0.293 HD
ENDBRANCH  60  64
BRANCH  61  66
ATOM     66  O   UNL     1      20.929  30.008  36.537  1.00  0.00    -0.502 OA
ATOM     67  H   UNL     1      20.795  31.005  36.439  1.00  0.00     0.293 HD
ENDBRANCH  61  66
ENDBRANCH  54  56
ENDBRANCH  53  54
ENDBRANCH   5  53
BRANCH   4  68
ATOM     68  O   UNL     1      18.299  25.239  43.730  1.00  0.00    -0.448 OA
BRANCH  68  69
ATOM     69  C   UNL     1      18.475  25.962  44.913  1.00  0.00     0.339 C 
ATOM     70  O   UNL     1      19.514  26.659  45.084  1.00  0.00    -0.246 OA
BRANCH  69  71
ATOM     71  C   UNL     1      17.443  25.893  45.969  1.00  0.00     0.067 A 
ATOM     72  C   UNL     1      16.992  24.660  46.456  1.00  0.00     0.066 A 
ATOM     73  C   UNL     1      16.904  27.073  46.507  1.00  0.00     0.066 A 
ATOM     74  C   UNL     1      16.029  24.598  47.474  1.00  0.00     0.162 A 
ATOM     75  C   UNL     1      15.946  27.023  47.524  1.00  0.00     0.162 A 
ATOM     76  C   UNL     1      15.504  25.785  48.013  1.00  0.00     0.200 A 
BRANCH  74  77
ATOM     77  O   UNL     1      15.598  23.363  47.959  1.00  0.00    -0.504 OA
ATOM     78  H   UNL     1      14.725  23.268  48.468  1.00  0.00     0.293 HD
ENDBRANCH  74  77
BRANCH  75  79
ATOM     79  O   UNL     1      15.444  28.219  48.040  1.00  0.00    -0.504 OA
ATOM     80  H   UNL     1      15.604  28.504  48.997  1.00  0.00     0.293 HD
ENDBRANCH  75  79
BRANCH  76  81
ATOM     81  O   UNL     1      14.547  25.744  49.029  1.00  0.00    -0.502 OA
ATOM     82  H   UNL     1      13.766  25.106  49.013  1.00  0.00     0.293 HD
ENDBRANCH  76  81
ENDBRANCH  69  71
ENDBRANCH  68  69
ENDBRANCH   4  68
TORSDOF 31
ENDMDL
MODEL 8
REMARK VINA RESULT:    -6.338      2.212      6.924
REMARK INTER + INTRA:         -21.686
REMARK INTER:                 -17.195
REMARK INTRA:                  -4.490
REMARK UNBOUND:                -6.640
REMARK SMILES O=C(OC[C@H]1O[C@H](OC(=O)c2cc(O)c(O)c(O)c2)[C@H](OC(=O)c2cc(O)c(O)c(O)c2)[C@@H](OC(=O)c2cc(O)c(O)c(O)c2)[C@H]1OC(=O)c1cc(O)c(O)c(O)c1)c1cc(O)c(O)c(O)c1
REMARK SMILES IDX 5 1 46 2 33 3 20 4 7 5 6 6 4 7 3 8 2 9 1 10 59 11 60 12
REMARK SMILES IDX 61 13 67 14 63 15 65 16 62 17 64 19 66 21 47 23 48 24 49 25
REMARK SMILES IDX 50 26 58 27 51 28 56 29 52 30 54 31 57 32 53 34 55 36 34 38
REMARK SMILES IDX 35 39 36 40 37 41 45 42 38 43 43 44 39 45 41 46 44 47 40 49
REMARK SMILES IDX 42 51 8 53 9 54 10 55 11 56 19 57 12 58 17 59 13 60 15 61
REMARK SMILES IDX 18 62 14 64 16 66 21 68 22 69 23 70 24 71 32 72 25 73 30 74
REMARK SMILES IDX 26 75 28 76 31 77 27 79 29 81
REMARK H PARENT 62 18 64 20 66 22 57 33 53 35 55 37 44 48 40 50 42 52 18 63
REMARK H PARENT 14 65 16 67 31 78 27 80 29 82
REMARK Flexibility Score: inf
ROOT
ATOM      1  C   UNL     1      14.970  24.991  42.213  1.00  0.00     0.205 C 
ATOM      2  C   UNL     1      15.071  24.904  43.747  1.00  0.00     0.254 C 
ATOM      3  C   UNL     1      13.921  24.015  44.234  1.00  0.00     0.267 C 
ATOM      4  C   UNL     1      14.010  22.636  43.554  1.00  0.00     0.290 C 
ATOM      5  C   UNL     1      14.094  22.818  42.021  1.00  0.00     0.357 C 
ATOM      6  O   UNL     1      15.141  23.702  41.639  1.00  0.00    -0.329 OA
ENDROOT
BRANCH   1   7
ATOM      7  C   UNL     1      16.009  25.954  41.611  1.00  0.00     0.269 C 
BRANCH   7   8
ATOM      8  O   UNL     1      17.300  25.356  41.669  1.00  0.00    -0.459 OA
BRANCH   8   9
ATOM      9  C   UNL     1      18.270  25.568  40.679  1.00  0.00     0.338 C 
ATOM     10  O   UNL     1      18.643  26.745  40.405  1.00  0.00    -0.246 OA
BRANCH   9  11
ATOM     11  C   UNL     1      18.829  24.420  39.936  1.00  0.00     0.067 A 
ATOM     12  C   UNL     1      19.811  23.609  40.522  1.00  0.00     0.066 A 
ATOM     13  C   UNL     1      20.386  22.553  39.813  1.00  0.00     0.162 A 
ATOM     14  C   UNL     1      18.415  24.155  38.615  1.00  0.00     0.066 A 
ATOM     15  C   UNL     1      19.996  22.310  38.475  1.00  0.00     0.200 A 
ATOM     16  C   UNL     1      19.003  23.115  37.886  1.00  0.00     0.162 A 
BRANCH  13  17
ATOM     17  O   UNL     1      21.329  21.766  40.477  1.00  0.00    -0.504 OA
ATOM     18  H   UNL     1      21.088  21.047  41.138  1.00  0.00     0.293 HD
ENDBRANCH  13  17
BRANCH  15  19
ATOM     19  O   UNL     1      20.573  21.293  37.707  1.00  0.00    -0.502 OA
ATOM     20  H   UNL     1      20.090  20.459  37.409  1.00  0.00     0.293 HD
ENDBRANCH  15  19
BRANCH  16  21
ATOM     21  O   UNL     1      18.586  22.900  36.573  1.00  0.00    -0.504 OA
ATOM     22  H   UNL     1      19.103  23.260  35.779  1.00  0.00     0.293 HD
ENDBRANCH  16  21
ENDBRANCH   9  11
ENDBRANCH   8   9
ENDBRANCH   7   8
ENDBRANCH   1   7
BRANCH   2  23
ATOM     23  O   UNL     1      16.312  24.308  44.129  1.00  0.00    -0.452 OA
BRANCH  23  24
ATOM     24  C   UNL     1      17.060  24.695  45.249  1.00  0.00     0.338 C 
ATOM     25  O   UNL     1      17.037  23.991  46.291  1.00  0.00    -0.246 OA
BRANCH  24  26
ATOM     26  C   UNL     1      17.885  25.922  45.186  1.00  0.00     0.067 A 
ATOM     27  C   UNL     1      17.543  27.060  45.939  1.00  0.00     0.066 A 
ATOM     28  C   UNL     1      18.993  25.980  44.326  1.00  0.00     0.066 A 
ATOM     29  C   UNL     1      18.291  28.244  45.823  1.00  0.00     0.162 A 
ATOM     30  C   UNL     1      19.747  27.154  44.214  1.00  0.00     0.162 A 
ATOM     31  C   UNL     1      19.398  28.290  44.960  1.00  0.00     0.200 A 
BRANCH  29  32
ATOM     32  O   UNL     1      17.934  29.373  46.555  1.00  0.00    -0.504 OA
ATOM     33  H   UNL     1      17.131  29.937  46.301  1.00  0.00     0.293 HD
ENDBRANCH  29  32
BRANCH  30  34
ATOM     34  O   UNL     1      20.837  27.173  43.348  1.00  0.00    -0.504 OA
ATOM     35  H   UNL     1      21.788  27.302  43.681  1.00  0.00     0.293 HD
ENDBRANCH  30  34
BRANCH  31  36
ATOM     36  O   UNL     1      20.155  29.452  44.824  1.00  0.00    -0.502 OA
ATOM     37  H   UNL     1      21.130  29.498  45.092  1.00  0.00     0.293 HD
ENDBRANCH  31  36
ENDBRANCH  24  26
ENDBRANCH  23  24
ENDBRANCH   2  23
BRANCH   3  38
ATOM     38  O   UNL     1      13.953  23.894  45.655  1.00  0.00    -0.450 OA
BRANCH  38  39
ATOM     39  C   UNL     1      13.311  24.804  46.506  1.00  0.00     0.338 C 
ATOM     40  O   UNL     1      12.125  25.162  46.267  1.00  0.00    -0.246 OA
BRANCH  39  41
ATOM     41  C   UNL     1      14.012  25.331  47.697  1.00  0.00     0.067 A 
ATOM     42  C   UNL     1      14.111  24.555  48.865  1.00  0.00     0.066 A 
ATOM     43  C   UNL     1      14.590  26.611  47.673  1.00  0.00     0.066 A 
ATOM     44  C   UNL     1      14.771  25.049  49.993  1.00  0.00     0.162 A 
ATOM     45  C   UNL     1      15.250  27.118  48.796  1.00  0.00     0.162 A 
ATOM     46  C   UNL     1      15.335  26.335  49.976  1.00  0.00     0.200 A 
BRANCH  44  47
ATOM     47  O   UNL     1      14.870  24.258  51.139  1.00  0.00    -0.504 OA
ATOM     48  H   UNL     1      15.511  24.490  51.894  1.00  0.00     0.293 HD
ENDBRANCH  44  47
BRANCH  45  49
ATOM     49  O   UNL     1      15.799  28.397  48.699  1.00  0.00    -0.504 OA
ATOM     50  H   UNL     1      16.086  28.952  49.492  1.00  0.00     0.293 HD
ENDBRANCH  45  49
BRANCH  46  51
ATOM     51  O   UNL     1      15.959  26.787  51.142  1.00  0.00    -0.502 OA
ATOM     52  H   UNL     1      15.978  27.760  51.428  1.00  0.00     0.293 HD
ENDBRANCH  46  51
ENDBRANCH  39  41
ENDBRANCH  38  39
ENDBRANCH   3  38
BRANCH   5  53
ATOM     53  O   UNL     1      12.840  23.260  41.502  1.00  0.00    -0.428 OA
BRANCH  53  54
ATOM     54  C   UNL     1      12.722  24.223  40.494  1.00  0.00     0.340 C 
ATOM     55  O   UNL     1      12.327  25.387  40.762  1.00  0.00    -0.246 OA
BRANCH  54  56
ATOM     56  C   UNL     1      13.071  23.866  39.110  1.00  0.00     0.067 A 
ATOM     57  C   UNL     1      14.106  24.527  38.437  1.00  0.00     0.066 A 
ATOM     58  C   UNL     1      12.373  22.844  38.456  1.00  0.00     0.066 A 
ATOM     59  C   UNL     1      14.472  24.159  37.137  1.00  0.00     0.162 A 
ATOM     60  C   UNL     1      12.701  22.480  37.150  1.00  0.00     0.162 A 
ATOM     61  C   UNL     1      13.765  23.120  36.480  1.00  0.00     0.200 A 
BRANCH  59  62
ATOM     62  O   UNL     1      15.540  24.844  36.548  1.00  0.00    -0.504 OA
ATOM     63  H   UNL     1      15.429  25.639  35.928  1.00  0.00     0.293 HD
ENDBRANCH  59  62
BRANCH  60  64
ATOM     64  O   UNL     1      11.952  21.480  36.530  1.00  0.00    -0.504 OA
ATOM     65  H   UNL     1      11.465  20.766  37.062  1.00  0.00     0.293 HD
ENDBRANCH  60  64
BRANCH  61  66
ATOM     66  O   UNL     1      14.090  22.700  35.182  1.00  0.00    -0.502 OA
ATOM     67  H   UNL     1      14.320  21.747  34.934  1.00  0.00     0.293 HD
ENDBRANCH  61  66
ENDBRANCH  54  56
ENDBRANCH  53  54
ENDBRANCH   5  53
BRANCH   4  68
ATOM     68  O   UNL     1      12.845  21.868  43.847  1.00  0.00    -0.448 OA
BRANCH  68  69
ATOM     69  C   UNL     1      12.865  20.607  44.451  1.00  0.00     0.339 C 
ATOM     70  O   UNL     1      11.876  19.831  44.337  1.00  0.00    -0.246 OA
BRANCH  69  71
ATOM     71  C   UNL     1      14.048  20.196  45.236  1.00  0.00     0.067 A 
ATOM     72  C   UNL     1      15.126  19.541  44.627  1.00  0.00     0.066 A 
ATOM     73  C   UNL     1      14.109  20.465  46.613  1.00  0.00     0.066 A 
ATOM     74  C   UNL     1      16.256  19.172  45.372  1.00  0.00     0.162 A 
ATOM     75  C   UNL     1      15.231  20.105  47.364  1.00  0.00     0.162 A 
ATOM     76  C   UNL     1      16.311  19.457  46.746  1.00  0.00     0.200 A 
BRANCH  74  77
ATOM     77  O   UNL     1      17.328  18.532  44.750  1.00  0.00    -0.504 OA
ATOM     78  H   UNL     1      17.185  17.877  43.987  1.00  0.00     0.293 HD
ENDBRANCH  74  77
BRANCH  75  79
ATOM     79  O   UNL     1      15.258  20.403  48.728  1.00  0.00    -0.504 OA
ATOM     80  H   UNL     1      15.499  19.713  49.427  1.00  0.00     0.293 HD
ENDBRANCH  75  79
BRANCH  76  81
ATOM     81  O   UNL     1      17.429  19.101  47.503  1.00  0.00    -0.502 OA
ATOM     82  H   UNL     1      17.475  18.244  48.033  1.00  0.00     0.293 HD
ENDBRANCH  76  81
ENDBRANCH  69  71
ENDBRANCH  68  69
ENDBRANCH   4  68
TORSDOF 31
ENDMDL
MODEL 9
REMARK VINA RESULT:    -6.289      3.755      9.088
REMARK INTER + INTRA:         -21.569
REMARK INTER:                 -15.521
REMARK INTRA:                  -6.048
REMARK UNBOUND:                -6.640
REMARK SMILES O=C(OC[C@H]1O[C@H](OC(=O)c2cc(O)c(O)c(O)c2)[C@H](OC(=O)c2cc(O)c(O)c(O)c2)[C@@H](OC(=O)c2cc(O)c(O)c(O)c2)[C@H]1OC(=O)c1cc(O)c(O)c(O)c1)c1cc(O)c(O)c(O)c1
REMARK SMILES IDX 5 1 46 2 33 3 20 4 7 5 6 6 4 7 3 8 2 9 1 10 59 11 60 12
REMARK SMILES IDX 61 13 67 14 63 15 65 16 62 17 64 19 66 21 47 23 48 24 49 25
REMARK SMILES IDX 50 26 58 27 51 28 56 29 52 30 54 31 57 32 53 34 55 36 34 38
REMARK SMILES IDX 35 39 36 40 37 41 45 42 38 43 43 44 39 45 41 46 44 47 40 49
REMARK SMILES IDX 42 51 8 53 9 54 10 55 11 56 19 57 12 58 17 59 13 60 15 61
REMARK SMILES IDX 18 62 14 64 16 66 21 68 22 69 23 70 24 71 32 72 25 73 30 74
REMARK SMILES IDX 26 75 28 76 31 77 27 79 29 81
REMARK H PARENT 62 18 64 20 66 22 57 33 53 35 55 37 44 48 40 50 42 52 18 63
REMARK H PARENT 14 65 16 67 31 78 27 80 29 82
REMARK Flexibility Score: inf
ROOT
ATOM      1  C   UNL     1      15.421  25.877  49.235  1.00  0.00     0.205 C 
ATOM      2  C   UNL     1      15.144  24.497  48.612  1.00  0.00     0.254 C 
ATOM      3  C   UNL     1      15.069  23.482  49.758  1.00  0.00     0.267 C 
ATOM      4  C   UNL     1      13.980  23.911  50.758  1.00  0.00     0.290 C 
ATOM      5  C   UNL     1      14.223  25.375  51.193  1.00  0.00     0.357 C 
ATOM      6  O   UNL     1      14.344  26.255  50.082  1.00  0.00    -0.329 OA
ENDROOT
BRANCH   1   7
ATOM      7  C   UNL     1      15.632  26.969  48.170  1.00  0.00     0.269 C 
BRANCH   7   8
ATOM      8  O   UNL     1      16.494  26.476  47.149  1.00  0.00    -0.459 OA
BRANCH   8   9
ATOM      9  C   UNL     1      17.157  27.325  46.252  1.00  0.00     0.338 C 
ATOM     10  O   UNL     1      17.271  28.556  46.518  1.00  0.00    -0.246 OA
BRANCH   9  11
ATOM     11  C   UNL     1      17.691  26.787  44.984  1.00  0.00     0.067 A 
ATOM     12  C   UNL     1      18.945  27.200  44.514  1.00  0.00     0.066 A 
ATOM     13  C   UNL     1      19.441  26.740  43.292  1.00  0.00     0.162 A 
ATOM     14  C   UNL     1      16.928  25.887  44.212  1.00  0.00     0.066 A 
ATOM     15  C   UNL     1      18.658  25.866  42.501  1.00  0.00     0.200 A 
ATOM     16  C   UNL     1      17.404  25.441  42.975  1.00  0.00     0.162 A 
BRANCH  13  17
ATOM     17  O   UNL     1      20.714  27.165  42.909  1.00  0.00    -0.504 OA
ATOM     18  H   UNL     1      21.074  27.075  41.974  1.00  0.00     0.293 HD
ENDBRANCH  13  17
BRANCH  15  19
ATOM     19  O   UNL     1      19.089  25.412  41.250  1.00  0.00    -0.502 OA
ATOM     20  H   UNL     1      18.599  24.730  40.691  1.00  0.00     0.293 HD
ENDBRANCH  15  19
BRANCH  16  21
ATOM     21  O   UNL     1      16.607  24.573  42.227  1.00  0.00    -0.504 OA
ATOM     22  H   UNL     1      16.702  23.566  42.291  1.00  0.00     0.293 HD
ENDBRANCH  16  21
ENDBRANCH   9  11
ENDBRANCH   8   9
ENDBRANCH   7   8
ENDBRANCH   1   7
BRANCH   2  23
ATOM     23  O   UNL     1      13.895  24.508  47.919  1.00  0.00    -0.452 OA
BRANCH  23  24
ATOM     24  C   UNL     1      13.766  24.420  46.526  1.00  0.00     0.338 C 
ATOM     25  O   UNL     1      13.080  25.272  45.906  1.00  0.00    -0.246 OA
BRANCH  24  26
ATOM     26  C   UNL     1      14.455  23.332  45.798  1.00  0.00     0.067 A 
ATOM     27  C   UNL     1      15.857  23.216  45.833  1.00  0.00     0.066 A 
ATOM     28  C   UNL     1      13.716  22.431  45.014  1.00  0.00     0.066 A 
ATOM     29  C   UNL     1      16.511  22.224  45.084  1.00  0.00     0.162 A 
ATOM     30  C   UNL     1      14.362  21.435  44.275  1.00  0.00     0.162 A 
ATOM     31  C   UNL     1      15.761  21.328  44.305  1.00  0.00     0.200 A 
BRANCH  29  32
ATOM     32  O   UNL     1      17.900  22.129  45.107  1.00  0.00    -0.504 OA
ATOM     33  H   UNL     1      18.403  21.557  44.439  1.00  0.00     0.293 HD
ENDBRANCH  29  32
BRANCH  30  34
ATOM     34  O   UNL     1      13.594  20.562  43.508  1.00  0.00    -0.504 OA
ATOM     35  H   UNL     1      13.749  20.439  42.512  1.00  0.00     0.293 HD
ENDBRANCH  30  34
BRANCH  31  36
ATOM     36  O   UNL     1      16.384  20.335  43.551  1.00  0.00    -0.502 OA
ATOM     37  H   UNL     1      16.477  19.383  43.880  1.00  0.00     0.293 HD
ENDBRANCH  31  36
ENDBRANCH  24  26
ENDBRANCH  23  24
ENDBRANCH   2  23
BRANCH   3  38
ATOM     38  O   UNL     1      14.816  22.173  49.248  1.00  0.00    -0.450 OA
BRANCH  38  39
ATOM     39  C   UNL     1      15.819  21.199  49.137  1.00  0.00     0.338 C 
ATOM     40  O   UNL     1      16.788  21.197  49.944  1.00  0.00    -0.246 OA
BRANCH  39  41
ATOM     41  C   UNL     1      15.732  20.160  48.088  1.00  0.00     0.067 A 
ATOM     42  C   UNL     1      16.901  19.605  47.539  1.00  0.00     0.066 A 
ATOM     43  C   UNL     1      14.481  19.713  47.631  1.00  0.00     0.066 A 
ATOM     44  C   UNL     1      16.825  18.624  46.548  1.00  0.00     0.162 A 
ATOM     45  C   UNL     1      14.391  18.735  46.636  1.00  0.00     0.162 A 
ATOM     46  C   UNL     1      15.575  18.188  46.078  1.00  0.00     0.200 A 
BRANCH  44  47
ATOM     47  O   UNL     1      17.997  18.075  46.025  1.00  0.00    -0.504 OA
ATOM     48  H   UNL     1      18.910  18.476  46.226  1.00  0.00     0.293 HD
ENDBRANCH  44  47
BRANCH  45  49
ATOM     49  O   UNL     1      13.115  18.342  46.233  1.00  0.00    -0.504 OA
ATOM     50  H   UNL     1      12.376  18.984  45.987  1.00  0.00     0.293 HD
ENDBRANCH  45  49
BRANCH  46  51
ATOM     51  O   UNL     1      15.560  17.225  45.065  1.00  0.00    -0.502 OA
ATOM     52  H   UNL     1      15.593  17.448  44.077  1.00  0.00     0.293 HD
ENDBRANCH  46  51
ENDBRANCH  39  41
ENDBRANCH  38  39
ENDBRANCH   3  38
BRANCH   5  53
ATOM     53  O   UNL     1      15.370  25.460  52.038  1.00  0.00    -0.428 OA
BRANCH  53  54
ATOM     54  C   UNL     1      15.318  25.910  53.362  1.00  0.00     0.340 C 
ATOM     55  O   UNL     1      14.802  25.199  54.262  1.00  0.00    -0.246 OA
BRANCH  54  56
ATOM     56  C   UNL     1      15.880  27.228  53.698  1.00  0.00     0.067 A 
ATOM     57  C   UNL     1      15.053  28.273  54.126  1.00  0.00     0.066 A 
ATOM     58  C   UNL     1      17.261  27.440  53.606  1.00  0.00     0.066 A 
ATOM     59  C   UNL     1      15.590  29.514  54.492  1.00  0.00     0.162 A 
ATOM     60  C   UNL     1      17.814  28.678  53.937  1.00  0.00     0.162 A 
ATOM     61  C   UNL     1      16.989  29.724  54.400  1.00  0.00     0.200 A 
BRANCH  59  62
ATOM     62  O   UNL     1      14.700  30.495  54.942  1.00  0.00    -0.504 OA
ATOM     63  H   UNL     1      14.735  31.467  54.655  1.00  0.00     0.293 HD
ENDBRANCH  59  62
BRANCH  60  64
ATOM     64  O   UNL     1      19.191  28.850  53.793  1.00  0.00    -0.504 OA
ATOM     65  H   UNL     1      19.761  29.255  54.528  1.00  0.00     0.293 HD
ENDBRANCH  60  64
BRANCH  61  66
ATOM     66  O   UNL     1      17.587  30.941  54.759  1.00  0.00    -0.502 OA
ATOM     67  H   UNL     1      18.286  31.416  54.204  1.00  0.00     0.293 HD
ENDBRANCH  61  66
ENDBRANCH  54  56
ENDBRANCH  53  54
ENDBRANCH   5  53
BRANCH   4  68
ATOM     68  O   UNL     1      14.029  23.088  51.922  1.00  0.00    -0.448 OA
BRANCH  68  69
ATOM     69  C   UNL     1      13.204  21.980  52.136  1.00  0.00     0.339 C 
ATOM     70  O   UNL     1      11.996  22.140  52.466  1.00  0.00    -0.246 OA
BRANCH  69  71
ATOM     71  C   UNL     1      13.761  20.619  51.989  1.00  0.00     0.067 A 
ATOM     72  C   UNL     1      13.153  19.678  51.148  1.00  0.00     0.066 A 
ATOM     73  C   UNL     1      14.921  20.250  52.690  1.00  0.00     0.066 A 
ATOM     74  C   UNL     1      13.697  18.395  50.993  1.00  0.00     0.162 A 
ATOM     75  C   UNL     1      15.473  18.975  52.541  1.00  0.00     0.162 A 
ATOM     76  C   UNL     1      14.864  18.041  51.690  1.00  0.00     0.200 A 
BRANCH  74  77
ATOM     77  O   UNL     1      13.088  17.472  50.141  1.00  0.00    -0.504 OA
ATOM     78  H   UNL     1      12.999  16.494  50.396  1.00  0.00     0.293 HD
ENDBRANCH  74  77
BRANCH  75  79
ATOM     79  O   UNL     1      16.634  18.653  53.246  1.00  0.00    -0.504 OA
ATOM     80  H   UNL     1      17.293  17.961  52.915  1.00  0.00     0.293 HD
ENDBRANCH  75  79
BRANCH  76  81
ATOM     81  O   UNL     1      15.422  16.769  51.546  1.00  0.00    -0.502 OA
ATOM     82  H   UNL     1      14.863  15.929  51.533  1.00  0.00     0.293 HD
ENDBRANCH  76  81
ENDBRANCH  69  71
ENDBRANCH  68  69
ENDBRANCH   4  68
TORSDOF 31
ENDMDL
