MODEL 1
REMARK VINA RESULT:     4.633      0.000      0.000
REMARK INTER + INTRA:           5.161
REMARK INTER:                   5.580
REMARK INTRA:                  -0.419
REMARK UNBOUND:                -0.419
REMARK SMILES O=c1c(O)c(-c2ccc(O)cc2O)oc2cc(O)cc(O)c12
REMARK SMILES IDX 5 1 3 2 2 3 1 4 22 5 20 6 19 7 17 8 16 9 15 10 14 11 6 12
REMARK SMILES IDX 8 13 7 14 9 15 11 16 12 17 10 18 13 20 4 22 21 24 18 26
REMARK H PARENT 10 19 13 21 4 23 21 25 18 27
REMARK Flexibility Score: inf
ROOT
ATOM      1  C   UNL     1      13.188 -12.840  29.159  1.00  0.00     0.184 A 
ATOM      2  C   UNL     1      13.494 -13.749  30.186  1.00  0.00     0.208 A 
ATOM      3  C   UNL     1      14.254 -14.890  29.882  1.00  0.00     0.238 A 
ATOM      4  O   UNL     1      14.476 -15.728  30.793  1.00  0.00    -0.285 OA
ATOM      5  C   UNL     1      14.715 -15.097  28.559  1.00  0.00     0.111 A 
ATOM      6  C   UNL     1      15.526 -16.197  28.146  1.00  0.00     0.134 A 
ATOM      7  C   UNL     1      15.816 -16.368  26.787  1.00  0.00     0.093 A 
ATOM      8  C   UNL     1      15.380 -15.444  25.835  1.00  0.00     0.123 A 
ATOM      9  C   UNL     1      14.638 -14.335  26.235  1.00  0.00     0.094 A 
ATOM     10  C   UNL     1      14.301 -14.157  27.580  1.00  0.00     0.146 A 
ATOM     11  O   UNL     1      13.582 -13.093  27.916  1.00  0.00    -0.451 OA
ENDROOT
BRANCH   1  12
ATOM     12  C   UNL     1      12.411 -11.605  29.414  1.00  0.00     0.063 A 
ATOM     13  C   UNL     1      12.204  -9.425  30.477  1.00  0.00     0.047 A 
ATOM     14  C   UNL     1      12.923 -10.602  30.257  1.00  0.00     0.020 A 
ATOM     15  C   UNL     1      10.969  -9.228  29.851  1.00  0.00     0.119 A 
ATOM     16  C   UNL     1      10.457 -10.212  29.001  1.00  0.00     0.093 A 
ATOM     17  C   UNL     1      11.171 -11.398  28.776  1.00  0.00     0.130 A 
BRANCH  15  18
ATOM     18  O   UNL     1      10.244  -8.057  30.063  1.00  0.00    -0.508 OA
ATOM     19  H   UNL     1       9.247  -8.011  29.881  1.00  0.00     0.293 HD
ENDBRANCH  15  18
BRANCH  17  20
ATOM     20  O   UNL     1      10.644 -12.375  27.930  1.00  0.00    -0.507 OA
ATOM     21  H   UNL     1      10.698 -12.290  26.921  1.00  0.00     0.293 HD
ENDBRANCH  17  20
ENDBRANCH   1  12
BRANCH   2  22
ATOM     22  O   UNL     1      13.016 -13.530  31.481  1.00  0.00    -0.502 OA
ATOM     23  H   UNL     1      12.156 -13.944  31.820  1.00  0.00     0.293 HD
ENDBRANCH   2  22
BRANCH   6  24
ATOM     24  O   UNL     1      16.089 -17.125  29.027  1.00  0.00    -0.507 OA
ATOM     25  H   UNL     1      15.840 -17.219  30.000  1.00  0.00     0.293 HD
ENDBRANCH   6  24
BRANCH   8  26
ATOM     26  O   UNL     1      15.687 -15.614  24.486  1.00  0.00    -0.508 OA
ATOM     27  H   UNL     1      15.116 -16.193  23.882  1.00  0.00     0.293 HD
ENDBRANCH   8  26
TORSDOF 6
ENDMDL
MODEL 2
REMARK VINA RESULT:     4.679      1.544      6.593
REMARK INTER + INTRA:           5.218
REMARK INTER:                   5.477
REMARK INTRA:                  -0.259
REMARK UNBOUND:                -0.419
REMARK SMILES O=c1c(O)c(-c2ccc(O)cc2O)oc2cc(O)cc(O)c12
REMARK SMILES IDX 5 1 3 2 2 3 1 4 22 5 20 6 19 7 17 8 16 9 15 10 14 11 6 12
REMARK SMILES IDX 8 13 7 14 9 15 11 16 12 17 10 18 13 20 4 22 21 24 18 26
REMARK H PARENT 10 19 13 21 4 23 21 25 18 27
REMARK Flexibility Score: inf
ROOT
ATOM      1  C   UNL     1      13.895 -13.062  28.568  1.00  0.00     0.184 A 
ATOM      2  C   UNL     1      14.608 -12.479  29.629  1.00  0.00     0.208 A 
ATOM      3  C   UNL     1      13.985 -11.490  30.406  1.00  0.00     0.238 A 
ATOM      4  O   UNL     1      14.648 -10.931  31.318  1.00  0.00    -0.285 OA
ATOM      5  C   UNL     1      12.649 -11.111  30.125  1.00  0.00     0.111 A 
ATOM      6  C   UNL     1      11.905 -10.149  30.873  1.00  0.00     0.134 A 
ATOM      7  C   UNL     1      10.636  -9.760  30.427  1.00  0.00     0.093 A 
ATOM      8  C   UNL     1      10.058 -10.346  29.298  1.00  0.00     0.123 A 
ATOM      9  C   UNL     1      10.752 -11.329  28.596  1.00  0.00     0.094 A 
ATOM     10  C   UNL     1      12.035 -11.711  28.996  1.00  0.00     0.146 A 
ATOM     11  O   UNL     1      12.666 -12.643  28.291  1.00  0.00    -0.451 OA
ENDROOT
BRANCH   1  12
ATOM     12  C   UNL     1      14.484 -14.127  27.723  1.00  0.00     0.063 A 
ATOM     13  C   UNL     1      15.370 -14.873  25.582  1.00  0.00     0.047 A 
ATOM     14  C   UNL     1      14.789 -13.879  26.372  1.00  0.00     0.020 A 
ATOM     15  C   UNL     1      15.664 -16.125  26.131  1.00  0.00     0.119 A 
ATOM     16  C   UNL     1      15.377 -16.379  27.475  1.00  0.00     0.093 A 
ATOM     17  C   UNL     1      14.792 -15.386  28.276  1.00  0.00     0.130 A 
BRANCH  15  18
ATOM     18  O   UNL     1      16.244 -17.125  25.352  1.00  0.00    -0.508 OA
ATOM     19  H   UNL     1      16.518 -16.954  24.390  1.00  0.00     0.293 HD
ENDBRANCH  15  18
BRANCH  17  20
ATOM     20  O   UNL     1      14.505 -15.656  29.615  1.00  0.00    -0.507 OA
ATOM     21  H   UNL     1      13.607 -16.027  29.901  1.00  0.00     0.293 HD
ENDBRANCH  17  20
ENDBRANCH   1  12
BRANCH   2  22
ATOM     22  O   UNL     1      15.930 -12.859  29.878  1.00  0.00    -0.502 OA
ATOM     23  H   UNL     1      16.707 -12.520  29.324  1.00  0.00     0.293 HD
ENDBRANCH   2  22
BRANCH   6  24
ATOM     24  O   UNL     1      12.353  -9.571  32.065  1.00  0.00    -0.507 OA
ATOM     25  H   UNL     1      12.366  -8.580  32.253  1.00  0.00     0.293 HD
ENDBRANCH   6  24
BRANCH   8  26
ATOM     26  O   UNL     1       8.788  -9.964  28.871  1.00  0.00    -0.508 OA
ATOM     27  H   UNL     1       8.206 -10.583  28.320  1.00  0.00     0.293 HD
ENDBRANCH   8  26
TORSDOF 6
ENDMDL
MODEL 3
REMARK VINA RESULT:     6.413      4.458      5.868
REMARK INTER + INTRA:           7.305
REMARK INTER:                   7.425
REMARK INTRA:                  -0.119
REMARK UNBOUND:                -0.419
REMARK SMILES O=c1c(O)c(-c2ccc(O)cc2O)oc2cc(O)cc(O)c12
REMARK SMILES IDX 5 1 3 2 2 3 1 4 22 5 20 6 19 7 17 8 16 9 15 10 14 11 6 12
REMARK SMILES IDX 8 13 7 14 9 15 11 16 12 17 10 18 13 20 4 22 21 24 18 26
REMARK H PARENT 10 19 13 21 4 23 21 25 18 27
REMARK Flexibility Score: inf
ROOT
ATOM      1  C   UNL     1      13.937  -9.599  26.569  1.00  0.00     0.184 A 
ATOM      2  C   UNL     1      12.828  -9.271  27.367  1.00  0.00     0.208 A 
ATOM      3  C   UNL     1      12.440 -10.151  28.389  1.00  0.00     0.238 A 
ATOM      4  O   UNL     1      11.412  -9.880  29.063  1.00  0.00    -0.285 OA
ATOM      5  C   UNL     1      13.177 -11.339  28.613  1.00  0.00     0.111 A 
ATOM      6  C   UNL     1      12.899 -12.284  29.647  1.00  0.00     0.134 A 
ATOM      7  C   UNL     1      13.615 -13.486  29.694  1.00  0.00     0.093 A 
ATOM      8  C   UNL     1      14.643 -13.749  28.786  1.00  0.00     0.123 A 
ATOM      9  C   UNL     1      14.963 -12.806  27.811  1.00  0.00     0.094 A 
ATOM     10  C   UNL     1      14.242 -11.614  27.716  1.00  0.00     0.146 A 
ATOM     11  O   UNL     1      14.571 -10.749  26.763  1.00  0.00    -0.451 OA
ENDROOT
BRANCH   1  12
ATOM     12  C   UNL     1      14.414  -8.704  25.489  1.00  0.00     0.063 A 
ATOM     13  C   UNL     1      14.863  -8.297  23.131  1.00  0.00     0.047 A 
ATOM     14  C   UNL     1      14.439  -9.148  24.154  1.00  0.00     0.020 A 
ATOM     15  C   UNL     1      15.258  -6.987  23.425  1.00  0.00     0.119 A 
ATOM     16  C   UNL     1      15.225  -6.532  24.745  1.00  0.00     0.093 A 
ATOM     17  C   UNL     1      14.802  -7.381  25.779  1.00  0.00     0.130 A 
BRANCH  15  18
ATOM     18  O   UNL     1      15.682  -6.129  22.412  1.00  0.00    -0.508 OA
ATOM     19  H   UNL     1      15.776  -5.132  22.568  1.00  0.00     0.293 HD
ENDBRANCH  15  18
BRANCH  17  20
ATOM     20  O   UNL     1      14.780  -6.915  27.095  1.00  0.00    -0.507 OA
ATOM     21  H   UNL     1      14.545  -5.953  27.314  1.00  0.00     0.293 HD
ENDBRANCH  17  20
ENDBRANCH   1  12
BRANCH   2  22
ATOM     22  O   UNL     1      12.108  -8.099  27.119  1.00  0.00    -0.502 OA
ATOM     23  H   UNL     1      12.551  -7.247  26.796  1.00  0.00     0.293 HD
ENDBRANCH   2  22
BRANCH   6  24
ATOM     24  O   UNL     1      11.955 -12.079  30.657  1.00  0.00    -0.507 OA
ATOM     25  H   UNL     1      11.328 -11.290  30.708  1.00  0.00     0.293 HD
ENDBRANCH   6  24
BRANCH   8  26
ATOM     26  O   UNL     1      15.362 -14.941  28.851  1.00  0.00    -0.508 OA
ATOM     27  H   UNL     1      15.832 -15.321  28.038  1.00  0.00     0.293 HD
ENDBRANCH   8  26
TORSDOF 6
ENDMDL
MODEL 4
REMARK VINA RESULT:     6.899     10.217     12.850
REMARK INTER + INTRA:           7.892
REMARK INTER:                   7.472
REMARK INTRA:                   0.420
REMARK UNBOUND:                -0.419
REMARK SMILES O=c1c(O)c(-c2ccc(O)cc2O)oc2cc(O)cc(O)c12
REMARK SMILES IDX 5 1 3 2 2 3 1 4 22 5 20 6 19 7 17 8 16 9 15 10 14 11 6 12
REMARK SMILES IDX 8 13 7 14 9 15 11 16 12 17 10 18 13 20 4 22 21 24 18 26
REMARK H PARENT 10 19 13 21 4 23 21 25 18 27
REMARK Flexibility Score: inf
ROOT
ATOM      1  C   UNL     1      16.902  -2.375  28.117  1.00  0.00     0.184 A 
ATOM      2  C   UNL     1      18.157  -2.498  27.496  1.00  0.00     0.208 A 
ATOM      3  C   UNL     1      18.385  -1.830  26.282  1.00  0.00     0.238 A 
ATOM      4  O   UNL     1      19.490  -1.990  25.702  1.00  0.00    -0.285 OA
ATOM      5  C   UNL     1      17.362  -1.030  25.715  1.00  0.00     0.111 A 
ATOM      6  C   UNL     1      17.497  -0.276  24.511  1.00  0.00     0.134 A 
ATOM      7  C   UNL     1      16.379   0.376  23.977  1.00  0.00     0.093 A 
ATOM      8  C   UNL     1      15.149   0.356  24.638  1.00  0.00     0.123 A 
ATOM      9  C   UNL     1      15.023  -0.328  25.845  1.00  0.00     0.094 A 
ATOM     10  C   UNL     1      16.111  -1.019  26.384  1.00  0.00     0.146 A 
ATOM     11  O   UNL     1      15.944  -1.667  27.530  1.00  0.00    -0.451 OA
ENDROOT
BRANCH   1  12
ATOM     12  C   UNL     1      16.602  -3.033  29.409  1.00  0.00     0.063 A 
ATOM     13  C   UNL     1      17.135  -4.702  31.100  1.00  0.00     0.047 A 
ATOM     14  C   UNL     1      17.400  -4.098  29.868  1.00  0.00     0.020 A 
ATOM     15  C   UNL     1      16.078  -4.245  31.894  1.00  0.00     0.119 A 
ATOM     16  C   UNL     1      15.289  -3.180  31.454  1.00  0.00     0.093 A 
ATOM     17  C   UNL     1      15.546  -2.568  30.218  1.00  0.00     0.130 A 
BRANCH  15  18
ATOM     18  O   UNL     1      15.806  -4.840  33.125  1.00  0.00    -0.508 OA
ATOM     19  H   UNL     1      14.953  -4.636  33.634  1.00  0.00     0.293 HD
ENDBRANCH  15  18
BRANCH  17  20
ATOM     20  O   UNL     1      14.745  -1.509  29.787  1.00  0.00    -0.507 OA
ATOM     21  H   UNL     1      15.072  -0.841  29.099  1.00  0.00     0.293 HD
ENDBRANCH  17  20
ENDBRANCH   1  12
BRANCH   2  22
ATOM     22  O   UNL     1      19.146  -3.303  28.067  1.00  0.00    -0.502 OA
ATOM     23  H   UNL     1      19.464  -4.163  27.634  1.00  0.00     0.293 HD
ENDBRANCH   2  22
BRANCH   6  24
ATOM     24  O   UNL     1      18.702  -0.116  23.821  1.00  0.00    -0.507 OA
ATOM     25  H   UNL     1      19.562  -0.593  24.046  1.00  0.00     0.293 HD
ENDBRANCH   6  24
BRANCH   8  26
ATOM     26  O   UNL     1      14.046   1.022  24.107  1.00  0.00    -0.508 OA
ATOM     27  H   UNL     1      14.145   1.705  23.366  1.00  0.00     0.293 HD
ENDBRANCH   8  26
TORSDOF 6
ENDMDL
