MODEL 1
REMARK VINA RESULT:    -3.666      0.000      0.000
REMARK INTER + INTRA:          -4.650
REMARK INTER:                  -4.523
REMARK INTRA:                  -0.128
REMARK UNBOUND:                -0.128
REMARK SMILES CCCCCC(=O)[O-]
REMARK SMILES IDX 4 1 5 2 6 3 7 4 8 5 3 6 2 7 1 8
REMARK H PARENT
REMARK Flexibility Score: inf
ROOT
ATOM      1  C   UNL     1       4.464 -12.730 -21.787  1.00  0.00     0.006 C 
ENDROOT
BRANCH   1   2
ATOM      2  C   UNL     1       5.278 -14.035 -21.751  1.00  0.00     0.053 C 
BRANCH   2   3
ATOM      3  C   UNL     1       4.422 -15.252 -21.917  1.00  0.00     0.041 C 
ATOM      4  O   UNL     1       4.917 -16.319 -22.366  1.00  0.00    -0.550 OA
ATOM      5  O   UNL     1       3.067 -15.201 -21.610  1.00  0.00    -0.550 OA
ENDBRANCH   2   3
ENDBRANCH   1   2
BRANCH   1   6
ATOM      6  C   UNL     1       4.448 -12.042 -23.164  1.00  0.00     0.000 C 
BRANCH   6   7
ATOM      7  C   UNL     1       5.609 -11.059 -23.361  1.00  0.00    -0.003 C 
ATOM      8  C   UNL     1       6.671 -11.639 -24.290  1.00  0.00     0.004 C 
ENDBRANCH   6   7
ENDBRANCH   1   6
TORSDOF 4
ENDMDL
MODEL 2
REMARK VINA RESULT:    -3.529      4.585      5.674
REMARK INTER + INTRA:          -4.482
REMARK INTER:                  -4.354
REMARK INTRA:                  -0.127
REMARK UNBOUND:                -0.128
REMARK SMILES CCCCCC(=O)[O-]
REMARK SMILES IDX 4 1 5 2 6 3 7 4 8 5 3 6 2 7 1 8
REMARK H PARENT
REMARK Flexibility Score: inf
ROOT
ATOM      1  C   UNL     1       6.365  -9.235 -22.561  1.00  0.00     0.006 C 
ENDROOT
BRANCH   1   2
ATOM      2  C   UNL     1       5.843  -7.791 -22.462  1.00  0.00     0.053 C 
BRANCH   2   3
ATOM      3  C   UNL     1       4.585  -7.688 -21.656  1.00  0.00     0.041 C 
ATOM      4  O   UNL     1       3.519  -7.289 -22.193  1.00  0.00    -0.550 OA
ATOM      5  O   UNL     1       4.595  -7.998 -20.301  1.00  0.00    -0.550 OA
ENDBRANCH   2   3
ENDBRANCH   1   2
BRANCH   1   6
ATOM      6  C   UNL     1       5.260 -10.285 -22.778  1.00  0.00     0.000 C 
BRANCH   6   7
ATOM      7  C   UNL     1       5.716 -11.471 -23.638  1.00  0.00    -0.003 C 
ATOM      8  C   UNL     1       7.041 -11.170 -24.333  1.00  0.00     0.004 C 
ENDBRANCH   6   7
ENDBRANCH   1   6
TORSDOF 4
ENDMDL
MODEL 3
REMARK VINA RESULT:    -3.521      1.422      2.081
REMARK INTER + INTRA:          -4.472
REMARK INTER:                  -4.367
REMARK INTRA:                  -0.105
REMARK UNBOUND:                -0.128
REMARK SMILES CCCCCC(=O)[O-]
REMARK SMILES IDX 4 1 5 2 6 3 7 4 8 5 3 6 2 7 1 8
REMARK H PARENT
REMARK Flexibility Score: inf
ROOT
ATOM      1  C   UNL     1       4.912 -11.667 -23.542  1.00  0.00     0.006 C 
ENDROOT
BRANCH   1   2
ATOM      2  C   UNL     1       4.556 -11.980 -22.078  1.00  0.00     0.053 C 
BRANCH   2   3
ATOM      3  C   UNL     1       4.545 -13.450 -21.790  1.00  0.00     0.041 C 
ATOM      4  O   UNL     1       5.545 -13.998 -21.256  1.00  0.00    -0.550 OA
ATOM      5  O   UNL     1       3.446 -14.223 -22.142  1.00  0.00    -0.550 OA
ENDBRANCH   2   3
ENDBRANCH   1   2
BRANCH   1   6
ATOM      6  C   UNL     1       6.407 -11.836 -23.871  1.00  0.00     0.000 C 
BRANCH   6   7
ATOM      7  C   UNL     1       7.087 -10.521 -24.273  1.00  0.00    -0.003 C 
ATOM      8  C   UNL     1       6.975  -9.480 -23.162  1.00  0.00     0.004 C 
ENDBRANCH   6   7
ENDBRANCH   1   6
TORSDOF 4
ENDMDL
MODEL 4
REMARK VINA RESULT:    -3.498      3.240      4.518
REMARK INTER + INTRA:          -4.443
REMARK INTER:                  -4.323
REMARK INTRA:                  -0.120
REMARK UNBOUND:                -0.128
REMARK SMILES CCCCCC(=O)[O-]
REMARK SMILES IDX 4 1 5 2 6 3 7 4 8 5 3 6 2 7 1 8
REMARK H PARENT
REMARK Flexibility Score: inf
ROOT
ATOM      1  C   UNL     1       4.530 -12.230 -22.981  1.00  0.00     0.006 C 
ENDROOT
BRANCH   1   2
ATOM      2  C   UNL     1       5.155 -10.826 -22.901  1.00  0.00     0.053 C 
BRANCH   2   3
ATOM      3  C   UNL     1       6.405 -10.705 -23.717  1.00  0.00     0.041 C 
ATOM      4  O   UNL     1       6.796 -11.671 -24.423  1.00  0.00    -0.550 OA
ATOM      5  O   UNL     1       7.159  -9.539 -23.672  1.00  0.00    -0.550 OA
ENDBRANCH   2   3
ENDBRANCH   1   2
BRANCH   1   6
ATOM      6  C   UNL     1       4.644 -13.040 -21.677  1.00  0.00     0.000 C 
BRANCH   6   7
ATOM      7  C   UNL     1       5.551 -14.271 -21.810  1.00  0.00    -0.003 C 
ATOM      8  C   UNL     1       4.734 -15.528 -22.094  1.00  0.00     0.004 C 
ENDBRANCH   6   7
ENDBRANCH   1   6
TORSDOF 4
ENDMDL
MODEL 5
REMARK VINA RESULT:    -3.458     12.590     13.694
REMARK INTER + INTRA:          -4.395
REMARK INTER:                  -4.318
REMARK INTRA:                  -0.076
REMARK UNBOUND:                -0.128
REMARK SMILES CCCCCC(=O)[O-]
REMARK SMILES IDX 4 1 5 2 6 3 7 4 8 5 3 6 2 7 1 8
REMARK H PARENT
REMARK Flexibility Score: inf
ROOT
ATOM      1  C   UNL     1       2.530 -10.070 -34.869  1.00  0.00     0.006 C 
ENDROOT
BRANCH   1   2
ATOM      2  C   UNL     1       3.926 -10.452 -35.391  1.00  0.00     0.053 C 
BRANCH   2   3
ATOM      3  C   UNL     1       4.738  -9.258 -35.789  1.00  0.00     0.041 C 
ATOM      4  O   UNL     1       5.113  -8.429 -34.919  1.00  0.00    -0.550 OA
ATOM      5  O   UNL     1       5.051  -9.040 -37.125  1.00  0.00    -0.550 OA
ENDBRANCH   2   3
ENDBRANCH   1   2
BRANCH   1   6
ATOM      6  C   UNL     1       1.494 -11.205 -34.971  1.00  0.00     0.000 C 
BRANCH   6   7
ATOM      7  C   UNL     1       0.685 -11.400 -33.682  1.00  0.00    -0.003 C 
ATOM      8  C   UNL     1       1.119 -12.665 -32.946  1.00  0.00     0.004 C 
ENDBRANCH   6   7
ENDBRANCH   1   6
TORSDOF 4
ENDMDL
MODEL 6
REMARK VINA RESULT:    -3.410     11.873     12.707
REMARK INTER + INTRA:          -4.334
REMARK INTER:                  -4.265
REMARK INTRA:                  -0.069
REMARK UNBOUND:                -0.128
REMARK SMILES CCCCCC(=O)[O-]
REMARK SMILES IDX 4 1 5 2 6 3 7 4 8 5 3 6 2 7 1 8
REMARK H PARENT
REMARK Flexibility Score: inf
ROOT
ATOM      1  C   UNL     1       2.368 -10.154 -34.680  1.00  0.00     0.006 C 
ENDROOT
BRANCH   1   2
ATOM      2  C   UNL     1       1.335 -11.277 -34.878  1.00  0.00     0.053 C 
BRANCH   2   3
ATOM      3  C   UNL     1       0.777 -11.781 -33.582  1.00  0.00     0.041 C 
ATOM      4  O   UNL     1       1.359 -12.707 -32.959  1.00  0.00    -0.550 OA
ATOM      5  O   UNL     1      -0.405 -11.252 -33.078  1.00  0.00    -0.550 OA
ENDBRANCH   2   3
ENDBRANCH   1   2
BRANCH   1   6
ATOM      6  C   UNL     1       3.766 -10.487 -35.235  1.00  0.00     0.000 C 
BRANCH   6   7
ATOM      7  C   UNL     1       4.694  -9.267 -35.300  1.00  0.00    -0.003 C 
ATOM      8  C   UNL     1       5.021  -8.899 -36.745  1.00  0.00     0.004 C 
ENDBRANCH   6   7
ENDBRANCH   1   6
TORSDOF 4
ENDMDL
MODEL 7
REMARK VINA RESULT:    -3.409      6.779      7.919
REMARK INTER + INTRA:          -4.334
REMARK INTER:                  -4.245
REMARK INTRA:                  -0.089
REMARK UNBOUND:                -0.128
REMARK SMILES CCCCCC(=O)[O-]
REMARK SMILES IDX 4 1 5 2 6 3 7 4 8 5 3 6 2 7 1 8
REMARK H PARENT
REMARK Flexibility Score: inf
ROOT
ATOM      1  C   UNL     1       5.239  -5.880 -21.312  1.00  0.00     0.006 C 
ENDROOT
BRANCH   1   2
ATOM      2  C   UNL     1       4.353  -6.522 -20.231  1.00  0.00     0.053 C 
BRANCH   2   3
ATOM      3  C   UNL     1       4.181  -5.644 -19.031  1.00  0.00     0.041 C 
ATOM      4  O   UNL     1       5.006  -4.722 -18.797  1.00  0.00    -0.550 OA
ATOM      5  O   UNL     1       3.131  -5.864 -18.148  1.00  0.00    -0.550 OA
ENDBRANCH   2   3
ENDBRANCH   1   2
BRANCH   1   6
ATOM      6  C   UNL     1       5.536  -6.804 -22.507  1.00  0.00     0.000 C 
BRANCH   6   7
ATOM      7  C   UNL     1       5.611  -8.286 -22.118  1.00  0.00    -0.003 C 
ATOM      8  C   UNL     1       6.723  -9.001 -22.882  1.00  0.00     0.004 C 
ENDBRANCH   6   7
ENDBRANCH   1   6
TORSDOF 4
ENDMDL
MODEL 8
REMARK VINA RESULT:    -3.407      2.074      3.186
REMARK INTER + INTRA:          -4.332
REMARK INTER:                  -4.197
REMARK INTRA:                  -0.135
REMARK UNBOUND:                -0.128
REMARK SMILES CCCCCC(=O)[O-]
REMARK SMILES IDX 4 1 5 2 6 3 7 4 8 5 3 6 2 7 1 8
REMARK H PARENT
REMARK Flexibility Score: inf
ROOT
ATOM      1  C   UNL     1       5.976 -11.173 -23.725  1.00  0.00     0.006 C 
ENDROOT
BRANCH   1   2
ATOM      2  C   UNL     1       4.644 -11.444 -23.003  1.00  0.00     0.053 C 
BRANCH   2   3
ATOM      3  C   UNL     1       4.614 -12.784 -22.336  1.00  0.00     0.041 C 
ATOM      4  O   UNL     1       3.562 -13.188 -21.774  1.00  0.00    -0.550 OA
ATOM      5  O   UNL     1       5.756 -13.575 -22.303  1.00  0.00    -0.550 OA
ENDBRANCH   2   3
ENDBRANCH   1   2
BRANCH   1   6
ATOM      6  C   UNL     1       6.611  -9.815 -23.375  1.00  0.00     0.000 C 
BRANCH   6   7
ATOM      7  C   UNL     1       5.886  -9.086 -22.236  1.00  0.00    -0.003 C 
ATOM      8  C   UNL     1       5.903  -7.575 -22.449  1.00  0.00     0.004 C 
ENDBRANCH   6   7
ENDBRANCH   1   6
TORSDOF 4
ENDMDL
MODEL 9
REMARK VINA RESULT:    -3.298      2.602      4.358
REMARK INTER + INTRA:          -4.197
REMARK INTER:                  -4.071
REMARK INTRA:                  -0.126
REMARK UNBOUND:                -0.128
REMARK SMILES CCCCCC(=O)[O-]
REMARK SMILES IDX 4 1 5 2 6 3 7 4 8 5 3 6 2 7 1 8
REMARK H PARENT
REMARK Flexibility Score: inf
ROOT
ATOM      1  C   UNL     1       5.513 -13.958 -21.737  1.00  0.00     0.006 C 
ENDROOT
BRANCH   1   2
ATOM      2  C   UNL     1       4.437 -12.859 -21.797  1.00  0.00     0.053 C 
BRANCH   2   3
ATOM      3  C   UNL     1       4.870 -11.673 -22.604  1.00  0.00     0.041 C 
ATOM      4  O   UNL     1       5.573 -11.832 -23.636  1.00  0.00    -0.550 OA
ATOM      5  O   UNL     1       4.528 -10.389 -22.198  1.00  0.00    -0.550 OA
ENDBRANCH   2   3
ENDBRANCH   1   2
BRANCH   1   6
ATOM      6  C   UNL     1       4.980 -15.370 -22.042  1.00  0.00     0.000 C 
BRANCH   6   7
ATOM      7  C   UNL     1       3.447 -15.447 -22.050  1.00  0.00    -0.003 C 
ATOM      8  C   UNL     1       2.964 -16.844 -21.673  1.00  0.00     0.004 C 
ENDBRANCH   6   7
ENDBRANCH   1   6
TORSDOF 4
ENDMDL
