MODEL 1
REMARK VINA RESULT:    -3.554      0.000      0.000
REMARK INTER + INTRA:          -7.708
REMARK INTER:                  -6.255
REMARK INTRA:                  -1.454
REMARK UNBOUND:                -1.454
REMARK SMILES CCCCCCCCCCCCCCC(=O)[O-]
REMARK SMILES IDX 9 1 10 2 11 3 12 4 13 5 14 6 15 7 16 8 17 9 8 10 7 11 6 12
REMARK SMILES IDX 5 13 4 14 3 15 2 16 1 17
REMARK H PARENT
REMARK Flexibility Score: inf
ROOT
ATOM      1  C   UNL     1      59.979  27.751  49.021  1.00  0.00     0.000 C 
ENDROOT
BRANCH   1   2
ATOM      2  C   UNL     1      61.305  27.698  49.797  1.00  0.00     0.000 C 
BRANCH   2   3
ATOM      3  C   UNL     1      61.768  26.260  50.084  1.00  0.00     0.000 C 
BRANCH   3   4
ATOM      4  C   UNL     1      61.224  25.769  51.433  1.00  0.00     0.000 C 
BRANCH   4   5
ATOM      5  C   UNL     1      60.939  24.259  51.443  1.00  0.00     0.006 C 
BRANCH   5   6
ATOM      6  C   UNL     1      60.433  23.744  50.089  1.00  0.00     0.053 C 
BRANCH   6   7
ATOM      7  C   UNL     1      61.052  22.420  49.770  1.00  0.00     0.041 C 
ATOM      8  O   UNL     1      60.879  21.895  48.639  1.00  0.00    -0.550 OA
ATOM      9  O   UNL     1      61.863  21.788  50.705  1.00  0.00    -0.550 OA
ENDBRANCH   6   7
ENDBRANCH   5   6
ENDBRANCH   4   5
ENDBRANCH   3   4
ENDBRANCH   2   3
ENDBRANCH   1   2
BRANCH   1  10
ATOM     10  C   UNL     1      58.958  28.708  49.661  1.00  0.00     0.000 C 
BRANCH  10  11
ATOM     11  C   UNL     1      57.817  27.970  50.385  1.00  0.00    -0.000 C 
BRANCH  11  12
ATOM     12  C   UNL     1      57.753  26.454  50.124  1.00  0.00    -0.000 C 
BRANCH  12  13
ATOM     13  C   UNL     1      56.437  25.819  50.606  1.00  0.00    -0.000 C 
BRANCH  13  14
ATOM     14  C   UNL     1      55.275  26.046  49.625  1.00  0.00    -0.000 C 
BRANCH  14  15
ATOM     15  C   UNL     1      54.021  26.606  50.318  1.00  0.00    -0.000 C 
BRANCH  15  16
ATOM     16  C   UNL     1      53.610  27.981  49.767  1.00  0.00    -0.003 C 
ATOM     17  C   UNL     1      54.330  29.137  50.460  1.00  0.00     0.004 C 
ENDBRANCH  15  16
ENDBRANCH  14  15
ENDBRANCH  13  14
ENDBRANCH  12  13
ENDBRANCH  11  12
ENDBRANCH  10  11
ENDBRANCH   1  10
TORSDOF 13
ENDMDL
MODEL 2
REMARK VINA RESULT:    -3.545      2.623      3.975
REMARK INTER + INTRA:          -7.694
REMARK INTER:                  -5.622
REMARK INTRA:                  -2.071
REMARK UNBOUND:                -1.454
REMARK SMILES CCCCCCCCCCCCCCC(=O)[O-]
REMARK SMILES IDX 9 1 10 2 11 3 12 4 13 5 14 6 15 7 16 8 17 9 8 10 7 11 6 12
REMARK SMILES IDX 5 13 4 14 3 15 2 16 1 17
REMARK H PARENT
REMARK Flexibility Score: inf
ROOT
ATOM      1  C   UNL     1      57.499  27.554  52.710  1.00  0.00     0.000 C 
ENDROOT
BRANCH   1   2
ATOM      2  C   UNL     1      58.751  28.443  52.642  1.00  0.00     0.000 C 
BRANCH   2   3
ATOM      3  C   UNL     1      58.578  29.642  51.695  1.00  0.00     0.000 C 
BRANCH   3   4
ATOM      4  C   UNL     1      58.041  29.187  50.329  1.00  0.00     0.000 C 
BRANCH   4   5
ATOM      5  C   UNL     1      59.152  29.022  49.281  1.00  0.00     0.006 C 
BRANCH   5   6
ATOM      6  C   UNL     1      59.723  27.599  49.243  1.00  0.00     0.053 C 
BRANCH   6   7
ATOM      7  C   UNL     1      61.148  27.596  49.697  1.00  0.00     0.041 C 
ATOM      8  O   UNL     1      61.693  28.662  50.083  1.00  0.00    -0.550 OA
ATOM      9  O   UNL     1      61.861  26.404  49.739  1.00  0.00    -0.550 OA
ENDBRANCH   6   7
ENDBRANCH   5   6
ENDBRANCH   4   5
ENDBRANCH   3   4
ENDBRANCH   2   3
ENDBRANCH   1   2
BRANCH   1  10
ATOM     10  C   UNL     1      57.758  26.129  52.189  1.00  0.00     0.000 C 
BRANCH  10  11
ATOM     11  C   UNL     1      56.567  25.555  51.399  1.00  0.00    -0.000 C 
BRANCH  11  12
ATOM     12  C   UNL     1      56.331  26.195  50.018  1.00  0.00    -0.000 C 
BRANCH  12  13
ATOM     13  C   UNL     1      54.942  25.875  49.441  1.00  0.00    -0.000 C 
BRANCH  13  14
ATOM     14  C   UNL     1      53.883  26.920  49.829  1.00  0.00    -0.000 C 
BRANCH  14  15
ATOM     15  C   UNL     1      54.506  28.270  50.224  1.00  0.00    -0.000 C 
BRANCH  15  16
ATOM     16  C   UNL     1      54.102  28.713  51.639  1.00  0.00    -0.003 C 
ATOM     17  C   UNL     1      54.800  29.999  52.079  1.00  0.00     0.004 C 
ENDBRANCH  15  16
ENDBRANCH  14  15
ENDBRANCH  13  14
ENDBRANCH  12  13
ENDBRANCH  11  12
ENDBRANCH  10  11
ENDBRANCH   1  10
TORSDOF 13
ENDMDL
MODEL 3
REMARK VINA RESULT:    -3.464      3.301      4.353
REMARK INTER + INTRA:          -7.550
REMARK INTER:                  -5.512
REMARK INTRA:                  -2.038
REMARK UNBOUND:                -1.454
REMARK SMILES CCCCCCCCCCCCCCC(=O)[O-]
REMARK SMILES IDX 9 1 10 2 11 3 12 4 13 5 14 6 15 7 16 8 17 9 8 10 7 11 6 12
REMARK SMILES IDX 5 13 4 14 3 15 2 16 1 17
REMARK H PARENT
REMARK Flexibility Score: inf
ROOT
ATOM      1  C   UNL     1      58.245  27.728  51.294  1.00  0.00     0.000 C 
ENDROOT
BRANCH   1   2
ATOM      2  C   UNL     1      57.996  28.756  50.179  1.00  0.00     0.000 C 
BRANCH   2   3
ATOM      3  C   UNL     1      59.133  28.799  49.146  1.00  0.00     0.000 C 
BRANCH   3   4
ATOM      4  C   UNL     1      60.026  27.555  49.262  1.00  0.00     0.000 C 
BRANCH   4   5
ATOM      5  C   UNL     1      61.511  27.906  49.441  1.00  0.00     0.006 C 
BRANCH   5   6
ATOM      6  C   UNL     1      61.720  29.284  50.082  1.00  0.00     0.053 C 
BRANCH   6   7
ATOM      7  C   UNL     1      61.955  29.146  51.552  1.00  0.00     0.041 C 
ATOM      8  O   UNL     1      61.072  29.507  52.373  1.00  0.00    -0.550 OA
ATOM      9  O   UNL     1      63.132  28.572  52.017  1.00  0.00    -0.550 OA
ENDBRANCH   6   7
ENDBRANCH   5   6
ENDBRANCH   4   5
ENDBRANCH   3   4
ENDBRANCH   2   3
ENDBRANCH   1   2
BRANCH   1  10
ATOM     10  C   UNL     1      57.110  26.695  51.408  1.00  0.00     0.000 C 
BRANCH  10  11
ATOM     11  C   UNL     1      56.803  25.993  50.073  1.00  0.00    -0.000 C 
BRANCH  11  12
ATOM     12  C   UNL     1      55.335  26.074  49.616  1.00  0.00    -0.000 C 
BRANCH  12  13
ATOM     13  C   UNL     1      54.457  26.900  50.571  1.00  0.00    -0.000 C 
BRANCH  13  14
ATOM     14  C   UNL     1      53.903  28.176  49.915  1.00  0.00    -0.000 C 
BRANCH  14  15
ATOM     15  C   UNL     1      54.331  29.453  50.658  1.00  0.00    -0.000 C 
BRANCH  15  16
ATOM     16  C   UNL     1      54.479  29.232  52.171  1.00  0.00    -0.003 C 
ATOM     17  C   UNL     1      55.644  30.017  52.773  1.00  0.00     0.004 C 
ENDBRANCH  15  16
ENDBRANCH  14  15
ENDBRANCH  13  14
ENDBRANCH  12  13
ENDBRANCH  11  12
ENDBRANCH  10  11
ENDBRANCH   1  10
TORSDOF 13
ENDMDL
MODEL 4
REMARK VINA RESULT:    -3.444      3.714      6.070
REMARK INTER + INTRA:          -7.516
REMARK INTER:                  -5.252
REMARK INTRA:                  -2.264
REMARK UNBOUND:                -1.454
REMARK SMILES CCCCCCCCCCCCCCC(=O)[O-]
REMARK SMILES IDX 9 1 10 2 11 3 12 4 13 5 14 6 15 7 16 8 17 9 8 10 7 11 6 12
REMARK SMILES IDX 5 13 4 14 3 15 2 16 1 17
REMARK H PARENT
REMARK Flexibility Score: inf
ROOT
ATOM      1  C   UNL     1      59.238  24.637  51.332  1.00  0.00     0.000 C 
ENDROOT
BRANCH   1   2
ATOM      2  C   UNL     1      59.123  25.807  52.323  1.00  0.00     0.000 C 
BRANCH   2   3
ATOM      3  C   UNL     1      57.808  26.588  52.171  1.00  0.00     0.000 C 
BRANCH   3   4
ATOM      4  C   UNL     1      56.797  25.798  51.328  1.00  0.00     0.000 C 
BRANCH   4   5
ATOM      5  C   UNL     1      56.295  26.590  50.110  1.00  0.00     0.006 C 
BRANCH   5   6
ATOM      6  C   UNL     1      55.935  28.041  50.455  1.00  0.00     0.053 C 
BRANCH   6   7
ATOM      7  C   UNL     1      54.499  28.312  50.137  1.00  0.00     0.041 C 
ATOM      8  O   UNL     1      53.767  27.397  49.681  1.00  0.00    -0.550 OA
ATOM      9  O   UNL     1      53.956  29.566  50.391  1.00  0.00    -0.550 OA
ENDBRANCH   6   7
ENDBRANCH   5   6
ENDBRANCH   4   5
ENDBRANCH   3   4
ENDBRANCH   2   3
ENDBRANCH   1   2
BRANCH   1  10
ATOM     10  C   UNL     1      59.992  25.024  50.047  1.00  0.00     0.000 C 
BRANCH  10  11
ATOM     11  C   UNL     1      61.225  25.905  50.319  1.00  0.00    -0.000 C 
BRANCH  11  12
ATOM     12  C   UNL     1      61.213  27.278  49.622  1.00  0.00    -0.000 C 
BRANCH  12  13
ATOM     13  C   UNL     1      59.803  27.714  49.187  1.00  0.00    -0.000 C 
BRANCH  13  14
ATOM     14  C   UNL     1      59.399  29.079  49.768  1.00  0.00    -0.000 C 
BRANCH  14  15
ATOM     15  C   UNL     1      60.415  29.606  50.795  1.00  0.00    -0.000 C 
BRANCH  15  16
ATOM     16  C   UNL     1      59.844  29.642  52.222  1.00  0.00    -0.003 C 
ATOM     17  C   UNL     1      58.430  30.220  52.279  1.00  0.00     0.004 C 
ENDBRANCH  15  16
ENDBRANCH  14  15
ENDBRANCH  13  14
ENDBRANCH  12  13
ENDBRANCH  11  12
ENDBRANCH  10  11
ENDBRANCH   1  10
TORSDOF 13
ENDMDL
MODEL 5
REMARK VINA RESULT:    -3.430      1.518      2.626
REMARK INTER + INTRA:          -7.490
REMARK INTER:                  -6.207
REMARK INTRA:                  -1.283
REMARK UNBOUND:                -1.454
REMARK SMILES CCCCCCCCCCCCCCC(=O)[O-]
REMARK SMILES IDX 9 1 10 2 11 3 12 4 13 5 14 6 15 7 16 8 17 9 8 10 7 11 6 12
REMARK SMILES IDX 5 13 4 14 3 15 2 16 1 17
REMARK H PARENT
REMARK Flexibility Score: inf
ROOT
ATOM      1  C   UNL     1      58.837  25.102  50.469  1.00  0.00     0.000 C 
ENDROOT
BRANCH   1   2
ATOM      2  C   UNL     1      59.848  25.333  51.603  1.00  0.00     0.000 C 
BRANCH   2   3
ATOM      3  C   UNL     1      60.845  24.173  51.755  1.00  0.00     0.000 C 
BRANCH   3   4
ATOM      4  C   UNL     1      61.668  23.987  50.471  1.00  0.00     0.000 C 
BRANCH   4   5
ATOM      5  C   UNL     1      61.915  22.509  50.135  1.00  0.00     0.006 C 
BRANCH   5   6
ATOM      6  C   UNL     1      60.679  21.824  49.536  1.00  0.00     0.053 C 
BRANCH   6   7
ATOM      7  C   UNL     1      60.316  20.612  50.334  1.00  0.00     0.041 C 
ATOM      8  O   UNL     1      60.808  20.436  51.478  1.00  0.00    -0.550 OA
ATOM      9  O   UNL     1      59.394  19.701  49.832  1.00  0.00    -0.550 OA
ENDBRANCH   6   7
ENDBRANCH   5   6
ENDBRANCH   4   5
ENDBRANCH   3   4
ENDBRANCH   2   3
ENDBRANCH   1   2
BRANCH   1  10
ATOM     10  C   UNL     1      58.762  26.291  49.494  1.00  0.00     0.000 C 
BRANCH  10  11
ATOM     11  C   UNL     1      59.074  27.640  50.170  1.00  0.00    -0.000 C 
BRANCH  11  12
ATOM     12  C   UNL     1      57.904  28.639  50.200  1.00  0.00    -0.000 C 
BRANCH  12  13
ATOM     13  C   UNL     1      56.676  28.099  50.953  1.00  0.00    -0.000 C 
BRANCH  13  14
ATOM     14  C   UNL     1      55.362  28.752  50.493  1.00  0.00    -0.000 C 
BRANCH  14  15
ATOM     15  C   UNL     1      54.346  27.725  49.967  1.00  0.00    -0.000 C 
BRANCH  15  16
ATOM     16  C   UNL     1      54.989  26.362  49.666  1.00  0.00    -0.003 C 
ATOM     17  C   UNL     1      53.963  25.292  49.293  1.00  0.00     0.004 C 
ENDBRANCH  15  16
ENDBRANCH  14  15
ENDBRANCH  13  14
ENDBRANCH  12  13
ENDBRANCH  11  12
ENDBRANCH  10  11
ENDBRANCH   1  10
TORSDOF 13
ENDMDL
MODEL 6
REMARK VINA RESULT:    -3.412      3.458      4.773
REMARK INTER + INTRA:          -7.458
REMARK INTER:                  -5.870
REMARK INTRA:                  -1.588
REMARK UNBOUND:                -1.454
REMARK SMILES CCCCCCCCCCCCCCC(=O)[O-]
REMARK SMILES IDX 9 1 10 2 11 3 12 4 13 5 14 6 15 7 16 8 17 9 8 10 7 11 6 12
REMARK SMILES IDX 5 13 4 14 3 15 2 16 1 17
REMARK H PARENT
REMARK Flexibility Score: inf
ROOT
ATOM      1  C   UNL     1      60.321  25.677  50.094  1.00  0.00     0.000 C 
ENDROOT
BRANCH   1   2
ATOM      2  C   UNL     1      61.549  26.514  50.488  1.00  0.00     0.000 C 
BRANCH   2   3
ATOM      3  C   UNL     1      62.876  25.799  50.190  1.00  0.00     0.000 C 
BRANCH   3   4
ATOM      4  C   UNL     1      63.898  26.772  49.584  1.00  0.00     0.000 C 
BRANCH   4   5
ATOM      5  C   UNL     1      63.243  28.041  49.016  1.00  0.00     0.006 C 
BRANCH   5   6
ATOM      6  C   UNL     1      63.805  29.326  49.637  1.00  0.00     0.053 C 
BRANCH   6   7
ATOM      7  C   UNL     1      62.693  30.232  50.059  1.00  0.00     0.041 C 
ATOM      8  O   UNL     1      61.972  29.934  51.046  1.00  0.00    -0.550 OA
ATOM      9  O   UNL     1      62.483  31.432  49.390  1.00  0.00    -0.550 OA
ENDBRANCH   6   7
ENDBRANCH   5   6
ENDBRANCH   4   5
ENDBRANCH   3   4
ENDBRANCH   2   3
ENDBRANCH   1   2
BRANCH   1  10
ATOM     10  C   UNL     1      59.244  26.511  49.377  1.00  0.00     0.000 C 
BRANCH  10  11
ATOM     11  C   UNL     1      59.651  27.985  49.195  1.00  0.00    -0.000 C 
BRANCH  11  12
ATOM     12  C   UNL     1      58.629  29.013  49.715  1.00  0.00    -0.000 C 
BRANCH  12  13
ATOM     13  C   UNL     1      58.202  28.748  51.168  1.00  0.00    -0.000 C 
BRANCH  13  14
ATOM     14  C   UNL     1      56.706  29.013  51.405  1.00  0.00    -0.000 C 
BRANCH  14  15
ATOM     15  C   UNL     1      55.810  28.261  50.407  1.00  0.00    -0.000 C 
BRANCH  15  16
ATOM     16  C   UNL     1      55.741  26.753  50.698  1.00  0.00    -0.003 C 
ATOM     17  C   UNL     1      55.189  25.948  49.522  1.00  0.00     0.004 C 
ENDBRANCH  15  16
ENDBRANCH  14  15
ENDBRANCH  13  14
ENDBRANCH  12  13
ENDBRANCH  11  12
ENDBRANCH  10  11
ENDBRANCH   1  10
TORSDOF 13
ENDMDL
MODEL 7
REMARK VINA RESULT:    -3.397     12.150     13.718
REMARK INTER + INTRA:          -7.433
REMARK INTER:                  -6.052
REMARK INTRA:                  -1.381
REMARK UNBOUND:                -1.454
REMARK SMILES CCCCCCCCCCCCCCC(=O)[O-]
REMARK SMILES IDX 9 1 10 2 11 3 12 4 13 5 14 6 15 7 16 8 17 9 8 10 7 11 6 12
REMARK SMILES IDX 5 13 4 14 3 15 2 16 1 17
REMARK H PARENT
REMARK Flexibility Score: inf
ROOT
ATOM      1  C   UNL     1      61.352  33.126  58.376  1.00  0.00     0.000 C 
ENDROOT
BRANCH   1   2
ATOM      2  C   UNL     1      60.868  32.047  59.358  1.00  0.00     0.000 C 
BRANCH   2   3
ATOM      3  C   UNL     1      61.423  32.244  60.778  1.00  0.00     0.000 C 
BRANCH   3   4
ATOM      4  C   UNL     1      61.031  31.068  61.686  1.00  0.00     0.000 C 
BRANCH   4   5
ATOM      5  C   UNL     1      62.147  30.019  61.810  1.00  0.00     0.006 C 
BRANCH   5   6
ATOM      6  C   UNL     1      63.536  30.593  61.501  1.00  0.00     0.053 C 
BRANCH   6   7
ATOM      7  C   UNL     1      64.464  29.506  61.063  1.00  0.00     0.041 C 
ATOM      8  O   UNL     1      64.053  28.320  60.970  1.00  0.00    -0.550 OA
ATOM      9  O   UNL     1      65.773  29.810  60.708  1.00  0.00    -0.550 OA
ENDBRANCH   6   7
ENDBRANCH   5   6
ENDBRANCH   4   5
ENDBRANCH   3   4
ENDBRANCH   2   3
ENDBRANCH   1   2
BRANCH   1  10
ATOM     10  C   UNL     1      60.194  33.957  57.795  1.00  0.00     0.000 C 
BRANCH  10  11
ATOM     11  C   UNL     1      60.119  35.377  58.386  1.00  0.00    -0.000 C 
BRANCH  11  12
ATOM     12  C   UNL     1      61.386  35.841  59.128  1.00  0.00    -0.000 C 
BRANCH  12  13
ATOM     13  C   UNL     1      61.096  36.326  60.559  1.00  0.00    -0.000 C 
BRANCH  13  14
ATOM     14  C   UNL     1      62.370  36.734  61.317  1.00  0.00    -0.000 C 
BRANCH  14  15
ATOM     15  C   UNL     1      63.646  36.503  60.490  1.00  0.00    -0.000 C 
BRANCH  15  16
ATOM     16  C   UNL     1      64.699  35.682  61.251  1.00  0.00    -0.003 C 
ATOM     17  C   UNL     1      64.425  34.179  61.204  1.00  0.00     0.004 C 
ENDBRANCH  15  16
ENDBRANCH  14  15
ENDBRANCH  13  14
ENDBRANCH  12  13
ENDBRANCH  11  12
ENDBRANCH  10  11
ENDBRANCH   1  10
TORSDOF 13
ENDMDL
MODEL 8
REMARK VINA RESULT:    -3.383      2.249      3.968
REMARK INTER + INTRA:          -7.409
REMARK INTER:                  -5.162
REMARK INTRA:                  -2.247
REMARK UNBOUND:                -1.454
REMARK SMILES CCCCCCCCCCCCCCC(=O)[O-]
REMARK SMILES IDX 9 1 10 2 11 3 12 4 13 5 14 6 15 7 16 8 17 9 8 10 7 11 6 12
REMARK SMILES IDX 5 13 4 14 3 15 2 16 1 17
REMARK H PARENT
REMARK Flexibility Score: inf
ROOT
ATOM      1  C   UNL     1      54.825  28.582  50.514  1.00  0.00     0.000 C 
ENDROOT
BRANCH   1   2
ATOM      2  C   UNL     1      56.300  28.173  50.371  1.00  0.00     0.000 C 
BRANCH   2   3
ATOM      3  C   UNL     1      57.000  27.991  51.727  1.00  0.00     0.000 C 
BRANCH   3   4
ATOM      4  C   UNL     1      58.016  26.840  51.669  1.00  0.00     0.000 C 
BRANCH   4   5
ATOM      5  C   UNL     1      58.084  26.181  50.283  1.00  0.00     0.006 C 
BRANCH   5   6
ATOM      6  C   UNL     1      59.445  26.373  49.602  1.00  0.00     0.053 C 
BRANCH   6   7
ATOM      7  C   UNL     1      60.375  25.262  49.972  1.00  0.00     0.041 C 
ATOM      8  O   UNL     1      59.928  24.105  50.187  1.00  0.00    -0.550 OA
ATOM      9  O   UNL     1      61.744  25.493  50.033  1.00  0.00    -0.550 OA
ENDBRANCH   6   7
ENDBRANCH   5   6
ENDBRANCH   4   5
ENDBRANCH   3   4
ENDBRANCH   2   3
ENDBRANCH   1   2
BRANCH   1  10
ATOM     10  C   UNL     1      53.871  27.616  49.788  1.00  0.00     0.000 C 
BRANCH  10  11
ATOM     11  C   UNL     1      54.509  26.243  49.508  1.00  0.00    -0.000 C 
BRANCH  11  12
ATOM     12  C   UNL     1      53.626  25.030  49.856  1.00  0.00    -0.000 C 
BRANCH  12  13
ATOM     13  C   UNL     1      53.445  24.839  51.372  1.00  0.00    -0.000 C 
BRANCH  13  14
ATOM     14  C   UNL     1      54.751  25.047  52.157  1.00  0.00    -0.000 C 
BRANCH  14  15
ATOM     15  C   UNL     1      54.510  25.663  53.546  1.00  0.00    -0.000 C 
BRANCH  15  16
ATOM     16  C   UNL     1      53.502  26.822  53.509  1.00  0.00    -0.003 C 
ATOM     17  C   UNL     1      54.062  28.113  54.107  1.00  0.00     0.004 C 
ENDBRANCH  15  16
ENDBRANCH  14  15
ENDBRANCH  13  14
ENDBRANCH  12  13
ENDBRANCH  11  12
ENDBRANCH  10  11
ENDBRANCH   1  10
TORSDOF 13
ENDMDL
MODEL 9
REMARK VINA RESULT:    -3.354     11.711     13.000
REMARK INTER + INTRA:          -7.358
REMARK INTER:                  -5.286
REMARK INTRA:                  -2.071
REMARK UNBOUND:                -1.454
REMARK SMILES CCCCCCCCCCCCCCC(=O)[O-]
REMARK SMILES IDX 9 1 10 2 11 3 12 4 13 5 14 6 15 7 16 8 17 9 8 10 7 11 6 12
REMARK SMILES IDX 5 13 4 14 3 15 2 16 1 17
REMARK H PARENT
REMARK Flexibility Score: inf
ROOT
ATOM      1  C   UNL     1      63.409  35.795  61.335  1.00  0.00     0.000 C 
ENDROOT
BRANCH   1   2
ATOM      2  C   UNL     1      64.532  34.890  60.804  1.00  0.00     0.000 C 
BRANCH   2   3
ATOM      3  C   UNL     1      64.192  33.395  60.916  1.00  0.00     0.000 C 
BRANCH   3   4
ATOM      4  C   UNL     1      64.550  32.654  59.619  1.00  0.00     0.000 C 
BRANCH   4   5
ATOM      5  C   UNL     1      64.364  31.133  59.735  1.00  0.00     0.006 C 
BRANCH   5   6
ATOM      6  C   UNL     1      65.664  30.403  60.095  1.00  0.00     0.053 C 
BRANCH   6   7
ATOM      7  C   UNL     1      65.364  29.083  60.729  1.00  0.00     0.041 C 
ATOM      8  O   UNL     1      66.301  28.331  61.103  1.00  0.00    -0.550 OA
ATOM      9  O   UNL     1      64.046  28.704  60.953  1.00  0.00    -0.550 OA
ENDBRANCH   6   7
ENDBRANCH   5   6
ENDBRANCH   4   5
ENDBRANCH   3   4
ENDBRANCH   2   3
ENDBRANCH   1   2
BRANCH   1  10
ATOM     10  C   UNL     1      62.066  35.546  60.626  1.00  0.00     0.000 C 
BRANCH  10  11
ATOM     11  C   UNL     1      62.102  35.907  59.130  1.00  0.00    -0.000 C 
BRANCH  11  12
ATOM     12  C   UNL     1      61.803  34.740  58.170  1.00  0.00    -0.000 C 
BRANCH  12  13
ATOM     13  C   UNL     1      60.722  33.787  58.707  1.00  0.00    -0.000 C 
BRANCH  13  14
ATOM     14  C   UNL     1      60.917  32.339  58.228  1.00  0.00    -0.000 C 
BRANCH  14  15
ATOM     15  C   UNL     1      60.716  31.314  59.357  1.00  0.00    -0.000 C 
BRANCH  15  16
ATOM     16  C   UNL     1      60.917  31.927  60.752  1.00  0.00    -0.003 C 
ATOM     17  C   UNL     1      61.268  30.884  61.813  1.00  0.00     0.004 C 
ENDBRANCH  15  16
ENDBRANCH  14  15
ENDBRANCH  13  14
ENDBRANCH  12  13
ENDBRANCH  11  12
ENDBRANCH  10  11
ENDBRANCH   1  10
TORSDOF 13
ENDMDL
