MODEL 1
REMARK VINA RESULT:    -3.174      0.000      0.000
REMARK INTER + INTRA:          -4.886
REMARK INTER:                  -4.288
REMARK INTRA:                  -0.598
REMARK UNBOUND:                -0.598
REMARK SMILES O=C[C@@H](O)[C@@H](O)[C@H](O)CO
REMARK SMILES IDX 7 1 9 2 10 3 5 5 3 6 2 7 1 8 4 9 6 11 8 13
REMARK H PARENT 10 4 4 10 6 12 8 14
REMARK Flexibility Score: inf
ROOT
ATOM      1  C   UNL     1      -0.724  -2.279  -0.330  1.00  0.00     0.171 C 
ENDROOT
BRANCH   1   2
ATOM      2  C   UNL     1      -0.625  -3.121  -1.615  1.00  0.00     0.190 C 
BRANCH   2   3
ATOM      3  O   UNL     1      -0.557  -2.276  -2.731  1.00  0.00    -0.394 OA
ATOM      4  H   UNL     1      -1.495  -2.126  -3.019  1.00  0.00     0.210 HD
ENDBRANCH   2   3
ENDBRANCH   1   2
BRANCH   1   5
ATOM      5  C   UNL     1       0.495  -1.336  -0.111  1.00  0.00     0.181 C 
BRANCH   5   6
ATOM      6  C   UNL     1       1.099  -1.431   1.315  1.00  0.00     0.209 C 
BRANCH   6   7
ATOM      7  C   UNL     1       2.264  -0.490   1.475  1.00  0.00     0.258 C 
ATOM      8  O   UNL     1       3.239  -0.579   0.745  1.00  0.00    -0.300 OA
ENDBRANCH   6   7
BRANCH   6   9
ATOM      9  O   UNL     1       0.126  -1.110   2.274  1.00  0.00    -0.383 OA
ATOM     10  H   UNL     1       0.428  -0.279   2.724  1.00  0.00     0.211 HD
ENDBRANCH   6   9
ENDBRANCH   5   6
BRANCH   5  11
ATOM     11  O   UNL     1       1.479  -1.617  -1.079  1.00  0.00    -0.387 OA
ATOM     12  H   UNL     1       1.344  -0.985  -1.833  1.00  0.00     0.211 HD
ENDBRANCH   5  11
ENDBRANCH   1   5
BRANCH   1  13
ATOM     13  O   UNL     1      -0.883  -3.125   0.783  1.00  0.00    -0.388 OA
ATOM     14  H   UNL     1      -0.487  -2.661   1.569  1.00  0.00     0.211 HD
ENDBRANCH   1  13
TORSDOF 8
ENDMDL
MODEL 2
REMARK VINA RESULT:    -2.949      0.613      3.699
REMARK INTER + INTRA:          -4.582
REMARK INTER:                  -4.022
REMARK INTRA:                  -0.560
REMARK UNBOUND:                -0.598
REMARK SMILES O=C[C@@H](O)[C@@H](O)[C@H](O)CO
REMARK SMILES IDX 7 1 9 2 10 3 5 5 3 6 2 7 1 8 4 9 6 11 8 13
REMARK H PARENT 10 4 4 10 6 12 8 14
REMARK Flexibility Score: inf
ROOT
ATOM      1  C   UNL     1       1.216  -1.471   1.429  1.00  0.00     0.171 C 
ENDROOT
BRANCH   1   2
ATOM      2  C   UNL     1       2.376  -0.502   1.721  1.00  0.00     0.190 C 
BRANCH   2   3
ATOM      3  O   UNL     1       3.270  -0.494   0.642  1.00  0.00    -0.394 OA
ATOM      4  H   UNL     1       3.412   0.461   0.409  1.00  0.00     0.210 HD
ENDBRANCH   2   3
ENDBRANCH   1   2
BRANCH   1   5
ATOM      5  C   UNL     1       0.749  -1.450  -0.056  1.00  0.00     0.181 C 
BRANCH   5   6
ATOM      6  C   UNL     1      -0.599  -2.180  -0.289  1.00  0.00     0.209 C 
BRANCH   6   7
ATOM      7  C   UNL     1      -0.610  -2.889  -1.619  1.00  0.00     0.258 C 
ATOM      8  O   UNL     1      -0.137  -2.356  -2.611  1.00  0.00    -0.300 OA
ENDBRANCH   6   7
BRANCH   6   9
ATOM      9  O   UNL     1      -0.818  -3.125   0.726  1.00  0.00    -0.383 OA
ATOM     10  H   UNL     1      -1.187  -3.937   0.290  1.00  0.00     0.211 HD
ENDBRANCH   6   9
ENDBRANCH   5   6
BRANCH   5  11
ATOM     11  O   UNL     1       0.664  -0.114  -0.497  1.00  0.00    -0.387 OA
ATOM     12  H   UNL     1       1.173  -0.048  -1.347  1.00  0.00     0.211 HD
ENDBRANCH   5  11
ENDBRANCH   1   5
BRANCH   1  13
ATOM     13  O   UNL     1       0.130  -1.187   2.277  1.00  0.00    -0.388 OA
ATOM     14  H   UNL     1      -0.691  -1.179   1.717  1.00  0.00     0.211 HD
ENDBRANCH   1  13
TORSDOF 8
ENDMDL
MODEL 3
REMARK VINA RESULT:    -2.896      1.062      3.998
REMARK INTER + INTRA:          -4.510
REMARK INTER:                  -4.663
REMARK INTRA:                   0.153
REMARK UNBOUND:                -0.598
REMARK SMILES O=C[C@@H](O)[C@@H](O)[C@H](O)CO
REMARK SMILES IDX 7 1 9 2 10 3 5 5 3 6 2 7 1 8 4 9 6 11 8 13
REMARK H PARENT 10 4 4 10 6 12 8 14
REMARK Flexibility Score: inf
ROOT
ATOM      1  C   UNL     1       0.525  -0.783   1.170  1.00  0.00     0.171 C 
ENDROOT
BRANCH   1   2
ATOM      2  C   UNL     1       1.948  -1.099   1.665  1.00  0.00     0.190 C 
BRANCH   2   3
ATOM      3  O   UNL     1       2.885  -0.398   0.893  1.00  0.00    -0.394 OA
ATOM      4  H   UNL     1       3.777  -0.732   1.173  1.00  0.00     0.210 HD
ENDBRANCH   2   3
ENDBRANCH   1   2
BRANCH   1   5
ATOM      5  C   UNL     1      -0.279  -2.046   0.746  1.00  0.00     0.181 C 
BRANCH   5   6
ATOM      6  C   UNL     1       0.187  -2.648  -0.607  1.00  0.00     0.209 C 
BRANCH   6   7
ATOM      7  C   UNL     1      -0.966  -2.779  -1.568  1.00  0.00     0.258 C 
ATOM      8  O   UNL     1      -1.018  -2.088  -2.573  1.00  0.00    -0.300 OA
ENDBRANCH   6   7
BRANCH   6   9
ATOM      9  O   UNL     1       1.166  -1.827  -1.188  1.00  0.00    -0.383 OA
ATOM     10  H   UNL     1       2.014  -2.003  -0.703  1.00  0.00     0.211 HD
ENDBRANCH   6   9
ENDBRANCH   5   6
BRANCH   5  11
ATOM     11  O   UNL     1      -0.195  -3.015   1.766  1.00  0.00    -0.387 OA
ATOM     12  H   UNL     1      -0.081  -2.532   2.626  1.00  0.00     0.211 HD
ENDBRANCH   5  11
ENDBRANCH   1   5
BRANCH   1  13
ATOM     13  O   UNL     1       0.583   0.130   0.101  1.00  0.00    -0.388 OA
ATOM     14  H   UNL     1       0.863   1.008   0.474  1.00  0.00     0.211 HD
ENDBRANCH   1  13
TORSDOF 8
ENDMDL
MODEL 4
REMARK VINA RESULT:    -2.877      1.234      4.334
REMARK INTER + INTRA:          -4.483
REMARK INTER:                  -4.381
REMARK INTRA:                  -0.102
REMARK UNBOUND:                -0.598
REMARK SMILES O=C[C@@H](O)[C@@H](O)[C@H](O)CO
REMARK SMILES IDX 7 1 9 2 10 3 5 5 3 6 2 7 1 8 4 9 6 11 8 13
REMARK H PARENT 10 4 4 10 6 12 8 14
REMARK Flexibility Score: inf
ROOT
ATOM      1  C   UNL     1       2.199  -0.935   1.727  1.00  0.00     0.171 C 
ENDROOT
BRANCH   1   2
ATOM      2  C   UNL     1       3.400  -0.451   0.894  1.00  0.00     0.190 C 
BRANCH   2   3
ATOM      3  O   UNL     1       4.595  -0.791   1.542  1.00  0.00    -0.394 OA
ATOM      4  H   UNL     1       4.893   0.028   2.017  1.00  0.00     0.210 HD
ENDBRANCH   2   3
ENDBRANCH   1   2
BRANCH   1   5
ATOM      5  C   UNL     1       0.858  -0.938   0.938  1.00  0.00     0.181 C 
BRANCH   5   6
ATOM      6  C   UNL     1       0.754  -2.090  -0.096  1.00  0.00     0.209 C 
BRANCH   6   7
ATOM      7  C   UNL     1      -0.567  -2.806   0.019  1.00  0.00     0.258 C 
ATOM      8  O   UNL     1      -1.190  -3.125  -0.981  1.00  0.00    -0.300 OA
ENDBRANCH   6   7
BRANCH   6   9
ATOM      9  O   UNL     1       0.879  -1.583  -1.399  1.00  0.00    -0.383 OA
ATOM     10  H   UNL     1       1.846  -1.589  -1.619  1.00  0.00     0.211 HD
ENDBRANCH   6   9
ENDBRANCH   5   6
BRANCH   5  11
ATOM     11  O   UNL     1      -0.216  -0.999   1.847  1.00  0.00    -0.387 OA
ATOM     12  H   UNL     1      -1.056  -0.915   1.323  1.00  0.00     0.211 HD
ENDBRANCH   5  11
ENDBRANCH   1   5
BRANCH   1  13
ATOM     13  O   UNL     1       2.073  -0.145   2.885  1.00  0.00    -0.388 OA
ATOM     14  H   UNL     1       2.861  -0.332   3.461  1.00  0.00     0.211 HD
ENDBRANCH   1  13
TORSDOF 8
ENDMDL
MODEL 5
REMARK VINA RESULT:    -2.678      0.991      1.861
REMARK INTER + INTRA:          -4.215
REMARK INTER:                  -4.668
REMARK INTRA:                   0.452
REMARK UNBOUND:                -0.598
REMARK SMILES O=C[C@@H](O)[C@@H](O)[C@H](O)CO
REMARK SMILES IDX 7 1 9 2 10 3 5 5 3 6 2 7 1 8 4 9 6 11 8 13
REMARK H PARENT 10 4 4 10 6 12 8 14
REMARK Flexibility Score: inf
ROOT
ATOM      1  C   UNL     1       0.369  -2.661  -0.661  1.00  0.00     0.171 C 
ENDROOT
BRANCH   1   2
ATOM      2  C   UNL     1      -1.060  -2.797  -1.218  1.00  0.00     0.190 C 
BRANCH   2   3
ATOM      3  O   UNL     1      -1.192  -2.021  -2.378  1.00  0.00    -0.394 OA
ATOM      4  H   UNL     1      -0.520  -2.369  -3.020  1.00  0.00     0.210 HD
ENDBRANCH   2   3
ENDBRANCH   1   2
BRANCH   1   5
ATOM      5  C   UNL     1       0.411  -2.334   0.861  1.00  0.00     0.181 C 
BRANCH   5   6
ATOM      6  C   UNL     1       0.854  -0.879   1.166  1.00  0.00     0.209 C 
BRANCH   6   7
ATOM      7  C   UNL     1       2.308  -0.824   1.555  1.00  0.00     0.258 C 
ATOM      8  O   UNL     1       3.145  -0.398   0.774  1.00  0.00    -0.300 OA
ENDBRANCH   6   7
BRANCH   6   9
ATOM      9  O   UNL     1       0.660  -0.068   0.037  1.00  0.00    -0.383 OA
ATOM     10  H   UNL     1       0.096   0.697   0.324  1.00  0.00     0.211 HD
ENDBRANCH   6   9
ENDBRANCH   5   6
BRANCH   5  11
ATOM     11  O   UNL     1      -0.854  -2.589   1.426  1.00  0.00    -0.387 OA
ATOM     12  H   UNL     1      -1.531  -2.467   0.710  1.00  0.00     0.211 HD
ENDBRANCH   5  11
ENDBRANCH   1   5
BRANCH   1  13
ATOM     13  O   UNL     1       1.072  -1.679  -1.382  1.00  0.00    -0.388 OA
ATOM     14  H   UNL     1       0.486  -0.878  -1.443  1.00  0.00     0.211 HD
ENDBRANCH   1  13
TORSDOF 8
ENDMDL
MODEL 6
REMARK VINA RESULT:    -0.922      1.313      3.748
REMARK INTER + INTRA:          -1.843
REMARK INTER:                  -2.326
REMARK INTRA:                   0.483
REMARK UNBOUND:                -0.598
REMARK SMILES O=C[C@@H](O)[C@@H](O)[C@H](O)CO
REMARK SMILES IDX 7 1 9 2 10 3 5 5 3 6 2 7 1 8 4 9 6 11 8 13
REMARK H PARENT 10 4 4 10 6 12 8 14
REMARK Flexibility Score: inf
ROOT
ATOM      1  C   UNL     1       1.036  -1.154   0.445  1.00  0.00     0.171 C 
ENDROOT
BRANCH   1   2
ATOM      2  C   UNL     1       2.484  -0.741   0.765  1.00  0.00     0.190 C 
BRANCH   2   3
ATOM      3  O   UNL     1       2.608  -0.469   2.134  1.00  0.00    -0.394 OA
ATOM      4  H   UNL     1       3.205   0.322   2.204  1.00  0.00     0.210 HD
ENDBRANCH   2   3
ENDBRANCH   1   2
BRANCH   1   5
ATOM      5  C   UNL     1       0.934  -2.255  -0.651  1.00  0.00     0.181 C 
BRANCH   5   6
ATOM      6  C   UNL     1      -0.400  -3.047  -0.607  1.00  0.00     0.209 C 
BRANCH   6   7
ATOM      7  C   UNL     1      -0.980  -3.056   0.784  1.00  0.00     0.258 C 
ATOM      8  O   UNL     1      -0.250  -3.124   1.761  1.00  0.00    -0.300 OA
ENDBRANCH   6   7
BRANCH   6   9
ATOM      9  O   UNL     1      -1.334  -2.469  -1.480  1.00  0.00    -0.383 OA
ATOM     10  H   UNL     1      -1.517  -1.554  -1.142  1.00  0.00     0.211 HD
ENDBRANCH   6   9
ENDBRANCH   5   6
BRANCH   5  11
ATOM     11  O   UNL     1       1.111  -1.667  -1.919  1.00  0.00    -0.387 OA
ATOM     12  H   UNL     1       0.701  -0.763  -1.888  1.00  0.00     0.211 HD
ENDBRANCH   5  11
ENDBRANCH   1   5
BRANCH   1  13
ATOM     13  O   UNL     1       0.291  -0.024   0.060  1.00  0.00    -0.388 OA
ATOM     14  H   UNL     1      -0.670  -0.244   0.187  1.00  0.00     0.211 HD
ENDBRANCH   1  13
TORSDOF 8
ENDMDL
MODEL 7
REMARK VINA RESULT:    -0.760      1.323      1.911
REMARK INTER + INTRA:          -1.624
REMARK INTER:                  -1.737
REMARK INTRA:                   0.113
REMARK UNBOUND:                -0.598
REMARK SMILES O=C[C@@H](O)[C@@H](O)[C@H](O)CO
REMARK SMILES IDX 7 1 9 2 10 3 5 5 3 6 2 7 1 8 4 9 6 11 8 13
REMARK H PARENT 10 4 4 10 6 12 8 14
REMARK Flexibility Score: inf
ROOT
ATOM      1  C   UNL     1      -0.224  -1.620   0.923  1.00  0.00     0.171 C 
ENDROOT
BRANCH   1   2
ATOM      2  C   UNL     1      -0.569  -3.037   0.432  1.00  0.00     0.190 C 
BRANCH   2   3
ATOM      3  O   UNL     1      -1.268  -2.961  -0.781  1.00  0.00    -0.394 OA
ATOM      4  H   UNL     1      -0.854  -2.216  -1.291  1.00  0.00     0.210 HD
ENDBRANCH   2   3
ENDBRANCH   1   2
BRANCH   1   5
ATOM      5  C   UNL     1       0.859  -0.911   0.058  1.00  0.00     0.181 C 
BRANCH   5   6
ATOM      6  C   UNL     1       1.951  -0.198   0.899  1.00  0.00     0.209 C 
BRANCH   6   7
ATOM      7  C   UNL     1       2.924  -1.191   1.479  1.00  0.00     0.258 C 
ATOM      8  O   UNL     1       4.118  -0.937   1.526  1.00  0.00    -0.300 OA
ENDBRANCH   6   7
BRANCH   6   9
ATOM      9  O   UNL     1       2.659   0.712   0.099  1.00  0.00    -0.383 OA
ATOM     10  H   UNL     1       2.652   1.582   0.576  1.00  0.00     0.211 HD
ENDBRANCH   6   9
ENDBRANCH   5   6
BRANCH   5  11
ATOM     11  O   UNL     1       1.448  -1.851  -0.811  1.00  0.00    -0.387 OA
ATOM     12  H   UNL     1       2.365  -2.032  -0.477  1.00  0.00     0.211 HD
ENDBRANCH   5  11
ENDBRANCH   1   5
BRANCH   1  13
ATOM     13  O   UNL     1       0.192  -1.668   2.267  1.00  0.00    -0.388 OA
ATOM     14  H   UNL     1       1.171  -1.492   2.282  1.00  0.00     0.211 HD
ENDBRANCH   1  13
TORSDOF 8
ENDMDL
