MODEL 1
REMARK VINA RESULT:    -3.974      0.000      0.000
REMARK INTER + INTRA:          -6.031
REMARK INTER:                  -5.368
REMARK INTRA:                  -0.663
REMARK UNBOUND:                -0.663
REMARK SMILES O=C[C@H](O)[C@@H](O)[C@H](O)CO
REMARK SMILES IDX 7 1 9 2 10 3 5 5 3 6 2 7 1 8 4 9 6 11 8 13
REMARK H PARENT 10 4 4 10 6 12 8 14
REMARK Flexibility Score: inf
ROOT
ATOM      1  C   UNL     1       7.426  -2.045  -6.800  1.00  0.00     0.171 C 
ENDROOT
BRANCH   1   2
ATOM      2  C   UNL     1       7.427  -1.130  -8.039  1.00  0.00     0.190 C 
BRANCH   2   3
ATOM      3  O   UNL     1       6.506  -0.083  -7.879  1.00  0.00    -0.394 OA
ATOM      4  H   UNL     1       5.826  -0.394  -7.227  1.00  0.00     0.210 HD
ENDBRANCH   2   3
ENDBRANCH   1   2
BRANCH   1   5
ATOM      5  C   UNL     1       6.044  -2.111  -6.098  1.00  0.00     0.181 C 
BRANCH   5   6
ATOM      6  C   UNL     1       5.756  -3.399  -5.282  1.00  0.00     0.209 C 
BRANCH   6   7
ATOM      7  C   UNL     1       4.349  -3.452  -4.742  1.00  0.00     0.258 C 
ATOM      8  O   UNL     1       4.063  -2.917  -3.682  1.00  0.00    -0.300 OA
ENDBRANCH   6   7
BRANCH   6   9
ATOM      9  O   UNL     1       6.692  -3.551  -4.247  1.00  0.00    -0.383 OA
ATOM     10  H   UNL     1       6.337  -3.060  -3.460  1.00  0.00     0.211 HD
ENDBRANCH   6   9
ENDBRANCH   5   6
BRANCH   5  11
ATOM     11  O   UNL     1       5.932  -0.996  -5.246  1.00  0.00    -0.387 OA
ATOM     12  H   UNL     1       5.178  -0.445  -5.584  1.00  0.00     0.211 HD
ENDBRANCH   5  11
ENDBRANCH   1   5
BRANCH   1  13
ATOM     13  O   UNL     1       8.364  -1.561  -5.871  1.00  0.00    -0.388 OA
ATOM     14  H   UNL     1       8.185  -0.592  -5.747  1.00  0.00     0.211 HD
ENDBRANCH   1  13
TORSDOF 8
ENDMDL
MODEL 2
REMARK VINA RESULT:    -3.869     15.282     16.165
REMARK INTER + INTRA:          -5.890
REMARK INTER:                  -5.416
REMARK INTRA:                  -0.474
REMARK UNBOUND:                -0.663
REMARK SMILES O=C[C@H](O)[C@@H](O)[C@H](O)CO
REMARK SMILES IDX 7 1 9 2 10 3 5 5 3 6 2 7 1 8 4 9 6 11 8 13
REMARK H PARENT 10 4 4 10 6 12 8 14
REMARK Flexibility Score: inf
ROOT
ATOM      1  C   UNL     1      -6.393   0.214   4.646  1.00  0.00     0.171 C 
ENDROOT
BRANCH   1   2
ATOM      2  C   UNL     1      -6.424  -0.789   3.477  1.00  0.00     0.190 C 
BRANCH   2   3
ATOM      3  O   UNL     1      -6.924  -0.179   2.317  1.00  0.00    -0.394 OA
ATOM      4  H   UNL     1      -7.567  -0.816   1.910  1.00  0.00     0.210 HD
ENDBRANCH   2   3
ENDBRANCH   1   2
BRANCH   1   5
ATOM      5  C   UNL     1      -5.334   1.332   4.455  1.00  0.00     0.181 C 
BRANCH   5   6
ATOM      6  C   UNL     1      -4.355   1.552   5.639  1.00  0.00     0.209 C 
BRANCH   6   7
ATOM      7  C   UNL     1      -4.036   3.006   5.877  1.00  0.00     0.258 C 
ATOM      8  O   UNL     1      -4.773   3.887   5.461  1.00  0.00    -0.300 OA
ENDBRANCH   6   7
BRANCH   6   9
ATOM      9  O   UNL     1      -3.179   0.808   5.456  1.00  0.00    -0.383 OA
ATOM     10  H   UNL     1      -3.025   0.298   6.295  1.00  0.00     0.211 HD
ENDBRANCH   6   9
ENDBRANCH   5   6
BRANCH   5  11
ATOM     11  O   UNL     1      -4.591   1.038   3.296  1.00  0.00    -0.387 OA
ATOM     12  H   UNL     1      -3.905   0.368   3.552  1.00  0.00     0.211 HD
ENDBRANCH   5  11
ENDBRANCH   1   5
BRANCH   1  13
ATOM     13  O   UNL     1      -6.090  -0.474   5.834  1.00  0.00    -0.388 OA
ATOM     14  H   UNL     1      -5.118  -0.675   5.821  1.00  0.00     0.211 HD
ENDBRANCH   1  13
TORSDOF 8
ENDMDL
MODEL 3
REMARK VINA RESULT:    -3.842      1.362      1.628
REMARK INTER + INTRA:          -5.853
REMARK INTER:                  -4.909
REMARK INTRA:                  -0.945
REMARK UNBOUND:                -0.663
REMARK SMILES O=C[C@H](O)[C@@H](O)[C@H](O)CO
REMARK SMILES IDX 7 1 9 2 10 3 5 5 3 6 2 7 1 8 4 9 6 11 8 13
REMARK H PARENT 10 4 4 10 6 12 8 14
REMARK Flexibility Score: inf
ROOT
ATOM      1  C   UNL     1       6.038  -1.787  -6.651  1.00  0.00     0.171 C 
ENDROOT
BRANCH   1   2
ATOM      2  C   UNL     1       5.780  -0.773  -7.782  1.00  0.00     0.190 C 
BRANCH   2   3
ATOM      3  O   UNL     1       4.868   0.208  -7.365  1.00  0.00    -0.394 OA
ATOM      4  H   UNL     1       4.316   0.444  -8.156  1.00  0.00     0.210 HD
ENDBRANCH   2   3
ENDBRANCH   1   2
BRANCH   1   5
ATOM      5  C   UNL     1       5.007  -2.946  -6.631  1.00  0.00     0.181 C 
BRANCH   5   6
ATOM      6  C   UNL     1       5.251  -4.054  -5.572  1.00  0.00     0.209 C 
BRANCH   6   7
ATOM      7  C   UNL     1       4.275  -3.996  -4.424  1.00  0.00     0.258 C 
ATOM      8  O   UNL     1       4.248  -3.035  -3.670  1.00  0.00    -0.300 OA
ENDBRANCH   6   7
BRANCH   6   9
ATOM      9  O   UNL     1       6.573  -4.012  -5.104  1.00  0.00    -0.383 OA
ATOM     10  H   UNL     1       6.562  -3.508  -4.248  1.00  0.00     0.211 HD
ENDBRANCH   6   9
ENDBRANCH   5   6
BRANCH   5  11
ATOM     11  O   UNL     1       3.730  -2.392  -6.427  1.00  0.00    -0.387 OA
ATOM     12  H   UNL     1       3.594  -2.322  -5.446  1.00  0.00     0.211 HD
ENDBRANCH   5  11
ENDBRANCH   1   5
BRANCH   1  13
ATOM     13  O   UNL     1       5.971  -1.121  -5.414  1.00  0.00    -0.388 OA
ATOM     14  H   UNL     1       6.004  -1.813  -4.703  1.00  0.00     0.211 HD
ENDBRANCH   1  13
TORSDOF 8
ENDMDL
MODEL 4
REMARK VINA RESULT:    -3.781      1.376      1.514
REMARK INTER + INTRA:          -5.771
REMARK INTER:                  -5.110
REMARK INTRA:                  -0.661
REMARK UNBOUND:                -0.663
REMARK SMILES O=C[C@H](O)[C@@H](O)[C@H](O)CO
REMARK SMILES IDX 7 1 9 2 10 3 5 5 3 6 2 7 1 8 4 9 6 11 8 13
REMARK H PARENT 10 4 4 10 6 12 8 14
REMARK Flexibility Score: inf
ROOT
ATOM      1  C   UNL     1       6.870  -2.524  -6.036  1.00  0.00     0.171 C 
ENDROOT
BRANCH   1   2
ATOM      2  C   UNL     1       6.423  -1.584  -7.172  1.00  0.00     0.190 C 
BRANCH   2   3
ATOM      3  O   UNL     1       5.458  -0.676  -6.710  1.00  0.00    -0.394 OA
ATOM      4  H   UNL     1       4.854  -1.180  -6.106  1.00  0.00     0.210 HD
ENDBRANCH   2   3
ENDBRANCH   1   2
BRANCH   1   5
ATOM      5  C   UNL     1       5.678  -3.198  -5.306  1.00  0.00     0.181 C 
BRANCH   5   6
ATOM      6  C   UNL     1       6.002  -4.511  -4.544  1.00  0.00     0.209 C 
BRANCH   6   7
ATOM      7  C   UNL     1       4.777  -5.342  -4.258  1.00  0.00     0.258 C 
ATOM      8  O   UNL     1       3.750  -4.826  -3.842  1.00  0.00    -0.300 OA
ENDBRANCH   6   7
BRANCH   6   9
ATOM      9  O   UNL     1       6.705  -4.238  -3.361  1.00  0.00    -0.383 OA
ATOM     10  H   UNL     1       6.743  -5.086  -2.844  1.00  0.00     0.211 HD
ENDBRANCH   6   9
ENDBRANCH   5   6
BRANCH   5  11
ATOM     11  O   UNL     1       5.135  -2.266  -4.401  1.00  0.00    -0.387 OA
ATOM     12  H   UNL     1       4.334  -2.688  -3.993  1.00  0.00     0.211 HD
ENDBRANCH   5  11
ENDBRANCH   1   5
BRANCH   1  13
ATOM     13  O   UNL     1       7.600  -1.784  -5.088  1.00  0.00    -0.388 OA
ATOM     14  H   UNL     1       7.396  -0.825  -5.241  1.00  0.00     0.211 HD
ENDBRANCH   1  13
TORSDOF 8
ENDMDL
MODEL 5
REMARK VINA RESULT:    -3.737      1.240      4.209
REMARK INTER + INTRA:          -5.711
REMARK INTER:                  -5.020
REMARK INTRA:                  -0.692
REMARK UNBOUND:                -0.663
REMARK SMILES O=C[C@H](O)[C@@H](O)[C@H](O)CO
REMARK SMILES IDX 7 1 9 2 10 3 5 5 3 6 2 7 1 8 4 9 6 11 8 13
REMARK H PARENT 10 4 4 10 6 12 8 14
REMARK Flexibility Score: inf
ROOT
ATOM      1  C   UNL     1       5.517  -3.511  -4.910  1.00  0.00     0.171 C 
ENDROOT
BRANCH   1   2
ATOM      2  C   UNL     1       6.035  -4.750  -4.154  1.00  0.00     0.190 C 
BRANCH   2   3
ATOM      3  O   UNL     1       6.922  -4.370  -3.136  1.00  0.00    -0.394 OA
ATOM      4  H   UNL     1       6.505  -3.607  -2.658  1.00  0.00     0.210 HD
ENDBRANCH   2   3
ENDBRANCH   1   2
BRANCH   1   5
ATOM      5  C   UNL     1       6.626  -2.794  -5.725  1.00  0.00     0.181 C 
BRANCH   5   6
ATOM      6  C   UNL     1       6.138  -1.876  -6.877  1.00  0.00     0.209 C 
BRANCH   6   7
ATOM      7  C   UNL     1       7.253  -1.433  -7.790  1.00  0.00     0.258 C 
ATOM      8  O   UNL     1       8.377  -1.899  -7.680  1.00  0.00    -0.300 OA
ENDBRANCH   6   7
BRANCH   6   9
ATOM      9  O   UNL     1       5.441  -0.769  -6.369  1.00  0.00    -0.383 OA
ATOM     10  H   UNL     1       4.536  -0.783  -6.778  1.00  0.00     0.211 HD
ENDBRANCH   6   9
ENDBRANCH   5   6
BRANCH   5  11
ATOM     11  O   UNL     1       7.402  -2.032  -4.832  1.00  0.00    -0.387 OA
ATOM     12  H   UNL     1       6.851  -1.254  -4.556  1.00  0.00     0.211 HD
ENDBRANCH   5  11
ENDBRANCH   1   5
BRANCH   1  13
ATOM     13  O   UNL     1       4.994  -2.592  -3.983  1.00  0.00    -0.388 OA
ATOM     14  H   UNL     1       5.759  -2.219  -3.472  1.00  0.00     0.211 HD
ENDBRANCH   1  13
TORSDOF 8
ENDMDL
MODEL 6
REMARK VINA RESULT:    -3.690      2.265      2.747
REMARK INTER + INTRA:          -5.648
REMARK INTER:                  -4.947
REMARK INTRA:                  -0.701
REMARK UNBOUND:                -0.663
REMARK SMILES O=C[C@H](O)[C@@H](O)[C@H](O)CO
REMARK SMILES IDX 7 1 9 2 10 3 5 5 3 6 2 7 1 8 4 9 6 11 8 13
REMARK H PARENT 10 4 4 10 6 12 8 14
REMARK Flexibility Score: inf
ROOT
ATOM      1  C   UNL     1       6.432  -1.809  -6.314  1.00  0.00     0.171 C 
ENDROOT
BRANCH   1   2
ATOM      2  C   UNL     1       7.852  -1.499  -6.822  1.00  0.00     0.190 C 
BRANCH   2   3
ATOM      3  O   UNL     1       7.806  -0.586  -7.887  1.00  0.00    -0.394 OA
ATOM      4  H   UNL     1       7.718   0.318  -7.488  1.00  0.00     0.210 HD
ENDBRANCH   2   3
ENDBRANCH   1   2
BRANCH   1   5
ATOM      5  C   UNL     1       5.331  -1.482  -7.357  1.00  0.00     0.181 C 
BRANCH   5   6
ATOM      6  C   UNL     1       4.031  -2.325  -7.263  1.00  0.00     0.209 C 
BRANCH   6   7
ATOM      7  C   UNL     1       2.851  -1.663  -7.928  1.00  0.00     0.258 C 
ATOM      8  O   UNL     1       2.091  -0.949  -7.293  1.00  0.00    -0.300 OA
ENDBRANCH   6   7
BRANCH   6   9
ATOM      9  O   UNL     1       3.738  -2.637  -5.926  1.00  0.00    -0.383 OA
ATOM     10  H   UNL     1       3.173  -1.900  -5.573  1.00  0.00     0.211 HD
ENDBRANCH   6   9
ENDBRANCH   5   6
BRANCH   5  11
ATOM     11  O   UNL     1       5.002  -0.119  -7.233  1.00  0.00    -0.387 OA
ATOM     12  H   UNL     1       4.350   0.090  -7.952  1.00  0.00     0.211 HD
ENDBRANCH   5  11
ENDBRANCH   1   5
BRANCH   1  13
ATOM     13  O   UNL     1       6.179  -1.046  -5.160  1.00  0.00    -0.388 OA
ATOM     14  H   UNL     1       5.335  -1.382  -4.761  1.00  0.00     0.211 HD
ENDBRANCH   1  13
TORSDOF 8
ENDMDL
MODEL 7
REMARK VINA RESULT:    -3.686     11.745     13.331
REMARK INTER + INTRA:          -5.642
REMARK INTER:                  -5.487
REMARK INTRA:                  -0.155
REMARK UNBOUND:                -0.663
REMARK SMILES O=C[C@H](O)[C@@H](O)[C@H](O)CO
REMARK SMILES IDX 7 1 9 2 10 3 5 5 3 6 2 7 1 8 4 9 6 11 8 13
REMARK H PARENT 10 4 4 10 6 12 8 14
REMARK Flexibility Score: inf
ROOT
ATOM      1  C   UNL     1      -6.247  -4.691   0.515  1.00  0.00     0.171 C 
ENDROOT
BRANCH   1   2
ATOM      2  C   UNL     1      -5.860  -4.856  -0.967  1.00  0.00     0.190 C 
BRANCH   2   3
ATOM      3  O   UNL     1      -6.627  -4.004  -1.775  1.00  0.00    -0.394 OA
ATOM      4  H   UNL     1      -7.069  -3.353  -1.170  1.00  0.00     0.210 HD
ENDBRANCH   2   3
ENDBRANCH   1   2
BRANCH   1   5
ATOM      5  C   UNL     1      -5.055  -4.254   1.406  1.00  0.00     0.181 C 
BRANCH   5   6
ATOM      6  C   UNL     1      -3.666  -4.218   0.714  1.00  0.00     0.209 C 
BRANCH   6   7
ATOM      7  C   UNL     1      -2.717  -5.263   1.244  1.00  0.00     0.258 C 
ATOM      8  O   UNL     1      -2.240  -6.112   0.506  1.00  0.00    -0.300 OA
ENDBRANCH   6   7
BRANCH   6   9
ATOM      9  O   UNL     1      -3.098  -2.938   0.806  1.00  0.00    -0.383 OA
ATOM     10  H   UNL     1      -2.631  -2.890   1.681  1.00  0.00     0.211 HD
ENDBRANCH   6   9
ENDBRANCH   5   6
BRANCH   5  11
ATOM     11  O   UNL     1      -5.340  -2.978   1.925  1.00  0.00    -0.387 OA
ATOM     12  H   UNL     1      -5.357  -3.062   2.914  1.00  0.00     0.211 HD
ENDBRANCH   5  11
ENDBRANCH   1   5
BRANCH   1  13
ATOM     13  O   UNL     1      -6.730  -5.918   1.003  1.00  0.00    -0.388 OA
ATOM     14  H   UNL     1      -5.972  -6.557   0.999  1.00  0.00     0.211 HD
ENDBRANCH   1  13
TORSDOF 8
ENDMDL
MODEL 8
REMARK VINA RESULT:    -3.653      1.378      3.794
REMARK INTER + INTRA:          -5.598
REMARK INTER:                  -5.216
REMARK INTRA:                  -0.382
REMARK UNBOUND:                -0.663
REMARK SMILES O=C[C@H](O)[C@@H](O)[C@H](O)CO
REMARK SMILES IDX 7 1 9 2 10 3 5 5 3 6 2 7 1 8 4 9 6 11 8 13
REMARK H PARENT 10 4 4 10 6 12 8 14
REMARK Flexibility Score: inf
ROOT
ATOM      1  C   UNL     1       5.421  -3.283  -4.847  1.00  0.00     0.171 C 
ENDROOT
BRANCH   1   2
ATOM      2  C   UNL     1       6.077  -4.578  -4.330  1.00  0.00     0.190 C 
BRANCH   2   3
ATOM      3  O   UNL     1       6.832  -4.321  -3.176  1.00  0.00    -0.394 OA
ATOM      4  H   UNL     1       7.731  -4.712  -3.326  1.00  0.00     0.210 HD
ENDBRANCH   2   3
ENDBRANCH   1   2
BRANCH   1   5
ATOM      5  C   UNL     1       6.456  -2.210  -5.276  1.00  0.00     0.181 C 
BRANCH   5   6
ATOM      6  C   UNL     1       6.635  -2.010  -6.804  1.00  0.00     0.209 C 
BRANCH   6   7
ATOM      7  C   UNL     1       5.350  -1.650  -7.506  1.00  0.00     0.258 C 
ATOM      8  O   UNL     1       4.793  -0.585  -7.288  1.00  0.00    -0.300 OA
ENDBRANCH   6   7
BRANCH   6   9
ATOM      9  O   UNL     1       7.219  -3.145  -7.389  1.00  0.00    -0.383 OA
ATOM     10  H   UNL     1       7.525  -2.880  -8.296  1.00  0.00     0.211 HD
ENDBRANCH   6   9
ENDBRANCH   5   6
BRANCH   5  11
ATOM     11  O   UNL     1       6.082  -0.984  -4.695  1.00  0.00    -0.387 OA
ATOM     12  H   UNL     1       6.131  -1.100  -3.710  1.00  0.00     0.211 HD
ENDBRANCH   5  11
ENDBRANCH   1   5
BRANCH   1  13
ATOM     13  O   UNL     1       4.621  -2.735  -3.828  1.00  0.00    -0.388 OA
ATOM     14  H   UNL     1       4.670  -1.747  -3.913  1.00  0.00     0.211 HD
ENDBRANCH   1  13
TORSDOF 8
ENDMDL
MODEL 9
REMARK VINA RESULT:    -3.472     12.582     13.945
REMARK INTER + INTRA:          -5.353
REMARK INTER:                  -4.479
REMARK INTRA:                  -0.874
REMARK UNBOUND:                -0.663
REMARK SMILES O=C[C@H](O)[C@@H](O)[C@H](O)CO
REMARK SMILES IDX 7 1 9 2 10 3 5 5 3 6 2 7 1 8 4 9 6 11 8 13
REMARK H PARENT 10 4 4 10 6 12 8 14
REMARK Flexibility Score: inf
ROOT
ATOM      1  C   UNL     1      -6.196  -4.922   0.994  1.00  0.00     0.171 C 
ENDROOT
BRANCH   1   2
ATOM      2  C   UNL     1      -5.817  -4.143   2.269  1.00  0.00     0.190 C 
BRANCH   2   3
ATOM      3  O   UNL     1      -5.325  -2.871   1.941  1.00  0.00    -0.394 OA
ATOM      4  H   UNL     1      -4.877  -2.516   2.753  1.00  0.00     0.210 HD
ENDBRANCH   2   3
ENDBRANCH   1   2
BRANCH   1   5
ATOM      5  C   UNL     1      -4.977  -5.215   0.081  1.00  0.00     0.181 C 
BRANCH   5   6
ATOM      6  C   UNL     1      -5.188  -6.303  -1.006  1.00  0.00     0.209 C 
BRANCH   6   7
ATOM      7  C   UNL     1      -5.413  -5.726  -2.381  1.00  0.00     0.258 C 
ATOM      8  O   UNL     1      -6.357  -4.984  -2.604  1.00  0.00    -0.300 OA
ENDBRANCH   6   7
BRANCH   6   9
ATOM      9  O   UNL     1      -6.238  -7.164  -0.650  1.00  0.00    -0.383 OA
ATOM     10  H   UNL     1      -7.003  -6.591  -0.380  1.00  0.00     0.211 HD
ENDBRANCH   6   9
ENDBRANCH   5   6
BRANCH   5  11
ATOM     11  O   UNL     1      -4.598  -4.013  -0.544  1.00  0.00    -0.387 OA
ATOM     12  H   UNL     1      -4.165  -4.255  -1.405  1.00  0.00     0.211 HD
ENDBRANCH   5  11
ENDBRANCH   1   5
BRANCH   1  13
ATOM     13  O   UNL     1      -7.124  -4.167   0.255  1.00  0.00    -0.388 OA
ATOM     14  H   UNL     1      -6.717  -3.985  -0.632  1.00  0.00     0.211 HD
ENDBRANCH   1  13
TORSDOF 8
ENDMDL
