MODEL 1
REMARK VINA RESULT:    -5.121      0.000      0.000
REMARK INTER + INTRA:          -5.121
REMARK INTER:                  -5.121
REMARK INTRA:                   0.000
REMARK UNBOUND:                 0.000
REMARK SMILES CC(C)=C1CC[C@H](C)CC1=O
REMARK SMILES IDX 8 1 7 2 6 3 5 4 4 5 2 6 1 7 3 8 10 9 11 10 9 11
REMARK H PARENT
REMARK Flexibility Score: inf
ROOT
ATOM      1  C   UNL     1      26.260  -2.974   6.130  1.00  0.00     0.008 C 
ATOM      2  C   UNL     1      25.053  -2.572   6.986  1.00  0.00    -0.006 C 
ATOM      3  C   UNL     1      24.409  -1.286   6.445  1.00  0.00     0.008 C 
ATOM      4  C   UNL     1      23.263  -0.812   7.347  1.00  0.00     0.039 C 
ATOM      5  C   UNL     1      22.241  -1.908   7.617  1.00  0.00    -0.006 C 
ATOM      6  C   UNL     1      20.921  -1.616   7.807  1.00  0.00    -0.070 C 
ATOM      7  C   UNL     1      20.421  -0.190   7.775  1.00  0.00     0.039 C 
ATOM      8  C   UNL     1      19.889  -2.700   8.018  1.00  0.00     0.039 C 
ATOM      9  C   UNL     1      22.788  -3.289   7.775  1.00  0.00     0.159 C 
ATOM     10  O   UNL     1      22.240  -4.126   8.542  1.00  0.00    -0.295 OA
ATOM     11  C   UNL     1      24.016  -3.704   7.018  1.00  0.00     0.084 C 
ENDROOT
TORSDOF 0
ENDMDL
MODEL 2
REMARK VINA RESULT:    -4.867      2.051      3.876
REMARK INTER + INTRA:          -4.867
REMARK INTER:                  -4.867
REMARK INTRA:                   0.000
REMARK UNBOUND:                 0.000
REMARK SMILES CC(C)=C1CC[C@H](C)CC1=O
REMARK SMILES IDX 8 1 7 2 6 3 5 4 4 5 2 6 1 7 3 8 10 9 11 10 9 11
REMARK H PARENT
REMARK Flexibility Score: inf
ROOT
ATOM      1  C   UNL     1      24.083  -0.694   6.739  1.00  0.00     0.008 C 
ATOM      2  C   UNL     1      23.667  -2.155   6.944  1.00  0.00    -0.006 C 
ATOM      3  C   UNL     1      24.902  -3.068   6.994  1.00  0.00     0.008 C 
ATOM      4  C   UNL     1      24.501  -4.545   7.096  1.00  0.00     0.039 C 
ATOM      5  C   UNL     1      23.532  -4.810   8.240  1.00  0.00    -0.006 C 
ATOM      6  C   UNL     1      23.536  -5.998   8.913  1.00  0.00    -0.070 C 
ATOM      7  C   UNL     1      24.490  -7.108   8.538  1.00  0.00     0.039 C 
ATOM      8  C   UNL     1      22.618  -6.251  10.086  1.00  0.00     0.039 C 
ATOM      9  C   UNL     1      22.516  -3.746   8.498  1.00  0.00     0.159 C 
ATOM     10  O   UNL     1      21.366  -4.030   8.930  1.00  0.00    -0.295 OA
ATOM     11  C   UNL     1      22.850  -2.306   8.235  1.00  0.00     0.084 C 
ENDROOT
TORSDOF 0
ENDMDL
MODEL 3
REMARK VINA RESULT:    -4.860      2.113      4.325
REMARK INTER + INTRA:          -4.860
REMARK INTER:                  -4.860
REMARK INTRA:                   0.000
REMARK UNBOUND:                 0.000
REMARK SMILES CC(C)=C1CC[C@H](C)CC1=O
REMARK SMILES IDX 8 1 7 2 6 3 5 4 4 5 2 6 1 7 3 8 10 9 11 10 9 11
REMARK H PARENT
REMARK Flexibility Score: inf
ROOT
ATOM      1  C   UNL     1      20.979  -1.196   6.031  1.00  0.00     0.008 C 
ATOM      2  C   UNL     1      21.903  -1.962   6.985  1.00  0.00    -0.006 C 
ATOM      3  C   UNL     1      21.146  -3.113   7.664  1.00  0.00     0.008 C 
ATOM      4  C   UNL     1      22.026  -3.828   8.698  1.00  0.00     0.039 C 
ATOM      5  C   UNL     1      23.364  -4.268   8.121  1.00  0.00    -0.006 C 
ATOM      6  C   UNL     1      23.995  -5.393   8.570  1.00  0.00    -0.070 C 
ATOM      7  C   UNL     1      23.399  -6.238   9.673  1.00  0.00     0.039 C 
ATOM      8  C   UNL     1      25.294  -5.871   7.966  1.00  0.00     0.039 C 
ATOM      9  C   UNL     1      23.987  -3.342   7.129  1.00  0.00     0.159 C 
ATOM     10  O   UNL     1      25.240  -3.233   7.032  1.00  0.00    -0.295 OA
ATOM     11  C   UNL     1      23.122  -2.510   6.228  1.00  0.00     0.084 C 
ENDROOT
TORSDOF 0
ENDMDL
MODEL 4
REMARK VINA RESULT:    -4.781      3.282      5.033
REMARK INTER + INTRA:          -4.781
REMARK INTER:                  -4.781
REMARK INTRA:                   0.000
REMARK UNBOUND:                 0.000
REMARK SMILES CC(C)=C1CC[C@H](C)CC1=O
REMARK SMILES IDX 8 1 7 2 6 3 5 4 4 5 2 6 1 7 3 8 10 9 11 10 9 11
REMARK H PARENT
REMARK Flexibility Score: inf
ROOT
ATOM      1  C   UNL     1      23.682  -2.214   6.882  1.00  0.00     0.008 C 
ATOM      2  C   UNL     1      23.979  -3.418   7.785  1.00  0.00    -0.006 C 
ATOM      3  C   UNL     1      22.673  -4.058   8.281  1.00  0.00     0.008 C 
ATOM      4  C   UNL     1      22.950  -5.200   9.266  1.00  0.00     0.039 C 
ATOM      5  C   UNL     1      23.930  -6.225   8.712  1.00  0.00    -0.006 C 
ATOM      6  C   UNL     1      23.847  -7.544   9.056  1.00  0.00    -0.070 C 
ATOM      7  C   UNL     1      22.790  -8.039  10.016  1.00  0.00     0.039 C 
ATOM      8  C   UNL     1      24.777  -8.579   8.468  1.00  0.00     0.039 C 
ATOM      9  C   UNL     1      25.040  -5.684   7.872  1.00  0.00     0.159 C 
ATOM     10  O   UNL     1      26.175  -6.232   7.855  1.00  0.00    -0.295 OA
ATOM     11  C   UNL     1      24.822  -4.459   7.033  1.00  0.00     0.084 C 
ENDROOT
TORSDOF 0
ENDMDL
MODEL 5
REMARK VINA RESULT:    -4.739      2.252      4.192
REMARK INTER + INTRA:          -4.739
REMARK INTER:                  -4.739
REMARK INTRA:                   0.000
REMARK UNBOUND:                 0.000
REMARK SMILES CC(C)=C1CC[C@H](C)CC1=O
REMARK SMILES IDX 8 1 7 2 6 3 5 4 4 5 2 6 1 7 3 8 10 9 11 10 9 11
REMARK H PARENT
REMARK Flexibility Score: inf
ROOT
ATOM      1  C   UNL     1      22.872  -6.258   9.967  1.00  0.00     0.008 C 
ATOM      2  C   UNL     1      23.225  -5.394   8.750  1.00  0.00    -0.006 C 
ATOM      3  C   UNL     1      22.726  -3.953   8.946  1.00  0.00     0.008 C 
ATOM      4  C   UNL     1      22.980  -3.100   7.697  1.00  0.00     0.039 C 
ATOM      5  C   UNL     1      24.430  -3.159   7.235  1.00  0.00    -0.006 C 
ATOM      6  C   UNL     1      25.024  -2.091   6.626  1.00  0.00    -0.070 C 
ATOM      7  C   UNL     1      24.263  -0.811   6.370  1.00  0.00     0.039 C 
ATOM      8  C   UNL     1      26.478  -2.118   6.214  1.00  0.00     0.039 C 
ATOM      9  C   UNL     1      25.112  -4.480   7.382  1.00  0.00     0.159 C 
ATOM     10  O   UNL     1      25.998  -4.853   6.567  1.00  0.00    -0.295 OA
ATOM     11  C   UNL     1      24.742  -5.396   8.511  1.00  0.00     0.084 C 
ENDROOT
TORSDOF 0
ENDMDL
MODEL 6
REMARK VINA RESULT:    -4.719      2.360      4.684
REMARK INTER + INTRA:          -4.719
REMARK INTER:                  -4.719
REMARK INTRA:                   0.000
REMARK UNBOUND:                 0.000
REMARK SMILES CC(C)=C1CC[C@H](C)CC1=O
REMARK SMILES IDX 8 1 7 2 6 3 5 4 4 5 2 6 1 7 3 8 10 9 11 10 9 11
REMARK H PARENT
REMARK Flexibility Score: inf
ROOT
ATOM      1  C   UNL     1      22.508  -7.213  10.233  1.00  0.00     0.008 C 
ATOM      2  C   UNL     1      23.386  -6.074   9.703  1.00  0.00    -0.006 C 
ATOM      3  C   UNL     1      24.230  -6.551   8.510  1.00  0.00     0.008 C 
ATOM      4  C   UNL     1      25.190  -5.454   8.030  1.00  0.00     0.039 C 
ATOM      5  C   UNL     1      24.479  -4.136   7.754  1.00  0.00    -0.006 C 
ATOM      6  C   UNL     1      24.919  -3.284   6.782  1.00  0.00    -0.070 C 
ATOM      7  C   UNL     1      26.140  -3.604   5.952  1.00  0.00     0.039 C 
ATOM      8  C   UNL     1      24.189  -2.000   6.460  1.00  0.00     0.039 C 
ATOM      9  C   UNL     1      23.358  -3.789   8.678  1.00  0.00     0.159 C 
ATOM     10  O   UNL     1      23.098  -2.591   8.970  1.00  0.00    -0.295 OA
ATOM     11  C   UNL     1      22.521  -4.875   9.287  1.00  0.00     0.084 C 
ENDROOT
TORSDOF 0
ENDMDL
MODEL 7
REMARK VINA RESULT:    -4.698      3.486      4.833
REMARK INTER + INTRA:          -4.698
REMARK INTER:                  -4.698
REMARK INTRA:                   0.000
REMARK UNBOUND:                 0.000
REMARK SMILES CC(C)=C1CC[C@H](C)CC1=O
REMARK SMILES IDX 8 1 7 2 6 3 5 4 4 5 2 6 1 7 3 8 10 9 11 10 9 11
REMARK H PARENT
REMARK Flexibility Score: inf
ROOT
ATOM      1  C   UNL     1      25.447  -9.673   8.245  1.00  0.00     0.008 C 
ATOM      2  C   UNL     1      25.234  -8.189   8.566  1.00  0.00    -0.006 C 
ATOM      3  C   UNL     1      25.701  -7.310   7.395  1.00  0.00     0.008 C 
ATOM      4  C   UNL     1      25.591  -5.818   7.738  1.00  0.00     0.039 C 
ATOM      5  C   UNL     1      24.205  -5.436   8.241  1.00  0.00    -0.006 C 
ATOM      6  C   UNL     1      23.682  -4.197   8.003  1.00  0.00    -0.070 C 
ATOM      7  C   UNL     1      24.463  -3.148   7.246  1.00  0.00     0.039 C 
ATOM      8  C   UNL     1      22.286  -3.825   8.448  1.00  0.00     0.039 C 
ATOM      9  C   UNL     1      23.516  -6.447   9.098  1.00  0.00     0.159 C 
ATOM     10  O   UNL     1      22.733  -6.097  10.021  1.00  0.00    -0.295 OA
ATOM     11  C   UNL     1      23.756  -7.911   8.874  1.00  0.00     0.084 C 
ENDROOT
TORSDOF 0
ENDMDL
MODEL 8
REMARK VINA RESULT:    -4.697      4.730      6.494
REMARK INTER + INTRA:          -4.697
REMARK INTER:                  -4.697
REMARK INTRA:                   0.000
REMARK UNBOUND:                 0.000
REMARK SMILES CC(C)=C1CC[C@H](C)CC1=O
REMARK SMILES IDX 8 1 7 2 6 3 5 4 4 5 2 6 1 7 3 8 10 9 11 10 9 11
REMARK H PARENT
REMARK Flexibility Score: inf
ROOT
ATOM      1  C   UNL     1      22.231 -10.076  11.150  1.00  0.00     0.008 C 
ATOM      2  C   UNL     1      22.459  -8.936  10.151  1.00  0.00    -0.006 C 
ATOM      3  C   UNL     1      22.575  -7.590  10.883  1.00  0.00     0.008 C 
ATOM      4  C   UNL     1      22.702  -6.425   9.893  1.00  0.00     0.039 C 
ATOM      5  C   UNL     1      23.819  -6.638   8.880  1.00  0.00    -0.006 C 
ATOM      6  C   UNL     1      24.521  -5.585   8.367  1.00  0.00    -0.070 C 
ATOM      7  C   UNL     1      24.208  -4.163   8.770  1.00  0.00     0.039 C 
ATOM      8  C   UNL     1      25.669  -5.788   7.405  1.00  0.00     0.039 C 
ATOM      9  C   UNL     1      24.013  -8.040   8.404  1.00  0.00     0.159 C 
ATOM     10  O   UNL     1      24.413  -8.285   7.233  1.00  0.00    -0.295 OA
ATOM     11  C   UNL     1      23.725  -9.193   9.320  1.00  0.00     0.084 C 
ENDROOT
TORSDOF 0
ENDMDL
MODEL 9
REMARK VINA RESULT:    -4.644      1.292      4.205
REMARK INTER + INTRA:          -4.644
REMARK INTER:                  -4.644
REMARK INTRA:                   0.000
REMARK UNBOUND:                 0.000
REMARK SMILES CC(C)=C1CC[C@H](C)CC1=O
REMARK SMILES IDX 8 1 7 2 6 3 5 4 4 5 2 6 1 7 3 8 10 9 11 10 9 11
REMARK H PARENT
REMARK Flexibility Score: inf
ROOT
ATOM      1  C   UNL     1      20.607  -0.754   7.748  1.00  0.00     0.008 C 
ATOM      2  C   UNL     1      21.779  -1.342   6.953  1.00  0.00    -0.006 C 
ATOM      3  C   UNL     1      23.101  -0.676   7.365  1.00  0.00     0.008 C 
ATOM      4  C   UNL     1      24.271  -1.179   6.509  1.00  0.00     0.039 C 
ATOM      5  C   UNL     1      24.364  -2.699   6.483  1.00  0.00    -0.006 C 
ATOM      6  C   UNL     1      25.568  -3.333   6.371  1.00  0.00    -0.070 C 
ATOM      7  C   UNL     1      26.857  -2.554   6.249  1.00  0.00     0.039 C 
ATOM      8  C   UNL     1      25.679  -4.840   6.402  1.00  0.00     0.039 C 
ATOM      9  C   UNL     1      23.065  -3.436   6.471  1.00  0.00     0.159 C 
ATOM     10  O   UNL     1      22.945  -4.542   5.878  1.00  0.00    -0.295 OA
ATOM     11  C   UNL     1      21.867  -2.860   7.168  1.00  0.00     0.084 C 
ENDROOT
TORSDOF 0
ENDMDL
