MODEL 1
REMARK VINA RESULT:     3.279      0.000      0.000
REMARK INTER + INTRA:           6.048
REMARK INTER:                   7.497
REMARK INTRA:                  -1.449
REMARK UNBOUND:                -1.449
REMARK SMILES CCCCCCCCCCCCCCCCCCCCCCCC(=O)[O-]
REMARK SMILES IDX 13 1 14 2 15 3 16 4 17 5 18 6 19 7 20 8 21 9 22 10 23 11
REMARK SMILES IDX 24 12 25 13 26 14 12 15 11 16 10 17 9 18 8 19 7 20 6 21 5 22
REMARK SMILES IDX 4 23 3 24 2 25 1 26
REMARK H PARENT
REMARK Flexibility Score: inf
ROOT
ATOM      1  C   UNL     1      35.868 105.328 266.705  1.00  0.00     0.000 C 
ENDROOT
BRANCH   1   2
ATOM      2  C   UNL     1      35.701 104.133 265.747  1.00  0.00     0.000 C 
BRANCH   2   3
ATOM      3  C   UNL     1      36.262 104.407 264.341  1.00  0.00     0.000 C 
BRANCH   3   4
ATOM      4  C   UNL     1      35.174 104.852 263.350  1.00  0.00     0.000 C 
BRANCH   4   5
ATOM      5  C   UNL     1      35.626 106.024 262.462  1.00  0.00     0.000 C 
BRANCH   5   6
ATOM      6  C   UNL     1      37.108 106.377 262.666  1.00  0.00     0.000 C 
BRANCH   6   7
ATOM      7  C   UNL     1      37.680 107.227 261.518  1.00  0.00     0.000 C 
BRANCH   7   8
ATOM      8  C   UNL     1      38.545 106.410 260.543  1.00  0.00     0.000 C 
BRANCH   8   9
ATOM      9  C   UNL     1      37.884 105.132 259.995  1.00  0.00     0.000 C 
BRANCH   9  10
ATOM     10  C   UNL     1      37.466 105.259 258.520  1.00  0.00     0.006 C 
BRANCH  10  11
ATOM     11  C   UNL     1      37.470 106.715 258.040  1.00  0.00     0.053 C 
BRANCH  11  12
ATOM     12  C   UNL     1      36.105 107.331 258.116  1.00  0.00     0.041 C 
ATOM     13  O   UNL     1      35.971 108.581 258.074  1.00  0.00    -0.550 OA
ATOM     14  O   UNL     1      34.983 106.523 258.252  1.00  0.00    -0.550 OA
ENDBRANCH  11  12
ENDBRANCH  10  11
ENDBRANCH   9  10
ENDBRANCH   8   9
ENDBRANCH   7   8
ENDBRANCH   6   7
ENDBRANCH   5   6
ENDBRANCH   4   5
ENDBRANCH   3   4
ENDBRANCH   2   3
ENDBRANCH   1   2
BRANCH   1  15
ATOM     15  C   UNL     1      34.875 106.484 266.485  1.00  0.00     0.000 C 
BRANCH  15  16
ATOM     16  C   UNL     1      35.497 107.674 265.733  1.00  0.00     0.000 C 
BRANCH  16  17
ATOM     17  C   UNL     1      35.823 108.858 266.656  1.00  0.00     0.000 C 
BRANCH  17  18
ATOM     18  C   UNL     1      34.919 108.900 267.900  1.00  0.00    -0.000 C 
BRANCH  18  19
ATOM     19  C   UNL     1      35.620 108.387 269.171  1.00  0.00    -0.000 C 
BRANCH  19  20
ATOM     20  C   UNL     1      35.251 106.952 269.588  1.00  0.00    -0.000 C 
BRANCH  20  21
ATOM     21  C   UNL     1      36.211 106.362 270.633  1.00  0.00    -0.000 C 
BRANCH  21  22
ATOM     22  C   UNL     1      37.296 107.376 271.022  1.00  0.00    -0.000 C 
BRANCH  22  23
ATOM     23  C   UNL     1      38.574 106.709 271.561  1.00  0.00    -0.000 C 
BRANCH  23  24
ATOM     24  C   UNL     1      38.521 105.169 271.646  1.00  0.00    -0.000 C 
BRANCH  24  25
ATOM     25  C   UNL     1      38.435 104.603 273.075  1.00  0.00    -0.003 C 
ATOM     26  C   UNL     1      39.517 103.564 273.370  1.00  0.00     0.004 C 
ENDBRANCH  24  25
ENDBRANCH  23  24
ENDBRANCH  22  23
ENDBRANCH  21  22
ENDBRANCH  20  21
ENDBRANCH  19  20
ENDBRANCH  18  19
ENDBRANCH  17  18
ENDBRANCH  16  17
ENDBRANCH  15  16
ENDBRANCH   1  15
TORSDOF 22
ENDMDL
MODEL 2
REMARK VINA RESULT:     4.428      1.130      1.825
REMARK INTER + INTRA:           8.674
REMARK INTER:                   9.793
REMARK INTRA:                  -1.119
REMARK UNBOUND:                -1.449
REMARK SMILES CCCCCCCCCCCCCCCCCCCCCCCC(=O)[O-]
REMARK SMILES IDX 13 1 14 2 15 3 16 4 17 5 18 6 19 7 20 8 21 9 22 10 23 11
REMARK SMILES IDX 24 12 25 13 26 14 12 15 11 16 10 17 9 18 8 19 7 20 6 21 5 22
REMARK SMILES IDX 4 23 3 24 2 25 1 26
REMARK H PARENT
REMARK Flexibility Score: inf
ROOT
ATOM      1  C   UNL     1      35.666 106.661 266.395  1.00  0.00     0.000 C 
ENDROOT
BRANCH   1   2
ATOM      2  C   UNL     1      34.978 105.289 266.254  1.00  0.00     0.000 C 
BRANCH   2   3
ATOM      3  C   UNL     1      35.495 104.478 265.052  1.00  0.00     0.000 C 
BRANCH   3   4
ATOM      4  C   UNL     1      34.876 104.939 263.723  1.00  0.00     0.000 C 
BRANCH   4   5
ATOM      5  C   UNL     1      35.936 105.373 262.696  1.00  0.00     0.000 C 
BRANCH   5   6
ATOM      6  C   UNL     1      36.351 106.843 262.867  1.00  0.00     0.000 C 
BRANCH   6   7
ATOM      7  C   UNL     1      37.749 106.997 263.491  1.00  0.00     0.000 C 
BRANCH   7   8
ATOM      8  C   UNL     1      38.789 107.547 262.499  1.00  0.00     0.000 C 
BRANCH   8   9
ATOM      9  C   UNL     1      39.789 106.510 261.956  1.00  0.00     0.000 C 
BRANCH   9  10
ATOM     10  C   UNL     1      39.361 105.916 260.603  1.00  0.00     0.006 C 
BRANCH  10  11
ATOM     11  C   UNL     1      38.420 106.850 259.833  1.00  0.00     0.053 C 
BRANCH  11  12
ATOM     12  C   UNL     1      37.147 106.161 259.443  1.00  0.00     0.041 C 
ATOM     13  O   UNL     1      36.341 106.717 258.653  1.00  0.00    -0.550 OA
ATOM     14  O   UNL     1      36.843 104.911 259.968  1.00  0.00    -0.550 OA
ENDBRANCH  11  12
ENDBRANCH  10  11
ENDBRANCH   9  10
ENDBRANCH   8   9
ENDBRANCH   7   8
ENDBRANCH   6   7
ENDBRANCH   5   6
ENDBRANCH   4   5
ENDBRANCH   3   4
ENDBRANCH   2   3
ENDBRANCH   1   2
BRANCH   1  15
ATOM     15  C   UNL     1      34.877 107.848 265.813  1.00  0.00     0.000 C 
BRANCH  15  16
ATOM     16  C   UNL     1      35.167 109.174 266.538  1.00  0.00     0.000 C 
BRANCH  16  17
ATOM     17  C   UNL     1      35.824 108.972 267.911  1.00  0.00     0.000 C 
BRANCH  17  18
ATOM     18  C   UNL     1      34.893 108.263 268.909  1.00  0.00    -0.000 C 
BRANCH  18  19
ATOM     19  C   UNL     1      35.620 107.212 269.768  1.00  0.00    -0.000 C 
BRANCH  19  20
ATOM     20  C   UNL     1      36.403 107.776 270.968  1.00  0.00    -0.000 C 
BRANCH  20  21
ATOM     21  C   UNL     1      37.858 107.286 271.022  1.00  0.00    -0.000 C 
BRANCH  21  22
ATOM     22  C   UNL     1      37.924 105.763 271.202  1.00  0.00    -0.000 C 
BRANCH  22  23
ATOM     23  C   UNL     1      38.819 105.336 272.379  1.00  0.00    -0.000 C 
BRANCH  23  24
ATOM     24  C   UNL     1      38.257 104.191 273.246  1.00  0.00    -0.000 C 
BRANCH  24  25
ATOM     25  C   UNL     1      39.305 103.173 273.731  1.00  0.00    -0.003 C 
ATOM     26  C   UNL     1      40.687 103.403 273.120  1.00  0.00     0.004 C 
ENDBRANCH  24  25
ENDBRANCH  23  24
ENDBRANCH  22  23
ENDBRANCH  21  22
ENDBRANCH  20  21
ENDBRANCH  19  20
ENDBRANCH  18  19
ENDBRANCH  17  18
ENDBRANCH  16  17
ENDBRANCH  15  16
ENDBRANCH   1  15
TORSDOF 22
ENDMDL
MODEL 3
REMARK VINA RESULT:     4.810      2.188      2.930
REMARK INTER + INTRA:           9.548
REMARK INTER:                   8.952
REMARK INTRA:                   0.596
REMARK UNBOUND:                -1.449
REMARK SMILES CCCCCCCCCCCCCCCCCCCCCCCC(=O)[O-]
REMARK SMILES IDX 13 1 14 2 15 3 16 4 17 5 18 6 19 7 20 8 21 9 22 10 23 11
REMARK SMILES IDX 24 12 25 13 26 14 12 15 11 16 10 17 9 18 8 19 7 20 6 21 5 22
REMARK SMILES IDX 4 23 3 24 2 25 1 26
REMARK H PARENT
REMARK Flexibility Score: inf
ROOT
ATOM      1  C   UNL     1      36.178 105.082 265.414  1.00  0.00     0.000 C 
ENDROOT
BRANCH   1   2
ATOM      2  C   UNL     1      36.189 106.248 264.407  1.00  0.00     0.000 C 
BRANCH   2   3
ATOM      3  C   UNL     1      35.121 106.103 263.309  1.00  0.00     0.000 C 
BRANCH   3   4
ATOM      4  C   UNL     1      34.902 104.640 262.892  1.00  0.00     0.000 C 
BRANCH   4   5
ATOM      5  C   UNL     1      35.426 104.343 261.476  1.00  0.00     0.000 C 
BRANCH   5   6
ATOM      6  C   UNL     1      36.398 105.421 260.973  1.00  0.00     0.000 C 
BRANCH   6   7
ATOM      7  C   UNL     1      36.071 105.897 259.547  1.00  0.00     0.000 C 
BRANCH   7   8
ATOM      8  C   UNL     1      37.289 105.853 258.608  1.00  0.00     0.000 C 
BRANCH   8   9
ATOM      9  C   UNL     1      38.658 105.897 259.310  1.00  0.00     0.000 C 
BRANCH   9  10
ATOM     10  C   UNL     1      38.545 106.027 260.839  1.00  0.00     0.006 C 
BRANCH  10  11
ATOM     11  C   UNL     1      39.843 106.538 261.474  1.00  0.00     0.053 C 
BRANCH  11  12
ATOM     12  C   UNL     1      39.603 107.137 262.827  1.00  0.00     0.041 C 
ATOM     13  O   UNL     1      38.805 108.101 262.962  1.00  0.00    -0.550 OA
ATOM     14  O   UNL     1      40.275 106.640 263.938  1.00  0.00    -0.550 OA
ENDBRANCH  11  12
ENDBRANCH  10  11
ENDBRANCH   9  10
ENDBRANCH   8   9
ENDBRANCH   7   8
ENDBRANCH   6   7
ENDBRANCH   5   6
ENDBRANCH   4   5
ENDBRANCH   3   4
ENDBRANCH   2   3
ENDBRANCH   1   2
BRANCH   1  15
ATOM     15  C   UNL     1      34.882 104.938 266.232  1.00  0.00     0.000 C 
BRANCH  15  16
ATOM     16  C   UNL     1      34.888 105.780 267.520  1.00  0.00     0.000 C 
BRANCH  16  17
ATOM     17  C   UNL     1      34.886 107.291 267.245  1.00  0.00     0.000 C 
BRANCH  17  18
ATOM     18  C   UNL     1      35.142 108.120 268.515  1.00  0.00    -0.000 C 
BRANCH  18  19
ATOM     19  C   UNL     1      35.167 107.266 269.796  1.00  0.00    -0.000 C 
BRANCH  19  20
ATOM     20  C   UNL     1      36.196 107.704 270.854  1.00  0.00    -0.000 C 
BRANCH  20  21
ATOM     21  C   UNL     1      37.612 107.180 270.571  1.00  0.00    -0.000 C 
BRANCH  21  22
ATOM     22  C   UNL     1      38.294 106.703 271.862  1.00  0.00    -0.000 C 
BRANCH  22  23
ATOM     23  C   UNL     1      38.615 105.198 271.849  1.00  0.00    -0.000 C 
BRANCH  23  24
ATOM     24  C   UNL     1      38.515 104.497 273.220  1.00  0.00    -0.000 C 
BRANCH  24  25
ATOM     25  C   UNL     1      39.402 103.248 273.374  1.00  0.00    -0.003 C 
ATOM     26  C   UNL     1      40.881 103.531 273.106  1.00  0.00     0.004 C 
ENDBRANCH  24  25
ENDBRANCH  23  24
ENDBRANCH  22  23
ENDBRANCH  21  22
ENDBRANCH  20  21
ENDBRANCH  19  20
ENDBRANCH  18  19
ENDBRANCH  17  18
ENDBRANCH  16  17
ENDBRANCH  15  16
ENDBRANCH   1  15
TORSDOF 22
ENDMDL
MODEL 4
REMARK VINA RESULT:     4.969      4.618      9.582
REMARK INTER + INTRA:           9.910
REMARK INTER:                  10.460
REMARK INTRA:                  -0.551
REMARK UNBOUND:                -1.449
REMARK SMILES CCCCCCCCCCCCCCCCCCCCCCCC(=O)[O-]
REMARK SMILES IDX 13 1 14 2 15 3 16 4 17 5 18 6 19 7 20 8 21 9 22 10 23 11
REMARK SMILES IDX 24 12 25 13 26 14 12 15 11 16 10 17 9 18 8 19 7 20 6 21 5 22
REMARK SMILES IDX 4 23 3 24 2 25 1 26
REMARK H PARENT
REMARK Flexibility Score: inf
ROOT
ATOM      1  C   UNL     1      34.929 105.450 263.647  1.00  0.00     0.000 C 
ENDROOT
BRANCH   1   2
ATOM      2  C   UNL     1      34.875 105.380 265.186  1.00  0.00     0.000 C 
BRANCH   2   3
ATOM      3  C   UNL     1      35.471 104.079 265.750  1.00  0.00     0.000 C 
BRANCH   3   4
ATOM      4  C   UNL     1      35.397 104.016 267.284  1.00  0.00     0.000 C 
BRANCH   4   5
ATOM      5  C   UNL     1      34.961 105.353 267.910  1.00  0.00     0.000 C 
BRANCH   5   6
ATOM      6  C   UNL     1      35.548 105.562 269.315  1.00  0.00     0.000 C 
BRANCH   6   7
ATOM      7  C   UNL     1      35.535 107.038 269.750  1.00  0.00     0.000 C 
BRANCH   7   8
ATOM      8  C   UNL     1      36.436 107.309 270.968  1.00  0.00     0.000 C 
BRANCH   8   9
ATOM      9  C   UNL     1      37.949 107.254 270.688  1.00  0.00     0.000 C 
BRANCH   9  10
ATOM     10  C   UNL     1      38.724 106.441 271.739  1.00  0.00     0.006 C 
BRANCH  10  11
ATOM     11  C   UNL     1      38.072 105.080 272.014  1.00  0.00     0.053 C 
BRANCH  11  12
ATOM     12  C   UNL     1      38.818 104.305 273.057  1.00  0.00     0.041 C 
ATOM     13  O   UNL     1      40.040 104.046 272.902  1.00  0.00    -0.550 OA
ATOM     14  O   UNL     1      38.159 103.854 274.194  1.00  0.00    -0.550 OA
ENDBRANCH  11  12
ENDBRANCH  10  11
ENDBRANCH   9  10
ENDBRANCH   8   9
ENDBRANCH   7   8
ENDBRANCH   6   7
ENDBRANCH   5   6
ENDBRANCH   4   5
ENDBRANCH   3   4
ENDBRANCH   2   3
ENDBRANCH   1   2
BRANCH   1  15
ATOM     15  C   UNL     1      35.640 104.267 262.965  1.00  0.00     0.000 C 
BRANCH  15  16
ATOM     16  C   UNL     1      35.974 104.538 261.488  1.00  0.00     0.000 C 
BRANCH  16  17
ATOM     17  C   UNL     1      36.311 106.011 261.213  1.00  0.00     0.000 C 
BRANCH  17  18
ATOM     18  C   UNL     1      36.788 106.246 259.770  1.00  0.00    -0.000 C 
BRANCH  18  19
ATOM     19  C   UNL     1      38.180 105.652 259.492  1.00  0.00    -0.000 C 
BRANCH  19  20
ATOM     20  C   UNL     1      39.129 105.613 260.704  1.00  0.00    -0.000 C 
BRANCH  20  21
ATOM     21  C   UNL     1      39.421 107.006 261.285  1.00  0.00    -0.000 C 
BRANCH  21  22
ATOM     22  C   UNL     1      39.255 107.015 262.811  1.00  0.00    -0.000 C 
BRANCH  22  23
ATOM     23  C   UNL     1      38.028 107.821 263.275  1.00  0.00    -0.000 C 
BRANCH  23  24
ATOM     24  C   UNL     1      37.283 107.234 264.492  1.00  0.00    -0.000 C 
BRANCH  24  25
ATOM     25  C   UNL     1      36.082 108.067 264.978  1.00  0.00    -0.003 C 
ATOM     26  C   UNL     1      36.251 108.577 266.409  1.00  0.00     0.004 C 
ENDBRANCH  24  25
ENDBRANCH  23  24
ENDBRANCH  22  23
ENDBRANCH  21  22
ENDBRANCH  20  21
ENDBRANCH  19  20
ENDBRANCH  18  19
ENDBRANCH  17  18
ENDBRANCH  16  17
ENDBRANCH  15  16
ENDBRANCH   1  15
TORSDOF 22
ENDMDL
MODEL 5
REMARK VINA RESULT:     5.347      4.719     10.086
REMARK INTER + INTRA:          10.775
REMARK INTER:                  10.868
REMARK INTRA:                  -0.094
REMARK UNBOUND:                -1.449
REMARK SMILES CCCCCCCCCCCCCCCCCCCCCCCC(=O)[O-]
REMARK SMILES IDX 13 1 14 2 15 3 16 4 17 5 18 6 19 7 20 8 21 9 22 10 23 11
REMARK SMILES IDX 24 12 25 13 26 14 12 15 11 16 10 17 9 18 8 19 7 20 6 21 5 22
REMARK SMILES IDX 4 23 3 24 2 25 1 26
REMARK H PARENT
REMARK Flexibility Score: inf
ROOT
ATOM      1  C   UNL     1      36.541 105.278 265.102  1.00  0.00     0.000 C 
ENDROOT
BRANCH   1   2
ATOM      2  C   UNL     1      35.514 104.415 265.861  1.00  0.00     0.000 C 
BRANCH   2   3
ATOM      3  C   UNL     1      34.877 105.149 267.054  1.00  0.00     0.000 C 
BRANCH   3   4
ATOM      4  C   UNL     1      34.958 106.678 266.914  1.00  0.00     0.000 C 
BRANCH   4   5
ATOM      5  C   UNL     1      35.104 107.388 268.271  1.00  0.00     0.000 C 
BRANCH   5   6
ATOM      6  C   UNL     1      35.372 106.406 269.422  1.00  0.00     0.000 C 
BRANCH   6   7
ATOM      7  C   UNL     1      35.389 107.094 270.798  1.00  0.00     0.000 C 
BRANCH   7   8
ATOM      8  C   UNL     1      36.777 107.642 271.175  1.00  0.00     0.000 C 
BRANCH   8   9
ATOM      9  C   UNL     1      37.968 106.788 270.700  1.00  0.00     0.000 C 
BRANCH   9  10
ATOM     10  C   UNL     1      38.723 106.116 271.859  1.00  0.00     0.006 C 
BRANCH  10  11
ATOM     11  C   UNL     1      38.004 104.861 272.369  1.00  0.00     0.053 C 
BRANCH  11  12
ATOM     12  C   UNL     1      38.835 104.106 273.362  1.00  0.00     0.041 C 
ATOM     13  O   UNL     1      40.023 103.795 273.088  1.00  0.00    -0.550 OA
ATOM     14  O   UNL     1      38.290 103.732 274.584  1.00  0.00    -0.550 OA
ENDBRANCH  11  12
ENDBRANCH  10  11
ENDBRANCH   9  10
ENDBRANCH   8   9
ENDBRANCH   7   8
ENDBRANCH   6   7
ENDBRANCH   5   6
ENDBRANCH   4   5
ENDBRANCH   3   4
ENDBRANCH   2   3
ENDBRANCH   1   2
BRANCH   1  15
ATOM     15  C   UNL     1      35.941 106.436 264.283  1.00  0.00     0.000 C 
BRANCH  15  16
ATOM     16  C   UNL     1      35.065 105.953 263.114  1.00  0.00     0.000 C 
BRANCH  16  17
ATOM     17  C   UNL     1      35.395 104.518 262.674  1.00  0.00     0.000 C 
BRANCH  17  18
ATOM     18  C   UNL     1      35.989 104.460 261.257  1.00  0.00    -0.000 C 
BRANCH  18  19
ATOM     19  C   UNL     1      36.210 105.853 260.639  1.00  0.00    -0.000 C 
BRANCH  19  20
ATOM     20  C   UNL     1      36.447 105.864 259.118  1.00  0.00    -0.000 C 
BRANCH  20  21
ATOM     21  C   UNL     1      37.927 105.705 258.737  1.00  0.00    -0.000 C 
BRANCH  21  22
ATOM     22  C   UNL     1      38.790 105.422 259.975  1.00  0.00    -0.000 C 
BRANCH  22  23
ATOM     23  C   UNL     1      39.301 106.704 260.655  1.00  0.00    -0.000 C 
BRANCH  23  24
ATOM     24  C   UNL     1      38.405 107.244 261.789  1.00  0.00    -0.000 C 
BRANCH  24  25
ATOM     25  C   UNL     1      39.162 107.711 263.046  1.00  0.00    -0.003 C 
ATOM     26  C   UNL     1      39.976 106.595 263.700  1.00  0.00     0.004 C 
ENDBRANCH  24  25
ENDBRANCH  23  24
ENDBRANCH  22  23
ENDBRANCH  21  22
ENDBRANCH  20  21
ENDBRANCH  19  20
ENDBRANCH  18  19
ENDBRANCH  17  18
ENDBRANCH  16  17
ENDBRANCH  15  16
ENDBRANCH   1  15
TORSDOF 22
ENDMDL
MODEL 6
REMARK VINA RESULT:     5.434      4.686     10.466
REMARK INTER + INTRA:          10.973
REMARK INTER:                   9.117
REMARK INTRA:                   1.856
REMARK UNBOUND:                -1.449
REMARK SMILES CCCCCCCCCCCCCCCCCCCCCCCC(=O)[O-]
REMARK SMILES IDX 13 1 14 2 15 3 16 4 17 5 18 6 19 7 20 8 21 9 22 10 23 11
REMARK SMILES IDX 24 12 25 13 26 14 12 15 11 16 10 17 9 18 8 19 7 20 6 21 5 22
REMARK SMILES IDX 4 23 3 24 2 25 1 26
REMARK H PARENT
REMARK Flexibility Score: inf
ROOT
ATOM      1  C   UNL     1      35.377 105.562 267.329  1.00  0.00     0.000 C 
ENDROOT
BRANCH   1   2
ATOM      2  C   UNL     1      34.915 106.659 266.351  1.00  0.00     0.000 C 
BRANCH   2   3
ATOM      3  C   UNL     1      35.994 107.726 266.091  1.00  0.00     0.000 C 
BRANCH   3   4
ATOM      4  C   UNL     1      35.833 108.957 266.999  1.00  0.00     0.000 C 
BRANCH   4   5
ATOM      5  C   UNL     1      34.875 108.702 268.176  1.00  0.00     0.000 C 
BRANCH   5   6
ATOM      6  C   UNL     1      35.317 107.515 269.046  1.00  0.00     0.000 C 
BRANCH   6   7
ATOM      7  C   UNL     1      35.865 107.953 270.415  1.00  0.00     0.000 C 
BRANCH   7   8
ATOM      8  C   UNL     1      37.354 107.610 270.600  1.00  0.00     0.000 C 
BRANCH   8   9
ATOM      9  C   UNL     1      37.670 106.106 270.704  1.00  0.00     0.000 C 
BRANCH   9  10
ATOM     10  C   UNL     1      37.963 105.653 272.145  1.00  0.00     0.006 C 
BRANCH  10  11
ATOM     11  C   UNL     1      38.325 104.165 272.221  1.00  0.00     0.053 C 
BRANCH  11  12
ATOM     12  C   UNL     1      39.149 103.853 273.434  1.00  0.00     0.041 C 
ATOM     13  O   UNL     1      40.326 103.427 273.309  1.00  0.00    -0.550 OA
ATOM     14  O   UNL     1      38.608 104.018 274.704  1.00  0.00    -0.550 OA
ENDBRANCH  11  12
ENDBRANCH  10  11
ENDBRANCH   9  10
ENDBRANCH   8   9
ENDBRANCH   7   8
ENDBRANCH   6   7
ENDBRANCH   5   6
ENDBRANCH   4   5
ENDBRANCH   3   4
ENDBRANCH   2   3
ENDBRANCH   1   2
BRANCH   1  15
ATOM     15  C   UNL     1      35.007 104.125 266.918  1.00  0.00     0.000 C 
BRANCH  15  16
ATOM     16  C   UNL     1      35.162 103.873 265.408  1.00  0.00     0.000 C 
BRANCH  16  17
ATOM     17  C   UNL     1      35.683 105.103 264.649  1.00  0.00     0.000 C 
BRANCH  17  18
ATOM     18  C   UNL     1      35.605 104.929 263.123  1.00  0.00    -0.000 C 
BRANCH  18  19
ATOM     19  C   UNL     1      36.037 106.188 262.351  1.00  0.00    -0.000 C 
BRANCH  19  20
ATOM     20  C   UNL     1      37.383 106.794 262.788  1.00  0.00    -0.000 C 
BRANCH  20  21
ATOM     21  C   UNL     1      38.273 107.202 261.604  1.00  0.00    -0.000 C 
BRANCH  21  22
ATOM     22  C   UNL     1      38.591 105.996 260.708  1.00  0.00    -0.000 C 
BRANCH  22  23
ATOM     23  C   UNL     1      38.230 106.235 259.231  1.00  0.00    -0.000 C 
BRANCH  23  24
ATOM     24  C   UNL     1      36.897 105.609 258.774  1.00  0.00    -0.000 C 
BRANCH  24  25
ATOM     25  C   UNL     1      35.923 106.586 258.092  1.00  0.00    -0.003 C 
ATOM     26  C   UNL     1      36.276 108.052 258.343  1.00  0.00     0.004 C 
ENDBRANCH  24  25
ENDBRANCH  23  24
ENDBRANCH  22  23
ENDBRANCH  21  22
ENDBRANCH  20  21
ENDBRANCH  19  20
ENDBRANCH  18  19
ENDBRANCH  17  18
ENDBRANCH  16  17
ENDBRANCH  15  16
ENDBRANCH   1  15
TORSDOF 22
ENDMDL
MODEL 7
REMARK VINA RESULT:     5.902      2.075      3.093
REMARK INTER + INTRA:          12.044
REMARK INTER:                   9.612
REMARK INTRA:                   2.432
REMARK UNBOUND:                -1.449
REMARK SMILES CCCCCCCCCCCCCCCCCCCCCCCC(=O)[O-]
REMARK SMILES IDX 13 1 14 2 15 3 16 4 17 5 18 6 19 7 20 8 21 9 22 10 23 11
REMARK SMILES IDX 24 12 25 13 26 14 12 15 11 16 10 17 9 18 8 19 7 20 6 21 5 22
REMARK SMILES IDX 4 23 3 24 2 25 1 26
REMARK H PARENT
REMARK Flexibility Score: inf
ROOT
ATOM      1  C   UNL     1      36.485 104.697 266.167  1.00  0.00     0.000 C 
ENDROOT
BRANCH   1   2
ATOM      2  C   UNL     1      36.828 104.262 264.729  1.00  0.00     0.000 C 
BRANCH   2   3
ATOM      3  C   UNL     1      36.398 105.292 263.670  1.00  0.00     0.000 C 
BRANCH   3   4
ATOM      4  C   UNL     1      34.954 105.072 263.189  1.00  0.00     0.000 C 
BRANCH   4   5
ATOM      5  C   UNL     1      34.875 104.738 261.689  1.00  0.00     0.000 C 
BRANCH   5   6
ATOM      6  C   UNL     1      36.195 105.021 260.955  1.00  0.00     0.000 C 
BRANCH   6   7
ATOM      7  C   UNL     1      36.176 106.358 260.193  1.00  0.00     0.000 C 
BRANCH   7   8
ATOM      8  C   UNL     1      37.043 106.333 258.922  1.00  0.00     0.000 C 
BRANCH   8   9
ATOM      9  C   UNL     1      38.231 105.355 258.959  1.00  0.00     0.000 C 
BRANCH   9  10
ATOM     10  C   UNL     1      39.107 105.523 260.213  1.00  0.00     0.006 C 
BRANCH  10  11
ATOM     11  C   UNL     1      39.143 106.975 260.703  1.00  0.00     0.053 C 
BRANCH  11  12
ATOM     12  C   UNL     1      39.222 107.057 262.198  1.00  0.00     0.041 C 
ATOM     13  O   UNL     1      38.172 107.038 262.891  1.00  0.00    -0.550 OA
ATOM     14  O   UNL     1      40.457 107.173 262.825  1.00  0.00    -0.550 OA
ENDBRANCH  11  12
ENDBRANCH  10  11
ENDBRANCH   9  10
ENDBRANCH   8   9
ENDBRANCH   7   8
ENDBRANCH   6   7
ENDBRANCH   5   6
ENDBRANCH   4   5
ENDBRANCH   3   4
ENDBRANCH   2   3
ENDBRANCH   1   2
BRANCH   1  15
ATOM     15  C   UNL     1      35.020 105.116 266.389  1.00  0.00     0.000 C 
BRANCH  15  16
ATOM     16  C   UNL     1      34.876 106.579 266.843  1.00  0.00     0.000 C 
BRANCH  16  17
ATOM     17  C   UNL     1      34.892 107.571 265.670  1.00  0.00     0.000 C 
BRANCH  17  18
ATOM     18  C   UNL     1      35.766 108.804 265.956  1.00  0.00    -0.000 C 
BRANCH  18  19
ATOM     19  C   UNL     1      35.014 109.914 266.712  1.00  0.00    -0.000 C 
BRANCH  19  20
ATOM     20  C   UNL     1      34.887 109.700 268.232  1.00  0.00    -0.000 C 
BRANCH  20  21
ATOM     21  C   UNL     1      35.893 108.678 268.783  1.00  0.00    -0.000 C 
BRANCH  21  22
ATOM     22  C   UNL     1      35.220 107.322 269.040  1.00  0.00    -0.000 C 
BRANCH  22  23
ATOM     23  C   UNL     1      35.843 106.559 270.223  1.00  0.00    -0.000 C 
BRANCH  23  24
ATOM     24  C   UNL     1      36.734 107.410 271.152  1.00  0.00    -0.000 C 
BRANCH  24  25
ATOM     25  C   UNL     1      38.193 106.933 271.264  1.00  0.00    -0.003 C 
ATOM     26  C   UNL     1      39.201 107.980 270.789  1.00  0.00     0.004 C 
ENDBRANCH  24  25
ENDBRANCH  23  24
ENDBRANCH  22  23
ENDBRANCH  21  22
ENDBRANCH  20  21
ENDBRANCH  19  20
ENDBRANCH  18  19
ENDBRANCH  17  18
ENDBRANCH  16  17
ENDBRANCH  15  16
ENDBRANCH   1  15
TORSDOF 22
ENDMDL
