MODEL 1
REMARK VINA RESULT:    -3.418      0.000      0.000
REMARK INTER + INTRA:          -5.576
REMARK INTER:                  -5.217
REMARK INTRA:                  -0.359
REMARK UNBOUND:                -0.359
REMARK SMILES CC1=CCC[C@@H](C)C(=O)C[C@H](C(C)C)C(=O)C1
REMARK SMILES IDX 8 1 9 2 6 3 7 4 5 5 4 6 3 7 2 8 1 9 10 11 11 12 15 13 16 14
REMARK SMILES IDX 17 15 12 17 13 18 14 19
REMARK H PARENT
REMARK Flexibility Score: 70.00
ROOT
ATOM      1  C   UNL     1      20.399 -14.188  43.693  1.00  0.00     0.136 C 
ATOM      2  O   UNL     1      19.729 -14.568  42.744  1.00  0.00    -0.299 OA
ENDROOT
BRANCH   1   3
ATOM      3  C   UNL     1      20.463 -15.049  44.962  1.00  0.00     0.053 C 
ATOM      4  C   UNL     1      19.511 -14.532  46.053  1.00  0.00     0.016 C 
BRANCH   3   5
ATOM      5  C   UNL     1      21.907 -15.162  45.532  1.00  0.00     0.015 C 
BRANCH   5   6
ATOM      6  C   UNL     1      22.203 -14.360  46.817  1.00  0.00     0.028 C 
BRANCH   6   7
ATOM      7  C   UNL     1      23.379 -13.402  46.833  1.00  0.00    -0.028 C 
ATOM      8  C   UNL     1      23.352 -12.045  46.875  1.00  0.00    -0.070 CG0
ATOM      9  C   UNL     1      24.664 -11.331  47.098  1.00  0.00     0.039 C 
ATOM     10  G   UNL     1      22.129 -11.193  46.570  1.00  0.00     0.000 G0
ENDBRANCH   6   7
ENDBRANCH   5   6
ENDBRANCH   3   5
ENDBRANCH   1   3
BRANCH   1  11
ATOM     11  C   UNL     1      21.210 -12.910  43.517  1.00  0.00     0.087 C 
BRANCH  11  12
ATOM     12  C   UNL     1      20.719 -11.697  44.354  1.00  0.00     0.066 C 
BRANCH  12  13
ATOM     13  C   UNL     1      21.886 -11.034  45.084  1.00  0.00     0.140 C 
ATOM     14  O   UNL     1      22.671 -10.338  44.454  1.00  0.00    -0.299 OA
BRANCH  13  15
ATOM     15  C   UNL     1      22.105 -11.220  46.577  1.00  0.00     0.106 CG0
ATOM     16  G   UNL     1      23.366 -12.030  46.843  1.00  0.00     0.000 G0
ENDBRANCH  13  15
ENDBRANCH  12  13
BRANCH  12  17
ATOM     17  C   UNL     1      19.865 -10.666  43.532  1.00  0.00    -0.006 C 
ATOM     18  C   UNL     1      20.061 -10.785  42.009  1.00  0.00     0.008 C 
ATOM     19  C   UNL     1      18.362 -10.834  43.836  1.00  0.00     0.008 C 
ENDBRANCH  12  17
ENDBRANCH  11  12
ENDBRANCH   1  11
TORSDOF 1
ENDMDL
MODEL 2
REMARK VINA RESULT:    -3.362      1.949      3.641
REMARK INTER + INTRA:          -5.490
REMARK INTER:                  -5.166
REMARK INTRA:                  -0.324
REMARK UNBOUND:                -0.359
REMARK SMILES CC1=CCC[C@@H](C)C(=O)C[C@H](C(C)C)C(=O)C1
REMARK SMILES IDX 8 1 9 2 6 3 7 4 5 5 4 6 3 7 2 8 1 9 10 11 11 12 15 13 16 14
REMARK SMILES IDX 17 15 12 17 13 18 14 19
REMARK H PARENT
REMARK Flexibility Score: 70.00
ROOT
ATOM      1  C   UNL     1      20.059 -12.897  44.850  1.00  0.00     0.136 C 
ATOM      2  O   UNL     1      19.331 -13.350  45.721  1.00  0.00    -0.299 OA
ENDROOT
BRANCH   1   3
ATOM      3  C   UNL     1      20.226 -11.376  44.726  1.00  0.00     0.053 C 
ATOM      4  C   UNL     1      20.091 -10.901  43.270  1.00  0.00     0.016 C 
BRANCH   3   5
ATOM      5  C   UNL     1      21.574 -10.876  45.322  1.00  0.00     0.015 C 
BRANCH   5   6
ATOM      6  C   UNL     1      21.856 -11.249  46.792  1.00  0.00     0.028 C 
BRANCH   6   7
ATOM      7  C   UNL     1      23.206 -11.837  47.158  1.00  0.00    -0.028 C 
ATOM      8  C   UNL     1      23.616 -13.126  47.042  1.00  0.00    -0.070 CG0
ATOM      9  C   UNL     1      25.080 -13.412  47.276  1.00  0.00     0.039 C 
ATOM     10  G   UNL     1      22.689 -14.314  46.839  1.00  0.00     0.000 G0
ENDBRANCH   6   7
ENDBRANCH   5   6
ENDBRANCH   3   5
ENDBRANCH   1   3
BRANCH   1  11
ATOM     11  C   UNL     1      20.831 -13.889  43.989  1.00  0.00     0.087 C 
BRANCH  11  12
ATOM     12  C   UNL     1      22.365 -13.914  44.226  1.00  0.00     0.066 C 
BRANCH  12  13
ATOM     13  C   UNL     1      22.720 -14.836  45.392  1.00  0.00     0.140 C 
ATOM     14  O   UNL     1      23.035 -15.996  45.165  1.00  0.00    -0.299 OA
BRANCH  13  15
ATOM     15  C   UNL     1      22.685 -14.353  46.833  1.00  0.00     0.106 CG0
ATOM     16  G   UNL     1      23.612 -13.162  47.029  1.00  0.00     0.000 G0
ENDBRANCH  13  15
ENDBRANCH  12  13
BRANCH  12  17
ATOM     17  C   UNL     1      23.199 -14.238  42.935  1.00  0.00    -0.006 C 
ATOM     18  C   UNL     1      22.673 -13.528  41.673  1.00  0.00     0.008 C 
ATOM     19  C   UNL     1      24.678 -13.844  43.124  1.00  0.00     0.008 C 
ENDBRANCH  12  17
ENDBRANCH  11  12
ENDBRANCH   1  11
TORSDOF 1
ENDMDL
MODEL 3
REMARK VINA RESULT:    -3.234      2.694      4.609
REMARK INTER + INTRA:          -5.295
REMARK INTER:                  -5.214
REMARK INTRA:                  -0.081
REMARK UNBOUND:                -0.359
REMARK SMILES CC1=CCC[C@@H](C)C(=O)C[C@H](C(C)C)C(=O)C1
REMARK SMILES IDX 8 1 9 2 6 3 7 4 5 5 4 6 3 7 2 8 1 9 10 11 11 12 15 13 16 14
REMARK SMILES IDX 17 15 12 17 13 18 14 19
REMARK H PARENT
REMARK Flexibility Score: 70.00
ROOT
ATOM      1  C   UNL     1      23.948 -14.393  46.850  1.00  0.00     0.136 C 
ATOM      2  O   UNL     1      25.000 -14.008  47.340  1.00  0.00    -0.299 OA
ENDROOT
BRANCH   1   3
ATOM      3  C   UNL     1      23.903 -15.752  46.139  1.00  0.00     0.053 C 
ATOM      4  C   UNL     1      24.631 -16.844  46.941  1.00  0.00     0.016 C 
BRANCH   3   5
ATOM      5  C   UNL     1      24.478 -15.687  44.694  1.00  0.00     0.015 C 
BRANCH   5   6
ATOM      6  C   UNL     1      23.448 -15.596  43.548  1.00  0.00     0.028 C 
BRANCH   6   7
ATOM      7  C   UNL     1      22.082 -16.230  43.733  1.00  0.00    -0.028 C 
ATOM      8  C   UNL     1      20.870 -15.618  43.740  1.00  0.00    -0.070 CG0
ATOM      9  C   UNL     1      19.646 -16.502  43.728  1.00  0.00     0.039 C 
ATOM     10  G   UNL     1      20.657 -14.121  43.905  1.00  0.00     0.000 G0
ENDBRANCH   6   7
ENDBRANCH   5   6
ENDBRANCH   3   5
ENDBRANCH   1   3
BRANCH   1  11
ATOM     11  C   UNL     1      22.713 -13.524  47.058  1.00  0.00     0.087 C 
BRANCH  11  12
ATOM     12  C   UNL     1      22.114 -12.909  45.764  1.00  0.00     0.066 C 
BRANCH  12  13
ATOM     13  C   UNL     1      20.854 -13.660  45.338  1.00  0.00     0.140 C 
ATOM     14  O   UNL     1      19.998 -13.919  46.174  1.00  0.00    -0.299 OA
BRANCH  13  15
ATOM     15  C   UNL     1      20.635 -14.105  43.901  1.00  0.00     0.106 CG0
ATOM     16  G   UNL     1      20.894 -15.597  43.750  1.00  0.00     0.000 G0
ENDBRANCH  13  15
ENDBRANCH  12  13
BRANCH  12  17
ATOM     17  C   UNL     1      21.884 -11.357  45.850  1.00  0.00    -0.006 C 
ATOM     18  C   UNL     1      23.110 -10.532  45.416  1.00  0.00     0.008 C 
ATOM     19  C   UNL     1      20.686 -10.932  44.977  1.00  0.00     0.008 C 
ENDBRANCH  12  17
ENDBRANCH  11  12
ENDBRANCH   1  11
TORSDOF 1
ENDMDL
MODEL 4
REMARK VINA RESULT:    -3.173     14.309     16.297
REMARK INTER + INTRA:          -5.201
REMARK INTER:                  -5.348
REMARK INTRA:                   0.147
REMARK UNBOUND:                -0.359
REMARK SMILES CC1=CCC[C@@H](C)C(=O)C[C@H](C(C)C)C(=O)C1
REMARK SMILES IDX 8 1 9 2 6 3 7 4 5 5 4 6 3 7 2 8 1 9 10 11 11 12 15 13 16 14
REMARK SMILES IDX 17 15 12 17 13 18 14 19
REMARK H PARENT
REMARK Flexibility Score: 70.00
ROOT
ATOM      1  C   UNL     1       8.500  -4.970  40.723  1.00  0.00     0.136 C 
ATOM      2  O   UNL     1       7.367  -5.242  41.090  1.00  0.00    -0.299 OA
ENDROOT
BRANCH   1   3
ATOM      3  C   UNL     1       9.699  -5.498  41.523  1.00  0.00     0.053 C 
ATOM      4  C   UNL     1       9.327  -6.727  42.368  1.00  0.00     0.016 C 
BRANCH   3   5
ATOM      5  C   UNL     1      10.335  -4.406  42.431  1.00  0.00     0.015 C 
BRANCH   5   6
ATOM      6  C   UNL     1      11.590  -3.698  41.879  1.00  0.00     0.028 C 
BRANCH   6   7
ATOM      7  C   UNL     1      11.663  -2.184  41.924  1.00  0.00    -0.028 C 
ATOM      8  C   UNL     1      10.982  -1.290  41.162  1.00  0.00    -0.070 CG0
ATOM      9  C   UNL     1      11.074   0.166  41.550  1.00  0.00     0.039 C 
ATOM     10  G   UNL     1      10.256  -1.631  39.869  1.00  0.00     0.000 G0
ENDBRANCH   6   7
ENDBRANCH   5   6
ENDBRANCH   3   5
ENDBRANCH   1   3
BRANCH   1  11
ATOM     11  C   UNL     1       8.651  -4.185  39.425  1.00  0.00     0.087 C 
BRANCH  11  12
ATOM     12  C   UNL     1       7.917  -2.817  39.391  1.00  0.00     0.066 C 
BRANCH  12  13
ATOM     13  C   UNL     1       8.743  -1.739  40.091  1.00  0.00     0.140 C 
ATOM     14  O   UNL     1       8.187  -0.953  40.845  1.00  0.00    -0.299 OA
BRANCH  13  15
ATOM     15  C   UNL     1      10.241  -1.610  39.868  1.00  0.00     0.106 CG0
ATOM     16  G   UNL     1      10.959  -1.304  41.174  1.00  0.00     0.000 G0
ENDBRANCH  13  15
ENDBRANCH  12  13
BRANCH  12  17
ATOM     17  C   UNL     1       7.460  -2.381  37.953  1.00  0.00    -0.006 C 
ATOM     18  C   UNL     1       7.581  -3.503  36.906  1.00  0.00     0.008 C 
ATOM     19  C   UNL     1       5.995  -1.895  37.968  1.00  0.00     0.008 C 
ENDBRANCH  12  17
ENDBRANCH  11  12
ENDBRANCH   1  11
TORSDOF 1
ENDMDL
MODEL 5
REMARK VINA RESULT:    -3.168     14.122     15.975
REMARK INTER + INTRA:          -5.193
REMARK INTER:                  -5.027
REMARK INTRA:                  -0.167
REMARK UNBOUND:                -0.359
REMARK SMILES CC1=CCC[C@@H](C)C(=O)C[C@H](C(C)C)C(=O)C1
REMARK SMILES IDX 8 1 9 2 6 3 7 4 5 5 4 6 3 7 2 8 1 9 10 11 11 12 15 13 16 14
REMARK SMILES IDX 17 15 12 17 13 18 14 19
REMARK H PARENT
REMARK Flexibility Score: 70.00
ROOT
ATOM      1  C   UNL     1       8.502  -3.042  42.552  1.00  0.00     0.136 C 
ATOM      2  O   UNL     1       7.685  -3.773  43.093  1.00  0.00    -0.299 OA
ENDROOT
BRANCH   1   3
ATOM      3  C   UNL     1       9.399  -3.607  41.443  1.00  0.00     0.053 C 
ATOM      4  C   UNL     1       8.610  -4.485  40.458  1.00  0.00     0.016 C 
BRANCH   3   5
ATOM      5  C   UNL     1      10.612  -4.404  42.006  1.00  0.00     0.015 C 
BRANCH   5   6
ATOM      6  C   UNL     1      11.990  -3.715  41.911  1.00  0.00     0.028 C 
BRANCH   6   7
ATOM      7  C   UNL     1      12.157  -2.525  40.986  1.00  0.00    -0.028 C 
ATOM      8  C   UNL     1      12.368  -1.227  41.322  1.00  0.00    -0.070 CG0
ATOM      9  C   UNL     1      12.714  -0.268  40.208  1.00  0.00     0.039 C 
ATOM     10  G   UNL     1      12.138  -0.644  42.709  1.00  0.00     0.000 G0
ENDBRANCH   6   7
ENDBRANCH   5   6
ENDBRANCH   3   5
ENDBRANCH   1   3
BRANCH   1  11
ATOM     11  C   UNL     1       8.515  -1.575  42.963  1.00  0.00     0.087 C 
BRANCH  11  12
ATOM     12  C   UNL     1       9.757  -1.129  43.781  1.00  0.00     0.066 C 
BRANCH  12  13
ATOM     13  C   UNL     1      10.689  -0.269  42.930  1.00  0.00     0.140 C 
ATOM     14  O   UNL     1      10.252   0.742  42.396  1.00  0.00    -0.299 OA
BRANCH  13  15
ATOM     15  C   UNL     1      12.148  -0.639  42.717  1.00  0.00     0.106 CG0
ATOM     16  G   UNL     1      12.365  -1.217  41.327  1.00  0.00     0.000 G0
ENDBRANCH  13  15
ENDBRANCH  12  13
BRANCH  12  17
ATOM     17  C   UNL     1       9.399  -0.447  45.151  1.00  0.00    -0.006 C 
ATOM     18  C   UNL     1      10.590   0.283  45.800  1.00  0.00     0.008 C 
ATOM     19  C   UNL     1       8.253   0.571  44.973  1.00  0.00     0.008 C 
ENDBRANCH  12  17
ENDBRANCH  11  12
ENDBRANCH   1  11
TORSDOF 1
ENDMDL
MODEL 6
REMARK VINA RESULT:    -3.067      1.876      4.063
REMARK INTER + INTRA:          -5.040
REMARK INTER:                  -5.262
REMARK INTRA:                   0.222
REMARK UNBOUND:                -0.359
REMARK SMILES CC1=CCC[C@@H](C)C(=O)C[C@H](C(C)C)C(=O)C1
REMARK SMILES IDX 8 1 9 2 6 3 7 4 5 5 4 6 3 7 2 8 1 9 10 11 11 12 15 13 16 14
REMARK SMILES IDX 17 15 12 17 13 18 14 19
REMARK H PARENT
REMARK Flexibility Score: 70.00
ROOT
ATOM      1  C   UNL     1      21.430 -11.966  43.614  1.00  0.00     0.136 C 
ATOM      2  O   UNL     1      21.808 -12.394  42.533  1.00  0.00    -0.299 OA
ENDROOT
BRANCH   1   3
ATOM      3  C   UNL     1      20.039 -12.353  44.132  1.00  0.00     0.053 C 
ATOM      4  C   UNL     1      19.104 -11.136  44.228  1.00  0.00     0.016 C 
BRANCH   3   5
ATOM      5  C   UNL     1      20.097 -13.083  45.505  1.00  0.00     0.015 C 
BRANCH   5   6
ATOM      6  C   UNL     1      20.108 -14.626  45.462  1.00  0.00     0.028 C 
BRANCH   6   7
ATOM      7  C   UNL     1      21.204 -15.335  44.690  1.00  0.00    -0.028 C 
ATOM      8  C   UNL     1      22.529 -15.396  44.982  1.00  0.00    -0.070 CG0
ATOM      9  C   UNL     1      23.376 -16.345  44.169  1.00  0.00     0.039 C 
ATOM     10  G   UNL     1      23.241 -14.478  45.964  1.00  0.00     0.000 G0
ENDBRANCH   6   7
ENDBRANCH   5   6
ENDBRANCH   3   5
ENDBRANCH   1   3
BRANCH   1  11
ATOM     11  C   UNL     1      22.416 -11.136  44.427  1.00  0.00     0.087 C 
BRANCH  11  12
ATOM     12  C   UNL     1      22.995 -11.841  45.683  1.00  0.00     0.066 C 
BRANCH  12  13
ATOM     13  C   UNL     1      23.665 -13.161  45.305  1.00  0.00     0.140 C 
ATOM     14  O   UNL     1      24.535 -13.168  44.445  1.00  0.00    -0.299 OA
BRANCH  13  15
ATOM     15  C   UNL     1      23.273 -14.474  45.963  1.00  0.00     0.106 CG0
ATOM     16  G   UNL     1      22.544 -15.378  44.980  1.00  0.00     0.000 G0
ENDBRANCH  13  15
ENDBRANCH  12  13
BRANCH  12  17
ATOM     17  C   UNL     1      23.932 -10.923  46.548  1.00  0.00    -0.006 C 
ATOM     18  C   UNL     1      24.798 -11.706  47.553  1.00  0.00     0.008 C 
ATOM     19  C   UNL     1      24.872 -10.096  45.647  1.00  0.00     0.008 C 
ENDBRANCH  12  17
ENDBRANCH  11  12
ENDBRANCH   1  11
TORSDOF 1
ENDMDL
MODEL 7
REMARK VINA RESULT:    -3.046      1.786      4.001
REMARK INTER + INTRA:          -5.008
REMARK INTER:                  -4.718
REMARK INTRA:                  -0.290
REMARK UNBOUND:                -0.359
REMARK SMILES CC1=CCC[C@@H](C)C(=O)C[C@H](C(C)C)C(=O)C1
REMARK SMILES IDX 8 1 9 2 6 3 7 4 5 5 4 6 3 7 2 8 1 9 10 11 11 12 15 13 16 14
REMARK SMILES IDX 17 15 12 17 13 18 14 19
REMARK H PARENT
REMARK Flexibility Score: 70.00
ROOT
ATOM      1  C   UNL     1      21.039 -15.296  44.627  1.00  0.00     0.136 C 
ATOM      2  O   UNL     1      21.421 -16.394  44.251  1.00  0.00    -0.299 OA
ENDROOT
BRANCH   1   3
ATOM      3  C   UNL     1      19.902 -14.594  43.871  1.00  0.00     0.053 C 
ATOM      4  C   UNL     1      19.301 -15.493  42.778  1.00  0.00     0.016 C 
BRANCH   3   5
ATOM      5  C   UNL     1      20.348 -13.238  43.252  1.00  0.00     0.015 C 
BRANCH   5   6
ATOM      6  C   UNL     1      20.114 -11.979  44.114  1.00  0.00     0.028 C 
BRANCH   6   7
ATOM      7  C   UNL     1      21.231 -10.962  44.252  1.00  0.00    -0.028 C 
ATOM      8  C   UNL     1      22.182 -10.889  45.219  1.00  0.00    -0.070 CG0
ATOM      9  C   UNL     1      23.309  -9.907  45.010  1.00  0.00     0.039 C 
ATOM     10  G   UNL     1      22.116 -11.614  46.554  1.00  0.00     0.000 G0
ENDBRANCH   6   7
ENDBRANCH   5   6
ENDBRANCH   3   5
ENDBRANCH   1   3
BRANCH   1  11
ATOM     11  C   UNL     1      21.666 -14.727  45.894  1.00  0.00     0.087 C 
BRANCH  11  12
ATOM     12  C   UNL     1      23.012 -13.979  45.686  1.00  0.00     0.066 C 
BRANCH  12  13
ATOM     13  C   UNL     1      23.116 -12.777  46.622  1.00  0.00     0.140 C 
ATOM     14  O   UNL     1      24.015 -12.738  47.451  1.00  0.00    -0.299 OA
BRANCH  13  15
ATOM     15  C   UNL     1      22.125 -11.626  46.559  1.00  0.00     0.106 CG0
ATOM     16  G   UNL     1      22.200 -10.917  45.215  1.00  0.00     0.000 G0
ENDBRANCH  13  15
ENDBRANCH  12  13
BRANCH  12  17
ATOM     17  C   UNL     1      24.272 -14.913  45.771  1.00  0.00    -0.006 C 
ATOM     18  C   UNL     1      24.035 -16.189  46.600  1.00  0.00     0.008 C 
ATOM     19  C   UNL     1      24.735 -15.337  44.361  1.00  0.00     0.008 C 
ENDBRANCH  12  17
ENDBRANCH  11  12
ENDBRANCH   1  11
TORSDOF 1
ENDMDL
MODEL 8
REMARK VINA RESULT:    -2.878     13.971     15.326
REMARK INTER + INTRA:          -4.752
REMARK INTER:                  -4.640
REMARK INTRA:                  -0.112
REMARK UNBOUND:                -0.359
REMARK SMILES CC1=CCC[C@@H](C)C(=O)C[C@H](C(C)C)C(=O)C1
REMARK SMILES IDX 8 1 9 2 6 3 7 4 5 5 4 6 3 7 2 8 1 9 10 11 11 12 15 13 16 14
REMARK SMILES IDX 17 15 12 17 13 18 14 19
REMARK H PARENT
REMARK Flexibility Score: 70.00
ROOT
ATOM      1  C   UNL     1      10.361  -5.068  41.343  1.00  0.00     0.136 C 
ATOM      2  O   UNL     1      10.259  -5.597  40.246  1.00  0.00    -0.299 OA
ENDROOT
BRANCH   1   3
ATOM      3  C   UNL     1       9.290  -5.334  42.409  1.00  0.00     0.053 C 
ATOM      4  C   UNL     1       9.017  -6.836  42.586  1.00  0.00     0.016 C 
BRANCH   3   5
ATOM      5  C   UNL     1       7.957  -4.587  42.112  1.00  0.00     0.015 C 
BRANCH   5   6
ATOM      6  C   UNL     1       8.037  -3.048  42.020  1.00  0.00     0.028 C 
BRANCH   6   7
ATOM      7  C   UNL     1       8.523  -2.262  43.222  1.00  0.00    -0.028 C 
ATOM      8  C   UNL     1       9.385  -1.213  43.244  1.00  0.00    -0.070 CG0
ATOM      9  C   UNL     1       9.540  -0.468  44.548  1.00  0.00     0.039 C 
ATOM     10  G   UNL     1      10.309  -0.828  42.098  1.00  0.00     0.000 G0
ENDBRANCH   6   7
ENDBRANCH   5   6
ENDBRANCH   3   5
ENDBRANCH   1   3
BRANCH   1  11
ATOM     11  C   UNL     1      11.609  -4.236  41.610  1.00  0.00     0.087 C 
BRANCH  11  12
ATOM     12  C   UNL     1      11.616  -2.827  40.957  1.00  0.00     0.066 C 
BRANCH  12  13
ATOM     13  C   UNL     1      11.509  -1.734  42.020  1.00  0.00     0.140 C 
ATOM     14  O   UNL     1      12.412  -1.600  42.835  1.00  0.00    -0.299 OA
BRANCH  13  15
ATOM     15  C   UNL     1      10.304  -0.811  42.099  1.00  0.00     0.106 CG0
ATOM     16  G   UNL     1       9.383  -1.217  43.240  1.00  0.00     0.000 G0
ENDBRANCH  13  15
ENDBRANCH  12  13
BRANCH  12  17
ATOM     17  C   UNL     1      12.822  -2.591  39.978  1.00  0.00    -0.006 C 
ATOM     18  C   UNL     1      12.611  -3.216  38.586  1.00  0.00     0.008 C 
ATOM     19  C   UNL     1      13.087  -1.083  39.790  1.00  0.00     0.008 C 
ENDBRANCH  12  17
ENDBRANCH  11  12
ENDBRANCH   1  11
TORSDOF 1
ENDMDL
MODEL 9
REMARK VINA RESULT:    -2.829      2.152      4.078
REMARK INTER + INTRA:          -4.677
REMARK INTER:                  -4.512
REMARK INTRA:                  -0.165
REMARK UNBOUND:                -0.359
REMARK SMILES CC1=CCC[C@@H](C)C(=O)C[C@H](C(C)C)C(=O)C1
REMARK SMILES IDX 8 1 9 2 6 3 7 4 5 5 4 6 3 7 2 8 1 9 10 11 11 12 15 13 16 14
REMARK SMILES IDX 17 15 12 17 13 18 14 19
REMARK H PARENT
REMARK Flexibility Score: 70.00
ROOT
ATOM      1  C   UNL     1      21.533 -11.499  45.742  1.00  0.00     0.136 C 
ATOM      2  O   UNL     1      20.674 -10.635  45.652  1.00  0.00    -0.299 OA
ENDROOT
BRANCH   1   3
ATOM      3  C   UNL     1      22.953 -11.106  46.175  1.00  0.00     0.053 C 
ATOM      4  C   UNL     1      23.909 -11.001  44.976  1.00  0.00     0.016 C 
BRANCH   3   5
ATOM      5  C   UNL     1      23.542 -12.079  47.236  1.00  0.00     0.015 C 
BRANCH   5   6
ATOM      6  C   UNL     1      24.659 -13.029  46.753  1.00  0.00     0.028 C 
BRANCH   6   7
ATOM      7  C   UNL     1      24.493 -14.523  46.953  1.00  0.00    -0.028 C 
ATOM      8  C   UNL     1      24.268 -15.474  46.010  1.00  0.00    -0.070 CG0
ATOM      9  C   UNL     1      24.355 -16.917  46.444  1.00  0.00     0.039 C 
ATOM     10  G   UNL     1      23.794 -15.191  44.592  1.00  0.00     0.000 G0
ENDBRANCH   6   7
ENDBRANCH   5   6
ENDBRANCH   3   5
ENDBRANCH   1   3
BRANCH   1  11
ATOM     11  C   UNL     1      21.110 -12.943  45.501  1.00  0.00     0.087 C 
BRANCH  11  12
ATOM     12  C   UNL     1      21.698 -13.598  44.222  1.00  0.00     0.066 C 
BRANCH  12  13
ATOM     13  C   UNL     1      22.297 -14.967  44.539  1.00  0.00     0.140 C 
ATOM     14  O   UNL     1      21.550 -15.911  44.763  1.00  0.00    -0.299 OA
BRANCH  13  15
ATOM     15  C   UNL     1      23.799 -15.191  44.593  1.00  0.00     0.106 CG0
ATOM     16  G   UNL     1      24.256 -15.468  46.018  1.00  0.00     0.000 G0
ENDBRANCH  13  15
ENDBRANCH  12  13
BRANCH  12  17
ATOM     17  C   UNL     1      20.690 -13.651  43.018  1.00  0.00    -0.006 C 
ATOM     18  C   UNL     1      19.781 -12.411  42.927  1.00  0.00     0.008 C 
ATOM     19  C   UNL     1      21.444 -13.792  41.679  1.00  0.00     0.008 C 
ENDBRANCH  12  17
ENDBRANCH  11  12
ENDBRANCH   1  11
TORSDOF 1
ENDMDL
