MODEL 1
REMARK VINA RESULT:    -3.594      0.000      0.000
REMARK INTER + INTRA:          -4.566
REMARK INTER:                  -4.434
REMARK INTRA:                  -0.132
REMARK UNBOUND:                -0.132
REMARK SMILES CCCCCC(=O)[O-]
REMARK SMILES IDX 4 1 5 2 6 3 7 4 8 5 3 6 2 7 1 8
REMARK H PARENT
REMARK Flexibility Score: inf
ROOT
ATOM      1  C   UNL     1      58.651   9.648  90.287  1.00  0.00     0.006 C 
ENDROOT
BRANCH   1   2
ATOM      2  C   UNL     1      59.885  10.534  90.073  1.00  0.00     0.053 C 
BRANCH   2   3
ATOM      3  C   UNL     1      60.577  10.850  91.364  1.00  0.00     0.041 C 
ATOM      4  O   UNL     1      61.518  10.119  91.771  1.00  0.00    -0.550 OA
ATOM      5  O   UNL     1      60.162  11.930  92.131  1.00  0.00    -0.550 OA
ENDBRANCH   2   3
ENDBRANCH   1   2
BRANCH   1   6
ATOM      6  C   UNL     1      57.348  10.355  89.872  1.00  0.00     0.000 C 
BRANCH   6   7
ATOM      7  C   UNL     1      57.571  11.401  88.769  1.00  0.00    -0.003 C 
ATOM      8  C   UNL     1      56.473  11.384  87.706  1.00  0.00     0.004 C 
ENDBRANCH   6   7
ENDBRANCH   1   6
TORSDOF 4
ENDMDL
MODEL 2
REMARK VINA RESULT:    -3.567     13.009     13.724
REMARK INTER + INTRA:          -4.534
REMARK INTER:                  -4.465
REMARK INTRA:                  -0.069
REMARK UNBOUND:                -0.132
REMARK SMILES CCCCCC(=O)[O-]
REMARK SMILES IDX 4 1 5 2 6 3 7 4 8 5 3 6 2 7 1 8
REMARK H PARENT
REMARK Flexibility Score: inf
ROOT
ATOM      1  C   UNL     1      47.397  14.711  95.349  1.00  0.00     0.006 C 
ENDROOT
BRANCH   1   2
ATOM      2  C   UNL     1      46.722  13.481  95.970  1.00  0.00     0.053 C 
BRANCH   2   3
ATOM      3  C   UNL     1      46.287  12.497  94.927  1.00  0.00     0.041 C 
ATOM      4  O   UNL     1      46.265  12.831  93.713  1.00  0.00    -0.550 OA
ATOM      5  O   UNL     1      45.876  11.224  95.299  1.00  0.00    -0.550 OA
ENDBRANCH   2   3
ENDBRANCH   1   2
BRANCH   1   6
ATOM      6  C   UNL     1      48.824  14.924  95.886  1.00  0.00     0.000 C 
BRANCH   6   7
ATOM      7  C   UNL     1      49.241  16.402  95.881  1.00  0.00    -0.003 C 
ATOM      8  C   UNL     1      50.035  16.798  97.126  1.00  0.00     0.004 C 
ENDBRANCH   6   7
ENDBRANCH   1   6
TORSDOF 4
ENDMDL
MODEL 3
REMARK VINA RESULT:    -3.549     12.553     13.128
REMARK INTER + INTRA:          -4.511
REMARK INTER:                  -4.457
REMARK INTRA:                  -0.055
REMARK UNBOUND:                -0.132
REMARK SMILES CCCCCC(=O)[O-]
REMARK SMILES IDX 4 1 5 2 6 3 7 4 8 5 3 6 2 7 1 8
REMARK H PARENT
REMARK Flexibility Score: inf
ROOT
ATOM      1  C   UNL     1      47.580  14.890  95.448  1.00  0.00     0.006 C 
ENDROOT
BRANCH   1   2
ATOM      2  C   UNL     1      49.011  14.972  95.994  1.00  0.00     0.053 C 
BRANCH   2   3
ATOM      3  C   UNL     1      49.423  16.384  96.274  1.00  0.00     0.041 C 
ATOM      4  O   UNL     1      49.181  17.292  95.434  1.00  0.00    -0.550 OA
ATOM      5  O   UNL     1      50.101  16.694  97.445  1.00  0.00    -0.550 OA
ENDBRANCH   2   3
ENDBRANCH   1   2
BRANCH   1   6
ATOM      6  C   UNL     1      46.853  13.614  95.909  1.00  0.00     0.000 C 
BRANCH   6   7
ATOM      7  C   UNL     1      46.439  12.715  94.734  1.00  0.00    -0.003 C 
ATOM      8  C   UNL     1      46.143  11.278  95.164  1.00  0.00     0.004 C 
ENDBRANCH   6   7
ENDBRANCH   1   6
TORSDOF 4
ENDMDL
MODEL 4
REMARK VINA RESULT:    -3.476      2.225      2.838
REMARK INTER + INTRA:          -4.421
REMARK INTER:                  -4.276
REMARK INTRA:                  -0.145
REMARK UNBOUND:                -0.132
REMARK SMILES CCCCCC(=O)[O-]
REMARK SMILES IDX 4 1 5 2 6 3 7 4 8 5 3 6 2 7 1 8
REMARK H PARENT
REMARK Flexibility Score: inf
ROOT
ATOM      1  C   UNL     1      57.283  11.301  88.513  1.00  0.00     0.006 C 
ENDROOT
BRANCH   1   2
ATOM      2  C   UNL     1      58.719  11.265  89.051  1.00  0.00     0.053 C 
BRANCH   2   3
ATOM      3  C   UNL     1      58.903  10.195  90.083  1.00  0.00     0.041 C 
ATOM      4  O   UNL     1      57.926   9.482  90.436  1.00  0.00    -0.550 OA
ATOM      5  O   UNL     1      60.143  10.004  90.677  1.00  0.00    -0.550 OA
ENDBRANCH   2   3
ENDBRANCH   1   2
BRANCH   1   6
ATOM      6  C   UNL     1      56.529  12.570  88.952  1.00  0.00     0.000 C 
BRANCH   6   7
ATOM      7  C   UNL     1      57.387  13.488  89.835  1.00  0.00    -0.003 C 
ATOM      8  C   UNL     1      57.477  14.915  89.294  1.00  0.00     0.004 C 
ENDBRANCH   6   7
ENDBRANCH   1   6
TORSDOF 4
ENDMDL
MODEL 5
REMARK VINA RESULT:    -3.411      2.034      3.496
REMARK INTER + INTRA:          -4.341
REMARK INTER:                  -4.084
REMARK INTRA:                  -0.257
REMARK UNBOUND:                -0.132
REMARK SMILES CCCCCC(=O)[O-]
REMARK SMILES IDX 4 1 5 2 6 3 7 4 8 5 3 6 2 7 1 8
REMARK H PARENT
REMARK Flexibility Score: inf
ROOT
ATOM      1  C   UNL     1      57.842   9.947  90.258  1.00  0.00     0.006 C 
ENDROOT
BRANCH   1   2
ATOM      2  C   UNL     1      56.663  10.429  91.114  1.00  0.00     0.053 C 
BRANCH   2   3
ATOM      3  C   UNL     1      56.899  11.802  91.666  1.00  0.00     0.041 C 
ATOM      4  O   UNL     1      56.087  12.732  91.416  1.00  0.00    -0.550 OA
ATOM      5  O   UNL     1      58.029  12.061  92.431  1.00  0.00    -0.550 OA
ENDBRANCH   2   3
ENDBRANCH   1   2
BRANCH   1   6
ATOM      6  C   UNL     1      58.228  10.968  89.172  1.00  0.00     0.000 C 
BRANCH   6   7
ATOM      7  C   UNL     1      59.729  11.290  89.174  1.00  0.00    -0.003 C 
ATOM      8  C   UNL     1      60.486  10.585  90.299  1.00  0.00     0.004 C 
ENDBRANCH   6   7
ENDBRANCH   1   6
TORSDOF 4
ENDMDL
MODEL 6
REMARK VINA RESULT:    -3.375      2.928      4.184
REMARK INTER + INTRA:          -4.297
REMARK INTER:                  -4.039
REMARK INTRA:                  -0.258
REMARK UNBOUND:                -0.132
REMARK SMILES CCCCCC(=O)[O-]
REMARK SMILES IDX 4 1 5 2 6 3 7 4 8 5 3 6 2 7 1 8
REMARK H PARENT
REMARK Flexibility Score: inf
ROOT
ATOM      1  C   UNL     1      56.903  11.486  88.446  1.00  0.00     0.006 C 
ENDROOT
BRANCH   1   2
ATOM      2  C   UNL     1      56.186  12.817  88.705  1.00  0.00     0.053 C 
BRANCH   2   3
ATOM      3  C   UNL     1      56.015  13.084  90.170  1.00  0.00     0.041 C 
ATOM      4  O   UNL     1      55.207  12.396  90.847  1.00  0.00    -0.550 OA
ATOM      5  O   UNL     1      56.725  14.111  90.779  1.00  0.00    -0.550 OA
ENDBRANCH   2   3
ENDBRANCH   1   2
BRANCH   1   6
ATOM      6  C   UNL     1      58.357  11.501  88.949  1.00  0.00     0.000 C 
BRANCH   6   7
ATOM      7  C   UNL     1      58.653  10.359  89.933  1.00  0.00    -0.003 C 
ATOM      8  C   UNL     1      57.388   9.645  90.409  1.00  0.00     0.004 C 
ENDBRANCH   6   7
ENDBRANCH   1   6
TORSDOF 4
ENDMDL
MODEL 7
REMARK VINA RESULT:    -3.327      1.863      2.158
REMARK INTER + INTRA:          -4.237
REMARK INTER:                  -3.965
REMARK INTRA:                  -0.272
REMARK UNBOUND:                -0.132
REMARK SMILES CCCCCC(=O)[O-]
REMARK SMILES IDX 4 1 5 2 6 3 7 4 8 5 3 6 2 7 1 8
REMARK H PARENT
REMARK Flexibility Score: inf
ROOT
ATOM      1  C   UNL     1      58.854  10.389  89.996  1.00  0.00     0.006 C 
ENDROOT
BRANCH   1   2
ATOM      2  C   UNL     1      59.554  11.141  91.136  1.00  0.00     0.053 C 
BRANCH   2   3
ATOM      3  C   UNL     1      58.663  12.177  91.752  1.00  0.00     0.041 C 
ATOM      4  O   UNL     1      57.535  11.851  92.206  1.00  0.00    -0.550 OA
ATOM      5  O   UNL     1      59.066  13.505  91.796  1.00  0.00    -0.550 OA
ENDBRANCH   2   3
ENDBRANCH   1   2
BRANCH   1   6
ATOM      6  C   UNL     1      58.533  11.308  88.804  1.00  0.00     0.000 C 
BRANCH   6   7
ATOM      7  C   UNL     1      57.045  11.283  88.424  1.00  0.00    -0.003 C 
ATOM      8  C   UNL     1      56.304  12.551  88.846  1.00  0.00     0.004 C 
ENDBRANCH   6   7
ENDBRANCH   1   6
TORSDOF 4
ENDMDL
MODEL 8
REMARK VINA RESULT:    -3.292      2.291      3.743
REMARK INTER + INTRA:          -4.194
REMARK INTER:                  -4.036
REMARK INTRA:                  -0.157
REMARK UNBOUND:                -0.132
REMARK SMILES CCCCCC(=O)[O-]
REMARK SMILES IDX 4 1 5 2 6 3 7 4 8 5 3 6 2 7 1 8
REMARK H PARENT
REMARK Flexibility Score: inf
ROOT
ATOM      1  C   UNL     1      57.603  11.343  88.932  1.00  0.00     0.006 C 
ENDROOT
BRANCH   1   2
ATOM      2  C   UNL     1      57.142  12.778  89.216  1.00  0.00     0.053 C 
BRANCH   2   3
ATOM      3  C   UNL     1      57.632  13.271  90.543  1.00  0.00     0.041 C 
ATOM      4  O   UNL     1      57.183  12.771  91.608  1.00  0.00    -0.550 OA
ATOM      5  O   UNL     1      58.561  14.301  90.604  1.00  0.00    -0.550 OA
ENDBRANCH   2   3
ENDBRANCH   1   2
BRANCH   1   6
ATOM      6  C   UNL     1      59.116  11.164  89.155  1.00  0.00     0.000 C 
BRANCH   6   7
ATOM      7  C   UNL     1      59.432  10.153  90.267  1.00  0.00    -0.003 C 
ATOM      8  C   UNL     1      60.733  10.470  91.004  1.00  0.00     0.004 C 
ENDBRANCH   6   7
ENDBRANCH   1   6
TORSDOF 4
ENDMDL
MODEL 9
REMARK VINA RESULT:    -3.288     16.365     17.523
REMARK INTER + INTRA:          -4.189
REMARK INTER:                  -4.080
REMARK INTRA:                  -0.110
REMARK UNBOUND:                -0.132
REMARK SMILES CCCCCC(=O)[O-]
REMARK SMILES IDX 4 1 5 2 6 3 7 4 8 5 3 6 2 7 1 8
REMARK H PARENT
REMARK Flexibility Score: inf
ROOT
ATOM      1  C   UNL     1      62.687   2.925 106.020  1.00  0.00     0.006 C 
ENDROOT
BRANCH   1   2
ATOM      2  C   UNL     1      61.746   4.073 105.631  1.00  0.00     0.053 C 
BRANCH   2   3
ATOM      3  C   UNL     1      60.546   3.582 104.880  1.00  0.00     0.041 C 
ATOM      4  O   UNL     1      59.728   4.404 104.390  1.00  0.00    -0.550 OA
ATOM      5  O   UNL     1      60.316   2.219 104.749  1.00  0.00    -0.550 OA
ENDBRANCH   2   3
ENDBRANCH   1   2
BRANCH   1   6
ATOM      6  C   UNL     1      64.158   3.373 106.077  1.00  0.00     0.000 C 
BRANCH   6   7
ATOM      7  C   UNL     1      64.346   4.835 105.644  1.00  0.00    -0.003 C 
ATOM      8  C   UNL     1      65.816   5.251 105.585  1.00  0.00     0.004 C 
ENDBRANCH   6   7
ENDBRANCH   1   6
TORSDOF 4
ENDMDL
