MODEL 1
REMARK VINA RESULT:    -3.935      0.000      0.000
REMARK INTER + INTRA:          -5.604
REMARK INTER:                  -6.005
REMARK INTRA:                   0.400
REMARK UNBOUND:                 0.400
REMARK SMILES CC1=CCC[C@@H](C)C(=O)C[C@@H](C(C)C)C(=O)C1
REMARK SMILES IDX 8 1 9 2 6 3 7 4 5 5 4 6 3 7 2 8 1 9 10 11 11 12 15 13 16 14
REMARK SMILES IDX 17 15 12 17 13 18 14 19
REMARK H PARENT
REMARK Flexibility Score: 70.00
ROOT
ATOM      1  C   UNL     1       6.036  13.060  -6.335  1.00  0.00     0.136 C 
ATOM      2  O   UNL     1       6.069  12.507  -5.245  1.00  0.00    -0.299 OA
ENDROOT
BRANCH   1   3
ATOM      3  C   UNL     1       6.249  12.256  -7.599  1.00  0.00     0.053 C 
ATOM      4  C   UNL     1       6.600  13.202  -8.752  1.00  0.00     0.016 C 
BRANCH   3   5
ATOM      5  C   UNL     1       5.024  11.391  -7.969  1.00  0.00     0.015 C 
BRANCH   5   6
ATOM      6  C   UNL     1       4.183  11.974  -9.122  1.00  0.00     0.028 C 
BRANCH   6   7
ATOM      7  C   UNL     1       2.849  12.490  -8.628  1.00  0.00    -0.028 C 
ATOM      8  C   UNL     1       2.468  13.787  -8.560  1.00  0.00    -0.070 CG0
ATOM      9  C   UNL     1       1.095  14.091  -8.013  1.00  0.00     0.039 C 
ATOM     10  G   UNL     1       3.315  14.938  -9.058  1.00  0.00     0.000 G0
ENDBRANCH   6   7
ENDBRANCH   5   6
ENDBRANCH   3   5
ENDBRANCH   1   3
BRANCH   1  11
ATOM     11  C   UNL     1       5.741  14.539  -6.411  1.00  0.00     0.087 C 
BRANCH  11  12
ATOM     12  C   UNL     1       4.232  14.834  -6.591  1.00  0.00     0.066 C 
BRANCH  12  13
ATOM     13  C   UNL     1       4.011  15.578  -7.895  1.00  0.00     0.140 C 
ATOM     14  O   UNL     1       4.419  16.726  -8.012  1.00  0.00    -0.299 OA
BRANCH  13  15
ATOM     15  C   UNL     1       3.283  14.942  -9.049  1.00  0.00     0.106 CG0
ATOM     16  G   UNL     1       2.462  13.766  -8.567  1.00  0.00     0.000 G0
ENDBRANCH  13  15
ENDBRANCH  12  13
BRANCH  12  17
ATOM     17  C   UNL     1       3.638  15.649  -5.398  1.00  0.00    -0.006 C 
ATOM     18  C   UNL     1       4.667  16.614  -4.782  1.00  0.00     0.008 C 
ATOM     19  C   UNL     1       3.110  14.714  -4.294  1.00  0.00     0.008 C 
ENDBRANCH  12  17
ENDBRANCH  11  12
ENDBRANCH   1  11
TORSDOF 1
ENDMDL
MODEL 2
REMARK VINA RESULT:    -3.629      1.942      3.595
REMARK INTER + INTRA:          -5.138
REMARK INTER:                  -6.475
REMARK INTRA:                   1.337
REMARK UNBOUND:                 0.400
REMARK SMILES CC1=CCC[C@@H](C)C(=O)C[C@@H](C(C)C)C(=O)C1
REMARK SMILES IDX 8 1 9 2 6 3 7 4 5 5 4 6 3 7 2 8 1 9 10 11 11 12 15 13 16 14
REMARK SMILES IDX 17 15 12 17 13 18 14 19
REMARK H PARENT
REMARK Flexibility Score: 70.00
ROOT
ATOM      1  C   UNL     1       2.379  13.668  -8.036  1.00  0.00     0.136 C 
ATOM      2  O   UNL     1       1.478  14.386  -8.444  1.00  0.00    -0.299 OA
ENDROOT
BRANCH   1   3
ATOM      3  C   UNL     1       2.944  12.582  -8.926  1.00  0.00     0.053 C 
ATOM      4  C   UNL     1       2.588  11.210  -8.344  1.00  0.00     0.016 C 
BRANCH   3   5
ATOM      5  C   UNL     1       4.472  12.703  -9.118  1.00  0.00     0.015 C 
BRANCH   5   6
ATOM      6  C   UNL     1       5.245  11.427  -8.730  1.00  0.00     0.028 C 
BRANCH   6   7
ATOM      7  C   UNL     1       5.752  11.498  -7.306  1.00  0.00    -0.028 C 
ATOM      8  C   UNL     1       6.110  12.619  -6.638  1.00  0.00    -0.070 CG0
ATOM      9  C   UNL     1       6.614  12.468  -5.224  1.00  0.00     0.039 C 
ATOM     10  G   UNL     1       5.976  14.014  -7.208  1.00  0.00     0.000 G0
ENDBRANCH   6   7
ENDBRANCH   5   6
ENDBRANCH   3   5
ENDBRANCH   1   3
BRANCH   1  11
ATOM     11  C   UNL     1       2.950  13.900  -6.657  1.00  0.00     0.087 C 
BRANCH  11  12
ATOM     12  C   UNL     1       3.741  15.227  -6.559  1.00  0.00     0.066 C 
BRANCH  12  13
ATOM     13  C   UNL     1       5.208  14.927  -6.309  1.00  0.00     0.140 C 
ATOM     14  O   UNL     1       5.777  15.445  -5.357  1.00  0.00    -0.299 OA
BRANCH  13  15
ATOM     15  C   UNL     1       5.991  14.018  -7.219  1.00  0.00     0.106 CG0
ATOM     16  G   UNL     1       6.111  12.639  -6.605  1.00  0.00     0.000 G0
ENDBRANCH  13  15
ENDBRANCH  12  13
BRANCH  12  17
ATOM     17  C   UNL     1       3.186  16.170  -5.444  1.00  0.00    -0.006 C 
ATOM     18  C   UNL     1       1.668  16.008  -5.247  1.00  0.00     0.008 C 
ATOM     19  C   UNL     1       3.493  17.646  -5.761  1.00  0.00     0.008 C 
ENDBRANCH  12  17
ENDBRANCH  11  12
ENDBRANCH   1  11
TORSDOF 1
ENDMDL
MODEL 3
REMARK VINA RESULT:    -3.165      1.752      3.305
REMARK INTER + INTRA:          -4.430
REMARK INTER:                  -6.202
REMARK INTRA:                   1.772
REMARK UNBOUND:                 0.400
REMARK SMILES CC1=CCC[C@@H](C)C(=O)C[C@@H](C(C)C)C(=O)C1
REMARK SMILES IDX 8 1 9 2 6 3 7 4 5 5 4 6 3 7 2 8 1 9 10 11 11 12 15 13 16 14
REMARK SMILES IDX 17 15 12 17 13 18 14 19
REMARK H PARENT
REMARK Flexibility Score: 70.00
ROOT
ATOM      1  C   UNL     1       4.431  12.112  -7.686  1.00  0.00     0.136 C 
ATOM      2  O   UNL     1       5.208  11.509  -8.412  1.00  0.00    -0.299 OA
ENDROOT
BRANCH   1   3
ATOM      3  C   UNL     1       2.941  12.033  -7.938  1.00  0.00     0.053 C 
ATOM      4  C   UNL     1       2.546  10.577  -8.206  1.00  0.00     0.016 C 
BRANCH   3   5
ATOM      5  C   UNL     1       2.485  12.937  -9.104  1.00  0.00     0.015 C 
BRANCH   5   6
ATOM      6  C   UNL     1       1.912  14.292  -8.646  1.00  0.00     0.028 C 
BRANCH   6   7
ATOM      7  C   UNL     1       1.761  14.348  -7.141  1.00  0.00    -0.028 C 
ATOM      8  C   UNL     1       2.541  15.045  -6.283  1.00  0.00    -0.070 CG0
ATOM      9  C   UNL     1       2.233  14.947  -4.809  1.00  0.00     0.039 C 
ATOM     10  G   UNL     1       3.663  15.960  -6.723  1.00  0.00     0.000 G0
ENDBRANCH   6   7
ENDBRANCH   5   6
ENDBRANCH   3   5
ENDBRANCH   1   3
BRANCH   1  11
ATOM     11  C   UNL     1       4.967  12.899  -6.514  1.00  0.00     0.087 C 
BRANCH  11  12
ATOM     12  C   UNL     1       5.649  14.219  -6.949  1.00  0.00     0.066 C 
BRANCH  12  13
ATOM     13  C   UNL     1       4.981  15.390  -6.252  1.00  0.00     0.140 C 
ATOM     14  O   UNL     1       5.516  15.895  -5.273  1.00  0.00    -0.299 OA
BRANCH  13  15
ATOM     15  C   UNL     1       3.662  15.939  -6.725  1.00  0.00     0.106 CG0
ATOM     16  G   UNL     1       2.528  15.047  -6.266  1.00  0.00     0.000 G0
ENDBRANCH  13  15
ENDBRANCH  12  13
BRANCH  12  17
ATOM     17  C   UNL     1       5.618  14.424  -8.497  1.00  0.00    -0.006 C 
ATOM     18  C   UNL     1       7.024  14.361  -9.122  1.00  0.00     0.008 C 
ATOM     19  C   UNL     1       4.968  15.770  -8.867  1.00  0.00     0.008 C 
ENDBRANCH  12  17
ENDBRANCH  11  12
ENDBRANCH   1  11
TORSDOF 1
ENDMDL
MODEL 4
REMARK VINA RESULT:    -3.027      1.958      4.091
REMARK INTER + INTRA:          -4.219
REMARK INTER:                  -5.118
REMARK INTRA:                   0.900
REMARK UNBOUND:                 0.400
REMARK SMILES CC1=CCC[C@@H](C)C(=O)C[C@@H](C(C)C)C(=O)C1
REMARK SMILES IDX 8 1 9 2 6 3 7 4 5 5 4 6 3 7 2 8 1 9 10 11 11 12 15 13 16 14
REMARK SMILES IDX 17 15 12 17 13 18 14 19
REMARK H PARENT
REMARK Flexibility Score: 70.00
ROOT
ATOM      1  C   UNL     1       2.878  12.555  -8.054  1.00  0.00     0.136 C 
ATOM      2  O   UNL     1       2.603  11.425  -7.676  1.00  0.00    -0.299 OA
ENDROOT
BRANCH   1   3
ATOM      3  C   UNL     1       1.781  13.582  -8.230  1.00  0.00     0.053 C 
ATOM      4  C   UNL     1       2.322  14.773  -9.027  1.00  0.00     0.016 C 
BRANCH   3   5
ATOM      5  C   UNL     1       1.189  14.060  -6.886  1.00  0.00     0.015 C 
BRANCH   5   6
ATOM      6  C   UNL     1       2.258  14.442  -5.844  1.00  0.00     0.028 C 
BRANCH   6   7
ATOM      7  C   UNL     1       2.484  15.938  -5.805  1.00  0.00    -0.028 C 
ATOM      8  C   UNL     1       3.682  16.566  -5.768  1.00  0.00    -0.070 CG0
ATOM      9  C   UNL     1       3.687  18.074  -5.711  1.00  0.00     0.039 C 
ATOM     10  G   UNL     1       5.011  15.845  -5.843  1.00  0.00     0.000 G0
ENDBRANCH   6   7
ENDBRANCH   5   6
ENDBRANCH   3   5
ENDBRANCH   1   3
BRANCH   1  11
ATOM     11  C   UNL     1       4.320  12.926  -8.301  1.00  0.00     0.087 C 
BRANCH  11  12
ATOM     12  C   UNL     1       5.019  13.469  -7.030  1.00  0.00     0.066 C 
BRANCH  12  13
ATOM     13  C   UNL     1       5.093  14.983  -7.097  1.00  0.00     0.140 C 
ATOM     14  O   UNL     1       5.234  15.533  -8.182  1.00  0.00    -0.299 OA
BRANCH  13  15
ATOM     15  C   UNL     1       5.016  15.830  -5.855  1.00  0.00     0.106 CG0
ATOM     16  G   UNL     1       3.681  16.540  -5.786  1.00  0.00     0.000 G0
ENDBRANCH  13  15
ENDBRANCH  12  13
BRANCH  12  17
ATOM     17  C   UNL     1       6.447  12.867  -6.833  1.00  0.00    -0.006 C 
ATOM     18  C   UNL     1       6.711  11.675  -7.771  1.00  0.00     0.008 C 
ATOM     19  C   UNL     1       6.663  12.413  -5.377  1.00  0.00     0.008 C 
ENDBRANCH  12  17
ENDBRANCH  11  12
ENDBRANCH   1  11
TORSDOF 1
ENDMDL
MODEL 5
REMARK VINA RESULT:    -2.868      1.655      3.779
REMARK INTER + INTRA:          -3.977
REMARK INTER:                  -6.134
REMARK INTRA:                   2.157
REMARK UNBOUND:                 0.400
REMARK SMILES CC1=CCC[C@@H](C)C(=O)C[C@@H](C(C)C)C(=O)C1
REMARK SMILES IDX 8 1 9 2 6 3 7 4 5 5 4 6 3 7 2 8 1 9 10 11 11 12 15 13 16 14
REMARK SMILES IDX 17 15 12 17 13 18 14 19
REMARK H PARENT
REMARK Flexibility Score: 70.00
ROOT
ATOM      1  C   UNL     1       4.749  15.914  -5.513  1.00  0.00     0.136 C 
ATOM      2  O   UNL     1       4.721  16.409  -4.396  1.00  0.00    -0.299 OA
ENDROOT
BRANCH   1   3
ATOM      3  C   UNL     1       3.916  16.509  -6.628  1.00  0.00     0.053 C 
ATOM      4  C   UNL     1       2.457  16.611  -6.174  1.00  0.00     0.016 C 
BRANCH   3   5
ATOM      5  C   UNL     1       4.015  15.702  -7.942  1.00  0.00     0.015 C 
BRANCH   5   6
ATOM      6  C   UNL     1       2.656  15.176  -8.445  1.00  0.00     0.028 C 
BRANCH   6   7
ATOM      7  C   UNL     1       2.721  13.700  -8.772  1.00  0.00    -0.028 C 
ATOM      8  C   UNL     1       2.629  12.680  -7.888  1.00  0.00    -0.070 CG0
ATOM      9  C   UNL     1       2.742  11.273  -8.421  1.00  0.00     0.039 C 
ATOM     10  G   UNL     1       2.361  12.869  -6.411  1.00  0.00     0.000 G0
ENDBRANCH   6   7
ENDBRANCH   5   6
ENDBRANCH   3   5
ENDBRANCH   1   3
BRANCH   1  11
ATOM     11  C   UNL     1       5.651  14.733  -5.780  1.00  0.00     0.087 C 
BRANCH  11  12
ATOM     12  C   UNL     1       4.902  13.554  -6.451  1.00  0.00     0.066 C 
BRANCH  12  13
ATOM     13  C   UNL     1       3.621  13.267  -5.690  1.00  0.00     0.140 C 
ATOM     14  O   UNL     1       3.613  13.349  -4.468  1.00  0.00    -0.299 OA
BRANCH  13  15
ATOM     15  C   UNL     1       2.358  12.863  -6.401  1.00  0.00     0.106 CG0
ATOM     16  G   UNL     1       2.627  12.671  -7.878  1.00  0.00     0.000 G0
ENDBRANCH  13  15
ENDBRANCH  12  13
BRANCH  12  17
ATOM     17  C   UNL     1       5.779  12.265  -6.538  1.00  0.00    -0.006 C 
ATOM     18  C   UNL     1       6.830  12.197  -5.414  1.00  0.00     0.008 C 
ATOM     19  C   UNL     1       6.497  12.171  -7.897  1.00  0.00     0.008 C 
ENDBRANCH  12  17
ENDBRANCH  11  12
ENDBRANCH   1  11
TORSDOF 1
ENDMDL
MODEL 6
REMARK VINA RESULT:    -2.666      1.695      4.098
REMARK INTER + INTRA:          -3.668
REMARK INTER:                  -4.860
REMARK INTRA:                   1.192
REMARK UNBOUND:                 0.400
REMARK SMILES CC1=CCC[C@@H](C)C(=O)C[C@@H](C(C)C)C(=O)C1
REMARK SMILES IDX 8 1 9 2 6 3 7 4 5 5 4 6 3 7 2 8 1 9 10 11 11 12 15 13 16 14
REMARK SMILES IDX 17 15 12 17 13 18 14 19
REMARK H PARENT
REMARK Flexibility Score: 70.00
ROOT
ATOM      1  C   UNL     1       4.581  16.149  -5.250  1.00  0.00     0.136 C 
ATOM      2  O   UNL     1       4.492  15.944  -4.047  1.00  0.00    -0.299 OA
ENDROOT
BRANCH   1   3
ATOM      3  C   UNL     1       3.717  17.206  -5.904  1.00  0.00     0.053 C 
ATOM      4  C   UNL     1       4.116  18.587  -5.376  1.00  0.00     0.016 C 
BRANCH   3   5
ATOM      5  C   UNL     1       2.208  16.962  -5.684  1.00  0.00     0.015 C 
BRANCH   5   6
ATOM      6  C   UNL     1       1.814  15.472  -5.710  1.00  0.00     0.028 C 
BRANCH   6   7
ATOM      7  C   UNL     1       1.645  14.969  -7.127  1.00  0.00    -0.028 C 
ATOM      8  C   UNL     1       2.131  13.810  -7.629  1.00  0.00    -0.070 CG0
ATOM      9  C   UNL     1       1.867  13.505  -9.083  1.00  0.00     0.039 C 
ATOM     10  G   UNL     1       2.868  12.780  -6.801  1.00  0.00     0.000 G0
ENDBRANCH   6   7
ENDBRANCH   5   6
ENDBRANCH   3   5
ENDBRANCH   1   3
BRANCH   1  11
ATOM     11  C   UNL     1       5.585  15.370  -6.065  1.00  0.00     0.087 C 
BRANCH  11  12
ATOM     12  C   UNL     1       4.911  14.401  -7.067  1.00  0.00     0.066 C 
BRANCH  12  13
ATOM     13  C   UNL     1       4.174  13.314  -6.306  1.00  0.00     0.140 C 
ATOM     14  O   UNL     1       4.654  12.869  -5.271  1.00  0.00    -0.299 OA
BRANCH  13  15
ATOM     15  C   UNL     1       2.869  12.752  -6.804  1.00  0.00     0.106 CG0
ATOM     16  G   UNL     1       2.127  13.791  -7.616  1.00  0.00     0.000 G0
ENDBRANCH  13  15
ENDBRANCH  12  13
BRANCH  12  17
ATOM     17  C   UNL     1       5.935  13.764  -8.060  1.00  0.00    -0.006 C 
ATOM     18  C   UNL     1       6.556  14.809  -9.006  1.00  0.00     0.008 C 
ATOM     19  C   UNL     1       5.277  12.657  -8.904  1.00  0.00     0.008 C 
ENDBRANCH  12  17
ENDBRANCH  11  12
ENDBRANCH   1  11
TORSDOF 1
ENDMDL
MODEL 7
REMARK VINA RESULT:    -2.615      1.962      4.520
REMARK INTER + INTRA:          -3.591
REMARK INTER:                  -5.857
REMARK INTRA:                   2.266
REMARK UNBOUND:                 0.400
REMARK SMILES CC1=CCC[C@@H](C)C(=O)C[C@@H](C(C)C)C(=O)C1
REMARK SMILES IDX 8 1 9 2 6 3 7 4 5 5 4 6 3 7 2 8 1 9 10 11 11 12 15 13 16 14
REMARK SMILES IDX 17 15 12 17 13 18 14 19
REMARK H PARENT
REMARK Flexibility Score: 70.00
ROOT
ATOM      1  C   UNL     1       3.161  14.207  -5.220  1.00  0.00     0.136 C 
ATOM      2  O   UNL     1       3.381  13.483  -4.260  1.00  0.00    -0.299 OA
ENDROOT
BRANCH   1   3
ATOM      3  C   UNL     1       3.207  15.711  -5.061  1.00  0.00     0.053 C 
ATOM      4  C   UNL     1       1.803  16.288  -5.266  1.00  0.00     0.016 C 
BRANCH   3   5
ATOM      5  C   UNL     1       4.210  16.383  -6.025  1.00  0.00     0.015 C 
BRANCH   5   6
ATOM      6  C   UNL     1       3.744  16.384  -7.494  1.00  0.00     0.028 C 
BRANCH   6   7
ATOM      7  C   UNL     1       4.766  15.731  -8.399  1.00  0.00    -0.028 C 
ATOM      8  C   UNL     1       5.636  14.754  -8.051  1.00  0.00    -0.070 CG0
ATOM      9  C   UNL     1       6.593  14.253  -9.104  1.00  0.00     0.039 C 
ATOM     10  G   UNL     1       5.659  14.098  -6.688  1.00  0.00     0.000 G0
ENDBRANCH   6   7
ENDBRANCH   5   6
ENDBRANCH   3   5
ENDBRANCH   1   3
BRANCH   1  11
ATOM     11  C   UNL     1       2.885  13.589  -6.570  1.00  0.00     0.087 C 
BRANCH  11  12
ATOM     12  C   UNL     1       3.726  12.313  -6.821  1.00  0.00     0.066 C 
BRANCH  12  13
ATOM     13  C   UNL     1       5.203  12.661  -6.782  1.00  0.00     0.140 C 
ATOM     14  O   UNL     1       6.035  11.764  -6.824  1.00  0.00    -0.299 OA
BRANCH  13  15
ATOM     15  C   UNL     1       5.672  14.087  -6.673  1.00  0.00     0.106 CG0
ATOM     16  G   UNL     1       5.631  14.758  -8.029  1.00  0.00     0.000 G0
ENDBRANCH  13  15
ENDBRANCH  12  13
BRANCH  12  17
ATOM     17  C   UNL     1       3.370  11.624  -8.177  1.00  0.00    -0.006 C 
ATOM     18  C   UNL     1       2.571  12.552  -9.111  1.00  0.00     0.008 C 
ATOM     19  C   UNL     1       2.563  10.332  -7.949  1.00  0.00     0.008 C 
ENDBRANCH  12  17
ENDBRANCH  11  12
ENDBRANCH   1  11
TORSDOF 1
ENDMDL
MODEL 8
REMARK VINA RESULT:    -2.588      1.878      3.251
REMARK INTER + INTRA:          -3.549
REMARK INTER:                  -6.096
REMARK INTRA:                   2.547
REMARK UNBOUND:                 0.400
REMARK SMILES CC1=CCC[C@@H](C)C(=O)C[C@@H](C(C)C)C(=O)C1
REMARK SMILES IDX 8 1 9 2 6 3 7 4 5 5 4 6 3 7 2 8 1 9 10 11 11 12 15 13 16 14
REMARK SMILES IDX 17 15 12 17 13 18 14 19
REMARK H PARENT
REMARK Flexibility Score: 70.00
ROOT
ATOM      1  C   UNL     1       2.598  13.270  -7.463  1.00  0.00     0.136 C 
ATOM      2  O   UNL     1       1.958  12.962  -6.468  1.00  0.00    -0.299 OA
ENDROOT
BRANCH   1   3
ATOM      3  C   UNL     1       3.280  12.199  -8.287  1.00  0.00     0.053 C 
ATOM      4  C   UNL     1       2.230  11.434  -9.098  1.00  0.00     0.016 C 
BRANCH   3   5
ATOM      5  C   UNL     1       4.110  11.222  -7.425  1.00  0.00     0.015 C 
BRANCH   5   6
ATOM      6  C   UNL     1       5.632  11.435  -7.545  1.00  0.00     0.028 C 
BRANCH   6   7
ATOM      7  C   UNL     1       5.957  12.608  -8.444  1.00  0.00    -0.028 C 
ATOM      8  C   UNL     1       6.083  13.900  -8.062  1.00  0.00    -0.070 CG0
ATOM      9  C   UNL     1       6.390  14.925  -9.125  1.00  0.00     0.039 C 
ATOM     10  G   UNL     1       5.993  14.362  -6.623  1.00  0.00     0.000 G0
ENDBRANCH   6   7
ENDBRANCH   5   6
ENDBRANCH   3   5
ENDBRANCH   1   3
BRANCH   1  11
ATOM     11  C   UNL     1       2.667  14.718  -7.884  1.00  0.00     0.087 C 
BRANCH  11  12
ATOM     12  C   UNL     1       3.655  15.541  -7.020  1.00  0.00     0.066 C 
BRANCH  12  13
ATOM     13  C   UNL     1       4.549  14.599  -6.235  1.00  0.00     0.140 C 
ATOM     14  O   UNL     1       4.101  14.018  -5.255  1.00  0.00    -0.299 OA
BRANCH  13  15
ATOM     15  C   UNL     1       5.987  14.375  -6.621  1.00  0.00     0.106 CG0
ATOM     16  G   UNL     1       6.078  13.930  -8.065  1.00  0.00     0.000 G0
ENDBRANCH  13  15
ENDBRANCH  12  13
BRANCH  12  17
ATOM     17  C   UNL     1       2.923  16.523  -6.052  1.00  0.00    -0.006 C 
ATOM     18  C   UNL     1       3.900  17.246  -5.106  1.00  0.00     0.008 C 
ATOM     19  C   UNL     1       1.865  15.788  -5.207  1.00  0.00     0.008 C 
ENDBRANCH  12  17
ENDBRANCH  11  12
ENDBRANCH   1  11
TORSDOF 1
ENDMDL
MODEL 9
REMARK VINA RESULT:    -2.450      2.070      4.439
REMARK INTER + INTRA:          -3.339
REMARK INTER:                  -4.055
REMARK INTRA:                   0.716
REMARK UNBOUND:                 0.400
REMARK SMILES CC1=CCC[C@@H](C)C(=O)C[C@@H](C(C)C)C(=O)C1
REMARK SMILES IDX 8 1 9 2 6 3 7 4 5 5 4 6 3 7 2 8 1 9 10 11 11 12 15 13 16 14
REMARK SMILES IDX 17 15 12 17 13 18 14 19
REMARK H PARENT
REMARK Flexibility Score: 70.00
ROOT
ATOM      1  C   UNL     1       2.492  14.627  -5.514  1.00  0.00     0.136 C 
ATOM      2  O   UNL     1       1.452  15.269  -5.510  1.00  0.00    -0.299 OA
ENDROOT
BRANCH   1   3
ATOM      3  C   UNL     1       3.755  15.228  -4.933  1.00  0.00     0.053 C 
ATOM      4  C   UNL     1       3.777  14.999  -3.418  1.00  0.00     0.016 C 
BRANCH   3   5
ATOM      5  C   UNL     1       3.900  16.732  -5.251  1.00  0.00     0.015 C 
BRANCH   5   6
ATOM      6  C   UNL     1       4.014  17.035  -6.758  1.00  0.00     0.028 C 
BRANCH   6   7
ATOM      7  C   UNL     1       5.042  16.148  -7.425  1.00  0.00    -0.028 C 
ATOM      8  C   UNL     1       4.816  15.288  -8.445  1.00  0.00    -0.070 CG0
ATOM      9  C   UNL     1       5.981  14.474  -8.953  1.00  0.00     0.039 C 
ATOM     10  G   UNL     1       3.480  15.143  -9.141  1.00  0.00     0.000 G0
ENDBRANCH   6   7
ENDBRANCH   5   6
ENDBRANCH   3   5
ENDBRANCH   1   3
BRANCH   1  11
ATOM     11  C   UNL     1       2.497  13.221  -6.062  1.00  0.00     0.087 C 
BRANCH  11  12
ATOM     12  C   UNL     1       3.154  13.133  -7.462  1.00  0.00     0.066 C 
BRANCH  12  13
ATOM     13  C   UNL     1       2.584  14.215  -8.361  1.00  0.00     0.140 C 
ATOM     14  O   UNL     1       1.370  14.319  -8.485  1.00  0.00    -0.299 OA
BRANCH  13  15
ATOM     15  C   UNL     1       3.478  15.156  -9.123  1.00  0.00     0.106 CG0
ATOM     16  G   UNL     1       4.816  15.285  -8.429  1.00  0.00     0.000 G0
ENDBRANCH  13  15
ENDBRANCH  12  13
BRANCH  12  17
ATOM     17  C   UNL     1       2.965  11.729  -8.121  1.00  0.00    -0.006 C 
ATOM     18  C   UNL     1       2.649  10.636  -7.083  1.00  0.00     0.008 C 
ATOM     19  C   UNL     1       4.218  11.314  -8.915  1.00  0.00     0.008 C 
ENDBRANCH  12  17
ENDBRANCH  11  12
ENDBRANCH   1  11
TORSDOF 1
ENDMDL
