MODEL 1
REMARK VINA RESULT:    27.466      0.000      0.000
REMARK INTER + INTRA:          32.768
REMARK INTER:                  33.086
REMARK INTRA:                  -0.318
REMARK UNBOUND:                -0.318
REMARK SMILES O=c1c(O)c(-c2ccc(O)c(O)c2)oc2cc(O)cc(O)c12
REMARK SMILES IDX 5 1 3 2 2 3 1 4 22 5 20 6 19 7 17 8 16 9 15 10 14 11 6 12
REMARK SMILES IDX 7 13 8 14 9 15 13 16 11 17 10 18 12 20 4 22 21 24 18 26
REMARK H PARENT 10 19 12 21 4 23 21 25 18 27
REMARK Flexibility Score: inf
ROOT
ATOM      1  C   UNL     1      34.155  -0.136  11.844  1.00  0.00     0.180 A 
ATOM      2  C   UNL     1      35.192  -1.069  12.016  1.00  0.00     0.208 A 
ATOM      3  C   UNL     1      35.278  -1.775  13.227  1.00  0.00     0.238 A 
ATOM      4  O   UNL     1      36.250  -2.554  13.403  1.00  0.00    -0.285 OA
ATOM      5  C   UNL     1      34.295  -1.581  14.229  1.00  0.00     0.111 A 
ATOM      6  C   UNL     1      34.257  -2.275  15.476  1.00  0.00     0.134 A 
ATOM      7  C   UNL     1      33.299  -1.924  16.433  1.00  0.00     0.093 A 
ATOM      8  C   UNL     1      32.337  -0.950  16.166  1.00  0.00     0.123 A 
ATOM      9  C   UNL     1      32.330  -0.305  14.930  1.00  0.00     0.094 A 
ATOM     10  C   UNL     1      33.297  -0.605  13.969  1.00  0.00     0.146 A 
ATOM     11  O   UNL     1      33.267   0.049  12.813  1.00  0.00    -0.452 OA
ENDROOT
BRANCH   1  12
ATOM     12  C   UNL     1      34.007   0.658  10.603  1.00  0.00     0.025 A 
ATOM     13  C   UNL     1      34.735   1.850  10.456  1.00  0.00     0.016 A 
ATOM     14  C   UNL     1      34.628   2.604   9.284  1.00  0.00     0.051 A 
ATOM     15  C   UNL     1      33.804   2.170   8.238  1.00  0.00     0.157 A 
ATOM     16  C   UNL     1      33.197   0.215   9.541  1.00  0.00     0.062 A 
ATOM     17  C   UNL     1      33.091   0.971   8.365  1.00  0.00     0.158 A 
BRANCH  15  18
ATOM     18  O   UNL     1      33.692   2.921   7.069  1.00  0.00    -0.504 OA
ATOM     19  H   UNL     1      33.439   3.901   7.091  1.00  0.00     0.293 HD
ENDBRANCH  15  18
BRANCH  17  20
ATOM     20  O   UNL     1      32.283   0.534   7.316  1.00  0.00    -0.504 OA
ATOM     21  H   UNL     1      31.320   0.258   7.468  1.00  0.00     0.293 HD
ENDBRANCH  17  20
ENDBRANCH   1  12
BRANCH   2  22
ATOM     22  O   UNL     1      36.107  -1.302  10.986  1.00  0.00    -0.502 OA
ATOM     23  H   UNL     1      35.865  -1.194  10.009  1.00  0.00     0.293 HD
ENDBRANCH   2  22
BRANCH   6  24
ATOM     24  O   UNL     1      35.116  -3.327  15.812  1.00  0.00    -0.507 OA
ATOM     25  H   UNL     1      35.386  -4.074  15.191  1.00  0.00     0.293 HD
ENDBRANCH   6  24
BRANCH   8  26
ATOM     26  O   UNL     1      31.387  -0.639  17.137  1.00  0.00    -0.508 OA
ATOM     27  H   UNL     1      31.316   0.293  17.529  1.00  0.00     0.293 HD
ENDBRANCH   8  26
TORSDOF 6
ENDMDL
MODEL 2
REMARK VINA RESULT:    27.651      1.492      6.998
REMARK INTER + INTRA:          32.991
REMARK INTER:                  33.300
REMARK INTRA:                  -0.309
REMARK UNBOUND:                -0.318
REMARK SMILES O=c1c(O)c(-c2ccc(O)c(O)c2)oc2cc(O)cc(O)c12
REMARK SMILES IDX 5 1 3 2 2 3 1 4 22 5 20 6 19 7 17 8 16 9 15 10 14 11 6 12
REMARK SMILES IDX 7 13 8 14 9 15 13 16 11 17 10 18 12 20 4 22 21 24 18 26
REMARK H PARENT 10 19 12 21 4 23 21 25 18 27
REMARK Flexibility Score: inf
ROOT
ATOM      1  C   UNL     1      33.936  -0.077  11.851  1.00  0.00     0.180 A 
ATOM      2  C   UNL     1      34.676   1.111  11.716  1.00  0.00     0.208 A 
ATOM      3  C   UNL     1      34.552   1.861  10.536  1.00  0.00     0.238 A 
ATOM      4  O   UNL     1      35.272   2.883  10.392  1.00  0.00    -0.285 OA
ATOM      5  C   UNL     1      33.647   1.445   9.528  1.00  0.00     0.111 A 
ATOM      6  C   UNL     1      33.406   2.152   8.311  1.00  0.00     0.134 A 
ATOM      7  C   UNL     1      32.568   1.590   7.341  1.00  0.00     0.093 A 
ATOM      8  C   UNL     1      31.912   0.380   7.568  1.00  0.00     0.123 A 
ATOM      9  C   UNL     1      32.098  -0.291   8.775  1.00  0.00     0.094 A 
ATOM     10  C   UNL     1      32.957   0.224   9.748  1.00  0.00     0.146 A 
ATOM     11  O   UNL     1      33.121  -0.458  10.875  1.00  0.00    -0.452 OA
ENDROOT
BRANCH   1  12
ATOM     12  C   UNL     1      34.026  -0.929  13.058  1.00  0.00     0.025 A 
ATOM     13  C   UNL     1      35.084  -1.845  13.178  1.00  0.00     0.016 A 
ATOM     14  C   UNL     1      35.201  -2.644  14.318  1.00  0.00     0.051 A 
ATOM     15  C   UNL     1      34.272  -2.529  15.360  1.00  0.00     0.157 A 
ATOM     16  C   UNL     1      33.108  -0.801  14.116  1.00  0.00     0.062 A 
ATOM     17  C   UNL     1      33.227  -1.602  15.261  1.00  0.00     0.158 A 
BRANCH  15  18
ATOM     18  O   UNL     1      34.385  -3.326  16.498  1.00  0.00    -0.504 OA
ATOM     19  H   UNL     1      35.003  -4.128  16.524  1.00  0.00     0.293 HD
ENDBRANCH  15  18
BRANCH  17  20
ATOM     20  O   UNL     1      32.312  -1.479  16.306  1.00  0.00    -0.504 OA
ATOM     21  H   UNL     1      32.320  -0.677  16.925  1.00  0.00     0.293 HD
ENDBRANCH  17  20
ENDBRANCH   1  12
BRANCH   2  22
ATOM     22  O   UNL     1      35.506   1.545  12.754  1.00  0.00    -0.502 OA
ATOM     23  H   UNL     1      35.691   2.526  12.928  1.00  0.00     0.293 HD
ENDBRANCH   2  22
BRANCH   6  24
ATOM     24  O   UNL     1      33.940   3.411   8.018  1.00  0.00    -0.507 OA
ATOM     25  H   UNL     1      33.402   4.214   7.730  1.00  0.00     0.293 HD
ENDBRANCH   6  24
BRANCH   8  26
ATOM     26  O   UNL     1      31.072  -0.140   6.586  1.00  0.00    -0.508 OA
ATOM     27  H   UNL     1      30.404   0.444   6.096  1.00  0.00     0.293 HD
ENDBRANCH   8  26
TORSDOF 6
ENDMDL
MODEL 3
REMARK VINA RESULT:    29.290      6.953     10.418
REMARK INTER + INTRA:          34.965
REMARK INTER:                  35.093
REMARK INTRA:                  -0.128
REMARK UNBOUND:                -0.318
REMARK SMILES O=c1c(O)c(-c2ccc(O)c(O)c2)oc2cc(O)cc(O)c12
REMARK SMILES IDX 5 1 3 2 2 3 1 4 22 5 20 6 19 7 17 8 16 9 15 10 14 11 6 12
REMARK SMILES IDX 7 13 8 14 9 15 13 16 11 17 10 18 12 20 4 22 21 24 18 26
REMARK H PARENT 10 19 12 21 4 23 21 25 18 27
REMARK Flexibility Score: inf
ROOT
ATOM      1  C   UNL     1      26.786   2.845  11.383  1.00  0.00     0.180 A 
ATOM      2  C   UNL     1      28.037   2.379  10.942  1.00  0.00     0.208 A 
ATOM      3  C   UNL     1      28.264   2.240   9.563  1.00  0.00     0.238 A 
ATOM      4  O   UNL     1      29.359   1.753   9.178  1.00  0.00    -0.285 OA
ATOM      5  C   UNL     1      27.259   2.622   8.641  1.00  0.00     0.111 A 
ATOM      6  C   UNL     1      27.397   2.568   7.220  1.00  0.00     0.134 A 
ATOM      7  C   UNL     1      26.298   2.872   6.408  1.00  0.00     0.093 A 
ATOM      8  C   UNL     1      25.087   3.289   6.959  1.00  0.00     0.123 A 
ATOM      9  C   UNL     1      24.959   3.398   8.344  1.00  0.00     0.094 A 
ATOM     10  C   UNL     1      26.024   3.066   9.182  1.00  0.00     0.146 A 
ATOM     11  O   UNL     1      25.852   3.165  10.496  1.00  0.00    -0.452 OA
ENDROOT
BRANCH   1  12
ATOM     12  C   UNL     1      26.466   3.003  12.820  1.00  0.00     0.025 A 
ATOM     13  C   UNL     1      26.486   1.877  13.658  1.00  0.00     0.016 A 
ATOM     14  C   UNL     1      26.209   2.005  15.022  1.00  0.00     0.051 A 
ATOM     15  C   UNL     1      25.922   3.262  15.569  1.00  0.00     0.157 A 
ATOM     16  C   UNL     1      26.199   4.266  13.378  1.00  0.00     0.062 A 
ATOM     17  C   UNL     1      25.922   4.396  14.746  1.00  0.00     0.158 A 
BRANCH  15  18
ATOM     18  O   UNL     1      25.642   3.394  16.928  1.00  0.00    -0.504 OA
ATOM     19  H   UNL     1      26.300   3.090  17.636  1.00  0.00     0.293 HD
ENDBRANCH  15  18
BRANCH  17  20
ATOM     20  O   UNL     1      25.651   5.648  15.296  1.00  0.00    -0.504 OA
ATOM     21  H   UNL     1      24.747   6.091  15.186  1.00  0.00     0.293 HD
ENDBRANCH  17  20
ENDBRANCH   1  12
BRANCH   2  22
ATOM     22  O   UNL     1      29.042   2.080  11.865  1.00  0.00    -0.502 OA
ATOM     23  H   UNL     1      28.842   1.698  12.782  1.00  0.00     0.293 HD
ENDBRANCH   2  22
BRANCH   6  24
ATOM     24  O   UNL     1      28.588   2.249   6.561  1.00  0.00    -0.507 OA
ATOM     25  H   UNL     1      29.431   2.802   6.590  1.00  0.00     0.293 HD
ENDBRANCH   6  24
BRANCH   8  26
ATOM     26  O   UNL     1      24.020   3.599   6.119  1.00  0.00    -0.508 OA
ATOM     27  H   UNL     1      24.160   4.097   5.247  1.00  0.00     0.293 HD
ENDBRANCH   8  26
TORSDOF 6
ENDMDL
