MODEL 1
REMARK VINA RESULT:    -5.262      0.000      0.000
REMARK INTER + INTRA:          -8.118
REMARK INTER:                  -7.722
REMARK INTRA:                  -0.395
REMARK UNBOUND:                -0.395
REMARK SMILES O=C([O-])CCCCCCCC(=O)[O-]
REMARK SMILES IDX 7 1 6 2 5 3 4 4 2 5 1 6 3 7 8 8 9 9 10 10 11 11 12 12 13 13
REMARK H PARENT
REMARK Flexibility Score: inf
ROOT
ATOM      1  C   UNL     1     -16.790  28.903  -0.188  1.00  0.00     0.000 C 
ENDROOT
BRANCH   1   2
ATOM      2  C   UNL     1     -17.541  27.579  -0.376  1.00  0.00     0.000 C 
BRANCH   2   3
ATOM      3  C   UNL     1     -16.815  26.429   0.337  1.00  0.00     0.006 C 
BRANCH   3   4
ATOM      4  C   UNL     1     -17.730  25.686   1.320  1.00  0.00     0.053 C 
BRANCH   4   5
ATOM      5  C   UNL     1     -18.705  24.799   0.608  1.00  0.00     0.041 C 
ATOM      6  O   UNL     1     -19.942  25.008   0.708  1.00  0.00    -0.550 OA
ATOM      7  O   UNL     1     -18.247  23.722  -0.139  1.00  0.00    -0.550 OA
ENDBRANCH   4   5
ENDBRANCH   3   4
ENDBRANCH   2   3
ENDBRANCH   1   2
BRANCH   1   8
ATOM      8  C   UNL     1     -16.243  29.029   1.239  1.00  0.00     0.000 C 
BRANCH   8   9
ATOM      9  C   UNL     1     -15.498  30.356   1.428  1.00  0.00     0.006 C 
BRANCH   9  10
ATOM     10  C   UNL     1     -16.424  31.427   2.012  1.00  0.00     0.053 C 
BRANCH  10  11
ATOM     11  C   UNL     1     -16.692  32.495   0.998  1.00  0.00     0.041 C 
ATOM     12  O   UNL     1     -16.066  33.586   1.046  1.00  0.00    -0.550 OA
ATOM     13  O   UNL     1     -17.669  32.304   0.030  1.00  0.00    -0.550 OA
ENDBRANCH  10  11
ENDBRANCH   9  10
ENDBRANCH   8   9
ENDBRANCH   1   8
TORSDOF 8
ENDMDL
MODEL 2
REMARK VINA RESULT:    -5.174      0.710      6.614
REMARK INTER + INTRA:          -7.989
REMARK INTER:                  -7.624
REMARK INTRA:                  -0.364
REMARK UNBOUND:                -0.395
REMARK SMILES O=C([O-])CCCCCCCC(=O)[O-]
REMARK SMILES IDX 7 1 6 2 5 3 4 4 2 5 1 6 3 7 8 8 9 9 10 10 11 11 12 12 13 13
REMARK H PARENT
REMARK Flexibility Score: inf
ROOT
ATOM      1  C   UNL     1     -16.252  28.108   1.765  1.00  0.00     0.000 C 
ENDROOT
BRANCH   1   2
ATOM      2  C   UNL     1     -15.877  29.471   2.362  1.00  0.00     0.000 C 
BRANCH   2   3
ATOM      3  C   UNL     1     -15.787  30.545   1.269  1.00  0.00     0.006 C 
BRANCH   3   4
ATOM      4  C   UNL     1     -16.568  31.813   1.636  1.00  0.00     0.053 C 
BRANCH   4   5
ATOM      5  C   UNL     1     -17.002  32.570   0.418  1.00  0.00     0.041 C 
ATOM      6  O   UNL     1     -16.404  33.627   0.082  1.00  0.00    -0.550 OA
ATOM      7  O   UNL     1     -18.086  32.126  -0.327  1.00  0.00    -0.550 OA
ENDBRANCH   4   5
ENDBRANCH   3   4
ENDBRANCH   2   3
ENDBRANCH   1   2
BRANCH   1   8
ATOM      8  C   UNL     1     -16.613  28.238   0.281  1.00  0.00     0.000 C 
BRANCH   8   9
ATOM      9  C   UNL     1     -17.322  26.976  -0.226  1.00  0.00     0.006 C 
BRANCH   9  10
ATOM     10  C   UNL     1     -17.673  26.040   0.934  1.00  0.00     0.053 C 
BRANCH  10  11
ATOM     11  C   UNL     1     -18.587  24.950   0.468  1.00  0.00     0.041 C 
ATOM     12  O   UNL     1     -19.803  24.960   0.794  1.00  0.00    -0.550 OA
ATOM     13  O   UNL     1     -18.084  23.897  -0.286  1.00  0.00    -0.550 OA
ENDBRANCH  10  11
ENDBRANCH   9  10
ENDBRANCH   8   9
ENDBRANCH   1   8
TORSDOF 8
ENDMDL
MODEL 3
REMARK VINA RESULT:    -5.169      0.859      6.811
REMARK INTER + INTRA:          -7.981
REMARK INTER:                  -7.630
REMARK INTRA:                  -0.352
REMARK UNBOUND:                -0.395
REMARK SMILES O=C([O-])CCCCCCCC(=O)[O-]
REMARK SMILES IDX 7 1 6 2 5 3 4 4 2 5 1 6 3 7 8 8 9 9 10 10 11 11 12 12 13 13
REMARK H PARENT
REMARK Flexibility Score: inf
ROOT
ATOM      1  C   UNL     1     -16.481  27.122   1.610  1.00  0.00     0.000 C 
ENDROOT
BRANCH   1   2
ATOM      2  C   UNL     1     -16.253  28.550   2.122  1.00  0.00     0.000 C 
BRANCH   2   3
ATOM      3  C   UNL     1     -16.064  29.529   0.954  1.00  0.00     0.006 C 
BRANCH   3   4
ATOM      4  C   UNL     1     -15.516  30.885   1.417  1.00  0.00     0.053 C 
BRANCH   4   5
ATOM      5  C   UNL     1     -16.387  32.018   0.967  1.00  0.00     0.041 C 
ATOM      6  O   UNL     1     -17.347  31.806   0.181  1.00  0.00    -0.550 OA
ATOM      7  O   UNL     1     -16.118  33.313   1.392  1.00  0.00    -0.550 OA
ENDBRANCH   4   5
ENDBRANCH   3   4
ENDBRANCH   2   3
ENDBRANCH   1   2
BRANCH   1   8
ATOM      8  C   UNL     1     -16.739  27.113   0.098  1.00  0.00     0.000 C 
BRANCH   8   9
ATOM      9  C   UNL     1     -17.640  25.938  -0.300  1.00  0.00     0.006 C 
BRANCH   9  10
ATOM     10  C   UNL     1     -18.347  25.348   0.924  1.00  0.00     0.053 C 
BRANCH  10  11
ATOM     11  C   UNL     1     -19.312  24.283   0.508  1.00  0.00     0.041 C 
ATOM     12  O   UNL     1     -18.890  23.157   0.135  1.00  0.00    -0.550 OA
ATOM     13  O   UNL     1     -20.675  24.551   0.486  1.00  0.00    -0.550 OA
ENDBRANCH  10  11
ENDBRANCH   9  10
ENDBRANCH   8   9
ENDBRANCH   1   8
TORSDOF 8
ENDMDL
MODEL 4
REMARK VINA RESULT:    -5.057      1.222      1.812
REMARK INTER + INTRA:          -7.818
REMARK INTER:                  -7.472
REMARK INTRA:                  -0.346
REMARK UNBOUND:                -0.395
REMARK SMILES O=C([O-])CCCCCCCC(=O)[O-]
REMARK SMILES IDX 7 1 6 2 5 3 4 4 2 5 1 6 3 7 8 8 9 9 10 10 11 11 12 12 13 13
REMARK H PARENT
REMARK Flexibility Score: inf
ROOT
ATOM      1  C   UNL     1     -16.619  27.155   1.435  1.00  0.00     0.000 C 
ENDROOT
BRANCH   1   2
ATOM      2  C   UNL     1     -17.391  25.842   1.255  1.00  0.00     0.000 C 
BRANCH   2   3
ATOM      3  C   UNL     1     -17.766  25.623  -0.218  1.00  0.00     0.006 C 
BRANCH   3   4
ATOM      4  C   UNL     1     -18.512  24.300  -0.435  1.00  0.00     0.053 C 
BRANCH   4   5
ATOM      5  C   UNL     1     -19.625  24.122   0.552  1.00  0.00     0.041 C 
ATOM      6  O   UNL     1     -20.601  24.917   0.557  1.00  0.00    -0.550 OA
ATOM      7  O   UNL     1     -19.567  23.097   1.487  1.00  0.00    -0.550 OA
ENDBRANCH   4   5
ENDBRANCH   3   4
ENDBRANCH   2   3
ENDBRANCH   1   2
BRANCH   1   8
ATOM      8  C   UNL     1     -16.281  27.786   0.080  1.00  0.00     0.000 C 
BRANCH   8   9
ATOM      9  C   UNL     1     -16.527  29.300   0.099  1.00  0.00     0.006 C 
BRANCH   9  10
ATOM     10  C   UNL     1     -15.767  29.965   1.250  1.00  0.00     0.053 C 
BRANCH  10  11
ATOM     11  C   UNL     1     -16.244  31.369   1.451  1.00  0.00     0.041 C 
ATOM     12  O   UNL     1     -16.015  31.967   2.534  1.00  0.00    -0.550 OA
ATOM     13  O   UNL     1     -16.986  31.999   0.459  1.00  0.00    -0.550 OA
ENDBRANCH  10  11
ENDBRANCH   9  10
ENDBRANCH   8   9
ENDBRANCH   1   8
TORSDOF 8
ENDMDL
MODEL 5
REMARK VINA RESULT:    -4.958      1.964      7.313
REMARK INTER + INTRA:          -7.672
REMARK INTER:                  -7.389
REMARK INTRA:                  -0.283
REMARK UNBOUND:                -0.395
REMARK SMILES O=C([O-])CCCCCCCC(=O)[O-]
REMARK SMILES IDX 7 1 6 2 5 3 4 4 2 5 1 6 3 7 8 8 9 9 10 10 11 11 12 12 13 13
REMARK H PARENT
REMARK Flexibility Score: inf
ROOT
ATOM      1  C   UNL     1     -16.698  26.429   1.000  1.00  0.00     0.000 C 
ENDROOT
BRANCH   1   2
ATOM      2  C   UNL     1     -16.585  27.351  -0.220  1.00  0.00     0.000 C 
BRANCH   2   3
ATOM      3  C   UNL     1     -16.297  28.797   0.207  1.00  0.00     0.006 C 
BRANCH   3   4
ATOM      4  C   UNL     1     -16.190  28.941   1.731  1.00  0.00     0.053 C 
BRANCH   4   5
ATOM      5  C   UNL     1     -15.489  30.206   2.121  1.00  0.00     0.041 C 
ATOM      6  O   UNL     1     -14.869  30.276   3.215  1.00  0.00    -0.550 OA
ATOM      7  O   UNL     1     -15.549  31.318   1.292  1.00  0.00    -0.550 OA
ENDBRANCH   4   5
ENDBRANCH   3   4
ENDBRANCH   2   3
ENDBRANCH   1   2
BRANCH   1   8
ATOM      8  C   UNL     1     -17.984  25.596   0.945  1.00  0.00     0.000 C 
BRANCH   8   9
ATOM      9  C   UNL     1     -17.986  24.666  -0.274  1.00  0.00     0.006 C 
BRANCH   9  10
ATOM     10  C   UNL     1     -19.209  23.745  -0.260  1.00  0.00     0.053 C 
BRANCH  10  11
ATOM     11  C   UNL     1     -19.013  22.600  -1.203  1.00  0.00     0.041 C 
ATOM     12  O   UNL     1     -19.861  22.370  -2.105  1.00  0.00    -0.550 OA
ATOM     13  O   UNL     1     -17.918  21.758  -1.056  1.00  0.00    -0.550 OA
ENDBRANCH  10  11
ENDBRANCH   9  10
ENDBRANCH   8   9
ENDBRANCH   1   8
TORSDOF 8
ENDMDL
MODEL 6
REMARK VINA RESULT:    -4.950      2.427      7.220
REMARK INTER + INTRA:          -7.660
REMARK INTER:                  -7.281
REMARK INTRA:                  -0.379
REMARK UNBOUND:                -0.395
REMARK SMILES O=C([O-])CCCCCCCC(=O)[O-]
REMARK SMILES IDX 7 1 6 2 5 3 4 4 2 5 1 6 3 7 8 8 9 9 10 10 11 11 12 12 13 13
REMARK H PARENT
REMARK Flexibility Score: inf
ROOT
ATOM      1  C   UNL     1     -17.365  25.348   0.086  1.00  0.00     0.000 C 
ENDROOT
BRANCH   1   2
ATOM      2  C   UNL     1     -16.320  26.074   0.943  1.00  0.00     0.000 C 
BRANCH   2   3
ATOM      3  C   UNL     1     -16.713  27.542   1.163  1.00  0.00     0.006 C 
BRANCH   3   4
ATOM      4  C   UNL     1     -16.259  28.444   0.008  1.00  0.00     0.053 C 
BRANCH   4   5
ATOM      5  C   UNL     1     -17.377  29.305  -0.496  1.00  0.00     0.041 C 
ATOM      6  O   UNL     1     -18.311  28.798  -1.172  1.00  0.00    -0.550 OA
ATOM      7  O   UNL     1     -17.369  30.671  -0.248  1.00  0.00    -0.550 OA
ENDBRANCH   4   5
ENDBRANCH   3   4
ENDBRANCH   2   3
ENDBRANCH   1   2
BRANCH   1   8
ATOM      8  C   UNL     1     -18.615  25.015   0.908  1.00  0.00     0.000 C 
BRANCH   8   9
ATOM      9  C   UNL     1     -19.575  24.121   0.113  1.00  0.00     0.006 C 
BRANCH   9  10
ATOM     10  C   UNL     1     -18.886  23.540  -1.125  1.00  0.00     0.053 C 
BRANCH  10  11
ATOM     11  C   UNL     1     -19.709  22.438  -1.714  1.00  0.00     0.041 C 
ATOM     12  O   UNL     1     -19.150  21.429  -2.217  1.00  0.00    -0.550 OA
ATOM     13  O   UNL     1     -21.094  22.549  -1.750  1.00  0.00    -0.550 OA
ENDBRANCH  10  11
ENDBRANCH   9  10
ENDBRANCH   8   9
ENDBRANCH   1   8
TORSDOF 8
ENDMDL
MODEL 7
REMARK VINA RESULT:    -4.937      2.409      3.433
REMARK INTER + INTRA:          -7.641
REMARK INTER:                  -7.256
REMARK INTRA:                  -0.385
REMARK UNBOUND:                -0.395
REMARK SMILES O=C([O-])CCCCCCCC(=O)[O-]
REMARK SMILES IDX 7 1 6 2 5 3 4 4 2 5 1 6 3 7 8 8 9 9 10 10 11 11 12 12 13 13
REMARK H PARENT
REMARK Flexibility Score: inf
ROOT
ATOM      1  C   UNL     1     -17.678  25.686   1.338  1.00  0.00     0.000 C 
ENDROOT
BRANCH   1   2
ATOM      2  C   UNL     1     -17.767  25.129  -0.088  1.00  0.00     0.000 C 
BRANCH   2   3
ATOM      3  C   UNL     1     -18.866  24.063  -0.195  1.00  0.00     0.006 C 
BRANCH   3   4
ATOM      4  C   UNL     1     -18.938  23.442  -1.596  1.00  0.00     0.053 C 
BRANCH   4   5
ATOM      5  C   UNL     1     -19.220  21.972  -1.538  1.00  0.00     0.041 C 
ATOM      6  O   UNL     1     -20.275  21.508  -2.045  1.00  0.00    -0.550 OA
ATOM      7  O   UNL     1     -18.332  21.120  -0.895  1.00  0.00    -0.550 OA
ENDBRANCH   4   5
ENDBRANCH   3   4
ENDBRANCH   2   3
ENDBRANCH   1   2
BRANCH   1   8
ATOM      8  C   UNL     1     -16.568  26.738   1.451  1.00  0.00     0.000 C 
BRANCH   8   9
ATOM      9  C   UNL     1     -16.245  27.348   0.082  1.00  0.00     0.006 C 
BRANCH   9  10
ATOM     10  C   UNL     1     -16.238  28.878   0.150  1.00  0.00     0.053 C 
BRANCH  10  11
ATOM     11  C   UNL     1     -17.424  29.440  -0.568  1.00  0.00     0.041 C 
ATOM     12  O   UNL     1     -17.610  30.684  -0.608  1.00  0.00    -0.550 OA
ATOM     13  O   UNL     1     -18.351  28.586  -1.153  1.00  0.00    -0.550 OA
ENDBRANCH  10  11
ENDBRANCH   9  10
ENDBRANCH   8   9
ENDBRANCH   1   8
TORSDOF 8
ENDMDL
MODEL 8
REMARK VINA RESULT:    -4.909      2.039      2.615
REMARK INTER + INTRA:          -7.600
REMARK INTER:                  -7.196
REMARK INTRA:                  -0.404
REMARK UNBOUND:                -0.395
REMARK SMILES O=C([O-])CCCCCCCC(=O)[O-]
REMARK SMILES IDX 7 1 6 2 5 3 4 4 2 5 1 6 3 7 8 8 9 9 10 10 11 11 12 12 13 13
REMARK H PARENT
REMARK Flexibility Score: inf
ROOT
ATOM      1  C   UNL     1     -16.204  26.633   0.859  1.00  0.00     0.000 C 
ENDROOT
BRANCH   1   2
ATOM      2  C   UNL     1     -17.446  25.768   1.110  1.00  0.00     0.000 C 
BRANCH   2   3
ATOM      3  C   UNL     1     -18.082  25.322  -0.214  1.00  0.00     0.006 C 
BRANCH   3   4
ATOM      4  C   UNL     1     -18.683  23.913  -0.123  1.00  0.00     0.053 C 
BRANCH   4   5
ATOM      5  C   UNL     1     -19.909  23.887   0.737  1.00  0.00     0.041 C 
ATOM      6  O   UNL     1     -21.010  24.299   0.284  1.00  0.00    -0.550 OA
ATOM      7  O   UNL     1     -19.829  23.439   2.049  1.00  0.00    -0.550 OA
ENDBRANCH   4   5
ENDBRANCH   3   4
ENDBRANCH   2   3
ENDBRANCH   1   2
BRANCH   1   8
ATOM      8  C   UNL     1     -16.467  28.096   1.233  1.00  0.00     0.000 C 
BRANCH   8   9
ATOM      9  C   UNL     1     -16.428  28.998  -0.007  1.00  0.00     0.006 C 
BRANCH   9  10
ATOM     10  C   UNL     1     -17.764  28.960  -0.755  1.00  0.00     0.053 C 
BRANCH  10  11
ATOM     11  C   UNL     1     -18.078  30.304  -1.332  1.00  0.00     0.041 C 
ATOM     12  O   UNL     1     -17.880  31.347  -0.655  1.00  0.00    -0.550 OA
ATOM     13  O   UNL     1     -18.636  30.403  -2.601  1.00  0.00    -0.550 OA
ENDBRANCH  10  11
ENDBRANCH   9  10
ENDBRANCH   8   9
ENDBRANCH   1   8
TORSDOF 8
ENDMDL
MODEL 9
REMARK VINA RESULT:    -4.822      2.606      7.334
REMARK INTER + INTRA:          -7.473
REMARK INTER:                  -7.148
REMARK INTRA:                  -0.325
REMARK UNBOUND:                -0.395
REMARK SMILES O=C([O-])CCCCCCCC(=O)[O-]
REMARK SMILES IDX 7 1 6 2 5 3 4 4 2 5 1 6 3 7 8 8 9 9 10 10 11 11 12 12 13 13
REMARK H PARENT
REMARK Flexibility Score: inf
ROOT
ATOM      1  C   UNL     1     -18.097  25.016  -0.562  1.00  0.00     0.000 C 
ENDROOT
BRANCH   1   2
ATOM      2  C   UNL     1     -18.176  25.509   0.888  1.00  0.00     0.000 C 
BRANCH   2   3
ATOM      3  C   UNL     1     -16.955  26.370   1.243  1.00  0.00     0.006 C 
BRANCH   3   4
ATOM      4  C   UNL     1     -16.346  27.049   0.009  1.00  0.00     0.053 C 
BRANCH   4   5
ATOM      5  C   UNL     1     -16.876  28.437  -0.179  1.00  0.00     0.041 C 
ATOM      6  O   UNL     1     -16.365  29.402   0.449  1.00  0.00    -0.550 OA
ATOM      7  O   UNL     1     -17.956  28.660  -1.022  1.00  0.00    -0.550 OA
ENDBRANCH   4   5
ENDBRANCH   3   4
ENDBRANCH   2   3
ENDBRANCH   1   2
BRANCH   1   8
ATOM      8  C   UNL     1     -18.367  23.509  -0.647  1.00  0.00     0.000 C 
BRANCH   8   9
ATOM      9  C   UNL     1     -19.437  23.200  -1.701  1.00  0.00     0.006 C 
BRANCH   9  10
ATOM     10  C   UNL     1     -20.486  22.228  -1.152  1.00  0.00     0.053 C 
BRANCH  10  11
ATOM     11  C   UNL     1     -21.655  22.979  -0.598  1.00  0.00     0.041 C 
ATOM     12  O   UNL     1     -22.828  22.585  -0.830  1.00  0.00    -0.550 OA
ATOM     13  O   UNL     1     -21.452  24.142   0.133  1.00  0.00    -0.550 OA
ENDBRANCH  10  11
ENDBRANCH   9  10
ENDBRANCH   8   9
ENDBRANCH   1   8
TORSDOF 8
ENDMDL
