MODEL 1
REMARK VINA RESULT:    -5.402      0.000      0.000
REMARK INTER + INTRA:          -6.816
REMARK INTER:                  -6.507
REMARK INTRA:                  -0.309
REMARK UNBOUND:                -0.309
REMARK SMILES Oc1cc(O)c2c(c1)O[C@@H](c1ccc(O)c(O)c1)[C@H](O)C2
REMARK SMILES IDX 21 1 19 2 10 3 9 4 7 5 8 6 2 7 3 8 4 9 6 10 20 11 11 13
REMARK SMILES IDX 18 14 12 15 16 16 13 17 14 18 17 19 15 21 5 23 1 25
REMARK H PARENT 20 12 17 20 15 22 5 24 1 26
REMARK Flexibility Score: inf
ROOT
ATOM      1  C   UNL     1      31.494 -37.273   8.231  1.00  0.00     0.079 C 
ATOM      2  C   UNL     1      32.076 -37.308   9.655  1.00  0.00     0.164 C 
ATOM      3  C   UNL     1      33.178 -38.381   9.738  1.00  0.00     0.232 C 
ATOM      4  O   UNL     1      34.182 -38.133   8.751  1.00  0.00    -0.482 OA
ATOM      5  C   UNL     1      33.876 -37.640   7.478  1.00  0.00     0.131 A 
ATOM      6  C   UNL     1      34.881 -37.581   6.507  1.00  0.00     0.093 A 
ATOM      7  C   UNL     1      34.595 -37.091   5.227  1.00  0.00     0.122 A 
ATOM      8  C   UNL     1      33.301 -36.661   4.920  1.00  0.00     0.092 A 
ATOM      9  C   UNL     1      32.287 -36.710   5.887  1.00  0.00     0.126 A 
ATOM     10  C   UNL     1      32.577 -37.183   7.181  1.00  0.00     0.039 A 
ENDROOT
BRANCH   2  11
ATOM     11  O   UNL     1      31.058 -37.603  10.577  1.00  0.00    -0.389 OA
ATOM     12  H   UNL     1      30.590 -36.748  10.768  1.00  0.00     0.211 HD
ENDBRANCH   2  11
BRANCH   3  13
ATOM     13  C   UNL     1      33.812 -38.406  11.109  1.00  0.00    -0.001 A 
ATOM     14  C   UNL     1      34.177 -37.209  11.749  1.00  0.00     0.057 A 
ATOM     15  C   UNL     1      34.001 -39.625  11.780  1.00  0.00     0.012 A 
ATOM     16  C   UNL     1      34.738 -37.228  13.031  1.00  0.00     0.157 A 
ATOM     17  C   UNL     1      34.562 -39.648  13.059  1.00  0.00     0.050 A 
ATOM     18  C   UNL     1      34.934 -38.454  13.690  1.00  0.00     0.157 A 
BRANCH  16  19
ATOM     19  O   UNL     1      35.093 -36.021  13.634  1.00  0.00    -0.504 OA
ATOM     20  H   UNL     1      35.911 -35.497  13.347  1.00  0.00     0.293 HD
ENDBRANCH  16  19
BRANCH  18  21
ATOM     21  O   UNL     1      35.495 -38.480  14.965  1.00  0.00    -0.504 OA
ATOM     22  H   UNL     1      35.763 -39.350  15.410  1.00  0.00     0.293 HD
ENDBRANCH  18  21
ENDBRANCH   3  13
BRANCH   9  23
ATOM     23  O   UNL     1      30.995 -36.292   5.566  1.00  0.00    -0.507 OA
ATOM     24  H   UNL     1      30.817 -35.671   4.786  1.00  0.00     0.293 HD
ENDBRANCH   9  23
BRANCH   7  25
ATOM     25  O   UNL     1      35.588 -37.031   4.252  1.00  0.00    -0.508 OA
ATOM     26  H   UNL     1      35.401 -36.661   3.328  1.00  0.00     0.293 HD
ENDBRANCH   7  25
TORSDOF 6
ENDMDL
MODEL 2
REMARK VINA RESULT:    -5.365     10.044     13.663
REMARK INTER + INTRA:          -6.772
REMARK INTER:                  -6.398
REMARK INTRA:                  -0.374
REMARK UNBOUND:                -0.309
REMARK SMILES Oc1cc(O)c2c(c1)O[C@@H](c1ccc(O)c(O)c1)[C@H](O)C2
REMARK SMILES IDX 21 1 19 2 10 3 9 4 7 5 8 6 2 7 3 8 4 9 6 10 20 11 11 13
REMARK SMILES IDX 18 14 12 15 16 16 13 17 14 18 17 19 15 21 5 23 1 25
REMARK H PARENT 20 12 17 20 15 22 5 24 1 26
REMARK Flexibility Score: inf
ROOT
ATOM      1  C   UNL     1      38.796 -38.227  -3.181  1.00  0.00     0.079 C 
ATOM      2  C   UNL     1      37.616 -39.069  -3.699  1.00  0.00     0.164 C 
ATOM      3  C   UNL     1      37.192 -40.085  -2.622  1.00  0.00     0.232 C 
ATOM      4  O   UNL     1      36.878 -39.409  -1.404  1.00  0.00    -0.482 OA
ATOM      5  C   UNL     1      37.586 -38.285  -0.965  1.00  0.00     0.131 A 
ATOM      6  C   UNL     1      37.340 -37.775   0.313  1.00  0.00     0.093 A 
ATOM      7  C   UNL     1      38.039 -36.651   0.771  1.00  0.00     0.122 A 
ATOM      8  C   UNL     1      38.986 -36.038  -0.054  1.00  0.00     0.092 A 
ATOM      9  C   UNL     1      39.238 -36.537  -1.341  1.00  0.00     0.126 A 
ATOM     10  C   UNL     1      38.521 -37.654  -1.811  1.00  0.00     0.039 A 
ENDROOT
BRANCH   2  11
ATOM     11  O   UNL     1      37.994 -39.748  -4.869  1.00  0.00    -0.389 OA
ATOM     12  H   UNL     1      38.962 -39.952  -4.780  1.00  0.00     0.211 HD
ENDBRANCH   2  11
BRANCH   3  13
ATOM     13  C   UNL     1      35.998 -40.892  -3.076  1.00  0.00    -0.001 A 
ATOM     14  C   UNL     1      34.795 -40.254  -3.424  1.00  0.00     0.057 A 
ATOM     15  C   UNL     1      36.093 -42.288  -3.200  1.00  0.00     0.012 A 
ATOM     16  C   UNL     1      33.697 -40.998  -3.871  1.00  0.00     0.157 A 
ATOM     17  C   UNL     1      34.998 -43.034  -3.644  1.00  0.00     0.050 A 
ATOM     18  C   UNL     1      33.797 -42.395  -3.980  1.00  0.00     0.157 A 
BRANCH  16  19
ATOM     19  O   UNL     1      32.517 -40.332  -4.202  1.00  0.00    -0.504 OA
ATOM     20  H   UNL     1      31.646 -40.825  -4.355  1.00  0.00     0.293 HD
ENDBRANCH  16  19
BRANCH  18  21
ATOM     21  O   UNL     1      32.706 -43.142  -4.422  1.00  0.00    -0.504 OA
ATOM     22  H   UNL     1      32.794 -43.818  -5.171  1.00  0.00     0.293 HD
ENDBRANCH  18  21
ENDBRANCH   3  13
BRANCH   9  23
ATOM     23  O   UNL     1      40.196 -35.927  -2.151  1.00  0.00    -0.507 OA
ATOM     24  H   UNL     1      40.126 -35.947  -3.161  1.00  0.00     0.293 HD
ENDBRANCH   9  23
BRANCH   7  25
ATOM     25  O   UNL     1      37.801 -36.138   2.043  1.00  0.00    -0.508 OA
ATOM     26  H   UNL     1      37.830 -36.729   2.866  1.00  0.00     0.293 HD
ENDBRANCH   7  25
TORSDOF 6
ENDMDL
MODEL 3
REMARK VINA RESULT:    -5.068      7.594     12.245
REMARK INTER + INTRA:          -6.415
REMARK INTER:                  -6.042
REMARK INTRA:                  -0.373
REMARK UNBOUND:                -0.309
REMARK SMILES Oc1cc(O)c2c(c1)O[C@@H](c1ccc(O)c(O)c1)[C@H](O)C2
REMARK SMILES IDX 21 1 19 2 10 3 9 4 7 5 8 6 2 7 3 8 4 9 6 10 20 11 11 13
REMARK SMILES IDX 18 14 12 15 16 16 13 17 14 18 17 19 15 21 5 23 1 25
REMARK H PARENT 20 12 17 20 15 22 5 24 1 26
REMARK Flexibility Score: inf
ROOT
ATOM      1  C   UNL     1      37.858 -38.317  -0.505  1.00  0.00     0.079 C 
ATOM      2  C   UNL     1      37.019 -39.141  -1.498  1.00  0.00     0.164 C 
ATOM      3  C   UNL     1      36.145 -40.148  -0.727  1.00  0.00     0.232 C 
ATOM      4  O   UNL     1      35.332 -39.463   0.228  1.00  0.00    -0.482 OA
ATOM      5  C   UNL     1      35.787 -38.349   0.940  1.00  0.00     0.131 A 
ATOM      6  C   UNL     1      35.006 -37.833   1.978  1.00  0.00     0.093 A 
ATOM      7  C   UNL     1      35.445 -36.719   2.704  1.00  0.00     0.122 A 
ATOM      8  C   UNL     1      36.670 -36.123   2.390  1.00  0.00     0.092 A 
ATOM      9  C   UNL     1      37.460 -36.629   1.347  1.00  0.00     0.126 A 
ATOM     10  C   UNL     1      37.011 -37.736   0.603  1.00  0.00     0.039 A 
ENDROOT
BRANCH   2  11
ATOM     11  O   UNL     1      37.868 -39.829  -2.380  1.00  0.00    -0.389 OA
ATOM     12  H   UNL     1      38.030 -39.224  -3.151  1.00  0.00     0.211 HD
ENDBRANCH   2  11
BRANCH   3  13
ATOM     13  C   UNL     1      35.265 -40.937  -1.669  1.00  0.00    -0.001 A 
ATOM     14  C   UNL     1      34.362 -40.280  -2.522  1.00  0.00     0.057 A 
ATOM     15  C   UNL     1      35.375 -42.335  -1.735  1.00  0.00     0.012 A 
ATOM     16  C   UNL     1      33.566 -41.008  -3.414  1.00  0.00     0.157 A 
ATOM     17  C   UNL     1      34.581 -43.065  -2.623  1.00  0.00     0.050 A 
ATOM     18  C   UNL     1      33.674 -42.408  -3.465  1.00  0.00     0.157 A 
BRANCH  16  19
ATOM     19  O   UNL     1      32.676 -40.323  -4.242  1.00  0.00    -0.504 OA
ATOM     20  H   UNL     1      31.804 -39.943  -3.895  1.00  0.00     0.293 HD
ENDBRANCH  16  19
BRANCH  18  21
ATOM     21  O   UNL     1      32.883 -43.138  -4.350  1.00  0.00    -0.504 OA
ATOM     22  H   UNL     1      32.111 -43.708  -4.025  1.00  0.00     0.293 HD
ENDBRANCH  18  21
ENDBRANCH   3  13
BRANCH   9  23
ATOM     23  O   UNL     1      38.688 -36.036   1.051  1.00  0.00    -0.507 OA
ATOM     24  H   UNL     1      39.540 -36.581   0.994  1.00  0.00     0.293 HD
ENDBRANCH   9  23
BRANCH   7  25
ATOM     25  O   UNL     1      34.674 -36.199   3.741  1.00  0.00    -0.508 OA
ATOM     26  H   UNL     1      35.074 -35.586   4.442  1.00  0.00     0.293 HD
ENDBRANCH   7  25
TORSDOF 6
ENDMDL
MODEL 4
REMARK VINA RESULT:    -5.067      1.236      2.706
REMARK INTER + INTRA:          -6.413
REMARK INTER:                  -6.079
REMARK INTRA:                  -0.334
REMARK UNBOUND:                -0.309
REMARK SMILES Oc1cc(O)c2c(c1)O[C@@H](c1ccc(O)c(O)c1)[C@H](O)C2
REMARK SMILES IDX 21 1 19 2 10 3 9 4 7 5 8 6 2 7 3 8 4 9 6 10 20 11 11 13
REMARK SMILES IDX 18 14 12 15 16 16 13 17 14 18 17 19 15 21 5 23 1 25
REMARK H PARENT 20 12 17 20 15 22 5 24 1 26
REMARK Flexibility Score: inf
ROOT
ATOM      1  C   UNL     1      35.053 -38.154   7.132  1.00  0.00     0.079 C 
ATOM      2  C   UNL     1      35.071 -38.689   8.575  1.00  0.00     0.164 C 
ATOM      3  C   UNL     1      34.410 -37.665   9.517  1.00  0.00     0.232 C 
ATOM      4  O   UNL     1      33.086 -37.367   9.068  1.00  0.00    -0.482 OA
ATOM      5  C   UNL     1      32.754 -37.283   7.712  1.00  0.00     0.131 A 
ATOM      6  C   UNL     1      31.486 -36.823   7.344  1.00  0.00     0.093 A 
ATOM      7  C   UNL     1      31.135 -36.730   5.992  1.00  0.00     0.122 A 
ATOM      8  C   UNL     1      32.057 -37.098   5.008  1.00  0.00     0.092 A 
ATOM      9  C   UNL     1      33.329 -37.567   5.364  1.00  0.00     0.126 A 
ATOM     10  C   UNL     1      33.678 -37.680   6.724  1.00  0.00     0.039 A 
ENDROOT
BRANCH   2  11
ATOM     11  O   UNL     1      36.397 -38.918   8.980  1.00  0.00    -0.389 OA
ATOM     12  H   UNL     1      36.370 -39.666   9.632  1.00  0.00     0.211 HD
ENDBRANCH   2  11
BRANCH   3  13
ATOM     13  C   UNL     1      34.360 -38.182  10.935  1.00  0.00    -0.001 A 
ATOM     14  C   UNL     1      34.758 -37.366  12.008  1.00  0.00     0.057 A 
ATOM     15  C   UNL     1      33.869 -39.471  11.202  1.00  0.00     0.012 A 
ATOM     16  C   UNL     1      34.686 -37.834  13.325  1.00  0.00     0.157 A 
ATOM     17  C   UNL     1      33.798 -39.943  12.515  1.00  0.00     0.050 A 
ATOM     18  C   UNL     1      34.205 -39.130  13.581  1.00  0.00     0.157 A 
BRANCH  16  19
ATOM     19  O   UNL     1      35.095 -36.999  14.364  1.00  0.00    -0.504 OA
ATOM     20  H   UNL     1      35.280 -36.013  14.221  1.00  0.00     0.293 HD
ENDBRANCH  16  19
BRANCH  18  21
ATOM     21  O   UNL     1      34.133 -39.603  14.890  1.00  0.00    -0.504 OA
ATOM     22  H   UNL     1      33.498 -39.196  15.567  1.00  0.00     0.293 HD
ENDBRANCH  18  21
ENDBRANCH   3  13
BRANCH   9  23
ATOM     23  O   UNL     1      34.247 -37.917   4.374  1.00  0.00    -0.507 OA
ATOM     24  H   UNL     1      34.845 -37.226   3.936  1.00  0.00     0.293 HD
ENDBRANCH   9  23
BRANCH   7  25
ATOM     25  O   UNL     1      29.875 -36.271   5.616  1.00  0.00    -0.508 OA
ATOM     26  H   UNL     1      29.759 -35.413   5.090  1.00  0.00     0.293 HD
ENDBRANCH   7  25
TORSDOF 6
ENDMDL
MODEL 5
REMARK VINA RESULT:    -4.967      0.991      1.631
REMARK INTER + INTRA:          -6.293
REMARK INTER:                  -5.949
REMARK INTRA:                  -0.343
REMARK UNBOUND:                -0.309
REMARK SMILES Oc1cc(O)c2c(c1)O[C@@H](c1ccc(O)c(O)c1)[C@H](O)C2
REMARK SMILES IDX 21 1 19 2 10 3 9 4 7 5 8 6 2 7 3 8 4 9 6 10 20 11 11 13
REMARK SMILES IDX 18 14 12 15 16 16 13 17 14 18 17 19 15 21 5 23 1 25
REMARK H PARENT 20 12 17 20 15 22 5 24 1 26
REMARK Flexibility Score: inf
ROOT
ATOM      1  C   UNL     1      31.813 -38.044   7.395  1.00  0.00     0.079 C 
ATOM      2  C   UNL     1      32.199 -37.838   8.871  1.00  0.00     0.164 C 
ATOM      3  C   UNL     1      33.572 -38.481   9.143  1.00  0.00     0.232 C 
ATOM      4  O   UNL     1      34.551 -37.947   8.250  1.00  0.00    -0.482 OA
ATOM      5  C   UNL     1      34.258 -37.624   6.921  1.00  0.00     0.131 A 
ATOM      6  C   UNL     1      35.298 -37.267   6.057  1.00  0.00     0.093 A 
ATOM      7  C   UNL     1      35.025 -36.941   4.722  1.00  0.00     0.122 A 
ATOM      8  C   UNL     1      33.709 -36.975   4.254  1.00  0.00     0.092 A 
ATOM      9  C   UNL     1      32.657 -37.326   5.112  1.00  0.00     0.126 A 
ATOM     10  C   UNL     1      32.926 -37.634   6.459  1.00  0.00     0.039 A 
ENDROOT
BRANCH   2  11
ATOM     11  O   UNL     1      31.229 -38.424   9.702  1.00  0.00    -0.389 OA
ATOM     12  H   UNL     1      31.531 -39.352   9.882  1.00  0.00     0.211 HD
ENDBRANCH   2  11
BRANCH   3  13
ATOM     13  C   UNL     1      34.009 -38.250  10.570  1.00  0.00    -0.001 A 
ATOM     14  C   UNL     1      34.477 -39.317  11.356  1.00  0.00     0.057 A 
ATOM     15  C   UNL     1      33.996 -36.955  11.114  1.00  0.00     0.012 A 
ATOM     16  C   UNL     1      34.909 -39.099  12.669  1.00  0.00     0.157 A 
ATOM     17  C   UNL     1      34.423 -36.734  12.425  1.00  0.00     0.050 A 
ATOM     18  C   UNL     1      34.881 -37.802  13.209  1.00  0.00     0.157 A 
BRANCH  16  19
ATOM     19  O   UNL     1      35.362 -40.183  13.422  1.00  0.00    -0.504 OA
ATOM     20  H   UNL     1      34.829 -40.560  14.196  1.00  0.00     0.293 HD
ENDBRANCH  16  19
BRANCH  18  21
ATOM     21  O   UNL     1      35.306 -37.579  14.517  1.00  0.00    -0.504 OA
ATOM     22  H   UNL     1      34.770 -37.009  15.160  1.00  0.00     0.293 HD
ENDBRANCH  18  21
ENDBRANCH   3  13
BRANCH   9  23
ATOM     23  O   UNL     1      31.348 -37.371   4.631  1.00  0.00    -0.507 OA
ATOM     24  H   UNL     1      30.552 -37.377   5.257  1.00  0.00     0.293 HD
ENDBRANCH   9  23
BRANCH   7  25
ATOM     25  O   UNL     1      36.054 -36.587   3.854  1.00  0.00    -0.508 OA
ATOM     26  H   UNL     1      36.129 -36.991   2.928  1.00  0.00     0.293 HD
ENDBRANCH   7  25
TORSDOF 6
ENDMDL
MODEL 6
REMARK VINA RESULT:    -4.961     11.575     14.097
REMARK INTER + INTRA:          -6.285
REMARK INTER:                  -5.915
REMARK INTRA:                  -0.371
REMARK UNBOUND:                -0.309
REMARK SMILES Oc1cc(O)c2c(c1)O[C@@H](c1ccc(O)c(O)c1)[C@H](O)C2
REMARK SMILES IDX 21 1 19 2 10 3 9 4 7 5 8 6 2 7 3 8 4 9 6 10 20 11 11 13
REMARK SMILES IDX 18 14 12 15 16 16 13 17 14 18 17 19 15 21 5 23 1 25
REMARK H PARENT 20 12 17 20 15 22 5 24 1 26
REMARK Flexibility Score: inf
ROOT
ATOM      1  C   UNL     1      38.565 -38.107  -0.771  1.00  0.00     0.079 C 
ATOM      2  C   UNL     1      37.574 -39.210  -1.184  1.00  0.00     0.164 C 
ATOM      3  C   UNL     1      37.079 -38.952  -2.619  1.00  0.00     0.232 C 
ATOM      4  O   UNL     1      38.189 -38.862  -3.515  1.00  0.00    -0.482 OA
ATOM      5  C   UNL     1      39.401 -38.267  -3.149  1.00  0.00     0.131 A 
ATOM      6  C   UNL     1      40.383 -38.059  -4.122  1.00  0.00     0.093 A 
ATOM      7  C   UNL     1      41.603 -37.465  -3.777  1.00  0.00     0.122 A 
ATOM      8  C   UNL     1      41.837 -37.076  -2.455  1.00  0.00     0.092 A 
ATOM      9  C   UNL     1      40.861 -37.283  -1.469  1.00  0.00     0.126 A 
ATOM     10  C   UNL     1      39.642 -37.900  -1.810  1.00  0.00     0.039 A 
ENDROOT
BRANCH   2  11
ATOM     11  O   UNL     1      36.482 -39.222  -0.301  1.00  0.00    -0.389 OA
ATOM     12  H   UNL     1      36.129 -40.151  -0.296  1.00  0.00     0.211 HD
ENDBRANCH   2  11
BRANCH   3  13
ATOM     13  C   UNL     1      36.145 -40.048  -3.079  1.00  0.00    -0.001 A 
ATOM     14  C   UNL     1      34.794 -39.770  -3.346  1.00  0.00     0.057 A 
ATOM     15  C   UNL     1      36.631 -41.349  -3.290  1.00  0.00     0.012 A 
ATOM     16  C   UNL     1      33.935 -40.778  -3.798  1.00  0.00     0.157 A 
ATOM     17  C   UNL     1      35.776 -42.358  -3.739  1.00  0.00     0.050 A 
ATOM     18  C   UNL     1      34.426 -42.080  -3.995  1.00  0.00     0.157 A 
BRANCH  16  19
ATOM     19  O   UNL     1      32.598 -40.467  -4.048  1.00  0.00    -0.504 OA
ATOM     20  H   UNL     1      32.133 -40.740  -4.905  1.00  0.00     0.293 HD
ENDBRANCH  16  19
BRANCH  18  21
ATOM     21  O   UNL     1      33.575 -43.088  -4.443  1.00  0.00    -0.504 OA
ATOM     22  H   UNL     1      33.661 -43.481  -5.373  1.00  0.00     0.293 HD
ENDBRANCH  18  21
ENDBRANCH   3  13
BRANCH   9  23
ATOM     23  O   UNL     1      41.099 -36.878  -0.156  1.00  0.00    -0.507 OA
ATOM     24  H   UNL     1      40.962 -35.918   0.136  1.00  0.00     0.293 HD
ENDBRANCH   9  23
BRANCH   7  25
ATOM     25  O   UNL     1      42.586 -37.253  -4.740  1.00  0.00    -0.508 OA
ATOM     26  H   UNL     1      42.360 -37.210  -5.727  1.00  0.00     0.293 HD
ENDBRANCH   7  25
TORSDOF 6
ENDMDL
MODEL 7
REMARK VINA RESULT:    -4.944      1.586      6.967
REMARK INTER + INTRA:          -6.265
REMARK INTER:                  -5.906
REMARK INTRA:                  -0.360
REMARK UNBOUND:                -0.309
REMARK SMILES Oc1cc(O)c2c(c1)O[C@@H](c1ccc(O)c(O)c1)[C@H](O)C2
REMARK SMILES IDX 21 1 19 2 10 3 9 4 7 5 8 6 2 7 3 8 4 9 6 10 20 11 11 13
REMARK SMILES IDX 18 14 12 15 16 16 13 17 14 18 17 19 15 21 5 23 1 25
REMARK H PARENT 20 12 17 20 15 22 5 24 1 26
REMARK Flexibility Score: inf
ROOT
ATOM      1  C   UNL     1      32.658 -40.508  10.936  1.00  0.00     0.079 C 
ATOM      2  C   UNL     1      32.766 -40.072   9.463  1.00  0.00     0.164 C 
ATOM      3  C   UNL     1      32.433 -38.574   9.341  1.00  0.00     0.232 C 
ATOM      4  O   UNL     1      33.286 -37.808  10.194  1.00  0.00    -0.482 OA
ATOM      5  C   UNL     1      33.691 -38.262  11.453  1.00  0.00     0.131 A 
ATOM      6  C   UNL     1      34.383 -37.396  12.304  1.00  0.00     0.093 A 
ATOM      7  C   UNL     1      34.796 -37.831  13.569  1.00  0.00     0.122 A 
ATOM      8  C   UNL     1      34.514 -39.137  13.981  1.00  0.00     0.092 A 
ATOM      9  C   UNL     1      33.825 -40.017  13.134  1.00  0.00     0.126 A 
ATOM     10  C   UNL     1      33.427 -39.588  11.854  1.00  0.00     0.039 A 
ENDROOT
BRANCH   2  11
ATOM     11  O   UNL     1      31.874 -40.822   8.679  1.00  0.00    -0.389 OA
ATOM     12  H   UNL     1      32.214 -40.786   7.747  1.00  0.00     0.211 HD
ENDBRANCH   2  11
BRANCH   3  13
ATOM     13  C   UNL     1      32.584 -38.098   7.914  1.00  0.00    -0.001 A 
ATOM     14  C   UNL     1      31.539 -37.407   7.278  1.00  0.00     0.057 A 
ATOM     15  C   UNL     1      33.790 -38.299   7.225  1.00  0.00     0.012 A 
ATOM     16  C   UNL     1      31.687 -36.941   5.966  1.00  0.00     0.157 A 
ATOM     17  C   UNL     1      33.942 -37.837   5.915  1.00  0.00     0.050 A 
ATOM     18  C   UNL     1      32.894 -37.158   5.280  1.00  0.00     0.157 A 
BRANCH  16  19
ATOM     19  O   UNL     1      30.626 -36.264   5.364  1.00  0.00    -0.504 OA
ATOM     20  H   UNL     1      29.672 -36.361   5.689  1.00  0.00     0.293 HD
ENDBRANCH  16  19
BRANCH  18  21
ATOM     21  O   UNL     1      33.047 -36.698   3.973  1.00  0.00    -0.504 OA
ATOM     22  H   UNL     1      32.803 -35.751   3.711  1.00  0.00     0.293 HD
ENDBRANCH  18  21
ENDBRANCH   3  13
BRANCH   9  23
ATOM     23  O   UNL     1      33.536 -41.313  13.561  1.00  0.00    -0.507 OA
ATOM     24  H   UNL     1      33.837 -42.125  13.035  1.00  0.00     0.293 HD
ENDBRANCH   9  23
BRANCH   7  25
ATOM     25  O   UNL     1      35.485 -36.974  14.424  1.00  0.00    -0.508 OA
ATOM     26  H   UNL     1      35.240 -35.994  14.501  1.00  0.00     0.293 HD
ENDBRANCH   7  25
TORSDOF 6
ENDMDL
MODEL 8
REMARK VINA RESULT:    -4.857     11.382     14.471
REMARK INTER + INTRA:          -6.160
REMARK INTER:                  -5.940
REMARK INTRA:                  -0.220
REMARK UNBOUND:                -0.309
REMARK SMILES Oc1cc(O)c2c(c1)O[C@@H](c1ccc(O)c(O)c1)[C@H](O)C2
REMARK SMILES IDX 21 1 19 2 10 3 9 4 7 5 8 6 2 7 3 8 4 9 6 10 20 11 11 13
REMARK SMILES IDX 18 14 12 15 16 16 13 17 14 18 17 19 15 21 5 23 1 25
REMARK H PARENT 20 12 17 20 15 22 5 24 1 26
REMARK Flexibility Score: inf
ROOT
ATOM      1  C   UNL     1      39.462 -42.027  -3.792  1.00  0.00     0.079 C 
ATOM      2  C   UNL     1      37.953 -41.809  -3.584  1.00  0.00     0.164 C 
ATOM      3  C   UNL     1      37.728 -40.752  -2.486  1.00  0.00     0.232 C 
ATOM      4  O   UNL     1      38.407 -39.541  -2.823  1.00  0.00    -0.482 OA
ATOM      5  C   UNL     1      39.650 -39.530  -3.463  1.00  0.00     0.131 A 
ATOM      6  C   UNL     1      40.336 -38.320  -3.610  1.00  0.00     0.093 A 
ATOM      7  C   UNL     1      41.582 -38.289  -4.247  1.00  0.00     0.122 A 
ATOM      8  C   UNL     1      42.143 -39.472  -4.736  1.00  0.00     0.092 A 
ATOM      9  C   UNL     1      41.463 -40.691  -4.599  1.00  0.00     0.126 A 
ATOM     10  C   UNL     1      40.200 -40.722  -3.977  1.00  0.00     0.039 A 
ENDROOT
BRANCH   2  11
ATOM     11  O   UNL     1      37.345 -43.019  -3.209  1.00  0.00    -0.389 OA
ATOM     12  H   UNL     1      36.496 -43.082  -3.718  1.00  0.00     0.211 HD
ENDBRANCH   2  11
BRANCH   3  13
ATOM     13  C   UNL     1      36.256 -40.472  -2.294  1.00  0.00    -0.001 A 
ATOM     14  C   UNL     1      35.377 -40.487  -3.390  1.00  0.00     0.057 A 
ATOM     15  C   UNL     1      35.742 -40.238  -1.008  1.00  0.00     0.012 A 
ATOM     16  C   UNL     1      34.008 -40.255  -3.210  1.00  0.00     0.157 A 
ATOM     17  C   UNL     1      34.377 -40.004  -0.825  1.00  0.00     0.050 A 
ATOM     18  C   UNL     1      33.504 -40.011  -1.921  1.00  0.00     0.157 A 
BRANCH  16  19
ATOM     19  O   UNL     1      33.166 -40.273  -4.322  1.00  0.00    -0.504 OA
ATOM     20  H   UNL     1      32.245 -40.691  -4.292  1.00  0.00     0.293 HD
ENDBRANCH  16  19
BRANCH  18  21
ATOM     21  O   UNL     1      32.143 -39.776  -1.736  1.00  0.00    -0.504 OA
ATOM     22  H   UNL     1      31.667 -39.015  -2.204  1.00  0.00     0.293 HD
ENDBRANCH  18  21
ENDBRANCH   3  13
BRANCH   9  23
ATOM     23  O   UNL     1      42.038 -41.869  -5.077  1.00  0.00    -0.507 OA
ATOM     24  H   UNL     1      42.060 -42.713  -4.518  1.00  0.00     0.293 HD
ENDBRANCH   9  23
BRANCH   7  25
ATOM     25  O   UNL     1      42.272 -37.089  -4.397  1.00  0.00    -0.508 OA
ATOM     26  H   UNL     1      42.343 -36.420  -3.638  1.00  0.00     0.293 HD
ENDBRANCH   7  25
TORSDOF 6
ENDMDL
MODEL 9
REMARK VINA RESULT:    -4.822      5.353      9.336
REMARK INTER + INTRA:          -6.118
REMARK INTER:                  -5.747
REMARK INTRA:                  -0.372
REMARK UNBOUND:                -0.309
REMARK SMILES Oc1cc(O)c2c(c1)O[C@@H](c1ccc(O)c(O)c1)[C@H](O)C2
REMARK SMILES IDX 21 1 19 2 10 3 9 4 7 5 8 6 2 7 3 8 4 9 6 10 20 11 11 13
REMARK SMILES IDX 18 14 12 15 16 16 13 17 14 18 17 19 15 21 5 23 1 25
REMARK H PARENT 20 12 17 20 15 22 5 24 1 26
REMARK Flexibility Score: inf
ROOT
ATOM      1  C   UNL     1      34.590 -36.831   4.040  1.00  0.00     0.079 C 
ATOM      2  C   UNL     1      33.599 -37.621   3.166  1.00  0.00     0.164 C 
ATOM      3  C   UNL     1      34.372 -38.590   2.253  1.00  0.00     0.232 C 
ATOM      4  O   UNL     1      35.203 -39.449   3.036  1.00  0.00    -0.482 OA
ATOM      5  C   UNL     1      35.862 -39.008   4.189  1.00  0.00     0.131 A 
ATOM      6  C   UNL     1      36.791 -39.848   4.811  1.00  0.00     0.093 A 
ATOM      7  C   UNL     1      37.462 -39.425   5.965  1.00  0.00     0.122 A 
ATOM      8  C   UNL     1      37.202 -38.158   6.494  1.00  0.00     0.092 A 
ATOM      9  C   UNL     1      36.269 -37.308   5.882  1.00  0.00     0.126 A 
ATOM     10  C   UNL     1      35.578 -37.740   4.734  1.00  0.00     0.039 A 
ENDROOT
BRANCH   2  11
ATOM     11  O   UNL     1      32.844 -36.733   2.383  1.00  0.00    -0.389 OA
ATOM     12  H   UNL     1      31.939 -36.691   2.792  1.00  0.00     0.211 HD
ENDBRANCH   2  11
BRANCH   3  13
ATOM     13  C   UNL     1      33.427 -39.424   1.419  1.00  0.00    -0.001 A 
ATOM     14  C   UNL     1      33.408 -39.298   0.019  1.00  0.00     0.057 A 
ATOM     15  C   UNL     1      32.588 -40.368   2.032  1.00  0.00     0.012 A 
ATOM     16  C   UNL     1      32.553 -40.089  -0.756  1.00  0.00     0.157 A 
ATOM     17  C   UNL     1      31.731 -41.158   1.261  1.00  0.00     0.050 A 
ATOM     18  C   UNL     1      31.708 -41.024  -0.133  1.00  0.00     0.157 A 
BRANCH  16  19
ATOM     19  O   UNL     1      32.558 -39.934  -2.142  1.00  0.00    -0.504 OA
ATOM     20  H   UNL     1      31.780 -39.517  -2.639  1.00  0.00     0.293 HD
ENDBRANCH  16  19
BRANCH  18  21
ATOM     21  O   UNL     1      30.853 -41.812  -0.900  1.00  0.00    -0.504 OA
ATOM     22  H   UNL     1      30.386 -41.446  -1.721  1.00  0.00     0.293 HD
ENDBRANCH  18  21
ENDBRANCH   3  13
BRANCH   9  23
ATOM     23  O   UNL     1      36.028 -36.040   6.410  1.00  0.00    -0.507 OA
ATOM     24  H   UNL     1      35.285 -35.876   7.079  1.00  0.00     0.293 HD
ENDBRANCH   9  23
BRANCH   7  25
ATOM     25  O   UNL     1      38.389 -40.254   6.590  1.00  0.00    -0.508 OA
ATOM     26  H   UNL     1      38.226 -41.249   6.692  1.00  0.00     0.293 HD
ENDBRANCH   7  25
TORSDOF 6
ENDMDL
