MODEL 1
REMARK VINA RESULT:    -4.384      0.000      0.000
REMARK INTER + INTRA:         -10.131
REMARK INTER:                  -8.484
REMARK INTRA:                  -1.646
REMARK UNBOUND:                -1.646
REMARK SMILES CCCCCCCCCCCCCCCCCC(=O)[O-]
REMARK SMILES IDX 10 1 11 2 12 3 13 4 14 5 15 6 16 7 17 8 18 9 19 10 20 11
REMARK SMILES IDX 9 12 8 13 7 14 6 15 5 16 4 17 3 18 2 19 1 20
REMARK H PARENT
REMARK Flexibility Score: inf
ROOT
ATOM      1  C   UNL     1       6.599  -3.727  -4.347  1.00  0.00     0.000 C 
ENDROOT
BRANCH   1   2
ATOM      2  C   UNL     1       7.753  -4.195  -3.442  1.00  0.00     0.000 C 
BRANCH   2   3
ATOM      3  C   UNL     1       8.303  -3.123  -2.482  1.00  0.00     0.000 C 
BRANCH   3   4
ATOM      4  C   UNL     1       7.950  -3.398  -1.013  1.00  0.00     0.000 C 
BRANCH   4   5
ATOM      5  C   UNL     1       7.058  -2.286  -0.442  1.00  0.00     0.000 C 
BRANCH   5   6
ATOM      6  C   UNL     1       7.759  -0.909  -0.449  1.00  0.00     0.000 C 
BRANCH   6   7
ATOM      7  C   UNL     1       6.800   0.268  -0.713  1.00  0.00     0.006 C 
BRANCH   7   8
ATOM      8  C   UNL     1       5.511   0.225   0.121  1.00  0.00     0.053 C 
BRANCH   8   9
ATOM      9  C   UNL     1       5.778   0.472   1.575  1.00  0.00     0.041 C 
ATOM     10  O   UNL     1       5.241  -0.257   2.449  1.00  0.00    -0.550 OA
ATOM     11  O   UNL     1       6.636   1.493   1.965  1.00  0.00    -0.550 OA
ENDBRANCH   8   9
ENDBRANCH   7   8
ENDBRANCH   6   7
ENDBRANCH   5   6
ENDBRANCH   4   5
ENDBRANCH   3   4
ENDBRANCH   2   3
ENDBRANCH   1   2
BRANCH   1  12
ATOM     12  C   UNL     1       6.405  -2.203  -4.331  1.00  0.00     0.000 C 
BRANCH  12  13
ATOM     13  C   UNL     1       5.013  -1.832  -3.807  1.00  0.00    -0.000 C 
BRANCH  13  14
ATOM     14  C   UNL     1       4.243  -0.992  -4.837  1.00  0.00    -0.000 C 
BRANCH  14  15
ATOM     15  C   UNL     1       2.729  -1.273  -4.833  1.00  0.00    -0.000 C 
BRANCH  15  16
ATOM     16  C   UNL     1       2.288  -2.487  -3.995  1.00  0.00    -0.000 C 
BRANCH  16  17
ATOM     17  C   UNL     1       1.992  -3.732  -4.848  1.00  0.00    -0.000 C 
BRANCH  17  18
ATOM     18  C   UNL     1       1.025  -4.709  -4.159  1.00  0.00    -0.000 C 
BRANCH  18  19
ATOM     19  C   UNL     1       0.698  -4.330  -2.699  1.00  0.00    -0.003 C 
ATOM     20  C   UNL     1       0.770  -5.532  -1.757  1.00  0.00     0.004 C 
ENDBRANCH  18  19
ENDBRANCH  17  18
ENDBRANCH  16  17
ENDBRANCH  15  16
ENDBRANCH  14  15
ENDBRANCH  13  14
ENDBRANCH  12  13
ENDBRANCH   1  12
TORSDOF 16
ENDMDL
MODEL 2
REMARK VINA RESULT:    -4.318      0.739      1.339
REMARK INTER + INTRA:         -10.004
REMARK INTER:                  -8.677
REMARK INTRA:                  -1.327
REMARK UNBOUND:                -1.646
REMARK SMILES CCCCCCCCCCCCCCCCCC(=O)[O-]
REMARK SMILES IDX 10 1 11 2 12 3 13 4 14 5 15 6 16 7 17 8 18 9 19 10 20 11
REMARK SMILES IDX 9 12 8 13 7 14 6 15 5 16 4 17 3 18 2 19 1 20
REMARK H PARENT
REMARK Flexibility Score: inf
ROOT
ATOM      1  C   UNL     1       6.597  -1.819  -4.700  1.00  0.00     0.000 C 
ENDROOT
BRANCH   1   2
ATOM      2  C   UNL     1       6.502  -2.990  -3.704  1.00  0.00     0.000 C 
BRANCH   2   3
ATOM      3  C   UNL     1       7.838  -3.409  -3.063  1.00  0.00     0.000 C 
BRANCH   3   4
ATOM      4  C   UNL     1       7.816  -3.336  -1.530  1.00  0.00     0.000 C 
BRANCH   4   5
ATOM      5  C   UNL     1       7.852  -1.880  -1.046  1.00  0.00     0.000 C 
BRANCH   5   6
ATOM      6  C   UNL     1       6.653  -1.535  -0.133  1.00  0.00     0.000 C 
BRANCH   6   7
ATOM      7  C   UNL     1       5.762  -0.406  -0.686  1.00  0.00     0.006 C 
BRANCH   7   8
ATOM      8  C   UNL     1       5.628   0.802   0.253  1.00  0.00     0.053 C 
BRANCH   8   9
ATOM      9  C   UNL     1       6.027   0.465   1.658  1.00  0.00     0.041 C 
ATOM     10  O   UNL     1       5.239  -0.175   2.402  1.00  0.00    -0.550 OA
ATOM     11  O   UNL     1       7.276   0.836   2.138  1.00  0.00    -0.550 OA
ENDBRANCH   8   9
ENDBRANCH   7   8
ENDBRANCH   6   7
ENDBRANCH   5   6
ENDBRANCH   4   5
ENDBRANCH   3   4
ENDBRANCH   2   3
ENDBRANCH   1   2
BRANCH   1  12
ATOM     12  C   UNL     1       5.229  -1.381  -5.242  1.00  0.00     0.000 C 
BRANCH  12  13
ATOM     13  C   UNL     1       4.224  -1.184  -4.101  1.00  0.00    -0.000 C 
BRANCH  13  14
ATOM     14  C   UNL     1       2.792  -1.479  -4.570  1.00  0.00    -0.000 C 
BRANCH  14  15
ATOM     15  C   UNL     1       2.141  -2.655  -3.819  1.00  0.00    -0.000 C 
BRANCH  15  16
ATOM     16  C   UNL     1       2.096  -3.985  -4.594  1.00  0.00    -0.000 C 
BRANCH  16  17
ATOM     17  C   UNL     1       1.190  -5.036  -3.931  1.00  0.00    -0.000 C 
BRANCH  17  18
ATOM     18  C   UNL     1       0.467  -4.498  -2.685  1.00  0.00    -0.000 C 
BRANCH  18  19
ATOM     19  C   UNL     1       0.757  -5.307  -1.403  1.00  0.00    -0.003 C 
ATOM     20  C   UNL     1       1.324  -6.694  -1.707  1.00  0.00     0.004 C 
ENDBRANCH  18  19
ENDBRANCH  17  18
ENDBRANCH  16  17
ENDBRANCH  15  16
ENDBRANCH  14  15
ENDBRANCH  13  14
ENDBRANCH  12  13
ENDBRANCH   1  12
TORSDOF 16
ENDMDL
MODEL 3
REMARK VINA RESULT:    -4.282      1.463      2.103
REMARK INTER + INTRA:          -9.933
REMARK INTER:                  -7.378
REMARK INTRA:                  -2.555
REMARK UNBOUND:                -1.646
REMARK SMILES CCCCCCCCCCCCCCCCCC(=O)[O-]
REMARK SMILES IDX 10 1 11 2 12 3 13 4 14 5 15 6 16 7 17 8 18 9 19 10 20 11
REMARK SMILES IDX 9 12 8 13 7 14 6 15 5 16 4 17 3 18 2 19 1 20
REMARK H PARENT
REMARK Flexibility Score: inf
ROOT
ATOM      1  C   UNL     1       8.136  -3.271  -3.571  1.00  0.00     0.000 C 
ENDROOT
BRANCH   1   2
ATOM      2  C   UNL     1       8.611  -2.845  -2.170  1.00  0.00     0.000 C 
BRANCH   2   3
ATOM      3  C   UNL     1       7.644  -3.191  -1.022  1.00  0.00     0.000 C 
BRANCH   3   4
ATOM      4  C   UNL     1       7.035  -1.949  -0.358  1.00  0.00     0.000 C 
BRANCH   4   5
ATOM      5  C   UNL     1       7.857  -0.692  -0.677  1.00  0.00     0.000 C 
BRANCH   5   6
ATOM      6  C   UNL     1       6.966   0.509  -1.068  1.00  0.00     0.000 C 
BRANCH   6   7
ATOM      7  C   UNL     1       5.568   0.475  -0.422  1.00  0.00     0.006 C 
BRANCH   7   8
ATOM      8  C   UNL     1       5.373   1.504   0.702  1.00  0.00     0.053 C 
BRANCH   8   9
ATOM      9  C   UNL     1       5.729   0.940   2.044  1.00  0.00     0.041 C 
ATOM     10  O   UNL     1       5.344  -0.213   2.368  1.00  0.00    -0.550 OA
ATOM     11  O   UNL     1       6.507   1.677   2.929  1.00  0.00    -0.550 OA
ENDBRANCH   8   9
ENDBRANCH   7   8
ENDBRANCH   6   7
ENDBRANCH   5   6
ENDBRANCH   4   5
ENDBRANCH   3   4
ENDBRANCH   2   3
ENDBRANCH   1   2
BRANCH   1  12
ATOM     12  C   UNL     1       6.696  -2.832  -3.874  1.00  0.00     0.000 C 
BRANCH  12  13
ATOM     13  C   UNL     1       6.656  -1.379  -4.362  1.00  0.00    -0.000 C 
BRANCH  13  14
ATOM     14  C   UNL     1       5.218  -0.842  -4.376  1.00  0.00    -0.000 C 
BRANCH  14  15
ATOM     15  C   UNL     1       4.336  -1.450  -3.270  1.00  0.00    -0.000 C 
BRANCH  15  16
ATOM     16  C   UNL     1       2.878  -1.736  -3.675  1.00  0.00    -0.000 C 
BRANCH  16  17
ATOM     17  C   UNL     1       2.569  -1.342  -5.129  1.00  0.00    -0.000 C 
BRANCH  17  18
ATOM     18  C   UNL     1       2.474  -2.558  -6.067  1.00  0.00    -0.000 C 
BRANCH  18  19
ATOM     19  C   UNL     1       2.562  -3.914  -5.334  1.00  0.00    -0.003 C 
ATOM     20  C   UNL     1       3.833  -4.685  -5.691  1.00  0.00     0.004 C 
ENDBRANCH  18  19
ENDBRANCH  17  18
ENDBRANCH  16  17
ENDBRANCH  15  16
ENDBRANCH  14  15
ENDBRANCH  13  14
ENDBRANCH  12  13
ENDBRANCH   1  12
TORSDOF 16
ENDMDL
MODEL 4
REMARK VINA RESULT:    -4.260      1.442      2.772
REMARK INTER + INTRA:          -9.891
REMARK INTER:                  -8.487
REMARK INTRA:                  -1.404
REMARK UNBOUND:                -1.646
REMARK SMILES CCCCCCCCCCCCCCCCCC(=O)[O-]
REMARK SMILES IDX 10 1 11 2 12 3 13 4 14 5 15 6 16 7 17 8 18 9 19 10 20 11
REMARK SMILES IDX 9 12 8 13 7 14 6 15 5 16 4 17 3 18 2 19 1 20
REMARK H PARENT
REMARK Flexibility Score: inf
ROOT
ATOM      1  C   UNL     1       4.050  -1.838  -5.695  1.00  0.00     0.000 C 
ENDROOT
BRANCH   1   2
ATOM      2  C   UNL     1       5.437  -1.470  -5.136  1.00  0.00     0.000 C 
BRANCH   2   3
ATOM      3  C   UNL     1       6.082  -2.541  -4.237  1.00  0.00     0.000 C 
BRANCH   3   4
ATOM      4  C   UNL     1       6.488  -2.001  -2.859  1.00  0.00     0.000 C 
BRANCH   4   5
ATOM      5  C   UNL     1       5.692  -0.736  -2.505  1.00  0.00     0.000 C 
BRANCH   5   6
ATOM      6  C   UNL     1       6.599   0.402  -1.984  1.00  0.00     0.000 C 
BRANCH   6   7
ATOM      7  C   UNL     1       6.105   1.029  -0.667  1.00  0.00     0.006 C 
BRANCH   7   8
ATOM      8  C   UNL     1       5.710   0.003   0.406  1.00  0.00     0.053 C 
BRANCH   8   9
ATOM      9  C   UNL     1       5.617   0.625   1.766  1.00  0.00     0.041 C 
ATOM     10  O   UNL     1       5.854  -0.063   2.793  1.00  0.00    -0.550 OA
ATOM     11  O   UNL     1       5.294   1.969   1.901  1.00  0.00    -0.550 OA
ENDBRANCH   8   9
ENDBRANCH   7   8
ENDBRANCH   6   7
ENDBRANCH   5   6
ENDBRANCH   4   5
ENDBRANCH   3   4
ENDBRANCH   2   3
ENDBRANCH   1   2
BRANCH   1  12
ATOM     12  C   UNL     1       2.897  -1.265  -4.860  1.00  0.00     0.000 C 
BRANCH  12  13
ATOM     13  C   UNL     1       2.275  -2.345  -3.966  1.00  0.00    -0.000 C 
BRANCH  13  14
ATOM     14  C   UNL     1       2.503  -3.745  -4.555  1.00  0.00    -0.000 C 
BRANCH  14  15
ATOM     15  C   UNL     1       1.412  -4.753  -4.153  1.00  0.00    -0.000 C 
BRANCH  15  16
ATOM     16  C   UNL     1       0.636  -4.405  -2.869  1.00  0.00    -0.000 C 
BRANCH  16  17
ATOM     17  C   UNL     1      -0.576  -5.321  -2.631  1.00  0.00    -0.000 C 
BRANCH  17  18
ATOM     18  C   UNL     1      -0.176  -6.718  -2.129  1.00  0.00    -0.000 C 
BRANCH  18  19
ATOM     19  C   UNL     1       0.971  -6.701  -1.097  1.00  0.00    -0.003 C 
ATOM     20  C   UNL     1       2.051  -7.737  -1.412  1.00  0.00     0.004 C 
ENDBRANCH  18  19
ENDBRANCH  17  18
ENDBRANCH  16  17
ENDBRANCH  15  16
ENDBRANCH  14  15
ENDBRANCH  13  14
ENDBRANCH  12  13
ENDBRANCH   1  12
TORSDOF 16
ENDMDL
MODEL 5
REMARK VINA RESULT:    -4.182      1.240      2.211
REMARK INTER + INTRA:          -9.741
REMARK INTER:                  -8.278
REMARK INTRA:                  -1.463
REMARK UNBOUND:                -1.646
REMARK SMILES CCCCCCCCCCCCCCCCCC(=O)[O-]
REMARK SMILES IDX 10 1 11 2 12 3 13 4 14 5 15 6 16 7 17 8 18 9 19 10 20 11
REMARK SMILES IDX 9 12 8 13 7 14 6 15 5 16 4 17 3 18 2 19 1 20
REMARK H PARENT
REMARK Flexibility Score: inf
ROOT
ATOM      1  C   UNL     1       4.992  -0.774  -3.471  1.00  0.00     0.000 C 
ENDROOT
BRANCH   1   2
ATOM      2  C   UNL     1       6.213  -1.447  -4.125  1.00  0.00     0.000 C 
BRANCH   2   3
ATOM      3  C   UNL     1       6.375  -2.946  -3.811  1.00  0.00     0.000 C 
BRANCH   3   4
ATOM      4  C   UNL     1       7.580  -3.242  -2.907  1.00  0.00     0.000 C 
BRANCH   4   5
ATOM      5  C   UNL     1       7.855  -2.072  -1.952  1.00  0.00     0.000 C 
BRANCH   5   6
ATOM      6  C   UNL     1       7.129  -2.236  -0.597  1.00  0.00     0.000 C 
BRANCH   6   7
ATOM      7  C   UNL     1       7.194  -0.981   0.293  1.00  0.00     0.006 C 
BRANCH   7   8
ATOM      8  C   UNL     1       5.965  -0.067   0.179  1.00  0.00     0.053 C 
BRANCH   8   9
ATOM      9  C   UNL     1       5.508   0.424   1.519  1.00  0.00     0.041 C 
ATOM     10  O   UNL     1       5.415  -0.375   2.487  1.00  0.00    -0.550 OA
ATOM     11  O   UNL     1       5.206   1.767   1.707  1.00  0.00    -0.550 OA
ENDBRANCH   8   9
ENDBRANCH   7   8
ENDBRANCH   6   7
ENDBRANCH   5   6
ENDBRANCH   4   5
ENDBRANCH   3   4
ENDBRANCH   2   3
ENDBRANCH   1   2
BRANCH   1  12
ATOM     12  C   UNL     1       3.710  -1.609  -3.597  1.00  0.00     0.000 C 
BRANCH  12  13
ATOM     13  C   UNL     1       2.914  -1.210  -4.846  1.00  0.00    -0.000 C 
BRANCH  13  14
ATOM     14  C   UNL     1       2.387  -2.450  -5.583  1.00  0.00    -0.000 C 
BRANCH  14  15
ATOM     15  C   UNL     1       2.844  -3.772  -4.941  1.00  0.00    -0.000 C 
BRANCH  15  16
ATOM     16  C   UNL     1       1.716  -4.651  -4.371  1.00  0.00    -0.000 C 
BRANCH  16  17
ATOM     17  C   UNL     1       0.959  -3.981  -3.212  1.00  0.00    -0.000 C 
BRANCH  17  18
ATOM     18  C   UNL     1       0.024  -4.952  -2.472  1.00  0.00    -0.000 C 
BRANCH  18  19
ATOM     19  C   UNL     1      -1.409  -4.410  -2.283  1.00  0.00    -0.003 C 
ATOM     20  C   UNL     1      -2.468  -5.364  -2.834  1.00  0.00     0.004 C 
ENDBRANCH  18  19
ENDBRANCH  17  18
ENDBRANCH  16  17
ENDBRANCH  15  16
ENDBRANCH  14  15
ENDBRANCH  13  14
ENDBRANCH  12  13
ENDBRANCH   1  12
TORSDOF 16
ENDMDL
MODEL 6
REMARK VINA RESULT:    -4.114      3.581      7.397
REMARK INTER + INTRA:          -9.608
REMARK INTER:                  -8.002
REMARK INTRA:                  -1.605
REMARK UNBOUND:                -1.646
REMARK SMILES CCCCCCCCCCCCCCCCCC(=O)[O-]
REMARK SMILES IDX 10 1 11 2 12 3 13 4 14 5 15 6 16 7 17 8 18 9 19 10 20 11
REMARK SMILES IDX 9 12 8 13 7 14 6 15 5 16 4 17 3 18 2 19 1 20
REMARK H PARENT
REMARK Flexibility Score: inf
ROOT
ATOM      1  C   UNL     1       4.172  -1.676  -4.828  1.00  0.00     0.000 C 
ENDROOT
BRANCH   1   2
ATOM      2  C   UNL     1       2.657  -1.515  -4.604  1.00  0.00     0.000 C 
BRANCH   2   3
ATOM      3  C   UNL     1       1.988  -2.664  -3.828  1.00  0.00     0.000 C 
BRANCH   3   4
ATOM      4  C   UNL     1       2.206  -4.035  -4.483  1.00  0.00     0.000 C 
BRANCH   4   5
ATOM      5  C   UNL     1       1.271  -5.092  -3.878  1.00  0.00     0.000 C 
BRANCH   5   6
ATOM      6  C   UNL     1       0.635  -4.622  -2.550  1.00  0.00     0.000 C 
BRANCH   6   7
ATOM      7  C   UNL     1       0.895  -5.578  -1.370  1.00  0.00     0.006 C 
BRANCH   7   8
ATOM      8  C   UNL     1       1.408  -6.964  -1.789  1.00  0.00     0.053 C 
BRANCH   8   9
ATOM      9  C   UNL     1       0.812  -8.056  -0.954  1.00  0.00     0.041 C 
ATOM     10  O   UNL     1      -0.420  -8.053  -0.696  1.00  0.00    -0.550 OA
ATOM     11  O   UNL     1       1.610  -9.090  -0.480  1.00  0.00    -0.550 OA
ENDBRANCH   8   9
ENDBRANCH   7   8
ENDBRANCH   6   7
ENDBRANCH   5   6
ENDBRANCH   4   5
ENDBRANCH   3   4
ENDBRANCH   2   3
ENDBRANCH   1   2
BRANCH   1  12
ATOM     12  C   UNL     1       4.995  -1.425  -3.557  1.00  0.00     0.000 C 
BRANCH  12  13
ATOM     13  C   UNL     1       6.491  -1.639  -3.820  1.00  0.00    -0.000 C 
BRANCH  13  14
ATOM     14  C   UNL     1       6.953  -3.004  -3.290  1.00  0.00    -0.000 C 
BRANCH  14  15
ATOM     15  C   UNL     1       8.023  -2.893  -2.188  1.00  0.00    -0.000 C 
BRANCH  15  16
ATOM     16  C   UNL     1       7.478  -2.754  -0.755  1.00  0.00    -0.000 C 
BRANCH  16  17
ATOM     17  C   UNL     1       7.501  -1.306  -0.239  1.00  0.00    -0.000 C 
BRANCH  17  18
ATOM     18  C   UNL     1       6.102  -0.781   0.124  1.00  0.00    -0.000 C 
BRANCH  18  19
ATOM     19  C   UNL     1       5.791   0.612  -0.461  1.00  0.00    -0.003 C 
ATOM     20  C   UNL     1       6.895   1.108  -1.396  1.00  0.00     0.004 C 
ENDBRANCH  18  19
ENDBRANCH  17  18
ENDBRANCH  16  17
ENDBRANCH  15  16
ENDBRANCH  14  15
ENDBRANCH  13  14
ENDBRANCH  12  13
ENDBRANCH   1  12
TORSDOF 16
ENDMDL
MODEL 7
REMARK VINA RESULT:    -4.114      3.105      6.931
REMARK INTER + INTRA:          -9.608
REMARK INTER:                  -7.617
REMARK INTRA:                  -1.990
REMARK UNBOUND:                -1.646
REMARK SMILES CCCCCCCCCCCCCCCCCC(=O)[O-]
REMARK SMILES IDX 10 1 11 2 12 3 13 4 14 5 15 6 16 7 17 8 18 9 19 10 20 11
REMARK SMILES IDX 9 12 8 13 7 14 6 15 5 16 4 17 3 18 2 19 1 20
REMARK H PARENT
REMARK Flexibility Score: inf
ROOT
ATOM      1  C   UNL     1       7.880  -3.244  -1.406  1.00  0.00     0.000 C 
ENDROOT
BRANCH   1   2
ATOM      2  C   UNL     1       7.836  -2.833  -2.889  1.00  0.00     0.000 C 
BRANCH   2   3
ATOM      3  C   UNL     1       7.167  -3.854  -3.829  1.00  0.00     0.000 C 
BRANCH   3   4
ATOM      4  C   UNL     1       5.929  -3.291  -4.541  1.00  0.00     0.000 C 
BRANCH   4   5
ATOM      5  C   UNL     1       6.177  -1.856  -5.028  1.00  0.00     0.000 C 
BRANCH   5   6
ATOM      6  C   UNL     1       4.986  -0.919  -4.725  1.00  0.00     0.000 C 
BRANCH   6   7
ATOM      7  C   UNL     1       3.953  -1.529  -3.759  1.00  0.00     0.006 C 
BRANCH   7   8
ATOM      8  C   UNL     1       2.535  -1.630  -4.340  1.00  0.00     0.053 C 
BRANCH   8   9
ATOM      9  C   UNL     1       2.068  -3.052  -4.430  1.00  0.00     0.041 C 
ATOM     10  O   UNL     1       1.338  -3.535  -3.526  1.00  0.00    -0.550 OA
ATOM     11  O   UNL     1       2.419  -3.836  -5.522  1.00  0.00    -0.550 OA
ENDBRANCH   8   9
ENDBRANCH   7   8
ENDBRANCH   6   7
ENDBRANCH   5   6
ENDBRANCH   4   5
ENDBRANCH   3   4
ENDBRANCH   2   3
ENDBRANCH   1   2
BRANCH   1  12
ATOM     12  C   UNL     1       7.121  -2.271  -0.492  1.00  0.00     0.000 C 
BRANCH  12  13
ATOM     13  C   UNL     1       6.789  -0.969  -1.231  1.00  0.00    -0.000 C 
BRANCH  13  14
ATOM     14  C   UNL     1       5.448  -0.392  -0.755  1.00  0.00    -0.000 C 
BRANCH  14  15
ATOM     15  C   UNL     1       5.605   0.665   0.352  1.00  0.00    -0.000 C 
BRANCH  15  16
ATOM     16  C   UNL     1       5.846   0.106   1.766  1.00  0.00    -0.000 C 
BRANCH  16  17
ATOM     17  C   UNL     1       7.036   0.766   2.481  1.00  0.00    -0.000 C 
BRANCH  17  18
ATOM     18  C   UNL     1       8.353   0.622   1.700  1.00  0.00    -0.000 C 
BRANCH  18  19
ATOM     19  C   UNL     1       9.399  -0.265   2.407  1.00  0.00    -0.003 C 
ATOM     20  C   UNL     1       9.215  -0.281   3.925  1.00  0.00     0.004 C 
ENDBRANCH  18  19
ENDBRANCH  17  18
ENDBRANCH  16  17
ENDBRANCH  15  16
ENDBRANCH  14  15
ENDBRANCH  13  14
ENDBRANCH  12  13
ENDBRANCH   1  12
TORSDOF 16
ENDMDL
MODEL 8
REMARK VINA RESULT:    -4.090      1.363      2.985
REMARK INTER + INTRA:          -9.563
REMARK INTER:                  -7.674
REMARK INTRA:                  -1.889
REMARK UNBOUND:                -1.646
REMARK SMILES CCCCCCCCCCCCCCCCCC(=O)[O-]
REMARK SMILES IDX 10 1 11 2 12 3 13 4 14 5 15 6 16 7 17 8 18 9 19 10 20 11
REMARK SMILES IDX 9 12 8 13 7 14 6 15 5 16 4 17 3 18 2 19 1 20
REMARK H PARENT
REMARK Flexibility Score: inf
ROOT
ATOM      1  C   UNL     1       7.524  -2.999  -1.045  1.00  0.00     0.000 C 
ENDROOT
BRANCH   1   2
ATOM      2  C   UNL     1       7.654  -1.633  -0.348  1.00  0.00     0.000 C 
BRANCH   2   3
ATOM      3  C   UNL     1       6.338  -1.056   0.205  1.00  0.00     0.000 C 
BRANCH   3   4
ATOM      4  C   UNL     1       5.713   0.001  -0.717  1.00  0.00     0.000 C 
BRANCH   4   5
ATOM      5  C   UNL     1       6.778   0.654  -1.610  1.00  0.00     0.000 C 
BRANCH   5   6
ATOM      6  C   UNL     1       6.854   2.184  -1.410  1.00  0.00     0.000 C 
BRANCH   6   7
ATOM      7  C   UNL     1       6.014   2.693  -0.224  1.00  0.00     0.006 C 
BRANCH   7   8
ATOM      8  C   UNL     1       6.807   2.850   1.083  1.00  0.00     0.053 C 
BRANCH   8   9
ATOM      9  C   UNL     1       6.002   2.434   2.278  1.00  0.00     0.041 C 
ATOM     10  O   UNL     1       6.319   1.402   2.924  1.00  0.00    -0.550 OA
ATOM     11  O   UNL     1       4.919   3.199   2.692  1.00  0.00    -0.550 OA
ENDBRANCH   8   9
ENDBRANCH   7   8
ENDBRANCH   6   7
ENDBRANCH   5   6
ENDBRANCH   4   5
ENDBRANCH   3   4
ENDBRANCH   2   3
ENDBRANCH   1   2
BRANCH   1  12
ATOM     12  C   UNL     1       8.031  -2.983  -2.495  1.00  0.00     0.000 C 
BRANCH  12  13
ATOM     13  C   UNL     1       6.887  -3.250  -3.480  1.00  0.00    -0.000 C 
BRANCH  13  14
ATOM     14  C   UNL     1       6.410  -1.947  -4.137  1.00  0.00    -0.000 C 
BRANCH  14  15
ATOM     15  C   UNL     1       4.932  -1.629  -3.843  1.00  0.00    -0.000 C 
BRANCH  15  16
ATOM     16  C   UNL     1       4.126  -1.089  -5.038  1.00  0.00    -0.000 C 
BRANCH  16  17
ATOM     17  C   UNL     1       2.645  -1.501  -5.001  1.00  0.00    -0.000 C 
BRANCH  17  18
ATOM     18  C   UNL     1       2.294  -2.346  -3.764  1.00  0.00    -0.000 C 
BRANCH  18  19
ATOM     19  C   UNL     1       1.824  -3.776  -4.104  1.00  0.00    -0.003 C 
ATOM     20  C   UNL     1       2.138  -4.162  -5.550  1.00  0.00     0.004 C 
ENDBRANCH  18  19
ENDBRANCH  17  18
ENDBRANCH  16  17
ENDBRANCH  15  16
ENDBRANCH  14  15
ENDBRANCH  13  14
ENDBRANCH  12  13
ENDBRANCH   1  12
TORSDOF 16
ENDMDL
MODEL 9
REMARK VINA RESULT:    -4.054      1.683      3.974
REMARK INTER + INTRA:          -9.492
REMARK INTER:                  -8.435
REMARK INTRA:                  -1.057
REMARK UNBOUND:                -1.646
REMARK SMILES CCCCCCCCCCCCCCCCCC(=O)[O-]
REMARK SMILES IDX 10 1 11 2 12 3 13 4 14 5 15 6 16 7 17 8 18 9 19 10 20 11
REMARK SMILES IDX 9 12 8 13 7 14 6 15 5 16 4 17 3 18 2 19 1 20
REMARK H PARENT
REMARK Flexibility Score: inf
ROOT
ATOM      1  C   UNL     1       2.252  -2.002  -5.534  1.00  0.00     0.000 C 
ENDROOT
BRANCH   1   2
ATOM      2  C   UNL     1       3.315  -1.114  -4.862  1.00  0.00     0.000 C 
BRANCH   2   3
ATOM      3  C   UNL     1       4.774  -1.501  -5.167  1.00  0.00     0.000 C 
BRANCH   3   4
ATOM      4  C   UNL     1       5.516  -2.051  -3.941  1.00  0.00     0.000 C 
BRANCH   4   5
ATOM      5  C   UNL     1       6.128  -0.915  -3.109  1.00  0.00     0.000 C 
BRANCH   5   6
ATOM      6  C   UNL     1       6.196  -1.260  -1.604  1.00  0.00     0.000 C 
BRANCH   6   7
ATOM      7  C   UNL     1       5.618  -0.161  -0.693  1.00  0.00     0.006 C 
BRANCH   7   8
ATOM      8  C   UNL     1       6.514   0.196   0.503  1.00  0.00     0.053 C 
BRANCH   8   9
ATOM      9  C   UNL     1       5.710   0.599   1.702  1.00  0.00     0.041 C 
ATOM     10  O   UNL     1       5.340   1.793   1.843  1.00  0.00    -0.550 OA
ATOM     11  O   UNL     1       5.348  -0.349   2.652  1.00  0.00    -0.550 OA
ENDBRANCH   8   9
ENDBRANCH   7   8
ENDBRANCH   6   7
ENDBRANCH   5   6
ENDBRANCH   4   5
ENDBRANCH   3   4
ENDBRANCH   2   3
ENDBRANCH   1   2
BRANCH   1  12
ATOM     12  C   UNL     1       2.190  -3.417  -4.940  1.00  0.00     0.000 C 
BRANCH  12  13
ATOM     13  C   UNL     1       1.534  -3.402  -3.554  1.00  0.00    -0.000 C 
BRANCH  13  14
ATOM     14  C   UNL     1       0.943  -4.777  -3.210  1.00  0.00    -0.000 C 
BRANCH  14  15
ATOM     15  C   UNL     1       0.655  -4.951  -1.708  1.00  0.00    -0.000 C 
BRANCH  15  16
ATOM     16  C   UNL     1       1.129  -6.283  -1.098  1.00  0.00    -0.000 C 
BRANCH  16  17
ATOM     17  C   UNL     1       0.539  -7.513  -1.808  1.00  0.00    -0.000 C 
BRANCH  17  18
ATOM     18  C   UNL     1       1.516  -8.700  -1.851  1.00  0.00    -0.000 C 
BRANCH  18  19
ATOM     19  C   UNL     1       2.910  -8.336  -2.404  1.00  0.00    -0.003 C 
ATOM     20  C   UNL     1       2.850  -7.847  -3.852  1.00  0.00     0.004 C 
ENDBRANCH  18  19
ENDBRANCH  17  18
ENDBRANCH  16  17
ENDBRANCH  15  16
ENDBRANCH  14  15
ENDBRANCH  13  14
ENDBRANCH  12  13
ENDBRANCH   1  12
TORSDOF 16
ENDMDL
