MODEL 1
REMARK VINA RESULT:    -3.741      0.000      0.000
REMARK INTER + INTRA:          -4.752
REMARK INTER:                  -4.616
REMARK INTRA:                  -0.136
REMARK UNBOUND:                -0.136
REMARK SMILES CCCCCC(=O)[O-]
REMARK SMILES IDX 4 1 5 2 6 3 7 4 8 5 3 6 2 7 1 8
REMARK H PARENT
REMARK Flexibility Score: inf
ROOT
ATOM      1  C   UNL     1      32.274  19.366  13.622  1.00  0.00     0.006 C 
ENDROOT
BRANCH   1   2
ATOM      2  C   UNL     1      33.578  20.148  13.410  1.00  0.00     0.053 C 
BRANCH   2   3
ATOM      3  C   UNL     1      33.660  21.294  14.368  1.00  0.00     0.041 C 
ATOM      4  O   UNL     1      32.805  22.218  14.326  1.00  0.00    -0.550 OA
ATOM      5  O   UNL     1      34.709  21.367  15.275  1.00  0.00    -0.550 OA
ENDBRANCH   2   3
ENDBRANCH   1   2
BRANCH   1   6
ATOM      6  C   UNL     1      31.379  19.344  12.370  1.00  0.00     0.000 C 
BRANCH   6   7
ATOM      7  C   UNL     1      32.140  19.383  11.032  1.00  0.00    -0.003 C 
ATOM      8  C   UNL     1      31.858  18.170  10.147  1.00  0.00     0.004 C 
ENDBRANCH   6   7
ENDBRANCH   1   6
TORSDOF 4
ENDMDL
MODEL 2
REMARK VINA RESULT:    -3.692      2.735      4.463
REMARK INTER + INTRA:          -4.691
REMARK INTER:                  -4.586
REMARK INTRA:                  -0.105
REMARK UNBOUND:                -0.136
REMARK SMILES CCCCCC(=O)[O-]
REMARK SMILES IDX 4 1 5 2 6 3 7 4 8 5 3 6 2 7 1 8
REMARK H PARENT
REMARK Flexibility Score: inf
ROOT
ATOM      1  C   UNL     1      32.438  20.432  13.712  1.00  0.00     0.006 C 
ENDROOT
BRANCH   1   2
ATOM      2  C   UNL     1      31.907  19.052  13.303  1.00  0.00     0.053 C 
BRANCH   2   3
ATOM      3  C   UNL     1      31.362  19.095  11.911  1.00  0.00     0.041 C 
ATOM      4  O   UNL     1      30.125  18.971  11.710  1.00  0.00    -0.550 OA
ATOM      5  O   UNL     1      32.225  19.223  10.831  1.00  0.00    -0.550 OA
ENDBRANCH   2   3
ENDBRANCH   1   2
BRANCH   1   6
ATOM      6  C   UNL     1      33.976  20.513  13.688  1.00  0.00     0.000 C 
BRANCH   6   7
ATOM      7  C   UNL     1      34.599  21.295  14.859  1.00  0.00    -0.003 C 
ATOM      8  C   UNL     1      33.736  22.468  15.322  1.00  0.00     0.004 C 
ENDBRANCH   6   7
ENDBRANCH   1   6
TORSDOF 4
ENDMDL
MODEL 3
REMARK VINA RESULT:    -3.452     14.069     14.834
REMARK INTER + INTRA:          -4.395
REMARK INTER:                  -4.282
REMARK INTRA:                  -0.112
REMARK UNBOUND:                -0.136
REMARK SMILES CCCCCC(=O)[O-]
REMARK SMILES IDX 4 1 5 2 6 3 7 4 8 5 3 6 2 7 1 8
REMARK H PARENT
REMARK Flexibility Score: inf
ROOT
ATOM      1  C   UNL     1      30.039   6.131  13.177  1.00  0.00     0.006 C 
ENDROOT
BRANCH   1   2
ATOM      2  C   UNL     1      31.014   6.161  14.361  1.00  0.00     0.053 C 
BRANCH   2   3
ATOM      3  C   UNL     1      31.622   4.811  14.571  1.00  0.00     0.041 C 
ATOM      4  O   UNL     1      31.699   3.994  13.616  1.00  0.00    -0.550 OA
ATOM      5  O   UNL     1      32.061   4.435  15.834  1.00  0.00    -0.550 OA
ENDBRANCH   2   3
ENDBRANCH   1   2
BRANCH   1   6
ATOM      6  C   UNL     1      28.564   6.212  13.613  1.00  0.00     0.000 C 
BRANCH   6   7
ATOM      7  C   UNL     1      27.739   7.296  12.895  1.00  0.00    -0.003 C 
ATOM      8  C   UNL     1      28.382   7.774  11.594  1.00  0.00     0.004 C 
ENDBRANCH   6   7
ENDBRANCH   1   6
TORSDOF 4
ENDMDL
MODEL 4
REMARK VINA RESULT:    -3.434      2.318      3.948
REMARK INTER + INTRA:          -4.372
REMARK INTER:                  -4.134
REMARK INTRA:                  -0.238
REMARK UNBOUND:                -0.136
REMARK SMILES CCCCCC(=O)[O-]
REMARK SMILES IDX 4 1 5 2 6 3 7 4 8 5 3 6 2 7 1 8
REMARK H PARENT
REMARK Flexibility Score: inf
ROOT
ATOM      1  C   UNL     1      31.644  19.031  12.282  1.00  0.00     0.006 C 
ENDROOT
BRANCH   1   2
ATOM      2  C   UNL     1      31.420  20.268  11.402  1.00  0.00     0.053 C 
BRANCH   2   3
ATOM      3  C   UNL     1      30.197  21.008  11.844  1.00  0.00     0.041 C 
ATOM      4  O   UNL     1      29.056  20.628  11.471  1.00  0.00    -0.550 OA
ATOM      5  O   UNL     1      30.321  22.147  12.628  1.00  0.00    -0.550 OA
ENDBRANCH   2   3
ENDBRANCH   1   2
BRANCH   1   6
ATOM      6  C   UNL     1      32.274  19.372  13.644  1.00  0.00     0.000 C 
BRANCH   6   7
ATOM      7  C   UNL     1      33.559  20.216  13.568  1.00  0.00    -0.003 C 
ATOM      8  C   UNL     1      33.506  21.466  14.447  1.00  0.00     0.004 C 
ENDBRANCH   6   7
ENDBRANCH   1   6
TORSDOF 4
ENDMDL
MODEL 5
REMARK VINA RESULT:    -3.418      2.809      4.305
REMARK INTER + INTRA:          -4.354
REMARK INTER:                  -4.122
REMARK INTRA:                  -0.231
REMARK UNBOUND:                -0.136
REMARK SMILES CCCCCC(=O)[O-]
REMARK SMILES IDX 4 1 5 2 6 3 7 4 8 5 3 6 2 7 1 8
REMARK H PARENT
REMARK Flexibility Score: inf
ROOT
ATOM      1  C   UNL     1      31.993  19.066  10.941  1.00  0.00     0.006 C 
ENDROOT
BRANCH   1   2
ATOM      2  C   UNL     1      30.793  19.719  10.243  1.00  0.00     0.053 C 
BRANCH   2   3
ATOM      3  C   UNL     1      29.707  20.005  11.232  1.00  0.00     0.041 C 
ATOM      4  O   UNL     1      29.656  21.121  11.813  1.00  0.00    -0.550 OA
ATOM      5  O   UNL     1      28.780  19.021  11.548  1.00  0.00    -0.550 OA
ENDBRANCH   2   3
ENDBRANCH   1   2
BRANCH   1   6
ATOM      6  C   UNL     1      33.051  20.087  11.396  1.00  0.00     0.000 C 
BRANCH   6   7
ATOM      7  C   UNL     1      33.341  20.085  12.908  1.00  0.00    -0.003 C 
ATOM      8  C   UNL     1      32.333  19.263  13.710  1.00  0.00     0.004 C 
ENDBRANCH   6   7
ENDBRANCH   1   6
TORSDOF 4
ENDMDL
MODEL 6
REMARK VINA RESULT:    -3.377     13.627     14.586
REMARK INTER + INTRA:          -4.303
REMARK INTER:                  -4.192
REMARK INTRA:                  -0.111
REMARK UNBOUND:                -0.136
REMARK SMILES CCCCCC(=O)[O-]
REMARK SMILES IDX 4 1 5 2 6 3 7 4 8 5 3 6 2 7 1 8
REMARK H PARENT
REMARK Flexibility Score: inf
ROOT
ATOM      1  C   UNL     1      28.676   6.198  13.601  1.00  0.00     0.006 C 
ENDROOT
BRANCH   1   2
ATOM      2  C   UNL     1      28.077   7.414  12.883  1.00  0.00     0.053 C 
BRANCH   2   3
ATOM      3  C   UNL     1      28.207   7.262  11.400  1.00  0.00     0.041 C 
ATOM      4  O   UNL     1      27.573   6.357  10.797  1.00  0.00    -0.550 OA
ATOM      5  O   UNL     1      29.069   8.088  10.691  1.00  0.00    -0.550 OA
ENDBRANCH   2   3
ENDBRANCH   1   2
BRANCH   1   6
ATOM      6  C   UNL     1      30.153   5.957  13.239  1.00  0.00     0.000 C 
BRANCH   6   7
ATOM      7  C   UNL     1      31.147   6.214  14.386  1.00  0.00    -0.003 C 
ATOM      8  C   UNL     1      31.573   4.936  15.107  1.00  0.00     0.004 C 
ENDBRANCH   6   7
ENDBRANCH   1   6
TORSDOF 4
ENDMDL
MODEL 7
REMARK VINA RESULT:    -3.314      2.001      2.537
REMARK INTER + INTRA:          -4.224
REMARK INTER:                  -4.133
REMARK INTRA:                  -0.091
REMARK UNBOUND:                -0.136
REMARK SMILES CCCCCC(=O)[O-]
REMARK SMILES IDX 4 1 5 2 6 3 7 4 8 5 3 6 2 7 1 8
REMARK H PARENT
REMARK Flexibility Score: inf
ROOT
ATOM      1  C   UNL     1      31.491  19.021  11.903  1.00  0.00     0.006 C 
ENDROOT
BRANCH   1   2
ATOM      2  C   UNL     1      31.791  19.165  13.400  1.00  0.00     0.053 C 
BRANCH   2   3
ATOM      3  C   UNL     1      32.738  20.298  13.636  1.00  0.00     0.041 C 
ATOM      4  O   UNL     1      32.302  21.435  13.958  1.00  0.00    -0.550 OA
ATOM      5  O   UNL     1      34.102  20.112  13.451  1.00  0.00    -0.550 OA
ENDBRANCH   2   3
ENDBRANCH   1   2
BRANCH   1   6
ATOM      6  C   UNL     1      30.161  19.679  11.492  1.00  0.00     0.000 C 
BRANCH   6   7
ATOM      7  C   UNL     1      28.940  18.742  11.529  1.00  0.00    -0.003 C 
ATOM      8  C   UNL     1      27.609  19.494  11.528  1.00  0.00     0.004 C 
ENDBRANCH   6   7
ENDBRANCH   1   6
TORSDOF 4
ENDMDL
MODEL 8
REMARK VINA RESULT:    -3.243     17.775     18.433
REMARK INTER + INTRA:          -4.137
REMARK INTER:                  -4.014
REMARK INTRA:                  -0.123
REMARK UNBOUND:                -0.136
REMARK SMILES CCCCCC(=O)[O-]
REMARK SMILES IDX 4 1 5 2 6 3 7 4 8 5 3 6 2 7 1 8
REMARK H PARENT
REMARK Flexibility Score: inf
ROOT
ATOM      1  C   UNL     1      34.703   9.505  29.274  1.00  0.00     0.006 C 
ENDROOT
BRANCH   1   2
ATOM      2  C   UNL     1      33.851  10.768  29.455  1.00  0.00     0.053 C 
BRANCH   2   3
ATOM      3  C   UNL     1      34.714  11.989  29.414  1.00  0.00     0.041 C 
ATOM      4  O   UNL     1      35.967  11.880  29.368  1.00  0.00    -0.550 OA
ATOM      5  O   UNL     1      34.135  13.251  29.476  1.00  0.00    -0.550 OA
ENDBRANCH   2   3
ENDBRANCH   1   2
BRANCH   1   6
ATOM      6  C   UNL     1      34.490   8.830  27.906  1.00  0.00     0.000 C 
BRANCH   6   7
ATOM      7  C   UNL     1      35.706   8.885  26.964  1.00  0.00    -0.003 C 
ATOM      8  C   UNL     1      35.563   7.971  25.748  1.00  0.00     0.004 C 
ENDBRANCH   6   7
ENDBRANCH   1   6
TORSDOF 4
ENDMDL
MODEL 9
REMARK VINA RESULT:    -3.228     15.249     16.148
REMARK INTER + INTRA:          -4.118
REMARK INTER:                  -3.842
REMARK INTRA:                  -0.277
REMARK UNBOUND:                -0.136
REMARK SMILES CCCCCC(=O)[O-]
REMARK SMILES IDX 4 1 5 2 6 3 7 4 8 5 3 6 2 7 1 8
REMARK H PARENT
REMARK Flexibility Score: inf
ROOT
ATOM      1  C   UNL     1      30.211   6.096  13.857  1.00  0.00     0.006 C 
ENDROOT
BRANCH   1   2
ATOM      2  C   UNL     1      29.995   5.778  12.371  1.00  0.00     0.053 C 
BRANCH   2   3
ATOM      3  C   UNL     1      29.954   4.299  12.155  1.00  0.00     0.041 C 
ATOM      4  O   UNL     1      29.097   3.594  12.751  1.00  0.00    -0.550 OA
ATOM      5  O   UNL     1      30.893   3.690  11.333  1.00  0.00    -0.550 OA
ENDBRANCH   2   3
ENDBRANCH   1   2
BRANCH   1   6
ATOM      6  C   UNL     1      31.616   5.710  14.354  1.00  0.00     0.000 C 
BRANCH   6   7
ATOM      7  C   UNL     1      31.636   4.655  15.475  1.00  0.00    -0.003 C 
ATOM      8  C   UNL     1      32.073   3.274  14.989  1.00  0.00     0.004 C 
ENDBRANCH   6   7
ENDBRANCH   1   6
TORSDOF 4
ENDMDL
