MODEL 1
REMARK VINA RESULT:    -6.573      0.000      0.000
REMARK INTER + INTRA:          -8.248
REMARK INTER:                  -7.918
REMARK INTRA:                  -0.330
REMARK UNBOUND:                -0.330
REMARK SMILES O=c1c(O)c(-c2ccc(O)c(O)c2)oc2cc(O)cc(O)c12
REMARK SMILES IDX 5 1 3 2 2 3 1 4 22 5 20 6 19 7 17 8 16 9 15 10 14 11 6 12
REMARK SMILES IDX 7 13 8 14 9 15 13 16 11 17 10 18 12 20 4 22 21 24 18 26
REMARK H PARENT 10 19 12 21 4 23 21 25 18 27
REMARK Flexibility Score: inf
ROOT
ATOM      1  C   UNL     1      -1.623  47.955  83.115  1.00  0.00     0.180 A 
ATOM      2  C   UNL     1      -2.647  47.362  83.872  1.00  0.00     0.208 A 
ATOM      3  C   UNL     1      -2.689  47.589  85.257  1.00  0.00     0.238 A 
ATOM      4  O   UNL     1      -3.577  47.011  85.938  1.00  0.00    -0.285 OA
ATOM      5  C   UNL     1      -1.717  48.420  85.864  1.00  0.00     0.111 A 
ATOM      6  C   UNL     1      -1.688  48.752  87.252  1.00  0.00     0.134 A 
ATOM      7  C   UNL     1      -0.605  49.476  87.766  1.00  0.00     0.093 A 
ATOM      8  C   UNL     1       0.416  49.937  86.931  1.00  0.00     0.123 A 
ATOM      9  C   UNL     1       0.365  49.669  85.565  1.00  0.00     0.094 A 
ATOM     10  C   UNL     1      -0.684  48.918  85.028  1.00  0.00     0.146 A 
ATOM     11  O   UNL     1      -0.688  48.676  83.723  1.00  0.00    -0.452 OA
ENDROOT
BRANCH   1  12
ATOM     12  C   UNL     1      -1.528  47.783  81.647  1.00  0.00     0.025 A 
ATOM     13  C   UNL     1      -0.759  46.731  81.123  1.00  0.00     0.016 A 
ATOM     14  C   UNL     1      -0.638  46.562  79.742  1.00  0.00     0.051 A 
ATOM     15  C   UNL     1      -1.269  47.447  78.864  1.00  0.00     0.157 A 
ATOM     16  C   UNL     1      -2.144  48.685  80.762  1.00  0.00     0.062 A 
ATOM     17  C   UNL     1      -2.023  48.517  79.374  1.00  0.00     0.158 A 
BRANCH  15  18
ATOM     18  O   UNL     1      -1.132  47.252  77.490  1.00  0.00    -0.504 OA
ATOM     19  H   UNL     1      -0.862  46.357  77.097  1.00  0.00     0.293 HD
ENDBRANCH  15  18
BRANCH  17  20
ATOM     20  O   UNL     1      -2.643  49.413  78.504  1.00  0.00    -0.504 OA
ATOM     21  H   UNL     1      -2.765  50.390  78.745  1.00  0.00     0.293 HD
ENDBRANCH  17  20
ENDBRANCH   1  12
BRANCH   2  22
ATOM     22  O   UNL     1      -3.584  46.527  83.256  1.00  0.00    -0.502 OA
ATOM     23  H   UNL     1      -3.686  46.472  82.251  1.00  0.00     0.293 HD
ENDBRANCH   2  22
BRANCH   6  24
ATOM     24  O   UNL     1      -2.702  48.421  88.156  1.00  0.00    -0.507 OA
ATOM     25  H   UNL     1      -3.676  48.324  87.915  1.00  0.00     0.293 HD
ENDBRANCH   6  24
BRANCH   8  26
ATOM     26  O   UNL     1       1.481  50.670  87.448  1.00  0.00    -0.508 OA
ATOM     27  H   UNL     1       2.442  50.377  87.309  1.00  0.00     0.293 HD
ENDBRANCH   8  26
TORSDOF 6
ENDMDL
MODEL 2
REMARK VINA RESULT:    -6.501      1.861      6.999
REMARK INTER + INTRA:          -8.161
REMARK INTER:                  -7.922
REMARK INTRA:                  -0.239
REMARK UNBOUND:                -0.330
REMARK SMILES O=c1c(O)c(-c2ccc(O)c(O)c2)oc2cc(O)cc(O)c12
REMARK SMILES IDX 5 1 3 2 2 3 1 4 22 5 20 6 19 7 17 8 16 9 15 10 14 11 6 12
REMARK SMILES IDX 7 13 8 14 9 15 13 16 11 17 10 18 12 20 4 22 21 24 18 26
REMARK H PARENT 10 19 12 21 4 23 21 25 18 27
REMARK Flexibility Score: inf
ROOT
ATOM      1  C   UNL     1      -1.123  47.394  84.301  1.00  0.00     0.180 A 
ATOM      2  C   UNL     1      -0.581  46.107  84.145  1.00  0.00     0.208 A 
ATOM      3  C   UNL     1      -0.348  45.618  82.850  1.00  0.00     0.238 A 
ATOM      4  O   UNL     1       0.086  44.443  82.716  1.00  0.00    -0.285 OA
ATOM      5  C   UNL     1      -0.645  46.428  81.728  1.00  0.00     0.111 A 
ATOM      6  C   UNL     1      -0.412  46.049  80.371  1.00  0.00     0.134 A 
ATOM      7  C   UNL     1      -0.864  46.876  79.337  1.00  0.00     0.093 A 
ATOM      8  C   UNL     1      -1.482  48.100  79.609  1.00  0.00     0.123 A 
ATOM      9  C   UNL     1      -1.661  48.505  80.930  1.00  0.00     0.094 A 
ATOM     10  C   UNL     1      -1.252  47.684  81.984  1.00  0.00     0.146 A 
ATOM     11  O   UNL     1      -1.451  48.104  83.228  1.00  0.00    -0.452 OA
ENDROOT
BRANCH   1  12
ATOM     12  C   UNL     1      -1.372  47.988  85.634  1.00  0.00     0.025 A 
ATOM     13  C   UNL     1      -2.692  48.231  86.047  1.00  0.00     0.016 A 
ATOM     14  C   UNL     1      -2.950  48.810  87.292  1.00  0.00     0.051 A 
ATOM     15  C   UNL     1      -1.896  49.168  88.137  1.00  0.00     0.157 A 
ATOM     16  C   UNL     1      -0.312  48.369  86.477  1.00  0.00     0.062 A 
ATOM     17  C   UNL     1      -0.570  48.952  87.727  1.00  0.00     0.158 A 
BRANCH  15  18
ATOM     18  O   UNL     1      -2.184  49.742  89.374  1.00  0.00    -0.504 OA
ATOM     19  H   UNL     1      -1.456  50.077  89.995  1.00  0.00     0.293 HD
ENDBRANCH  15  18
BRANCH  17  20
ATOM     20  O   UNL     1       0.487  49.320  88.558  1.00  0.00    -0.504 OA
ATOM     21  H   UNL     1       0.697  48.811  89.409  1.00  0.00     0.293 HD
ENDBRANCH  17  20
ENDBRANCH   1  12
BRANCH   2  22
ATOM     22  O   UNL     1      -0.316  45.315  85.267  1.00  0.00    -0.502 OA
ATOM     23  H   UNL     1      -1.046  44.991  85.889  1.00  0.00     0.293 HD
ENDBRANCH   2  22
BRANCH   6  24
ATOM     24  O   UNL     1       0.279  44.894  79.990  1.00  0.00    -0.507 OA
ATOM     25  H   UNL     1       0.463  44.624  79.036  1.00  0.00     0.293 HD
ENDBRANCH   6  24
BRANCH   8  26
ATOM     26  O   UNL     1      -1.916  48.924  78.573  1.00  0.00    -0.508 OA
ATOM     27  H   UNL     1      -1.824  48.648  77.602  1.00  0.00     0.293 HD
ENDBRANCH   8  26
TORSDOF 6
ENDMDL
MODEL 3
REMARK VINA RESULT:    -6.404      8.254      9.106
REMARK INTER + INTRA:          -8.044
REMARK INTER:                  -7.784
REMARK INTRA:                  -0.259
REMARK UNBOUND:                -0.330
REMARK SMILES O=c1c(O)c(-c2ccc(O)c(O)c2)oc2cc(O)cc(O)c12
REMARK SMILES IDX 5 1 3 2 2 3 1 4 22 5 20 6 19 7 17 8 16 9 15 10 14 11 6 12
REMARK SMILES IDX 7 13 8 14 9 15 13 16 11 17 10 18 12 20 4 22 21 24 18 26
REMARK H PARENT 10 19 12 21 4 23 21 25 18 27
REMARK Flexibility Score: inf
ROOT
ATOM      1  C   UNL     1       4.260  42.265  84.548  1.00  0.00     0.180 A 
ATOM      2  C   UNL     1       4.217  41.855  85.891  1.00  0.00     0.208 A 
ATOM      3  C   UNL     1       5.169  42.364  86.789  1.00  0.00     0.238 A 
ATOM      4  O   UNL     1       5.159  41.951  87.979  1.00  0.00    -0.285 OA
ATOM      5  C   UNL     1       6.140  43.289  86.337  1.00  0.00     0.111 A 
ATOM      6  C   UNL     1       7.127  43.899  87.169  1.00  0.00     0.134 A 
ATOM      7  C   UNL     1       8.119  44.699  86.589  1.00  0.00     0.093 A 
ATOM      8  C   UNL     1       8.122  44.964  85.217  1.00  0.00     0.123 A 
ATOM      9  C   UNL     1       7.128  44.420  84.406  1.00  0.00     0.094 A 
ATOM     10  C   UNL     1       6.146  43.589  84.950  1.00  0.00     0.146 A 
ATOM     11  O   UNL     1       5.224  43.083  84.140  1.00  0.00    -0.452 OA
ENDROOT
BRANCH   1  12
ATOM     12  C   UNL     1       3.276  41.792  83.548  1.00  0.00     0.025 A 
ATOM     13  C   UNL     1       2.228  42.639  83.154  1.00  0.00     0.016 A 
ATOM     14  C   UNL     1       1.277  42.206  82.227  1.00  0.00     0.051 A 
ATOM     15  C   UNL     1       1.348  40.917  81.692  1.00  0.00     0.157 A 
ATOM     16  C   UNL     1       3.333  40.488  83.024  1.00  0.00     0.062 A 
ATOM     17  C   UNL     1       2.378  40.050  82.094  1.00  0.00     0.158 A 
BRANCH  15  18
ATOM     18  O   UNL     1       0.385  40.513  80.767  1.00  0.00    -0.504 OA
ATOM     19  H   UNL     1       0.508  40.645  79.769  1.00  0.00     0.293 HD
ENDBRANCH  15  18
BRANCH  17  20
ATOM     20  O   UNL     1       2.446  38.758  81.575  1.00  0.00    -0.504 OA
ATOM     21  H   UNL     1       2.912  38.563  80.697  1.00  0.00     0.293 HD
ENDBRANCH  17  20
ENDBRANCH   1  12
BRANCH   2  22
ATOM     22  O   UNL     1       3.264  40.924  86.312  1.00  0.00    -0.502 OA
ATOM     23  H   UNL     1       2.783  40.308  85.669  1.00  0.00     0.293 HD
ENDBRANCH   2  22
BRANCH   6  24
ATOM     24  O   UNL     1       7.159  43.776  88.561  1.00  0.00    -0.507 OA
ATOM     25  H   UNL     1       7.958  43.462  89.091  1.00  0.00     0.293 HD
ENDBRANCH   6  24
BRANCH   8  26
ATOM     26  O   UNL     1       9.104  45.773  84.650  1.00  0.00    -0.508 OA
ATOM     27  H   UNL     1       9.638  46.428  85.210  1.00  0.00     0.293 HD
ENDBRANCH   8  26
TORSDOF 6
ENDMDL
MODEL 4
REMARK VINA RESULT:    -6.370      2.255      3.032
REMARK INTER + INTRA:          -8.003
REMARK INTER:                  -7.723
REMARK INTRA:                  -0.280
REMARK UNBOUND:                -0.330
REMARK SMILES O=c1c(O)c(-c2ccc(O)c(O)c2)oc2cc(O)cc(O)c12
REMARK SMILES IDX 5 1 3 2 2 3 1 4 22 5 20 6 19 7 17 8 16 9 15 10 14 11 6 12
REMARK SMILES IDX 7 13 8 14 9 15 13 16 11 17 10 18 12 20 4 22 21 24 18 26
REMARK H PARENT 10 19 12 21 4 23 21 25 18 27
REMARK Flexibility Score: inf
ROOT
ATOM      1  C   UNL     1      -1.105  47.077  81.527  1.00  0.00     0.180 A 
ATOM      2  C   UNL     1      -1.702  48.257  82.001  1.00  0.00     0.208 A 
ATOM      3  C   UNL     1      -1.430  48.680  83.311  1.00  0.00     0.238 A 
ATOM      4  O   UNL     1      -2.011  49.709  83.748  1.00  0.00    -0.285 OA
ATOM      5  C   UNL     1      -0.551  47.927  84.126  1.00  0.00     0.111 A 
ATOM      6  C   UNL     1      -0.173  48.283  85.455  1.00  0.00     0.134 A 
ATOM      7  C   UNL     1       0.600  47.396  86.214  1.00  0.00     0.093 A 
ATOM      8  C   UNL     1       1.063  46.195  85.670  1.00  0.00     0.123 A 
ATOM      9  C   UNL     1       0.747  45.866  84.354  1.00  0.00     0.094 A 
ATOM     10  C   UNL     1      -0.052  46.714  83.583  1.00  0.00     0.146 A 
ATOM     11  O   UNL     1      -0.338  46.357  82.337  1.00  0.00    -0.452 OA
ENDROOT
BRANCH   1  12
ATOM     12  C   UNL     1      -1.324  46.581  80.149  1.00  0.00     0.025 A 
ATOM     13  C   UNL     1      -2.126  45.447  79.942  1.00  0.00     0.016 A 
ATOM     14  C   UNL     1      -2.329  44.950  78.652  1.00  0.00     0.051 A 
ATOM     15  C   UNL     1      -1.725  45.567  77.553  1.00  0.00     0.157 A 
ATOM     16  C   UNL     1      -0.700  47.188  79.044  1.00  0.00     0.062 A 
ATOM     17  C   UNL     1      -0.902  46.689  77.748  1.00  0.00     0.158 A 
BRANCH  15  18
ATOM     18  O   UNL     1      -1.948  45.049  76.278  1.00  0.00    -0.504 OA
ATOM     19  H   UNL     1      -2.220  44.084  76.128  1.00  0.00     0.293 HD
ENDBRANCH  15  18
BRANCH  17  20
ATOM     20  O   UNL     1      -0.285  47.301  76.659  1.00  0.00    -0.504 OA
ATOM     21  H   UNL     1       0.668  47.079  76.394  1.00  0.00     0.293 HD
ENDBRANCH  17  20
ENDBRANCH   1  12
BRANCH   2  22
ATOM     22  O   UNL     1      -2.585  48.975  81.188  1.00  0.00    -0.502 OA
ATOM     23  H   UNL     1      -2.828  48.675  80.251  1.00  0.00     0.293 HD
ENDBRANCH   2  22
BRANCH   6  24
ATOM     24  O   UNL     1      -0.502  49.499  86.062  1.00  0.00    -0.507 OA
ATOM     25  H   UNL     1      -1.126  50.187  85.667  1.00  0.00     0.293 HD
ENDBRANCH   6  24
BRANCH   8  26
ATOM     26  O   UNL     1       1.843  45.325  86.428  1.00  0.00    -0.508 OA
ATOM     27  H   UNL     1       2.570  45.667  87.046  1.00  0.00     0.293 HD
ENDBRANCH   8  26
TORSDOF 6
ENDMDL
MODEL 5
REMARK VINA RESULT:    -6.296      2.720      3.516
REMARK INTER + INTRA:          -7.913
REMARK INTER:                  -7.761
REMARK INTRA:                  -0.152
REMARK UNBOUND:                -0.330
REMARK SMILES O=c1c(O)c(-c2ccc(O)c(O)c2)oc2cc(O)cc(O)c12
REMARK SMILES IDX 5 1 3 2 2 3 1 4 22 5 20 6 19 7 17 8 16 9 15 10 14 11 6 12
REMARK SMILES IDX 7 13 8 14 9 15 13 16 11 17 10 18 12 20 4 22 21 24 18 26
REMARK H PARENT 10 19 12 21 4 23 21 25 18 27
REMARK Flexibility Score: inf
ROOT
ATOM      1  C   UNL     1      -0.284  45.921  81.505  1.00  0.00     0.180 A 
ATOM      2  C   UNL     1       0.432  44.859  82.082  1.00  0.00     0.208 A 
ATOM      3  C   UNL     1       0.860  44.971  83.414  1.00  0.00     0.238 A 
ATOM      4  O   UNL     1       1.548  44.039  83.909  1.00  0.00    -0.285 OA
ATOM      5  C   UNL     1       0.551  46.135  84.158  1.00  0.00     0.111 A 
ATOM      6  C   UNL     1       0.900  46.338  85.527  1.00  0.00     0.134 A 
ATOM      7  C   UNL     1       0.659  47.582  86.124  1.00  0.00     0.093 A 
ATOM      8  C   UNL     1       0.022  48.608  85.421  1.00  0.00     0.123 A 
ATOM      9  C   UNL     1      -0.375  48.398  84.102  1.00  0.00     0.094 A 
ATOM     10  C   UNL     1      -0.116  47.181  83.468  1.00  0.00     0.146 A 
ATOM     11  O   UNL     1      -0.501  47.027  82.207  1.00  0.00    -0.452 OA
ENDROOT
BRANCH   1  12
ATOM     12  C   UNL     1      -0.790  45.867  80.114  1.00  0.00     0.025 A 
ATOM     13  C   UNL     1      -1.743  44.898  79.762  1.00  0.00     0.016 A 
ATOM     14  C   UNL     1      -2.219  44.815  78.451  1.00  0.00     0.051 A 
ATOM     15  C   UNL     1      -1.740  45.687  77.469  1.00  0.00     0.157 A 
ATOM     16  C   UNL     1      -0.294  46.730  79.120  1.00  0.00     0.062 A 
ATOM     17  C   UNL     1      -0.770  46.647  77.802  1.00  0.00     0.158 A 
BRANCH  15  18
ATOM     18  O   UNL     1      -2.235  45.582  76.170  1.00  0.00    -0.504 OA
ATOM     19  H   UNL     1      -2.932  46.222  75.806  1.00  0.00     0.293 HD
ENDBRANCH  15  18
BRANCH  17  20
ATOM     20  O   UNL     1      -0.277  47.511  76.825  1.00  0.00    -0.504 OA
ATOM     21  H   UNL     1      -0.894  48.091  76.269  1.00  0.00     0.293 HD
ENDBRANCH  17  20
ENDBRANCH   1  12
BRANCH   2  22
ATOM     22  O   UNL     1       0.745  43.728  81.323  1.00  0.00    -0.502 OA
ATOM     23  H   UNL     1       1.697  43.410  81.187  1.00  0.00     0.293 HD
ENDBRANCH   2  22
BRANCH   6  24
ATOM     24  O   UNL     1       1.454  45.350  86.347  1.00  0.00    -0.507 OA
ATOM     25  H   UNL     1       2.335  44.889  86.175  1.00  0.00     0.293 HD
ENDBRANCH   6  24
BRANCH   8  26
ATOM     26  O   UNL     1      -0.228  49.837  86.026  1.00  0.00    -0.508 OA
ATOM     27  H   UNL     1      -1.036  50.396  85.777  1.00  0.00     0.293 HD
ENDBRANCH   8  26
TORSDOF 6
ENDMDL
MODEL 6
REMARK VINA RESULT:    -6.236      4.498      5.907
REMARK INTER + INTRA:          -7.841
REMARK INTER:                  -7.755
REMARK INTRA:                  -0.086
REMARK UNBOUND:                -0.330
REMARK SMILES O=c1c(O)c(-c2ccc(O)c(O)c2)oc2cc(O)cc(O)c12
REMARK SMILES IDX 5 1 3 2 2 3 1 4 22 5 20 6 19 7 17 8 16 9 15 10 14 11 6 12
REMARK SMILES IDX 7 13 8 14 9 15 13 16 11 17 10 18 12 20 4 22 21 24 18 26
REMARK H PARENT 10 19 12 21 4 23 21 25 18 27
REMARK Flexibility Score: inf
ROOT
ATOM      1  C   UNL     1       0.380  44.839  81.139  1.00  0.00     0.180 A 
ATOM      2  C   UNL     1       0.270  43.510  80.696  1.00  0.00     0.208 A 
ATOM      3  C   UNL     1       0.921  42.496  81.416  1.00  0.00     0.238 A 
ATOM      4  O   UNL     1       0.864  41.314  80.984  1.00  0.00    -0.285 OA
ATOM      5  C   UNL     1       1.660  42.821  82.579  1.00  0.00     0.111 A 
ATOM      6  C   UNL     1       2.326  41.869  83.409  1.00  0.00     0.134 A 
ATOM      7  C   UNL     1       3.136  42.317  84.459  1.00  0.00     0.093 A 
ATOM      8  C   UNL     1       3.251  43.679  84.752  1.00  0.00     0.123 A 
ATOM      9  C   UNL     1       2.557  44.611  83.985  1.00  0.00     0.094 A 
ATOM     10  C   UNL     1       1.770  44.198  82.907  1.00  0.00     0.146 A 
ATOM     11  O   UNL     1       1.134  45.120  82.195  1.00  0.00    -0.452 OA
ENDROOT
BRANCH   1  12
ATOM     12  C   UNL     1      -0.298  45.958  80.447  1.00  0.00     0.025 A 
ATOM     13  C   UNL     1      -1.251  46.723  81.138  1.00  0.00     0.016 A 
ATOM     14  C   UNL     1      -1.918  47.771  80.499  1.00  0.00     0.051 A 
ATOM     15  C   UNL     1      -1.656  48.062  79.158  1.00  0.00     0.157 A 
ATOM     16  C   UNL     1      -0.051  46.239  79.091  1.00  0.00     0.062 A 
ATOM     17  C   UNL     1      -0.721  47.290  78.447  1.00  0.00     0.158 A 
BRANCH  15  18
ATOM     18  O   UNL     1      -2.335  49.115  78.546  1.00  0.00    -0.504 OA
ATOM     19  H   UNL     1      -1.857  49.946  78.217  1.00  0.00     0.293 HD
ENDBRANCH  15  18
BRANCH  17  20
ATOM     20  O   UNL     1      -0.465  47.565  77.104  1.00  0.00    -0.504 OA
ATOM     21  H   UNL     1      -1.195  47.518  76.403  1.00  0.00     0.293 HD
ENDBRANCH  17  20
ENDBRANCH   1  12
BRANCH   2  22
ATOM     22  O   UNL     1      -0.446  43.213  79.533  1.00  0.00    -0.502 OA
ATOM     23  H   UNL     1      -1.442  43.028  79.539  1.00  0.00     0.293 HD
ENDBRANCH   2  22
BRANCH   6  24
ATOM     24  O   UNL     1       2.204  40.484  83.261  1.00  0.00    -0.507 OA
ATOM     25  H   UNL     1       2.561  39.957  82.480  1.00  0.00     0.293 HD
ENDBRANCH   6  24
BRANCH   8  26
ATOM     26  O   UNL     1       4.046  44.114  85.809  1.00  0.00    -0.508 OA
ATOM     27  H   UNL     1       4.819  43.557  86.156  1.00  0.00     0.293 HD
ENDBRANCH   8  26
TORSDOF 6
ENDMDL
MODEL 7
REMARK VINA RESULT:    -6.058      4.381      5.634
REMARK INTER + INTRA:          -7.627
REMARK INTER:                  -7.578
REMARK INTRA:                  -0.049
REMARK UNBOUND:                -0.330
REMARK SMILES O=c1c(O)c(-c2ccc(O)c(O)c2)oc2cc(O)cc(O)c12
REMARK SMILES IDX 5 1 3 2 2 3 1 4 22 5 20 6 19 7 17 8 16 9 15 10 14 11 6 12
REMARK SMILES IDX 7 13 8 14 9 15 13 16 11 17 10 18 12 20 4 22 21 24 18 26
REMARK H PARENT 10 19 12 21 4 23 21 25 18 27
REMARK Flexibility Score: inf
ROOT
ATOM      1  C   UNL     1       1.096  45.496  83.687  1.00  0.00     0.180 A 
ATOM      2  C   UNL     1       0.361  46.027  82.614  1.00  0.00     0.208 A 
ATOM      3  C   UNL     1      -0.359  47.216  82.804  1.00  0.00     0.238 A 
ATOM      4  O   UNL     1      -1.059  47.658  81.854  1.00  0.00    -0.285 OA
ATOM      5  C   UNL     1      -0.323  47.868  84.059  1.00  0.00     0.111 A 
ATOM      6  C   UNL     1      -0.982  49.100  84.352  1.00  0.00     0.134 A 
ATOM      7  C   UNL     1      -0.985  49.586  85.665  1.00  0.00     0.093 A 
ATOM      8  C   UNL     1      -0.297  48.920  86.683  1.00  0.00     0.123 A 
ATOM      9  C   UNL     1       0.399  47.749  86.394  1.00  0.00     0.094 A 
ATOM     10  C   UNL     1       0.390  47.220  85.101  1.00  0.00     0.146 A 
ATOM     11  O   UNL     1       1.058  46.095  84.871  1.00  0.00    -0.452 OA
ENDROOT
BRANCH   1  12
ATOM     12  C   UNL     1       1.900  44.259  83.556  1.00  0.00     0.025 A 
ATOM     13  C   UNL     1       1.276  43.067  83.155  1.00  0.00     0.016 A 
ATOM     14  C   UNL     1       2.012  41.885  83.045  1.00  0.00     0.051 A 
ATOM     15  C   UNL     1       3.376  41.870  83.347  1.00  0.00     0.157 A 
ATOM     16  C   UNL     1       3.269  44.238  83.880  1.00  0.00     0.062 A 
ATOM     17  C   UNL     1       4.009  43.051  83.771  1.00  0.00     0.158 A 
BRANCH  15  18
ATOM     18  O   UNL     1       4.085  40.675  83.226  1.00  0.00    -0.504 OA
ATOM     19  H   UNL     1       4.414  40.160  84.035  1.00  0.00     0.293 HD
ENDBRANCH  15  18
BRANCH  17  20
ATOM     20  O   UNL     1       5.367  43.041  84.088  1.00  0.00    -0.504 OA
ATOM     21  H   UNL     1       6.056  43.474  83.485  1.00  0.00     0.293 HD
ENDBRANCH  17  20
ENDBRANCH   1  12
BRANCH   2  22
ATOM     22  O   UNL     1       0.321  45.355  81.388  1.00  0.00    -0.502 OA
ATOM     23  H   UNL     1       1.127  44.883  80.999  1.00  0.00     0.293 HD
ENDBRANCH   2  22
BRANCH   6  24
ATOM     24  O   UNL     1      -1.620  49.893  83.392  1.00  0.00    -0.507 OA
ATOM     25  H   UNL     1      -2.519  49.688  82.985  1.00  0.00     0.293 HD
ENDBRANCH   6  24
BRANCH   8  26
ATOM     26  O   UNL     1      -0.292  49.419  87.983  1.00  0.00    -0.508 OA
ATOM     27  H   UNL     1      -0.339  48.804  88.787  1.00  0.00     0.293 HD
ENDBRANCH   8  26
TORSDOF 6
ENDMDL
MODEL 8
REMARK VINA RESULT:    -5.970      1.963      6.880
REMARK INTER + INTRA:          -7.522
REMARK INTER:                  -7.208
REMARK INTRA:                  -0.313
REMARK UNBOUND:                -0.330
REMARK SMILES O=c1c(O)c(-c2ccc(O)c(O)c2)oc2cc(O)cc(O)c12
REMARK SMILES IDX 5 1 3 2 2 3 1 4 22 5 20 6 19 7 17 8 16 9 15 10 14 11 6 12
REMARK SMILES IDX 7 13 8 14 9 15 13 16 11 17 10 18 12 20 4 22 21 24 18 26
REMARK H PARENT 10 19 12 21 4 23 21 25 18 27
REMARK Flexibility Score: inf
ROOT
ATOM      1  C   UNL     1      -1.415  46.814  82.830  1.00  0.00     0.180 A 
ATOM      2  C   UNL     1      -2.061  45.566  82.824  1.00  0.00     0.208 A 
ATOM      3  C   UNL     1      -2.226  44.891  81.604  1.00  0.00     0.238 A 
ATOM      4  O   UNL     1      -2.853  43.799  81.597  1.00  0.00    -0.285 OA
ATOM      5  C   UNL     1      -1.728  45.464  80.409  1.00  0.00     0.111 A 
ATOM      6  C   UNL     1      -1.804  44.850  79.123  1.00  0.00     0.134 A 
ATOM      7  C   UNL     1      -1.397  45.566  77.991  1.00  0.00     0.093 A 
ATOM      8  C   UNL     1      -0.854  46.849  78.105  1.00  0.00     0.123 A 
ATOM      9  C   UNL     1      -0.722  47.433  79.363  1.00  0.00     0.094 A 
ATOM     10  C   UNL     1      -1.153  46.758  80.507  1.00  0.00     0.146 A 
ATOM     11  O   UNL     1      -1.019  47.356  81.685  1.00  0.00    -0.452 OA
ENDROOT
BRANCH   1  12
ATOM     12  C   UNL     1      -1.182  47.574  84.080  1.00  0.00     0.025 A 
ATOM     13  C   UNL     1       0.030  47.415  84.770  1.00  0.00     0.016 A 
ATOM     14  C   UNL     1       0.263  48.106  85.962  1.00  0.00     0.051 A 
ATOM     15  C   UNL     1      -0.714  48.954  86.489  1.00  0.00     0.157 A 
ATOM     16  C   UNL     1      -2.173  48.412  84.623  1.00  0.00     0.062 A 
ATOM     17  C   UNL     1      -1.941  49.106  85.821  1.00  0.00     0.158 A 
BRANCH  15  18
ATOM     18  O   UNL     1      -0.453  49.633  87.679  1.00  0.00    -0.504 OA
ATOM     19  H   UNL     1      -0.968  49.443  88.532  1.00  0.00     0.293 HD
ENDBRANCH  15  18
BRANCH  17  20
ATOM     20  O   UNL     1      -2.926  49.939  86.348  1.00  0.00    -0.504 OA
ATOM     21  H   UNL     1      -3.348  50.679  85.798  1.00  0.00     0.293 HD
ENDBRANCH  17  20
ENDBRANCH   1  12
BRANCH   2  22
ATOM     22  O   UNL     1      -2.564  45.028  84.012  1.00  0.00    -0.502 OA
ATOM     23  H   UNL     1      -2.788  44.046  84.113  1.00  0.00     0.293 HD
ENDBRANCH   2  22
BRANCH   6  24
ATOM     24  O   UNL     1      -2.242  43.539  78.908  1.00  0.00    -0.507 OA
ATOM     25  H   UNL     1      -2.509  43.163  78.011  1.00  0.00     0.293 HD
ENDBRANCH   6  24
BRANCH   8  26
ATOM     26  O   UNL     1      -0.437  47.548  76.975  1.00  0.00    -0.508 OA
ATOM     27  H   UNL     1       0.339  48.199  77.011  1.00  0.00     0.293 HD
ENDBRANCH   8  26
TORSDOF 6
ENDMDL
MODEL 9
REMARK VINA RESULT:    -5.861      5.168      6.979
REMARK INTER + INTRA:          -7.390
REMARK INTER:                  -7.083
REMARK INTRA:                  -0.307
REMARK UNBOUND:                -0.330
REMARK SMILES O=c1c(O)c(-c2ccc(O)c(O)c2)oc2cc(O)cc(O)c12
REMARK SMILES IDX 5 1 3 2 2 3 1 4 22 5 20 6 19 7 17 8 16 9 15 10 14 11 6 12
REMARK SMILES IDX 7 13 8 14 9 15 13 16 11 17 10 18 12 20 4 22 21 24 18 26
REMARK H PARENT 10 19 12 21 4 23 21 25 18 27
REMARK Flexibility Score: inf
ROOT
ATOM      1  C   UNL     1       0.977  45.095  83.833  1.00  0.00     0.180 A 
ATOM      2  C   UNL     1       0.282  43.999  83.294  1.00  0.00     0.208 A 
ATOM      3  C   UNL     1       0.957  42.780  83.128  1.00  0.00     0.238 A 
ATOM      4  O   UNL     1       0.345  41.817  82.594  1.00  0.00    -0.285 OA
ATOM      5  C   UNL     1       2.313  42.667  83.518  1.00  0.00     0.111 A 
ATOM      6  C   UNL     1       3.084  41.468  83.431  1.00  0.00     0.134 A 
ATOM      7  C   UNL     1       4.452  41.505  83.723  1.00  0.00     0.093 A 
ATOM      8  C   UNL     1       5.065  42.682  84.162  1.00  0.00     0.123 A 
ATOM      9  C   UNL     1       4.308  43.843  84.306  1.00  0.00     0.094 A 
ATOM     10  C   UNL     1       2.948  43.846  83.988  1.00  0.00     0.146 A 
ATOM     11  O   UNL     1       2.266  44.976  84.128  1.00  0.00    -0.452 OA
ENDROOT
BRANCH   1  12
ATOM     12  C   UNL     1       0.326  46.405  84.062  1.00  0.00     0.025 A 
ATOM     13  C   UNL     1       0.237  47.327  83.007  1.00  0.00     0.016 A 
ATOM     14  C   UNL     1      -0.354  48.577  83.206  1.00  0.00     0.051 A 
ATOM     15  C   UNL     1      -0.852  48.932  84.463  1.00  0.00     0.157 A 
ATOM     16  C   UNL     1      -0.156  46.772  85.332  1.00  0.00     0.062 A 
ATOM     17  C   UNL     1      -0.749  48.028  85.534  1.00  0.00     0.158 A 
BRANCH  15  18
ATOM     18  O   UNL     1      -1.438  50.185  84.631  1.00  0.00    -0.504 OA
ATOM     19  H   UNL     1      -0.885  51.031  84.720  1.00  0.00     0.293 HD
ENDBRANCH  15  18
BRANCH  17  20
ATOM     20  O   UNL     1      -1.231  48.379  86.794  1.00  0.00    -0.504 OA
ATOM     21  H   UNL     1      -2.208  48.269  87.040  1.00  0.00     0.293 HD
ENDBRANCH  17  20
ENDBRANCH   1  12
BRANCH   2  22
ATOM     22  O   UNL     1      -1.051  44.139  82.895  1.00  0.00    -0.502 OA
ATOM     23  H   UNL     1      -1.520  43.454  82.316  1.00  0.00     0.293 HD
ENDBRANCH   2  22
BRANCH   6  24
ATOM     24  O   UNL     1       2.551  40.220  83.094  1.00  0.00    -0.507 OA
ATOM     25  H   UNL     1       3.062  39.484  82.630  1.00  0.00     0.293 HD
ENDBRANCH   6  24
BRANCH   8  26
ATOM     26  O   UNL     1       6.424  42.706  84.465  1.00  0.00    -0.508 OA
ATOM     27  H   UNL     1       6.794  42.231  85.280  1.00  0.00     0.293 HD
ENDBRANCH   8  26
TORSDOF 6
ENDMDL
