MODEL 1
REMARK VINA RESULT:    -3.067      0.000      0.000
REMARK INTER + INTRA:          -8.106
REMARK INTER:                  -5.577
REMARK INTRA:                  -2.529
REMARK UNBOUND:                -2.529
REMARK SMILES CCCCCCCCCCCCCCCC(=O)[O-]
REMARK SMILES IDX 9 1 10 2 11 3 12 4 13 5 14 6 15 7 16 8 17 9 18 10 8 11 7 12
REMARK SMILES IDX 6 13 5 14 4 15 3 16 2 17 1 18
REMARK H PARENT
REMARK Flexibility Score: inf
ROOT
ATOM      1  C   UNL     1     -96.889 -43.295  -9.739  1.00  0.00     0.000 C 
ENDROOT
BRANCH   1   2
ATOM      2  C   UNL     1     -97.580 -43.373 -11.114  1.00  0.00     0.000 C 
BRANCH   2   3
ATOM      3  C   UNL     1     -97.211 -44.606 -11.965  1.00  0.00     0.000 C 
BRANCH   3   4
ATOM      4  C   UNL     1     -98.332 -45.650 -12.114  1.00  0.00     0.000 C 
BRANCH   4   5
ATOM      5  C   UNL     1     -98.334 -46.690 -10.985  1.00  0.00     0.000 C 
BRANCH   5   6
ATOM      6  C   UNL     1     -98.237 -48.115 -11.550  1.00  0.00     0.006 C 
BRANCH   6   7
ATOM      7  C   UNL     1     -98.536 -48.166 -13.054  1.00  0.00     0.053 C 
BRANCH   7   8
ATOM      8  C   UNL     1     -99.938 -48.618 -13.327  1.00  0.00     0.041 C 
ATOM      9  O   UNL     1    -100.762 -47.834 -13.869  1.00  0.00    -0.550 OA
ATOM     10  O   UNL     1    -100.325 -49.916 -13.017  1.00  0.00    -0.550 OA
ENDBRANCH   7   8
ENDBRANCH   6   7
ENDBRANCH   5   6
ENDBRANCH   4   5
ENDBRANCH   3   4
ENDBRANCH   2   3
ENDBRANCH   1   2
BRANCH   1  11
ATOM     11  C   UNL     1     -97.611 -44.040  -8.601  1.00  0.00     0.000 C 
BRANCH  11  12
ATOM     12  C   UNL     1     -96.704 -45.053  -7.883  1.00  0.00    -0.000 C 
BRANCH  12  13
ATOM     13  C   UNL     1     -95.597 -45.604  -8.796  1.00  0.00    -0.000 C 
BRANCH  13  14
ATOM     14  C   UNL     1     -95.428 -47.126  -8.671  1.00  0.00    -0.000 C 
BRANCH  14  15
ATOM     15  C   UNL     1     -94.653 -47.692  -9.868  1.00  0.00    -0.000 C 
BRANCH  15  16
ATOM     16  C   UNL     1     -94.352 -46.592 -10.898  1.00  0.00    -0.000 C 
BRANCH  16  17
ATOM     17  C   UNL     1     -94.649 -47.036 -12.339  1.00  0.00    -0.003 C 
ATOM     18  C   UNL     1     -94.681 -48.555 -12.496  1.00  0.00     0.004 C 
ENDBRANCH  16  17
ENDBRANCH  15  16
ENDBRANCH  14  15
ENDBRANCH  13  14
ENDBRANCH  12  13
ENDBRANCH  11  12
ENDBRANCH   1  11
TORSDOF 14
ENDMDL
MODEL 2
REMARK VINA RESULT:    -3.042      1.435      1.916
REMARK INTER + INTRA:          -8.060
REMARK INTER:                  -5.367
REMARK INTRA:                  -2.693
REMARK UNBOUND:                -2.529
REMARK SMILES CCCCCCCCCCCCCCCC(=O)[O-]
REMARK SMILES IDX 9 1 10 2 11 3 12 4 13 5 14 6 15 7 16 8 17 9 18 10 8 11 7 12
REMARK SMILES IDX 6 13 5 14 4 15 3 16 2 17 1 18
REMARK H PARENT
REMARK Flexibility Score: inf
ROOT
ATOM      1  C   UNL     1     -97.864 -43.374  -9.023  1.00  0.00     0.000 C 
ENDROOT
BRANCH   1   2
ATOM      2  C   UNL     1     -96.922 -43.094 -10.211  1.00  0.00     0.000 C 
BRANCH   2   3
ATOM      3  C   UNL     1     -97.308 -43.789 -11.532  1.00  0.00     0.000 C 
BRANCH   3   4
ATOM      4  C   UNL     1     -98.818 -44.004 -11.736  1.00  0.00     0.000 C 
BRANCH   4   5
ATOM      5  C   UNL     1     -99.146 -45.349 -12.398  1.00  0.00     0.000 C 
BRANCH   5   6
ATOM      6  C   UNL     1     -97.979 -46.336 -12.247  1.00  0.00     0.006 C 
BRANCH   6   7
ATOM      7  C   UNL     1     -98.354 -47.754 -12.698  1.00  0.00     0.053 C 
BRANCH   7   8
ATOM      8  C   UNL     1     -98.431 -48.704 -11.541  1.00  0.00     0.041 C 
ATOM      9  O   UNL     1     -97.614 -49.658 -11.450  1.00  0.00    -0.550 OA
ATOM     10  O   UNL     1     -99.381 -48.514 -10.546  1.00  0.00    -0.550 OA
ENDBRANCH   7   8
ENDBRANCH   6   7
ENDBRANCH   5   6
ENDBRANCH   4   5
ENDBRANCH   3   4
ENDBRANCH   2   3
ENDBRANCH   1   2
BRANCH   1  11
ATOM     11  C   UNL     1     -97.411 -44.505  -8.082  1.00  0.00     0.000 C 
BRANCH  11  12
ATOM     12  C   UNL     1     -97.829 -45.898  -8.580  1.00  0.00    -0.000 C 
BRANCH  12  13
ATOM     13  C   UNL     1     -96.626 -46.829  -8.804  1.00  0.00    -0.000 C 
BRANCH  13  14
ATOM     14  C   UNL     1     -95.281 -46.088  -8.735  1.00  0.00    -0.000 C 
BRANCH  14  15
ATOM     15  C   UNL     1     -94.566 -46.122 -10.091  1.00  0.00    -0.000 C 
BRANCH  15  16
ATOM     16  C   UNL     1     -94.823 -47.453 -10.815  1.00  0.00    -0.000 C 
BRANCH  16  17
ATOM     17  C   UNL     1     -94.411 -47.409 -12.295  1.00  0.00    -0.003 C 
ATOM     18  C   UNL     1     -94.080 -45.997 -12.775  1.00  0.00     0.004 C 
ENDBRANCH  16  17
ENDBRANCH  15  16
ENDBRANCH  14  15
ENDBRANCH  13  14
ENDBRANCH  12  13
ENDBRANCH  11  12
ENDBRANCH   1  11
TORSDOF 14
ENDMDL
MODEL 3
REMARK VINA RESULT:    -3.026      2.377      4.639
REMARK INTER + INTRA:          -8.032
REMARK INTER:                  -5.701
REMARK INTRA:                  -2.331
REMARK UNBOUND:                -2.529
REMARK SMILES CCCCCCCCCCCCCCCC(=O)[O-]
REMARK SMILES IDX 9 1 10 2 11 3 12 4 13 5 14 6 15 7 16 8 17 9 18 10 8 11 7 12
REMARK SMILES IDX 6 13 5 14 4 15 3 16 2 17 1 18
REMARK H PARENT
REMARK Flexibility Score: inf
ROOT
ATOM      1  C   UNL     1     -98.012 -43.307  -8.897  1.00  0.00     0.000 C 
ENDROOT
BRANCH   1   2
ATOM      2  C   UNL     1     -97.774 -44.483  -7.929  1.00  0.00     0.000 C 
BRANCH   2   3
ATOM      3  C   UNL     1     -96.478 -45.283  -8.175  1.00  0.00     0.000 C 
BRANCH   3   4
ATOM      4  C   UNL     1     -96.690 -46.742  -8.617  1.00  0.00     0.000 C 
BRANCH   4   5
ATOM      5  C   UNL     1     -95.556 -47.266  -9.509  1.00  0.00     0.000 C 
BRANCH   5   6
ATOM      6  C   UNL     1     -94.897 -46.120 -10.290  1.00  0.00     0.006 C 
BRANCH   6   7
ATOM      7  C   UNL     1     -95.036 -46.294 -11.808  1.00  0.00     0.053 C 
BRANCH   7   8
ATOM      8  C   UNL     1     -94.278 -47.488 -12.303  1.00  0.00     0.041 C 
ATOM      9  O   UNL     1     -93.023 -47.524 -12.209  1.00  0.00    -0.550 OA
ATOM     10  O   UNL     1     -94.960 -48.575 -12.836  1.00  0.00    -0.550 OA
ENDBRANCH   7   8
ENDBRANCH   6   7
ENDBRANCH   5   6
ENDBRANCH   4   5
ENDBRANCH   3   4
ENDBRANCH   2   3
ENDBRANCH   1   2
BRANCH   1  11
ATOM     11  C   UNL     1     -96.870 -43.039  -9.894  1.00  0.00     0.000 C 
BRANCH  11  12
ATOM     12  C   UNL     1     -97.263 -43.351 -11.347  1.00  0.00    -0.000 C 
BRANCH  12  13
ATOM     13  C   UNL     1     -98.710 -43.855 -11.472  1.00  0.00    -0.000 C 
BRANCH  13  14
ATOM     14  C   UNL     1     -98.833 -45.087 -12.382  1.00  0.00    -0.000 C 
BRANCH  14  15
ATOM     15  C   UNL     1     -98.698 -46.382 -11.571  1.00  0.00    -0.000 C 
BRANCH  15  16
ATOM     16  C   UNL     1     -98.422 -47.581 -12.492  1.00  0.00    -0.000 C 
BRANCH  16  17
ATOM     17  C   UNL     1     -99.590 -48.579 -12.527  1.00  0.00    -0.003 C 
ATOM     18  C   UNL     1    -100.434 -48.458 -13.795  1.00  0.00     0.004 C 
ENDBRANCH  16  17
ENDBRANCH  15  16
ENDBRANCH  14  15
ENDBRANCH  13  14
ENDBRANCH  12  13
ENDBRANCH  11  12
ENDBRANCH   1  11
TORSDOF 14
ENDMDL
MODEL 4
REMARK VINA RESULT:    -2.987      0.673      1.276
REMARK INTER + INTRA:          -7.961
REMARK INTER:                  -5.409
REMARK INTRA:                  -2.552
REMARK UNBOUND:                -2.529
REMARK SMILES CCCCCCCCCCCCCCCC(=O)[O-]
REMARK SMILES IDX 9 1 10 2 11 3 12 4 13 5 14 6 15 7 16 8 17 9 18 10 8 11 7 12
REMARK SMILES IDX 6 13 5 14 4 15 3 16 2 17 1 18
REMARK H PARENT
REMARK Flexibility Score: inf
ROOT
ATOM      1  C   UNL     1     -96.778 -43.394  -9.328  1.00  0.00     0.000 C 
ENDROOT
BRANCH   1   2
ATOM      2  C   UNL     1     -97.773 -43.315 -10.503  1.00  0.00     0.000 C 
BRANCH   2   3
ATOM      3  C   UNL     1     -97.302 -43.986 -11.809  1.00  0.00     0.000 C 
BRANCH   3   4
ATOM      4  C   UNL     1     -98.163 -45.172 -12.277  1.00  0.00     0.000 C 
BRANCH   4   5
ATOM      5  C   UNL     1     -98.658 -46.046 -11.115  1.00  0.00     0.000 C 
BRANCH   5   6
ATOM      6  C   UNL     1     -98.322 -47.525 -11.358  1.00  0.00     0.006 C 
BRANCH   6   7
ATOM      7  C   UNL     1     -98.459 -47.918 -12.835  1.00  0.00     0.053 C 
BRANCH   7   8
ATOM      8  C   UNL     1     -99.805 -48.506 -13.131  1.00  0.00     0.041 C 
ATOM      9  O   UNL     1    -100.044 -49.711 -12.854  1.00  0.00    -0.550 OA
ATOM     10  O   UNL     1    -100.806 -47.715 -13.680  1.00  0.00    -0.550 OA
ENDBRANCH   7   8
ENDBRANCH   6   7
ENDBRANCH   5   6
ENDBRANCH   4   5
ENDBRANCH   3   4
ENDBRANCH   2   3
ENDBRANCH   1   2
BRANCH   1  11
ATOM     11  C   UNL     1     -97.169 -44.372  -8.206  1.00  0.00     0.000 C 
BRANCH  11  12
ATOM     12  C   UNL     1     -96.341 -45.668  -8.231  1.00  0.00    -0.000 C 
BRANCH  12  13
ATOM     13  C   UNL     1     -95.068 -45.538  -9.082  1.00  0.00    -0.000 C 
BRANCH  13  14
ATOM     14  C   UNL     1     -94.859 -46.734 -10.024  1.00  0.00    -0.000 C 
BRANCH  14  15
ATOM     15  C   UNL     1     -94.437 -46.264 -11.422  1.00  0.00    -0.000 C 
BRANCH  15  16
ATOM     16  C   UNL     1     -94.856 -47.281 -12.495  1.00  0.00    -0.000 C 
BRANCH  16  17
ATOM     17  C   UNL     1     -94.228 -48.666 -12.271  1.00  0.00    -0.003 C 
ATOM     18  C   UNL     1     -95.266 -49.787 -12.230  1.00  0.00     0.004 C 
ENDBRANCH  16  17
ENDBRANCH  15  16
ENDBRANCH  14  15
ENDBRANCH  13  14
ENDBRANCH  12  13
ENDBRANCH  11  12
ENDBRANCH   1  11
TORSDOF 14
ENDMDL
MODEL 5
REMARK VINA RESULT:    -2.960      2.820      4.936
REMARK INTER + INTRA:          -7.911
REMARK INTER:                  -5.636
REMARK INTRA:                  -2.275
REMARK UNBOUND:                -2.529
REMARK SMILES CCCCCCCCCCCCCCCC(=O)[O-]
REMARK SMILES IDX 9 1 10 2 11 3 12 4 13 5 14 6 15 7 16 8 17 9 18 10 8 11 7 12
REMARK SMILES IDX 6 13 5 14 4 15 3 16 2 17 1 18
REMARK H PARENT
REMARK Flexibility Score: inf
ROOT
ATOM      1  C   UNL     1     -99.222 -45.651 -12.421  1.00  0.00     0.000 C 
ENDROOT
BRANCH   1   2
ATOM      2  C   UNL     1    -100.271 -46.771 -12.568  1.00  0.00     0.000 C 
BRANCH   2   3
ATOM      3  C   UNL     1     -99.705 -48.155 -12.948  1.00  0.00     0.000 C 
BRANCH   3   4
ATOM      4  C   UNL     1     -98.179 -48.294 -12.804  1.00  0.00     0.000 C 
BRANCH   4   5
ATOM      5  C   UNL     1     -97.742 -48.613 -11.368  1.00  0.00     0.000 C 
BRANCH   5   6
ATOM      6  C   UNL     1     -96.516 -47.779 -10.968  1.00  0.00     0.006 C 
BRANCH   6   7
ATOM      7  C   UNL     1     -95.657 -47.391 -12.179  1.00  0.00     0.053 C 
BRANCH   7   8
ATOM      8  C   UNL     1     -94.478 -46.556 -11.780  1.00  0.00     0.041 C 
ATOM      9  O   UNL     1     -94.242 -46.334 -10.564  1.00  0.00    -0.550 OA
ATOM     10  O   UNL     1     -93.619 -46.055 -12.751  1.00  0.00    -0.550 OA
ENDBRANCH   7   8
ENDBRANCH   6   7
ENDBRANCH   5   6
ENDBRANCH   4   5
ENDBRANCH   3   4
ENDBRANCH   2   3
ENDBRANCH   1   2
BRANCH   1  11
ATOM     11  C   UNL     1     -99.795 -44.224 -12.349  1.00  0.00     0.000 C 
BRANCH  11  12
ATOM     12  C   UNL     1     -98.741 -43.179 -11.948  1.00  0.00    -0.000 C 
BRANCH  12  13
ATOM     13  C   UNL     1     -97.321 -43.767 -11.888  1.00  0.00    -0.000 C 
BRANCH  13  14
ATOM     14  C   UNL     1     -96.798 -43.909 -10.450  1.00  0.00    -0.000 C 
BRANCH  14  15
ATOM     15  C   UNL     1     -97.589 -43.015  -9.488  1.00  0.00    -0.000 C 
BRANCH  15  16
ATOM     16  C   UNL     1     -98.246 -43.848  -8.376  1.00  0.00    -0.000 C 
BRANCH  16  17
ATOM     17  C   UNL     1     -97.968 -45.352  -8.523  1.00  0.00    -0.003 C 
ATOM     18  C   UNL     1     -99.238 -46.169  -8.752  1.00  0.00     0.004 C 
ENDBRANCH  16  17
ENDBRANCH  15  16
ENDBRANCH  14  15
ENDBRANCH  13  14
ENDBRANCH  12  13
ENDBRANCH  11  12
ENDBRANCH   1  11
TORSDOF 14
ENDMDL
MODEL 6
REMARK VINA RESULT:    -2.951      2.404      5.001
REMARK INTER + INTRA:          -7.895
REMARK INTER:                  -5.800
REMARK INTRA:                  -2.095
REMARK UNBOUND:                -2.529
REMARK SMILES CCCCCCCCCCCCCCCC(=O)[O-]
REMARK SMILES IDX 9 1 10 2 11 3 12 4 13 5 14 6 15 7 16 8 17 9 18 10 8 11 7 12
REMARK SMILES IDX 6 13 5 14 4 15 3 16 2 17 1 18
REMARK H PARENT
REMARK Flexibility Score: inf
ROOT
ATOM      1  C   UNL     1     -97.351 -43.629 -11.593  1.00  0.00     0.000 C 
ENDROOT
BRANCH   1   2
ATOM      2  C   UNL     1     -97.075 -43.186 -10.142  1.00  0.00     0.000 C 
BRANCH   2   3
ATOM      3  C   UNL     1     -97.687 -44.089  -9.052  1.00  0.00     0.000 C 
BRANCH   3   4
ATOM      4  C   UNL     1     -97.051 -45.486  -8.933  1.00  0.00     0.000 C 
BRANCH   4   5
ATOM      5  C   UNL     1     -95.555 -45.434  -8.595  1.00  0.00     0.000 C 
BRANCH   5   6
ATOM      6  C   UNL     1     -94.706 -45.916  -9.780  1.00  0.00     0.006 C 
BRANCH   6   7
ATOM      7  C   UNL     1     -95.358 -47.090 -10.522  1.00  0.00     0.053 C 
BRANCH   7   8
ATOM      8  C   UNL     1     -94.735 -47.312 -11.867  1.00  0.00     0.041 C 
ATOM      9  O   UNL     1     -95.184 -48.206 -12.633  1.00  0.00    -0.550 OA
ATOM     10  O   UNL     1     -93.683 -46.509 -12.289  1.00  0.00    -0.550 OA
ENDBRANCH   7   8
ENDBRANCH   6   7
ENDBRANCH   5   6
ENDBRANCH   4   5
ENDBRANCH   3   4
ENDBRANCH   2   3
ENDBRANCH   1   2
BRANCH   1  11
ATOM     11  C   UNL     1     -98.827 -43.565 -12.026  1.00  0.00     0.000 C 
BRANCH  11  12
ATOM     12  C   UNL     1     -99.427 -44.954 -12.302  1.00  0.00    -0.000 C 
BRANCH  12  13
ATOM     13  C   UNL     1     -98.363 -46.064 -12.317  1.00  0.00    -0.000 C 
BRANCH  13  14
ATOM     14  C   UNL     1     -98.848 -47.360 -11.649  1.00  0.00    -0.000 C 
BRANCH  14  15
ATOM     15  C   UNL     1     -98.764 -48.542 -12.622  1.00  0.00    -0.000 C 
BRANCH  15  16
ATOM     16  C   UNL     1     -99.786 -48.392 -13.761  1.00  0.00    -0.000 C 
BRANCH  16  17
ATOM     17  C   UNL     1    -101.232 -48.313 -13.249  1.00  0.00    -0.003 C 
ATOM     18  C   UNL     1    -102.052 -47.235 -13.956  1.00  0.00     0.004 C 
ENDBRANCH  16  17
ENDBRANCH  15  16
ENDBRANCH  14  15
ENDBRANCH  13  14
ENDBRANCH  12  13
ENDBRANCH  11  12
ENDBRANCH   1  11
TORSDOF 14
ENDMDL
MODEL 7
REMARK VINA RESULT:    -2.892      1.793      4.274
REMARK INTER + INTRA:          -7.788
REMARK INTER:                  -5.948
REMARK INTRA:                  -1.840
REMARK UNBOUND:                -2.529
REMARK SMILES CCCCCCCCCCCCCCCC(=O)[O-]
REMARK SMILES IDX 9 1 10 2 11 3 12 4 13 5 14 6 15 7 16 8 17 9 18 10 8 11 7 12
REMARK SMILES IDX 6 13 5 14 4 15 3 16 2 17 1 18
REMARK H PARENT
REMARK Flexibility Score: inf
ROOT
ATOM      1  C   UNL     1     -96.973 -44.614  -8.423  1.00  0.00     0.000 C 
ENDROOT
BRANCH   1   2
ATOM      2  C   UNL     1     -96.037 -45.838  -8.480  1.00  0.00     0.000 C 
BRANCH   2   3
ATOM      3  C   UNL     1     -94.764 -45.652  -9.330  1.00  0.00     0.000 C 
BRANCH   3   4
ATOM      4  C   UNL     1     -94.324 -46.897 -10.120  1.00  0.00     0.000 C 
BRANCH   4   5
ATOM      5  C   UNL     1     -94.484 -46.729 -11.638  1.00  0.00     0.000 C 
BRANCH   5   6
ATOM      6  C   UNL     1     -94.547 -48.094 -12.339  1.00  0.00     0.006 C 
BRANCH   6   7
ATOM      7  C   UNL     1     -95.990 -48.570 -12.555  1.00  0.00     0.053 C 
BRANCH   7   8
ATOM      8  C   UNL     1     -96.251 -49.881 -11.878  1.00  0.00     0.041 C 
ATOM      9  O   UNL     1     -97.270 -50.028 -11.153  1.00  0.00    -0.550 OA
ATOM     10  O   UNL     1     -95.387 -50.951 -12.075  1.00  0.00    -0.550 OA
ENDBRANCH   7   8
ENDBRANCH   6   7
ENDBRANCH   5   6
ENDBRANCH   4   5
ENDBRANCH   3   4
ENDBRANCH   2   3
ENDBRANCH   1   2
BRANCH   1  11
ATOM     11  C   UNL     1     -96.553 -43.429  -9.310  1.00  0.00     0.000 C 
BRANCH  11  12
ATOM     12  C   UNL     1     -97.496 -43.217 -10.506  1.00  0.00    -0.000 C 
BRANCH  12  13
ATOM     13  C   UNL     1     -97.053 -44.000 -11.753  1.00  0.00    -0.000 C 
BRANCH  13  14
ATOM     14  C   UNL     1     -97.905 -45.254 -12.000  1.00  0.00    -0.000 C 
BRANCH  14  15
ATOM     15  C   UNL     1     -99.363 -44.877 -12.293  1.00  0.00    -0.000 C 
BRANCH  15  16
ATOM     16  C   UNL     1    -100.180 -46.113 -12.699  1.00  0.00    -0.000 C 
BRANCH  16  17
ATOM     17  C   UNL     1     -99.425 -47.428 -12.448  1.00  0.00    -0.003 C 
ATOM     18  C   UNL     1     -99.728 -48.494 -13.501  1.00  0.00     0.004 C 
ENDBRANCH  16  17
ENDBRANCH  15  16
ENDBRANCH  14  15
ENDBRANCH  13  14
ENDBRANCH  12  13
ENDBRANCH  11  12
ENDBRANCH   1  11
TORSDOF 14
ENDMDL
MODEL 8
REMARK VINA RESULT:    -2.809      2.793      5.094
REMARK INTER + INTRA:          -7.637
REMARK INTER:                  -5.280
REMARK INTRA:                  -2.357
REMARK UNBOUND:                -2.529
REMARK SMILES CCCCCCCCCCCCCCCC(=O)[O-]
REMARK SMILES IDX 9 1 10 2 11 3 12 4 13 5 14 6 15 7 16 8 17 9 18 10 8 11 7 12
REMARK SMILES IDX 6 13 5 14 4 15 3 16 2 17 1 18
REMARK H PARENT
REMARK Flexibility Score: inf
ROOT
ATOM      1  C   UNL     1     -98.248 -43.417 -11.159  1.00  0.00     0.000 C 
ENDROOT
BRANCH   1   2
ATOM      2  C   UNL     1     -97.053 -43.389 -10.186  1.00  0.00     0.000 C 
BRANCH   2   3
ATOM      3  C   UNL     1     -97.342 -43.940  -8.775  1.00  0.00     0.000 C 
BRANCH   3   4
ATOM      4  C   UNL     1     -96.362 -45.021  -8.287  1.00  0.00     0.000 C 
BRANCH   4   5
ATOM      5  C   UNL     1     -95.179 -45.230  -9.243  1.00  0.00     0.000 C 
BRANCH   5   6
ATOM      6  C   UNL     1     -95.230 -46.625  -9.884  1.00  0.00     0.006 C 
BRANCH   6   7
ATOM      7  C   UNL     1     -95.317 -46.558 -11.415  1.00  0.00     0.053 C 
BRANCH   7   8
ATOM      8  C   UNL     1     -93.967 -46.670 -12.054  1.00  0.00     0.041 C 
ATOM      9  O   UNL     1     -93.176 -47.587 -11.708  1.00  0.00    -0.550 OA
ATOM     10  O   UNL     1     -93.596 -45.783 -13.058  1.00  0.00    -0.550 OA
ENDBRANCH   7   8
ENDBRANCH   6   7
ENDBRANCH   5   6
ENDBRANCH   4   5
ENDBRANCH   3   4
ENDBRANCH   2   3
ENDBRANCH   1   2
BRANCH   1  11
ATOM     11  C   UNL     1     -98.372 -44.698 -12.004  1.00  0.00     0.000 C 
BRANCH  11  12
ATOM     12  C   UNL     1     -99.832 -45.136 -12.209  1.00  0.00    -0.000 C 
BRANCH  12  13
ATOM     13  C   UNL     1     -99.945 -46.549 -12.806  1.00  0.00    -0.000 C 
BRANCH  13  14
ATOM     14  C   UNL     1     -98.650 -47.361 -12.655  1.00  0.00    -0.000 C 
BRANCH  14  15
ATOM     15  C   UNL     1     -98.944 -48.768 -12.119  1.00  0.00    -0.000 C 
BRANCH  15  16
ATOM     16  C   UNL     1     -99.531 -48.704 -10.701  1.00  0.00    -0.000 C 
BRANCH  16  17
ATOM     17  C   UNL     1     -98.678 -47.855  -9.746  1.00  0.00    -0.003 C 
ATOM     18  C   UNL     1     -99.514 -46.906  -8.889  1.00  0.00     0.004 C 
ENDBRANCH  16  17
ENDBRANCH  15  16
ENDBRANCH  14  15
ENDBRANCH  13  14
ENDBRANCH  12  13
ENDBRANCH  11  12
ENDBRANCH   1  11
TORSDOF 14
ENDMDL
MODEL 9
REMARK VINA RESULT:    -2.723      2.669      3.830
REMARK INTER + INTRA:          -7.480
REMARK INTER:                  -5.224
REMARK INTRA:                  -2.256
REMARK UNBOUND:                -2.529
REMARK SMILES CCCCCCCCCCCCCCCC(=O)[O-]
REMARK SMILES IDX 9 1 10 2 11 3 12 4 13 5 14 6 15 7 16 8 17 9 18 10 8 11 7 12
REMARK SMILES IDX 6 13 5 14 4 15 3 16 2 17 1 18
REMARK H PARENT
REMARK Flexibility Score: inf
ROOT
ATOM      1  C   UNL     1     -97.436 -43.694 -11.996  1.00  0.00     0.000 C 
ENDROOT
BRANCH   1   2
ATOM      2  C   UNL     1     -96.983 -45.167 -12.006  1.00  0.00     0.000 C 
BRANCH   2   3
ATOM      3  C   UNL     1     -98.037 -46.182 -11.519  1.00  0.00     0.000 C 
BRANCH   3   4
ATOM      4  C   UNL     1     -97.975 -47.560 -12.201  1.00  0.00     0.000 C 
BRANCH   4   5
ATOM      5  C   UNL     1     -97.249 -48.614 -11.354  1.00  0.00     0.000 C 
BRANCH   5   6
ATOM      6  C   UNL     1     -96.254 -49.414 -12.207  1.00  0.00     0.006 C 
BRANCH   6   7
ATOM      7  C   UNL     1     -95.159 -48.526 -12.812  1.00  0.00     0.053 C 
BRANCH   7   8
ATOM      8  C   UNL     1     -93.828 -48.766 -12.167  1.00  0.00     0.041 C 
ATOM      9  O   UNL     1     -93.556 -49.893 -11.676  1.00  0.00    -0.550 OA
ATOM     10  O   UNL     1     -92.875 -47.755 -12.139  1.00  0.00    -0.550 OA
ENDBRANCH   7   8
ENDBRANCH   6   7
ENDBRANCH   5   6
ENDBRANCH   4   5
ENDBRANCH   3   4
ENDBRANCH   2   3
ENDBRANCH   1   2
BRANCH   1  11
ATOM     11  C   UNL     1     -98.040 -43.205 -10.667  1.00  0.00     0.000 C 
BRANCH  11  12
ATOM     12  C   UNL     1     -97.044 -43.277  -9.498  1.00  0.00    -0.000 C 
BRANCH  12  13
ATOM     13  C   UNL     1     -97.554 -44.155  -8.343  1.00  0.00    -0.000 C 
BRANCH  13  14
ATOM     14  C   UNL     1     -96.571 -45.277  -7.973  1.00  0.00    -0.000 C 
BRANCH  14  15
ATOM     15  C   UNL     1     -95.267 -45.148  -8.769  1.00  0.00    -0.000 C 
BRANCH  15  16
ATOM     16  C   UNL     1     -94.902 -46.478  -9.448  1.00  0.00    -0.000 C 
BRANCH  16  17
ATOM     17  C   UNL     1     -94.216 -47.462  -8.487  1.00  0.00    -0.003 C 
ATOM     18  C   UNL     1     -94.817 -48.865  -8.549  1.00  0.00     0.004 C 
ENDBRANCH  16  17
ENDBRANCH  15  16
ENDBRANCH  14  15
ENDBRANCH  13  14
ENDBRANCH  12  13
ENDBRANCH  11  12
ENDBRANCH   1  11
TORSDOF 14
ENDMDL
