MODEL 1
REMARK VINA RESULT:    -6.209      0.000      0.000
REMARK INTER + INTRA:          -6.881
REMARK INTER:                  -6.572
REMARK INTRA:                  -0.310
REMARK UNBOUND:                -0.310
REMARK SMILES C=C(C)[C@@H]1CC[C@]2(C)CCCC(=C)[C@@H]2C1
REMARK SMILES IDX 4 1 5 2 6 3 7 4 9 5 10 6 11 7 12 8 13 9 14 10 15 11 8 12
REMARK SMILES IDX 2 13 3 14 1 15
REMARK H PARENT
REMARK Flexibility Score: inf
ROOT
ATOM      1  C   UNL     1     102.755 106.162 129.023  1.00  0.00     0.015 C 
ATOM      2  C   UNL     1     103.437 107.550 128.933  1.00  0.00     0.008 C 
ATOM      3  C   UNL     1     103.527 108.133 127.510  1.00  0.00     0.008 C 
ATOM      4  C   UNL     1     104.066 107.134 126.448  1.00  0.00    -0.026 C 
ATOM      5  C   UNL     1     104.023 107.790 125.035  1.00  0.00     0.008 C 
ATOM      6  C   UNL     1     102.608 108.022 124.501  1.00  0.00     0.005 C 
ATOM      7  C   UNL     1     101.808 106.726 124.465  1.00  0.00     0.031 C 
ATOM      8  C   UNL     1     101.846 106.003 125.793  1.00  0.00    -0.074 C 
ATOM      9  C   UNL     1     100.752 105.295 126.136  1.00  0.00     0.008 C 
ATOM     10  C   UNL     1     103.216 105.816 126.467  1.00  0.00     0.021 C 
ATOM     11  C   UNL     1     103.189 105.197 127.894  1.00  0.00     0.016 C 
ATOM     12  C   UNL     1     105.561 106.830 126.737  1.00  0.00     0.012 C 
ENDROOT
BRANCH   1  13
ATOM     13  C   UNL     1     101.242 106.162 129.254  1.00  0.00    -0.077 C 
ATOM     14  C   UNL     1     100.536 104.839 129.414  1.00  0.00     0.039 C 
ATOM     15  C   UNL     1     100.496 107.279 129.313  1.00  0.00     0.008 C 
ENDBRANCH   1  13
TORSDOF 1
ENDMDL
MODEL 2
REMARK VINA RESULT:    -6.182      4.352      5.725
REMARK INTER + INTRA:          -6.853
REMARK INTER:                  -6.529
REMARK INTRA:                  -0.324
REMARK UNBOUND:                -0.310
REMARK SMILES C=C(C)[C@@H]1CC[C@]2(C)CCCC(=C)[C@@H]2C1
REMARK SMILES IDX 4 1 5 2 6 3 7 4 9 5 10 6 11 7 12 8 13 9 14 10 15 11 8 12
REMARK SMILES IDX 2 13 3 14 1 15
REMARK H PARENT
REMARK Flexibility Score: inf
ROOT
ATOM      1  C   UNL     1     106.189 109.689 129.006  1.00  0.00     0.015 C 
ATOM      2  C   UNL     1     107.581 109.018 128.895  1.00  0.00     0.008 C 
ATOM      3  C   UNL     1     108.152 108.950 127.466  1.00  0.00     0.008 C 
ATOM      4  C   UNL     1     107.148 108.419 126.406  1.00  0.00    -0.026 C 
ATOM      5  C   UNL     1     107.791 108.484 124.988  1.00  0.00     0.008 C 
ATOM      6  C   UNL     1     108.008 109.908 124.470  1.00  0.00     0.005 C 
ATOM      7  C   UNL     1     106.706 110.699 124.456  1.00  0.00     0.031 C 
ATOM      8  C   UNL     1     105.994 110.638 125.790  1.00  0.00    -0.074 C 
ATOM      9  C   UNL     1     105.282 111.722 126.153  1.00  0.00     0.008 C 
ATOM     10  C   UNL     1     105.824 109.258 126.447  1.00  0.00     0.021 C 
ATOM     11  C   UNL     1     105.217 109.262 127.880  1.00  0.00     0.016 C 
ATOM     12  C   UNL     1     106.856 106.918 126.678  1.00  0.00     0.012 C 
ENDROOT
BRANCH   1  13
ATOM     13  C   UNL     1     106.180 111.198 129.257  1.00  0.00    -0.077 C 
ATOM     14  C   UNL     1     104.855 111.889 129.463  1.00  0.00     0.039 C 
ATOM     15  C   UNL     1     107.291 111.955 129.296  1.00  0.00     0.008 C 
ENDBRANCH   1  13
TORSDOF 1
ENDMDL
MODEL 3
REMARK VINA RESULT:    -6.113      5.051      8.083
REMARK INTER + INTRA:          -6.780
REMARK INTER:                  -6.421
REMARK INTRA:                  -0.359
REMARK UNBOUND:                -0.310
REMARK SMILES C=C(C)[C@@H]1CC[C@]2(C)CCCC(=C)[C@@H]2C1
REMARK SMILES IDX 4 1 5 2 6 3 7 4 9 5 10 6 11 7 12 8 13 9 14 10 15 11 8 12
REMARK SMILES IDX 2 13 3 14 1 15
REMARK H PARENT
REMARK Flexibility Score: inf
ROOT
ATOM      1  C   UNL     1     109.682 106.318 128.974  1.00  0.00     0.015 C 
ATOM      2  C   UNL     1     108.970 104.945 128.881  1.00  0.00     0.008 C 
ATOM      3  C   UNL     1     108.890 104.355 127.460  1.00  0.00     0.008 C 
ATOM      4  C   UNL     1     108.393 105.359 126.383  1.00  0.00    -0.026 C 
ATOM      5  C   UNL     1     108.443 104.693 124.975  1.00  0.00     0.008 C 
ATOM      6  C   UNL     1     109.862 104.425 124.466  1.00  0.00     0.005 C 
ATOM      7  C   UNL     1     110.692 105.702 124.435  1.00  0.00     0.031 C 
ATOM      8  C   UNL     1     110.648 106.435 125.759  1.00  0.00    -0.074 C 
ATOM      9  C   UNL     1     111.752 107.120 126.116  1.00  0.00     0.008 C 
ATOM     10  C   UNL     1     109.271 106.657 126.408  1.00  0.00     0.021 C 
ATOM     11  C   UNL     1     109.289 107.285 127.831  1.00  0.00     0.016 C 
ATOM     12  C   UNL     1     106.900 105.699 126.645  1.00  0.00     0.012 C 
ENDROOT
BRANCH   1  13
ATOM     13  C   UNL     1     111.190 106.285 129.230  1.00  0.00    -0.077 C 
ATOM     14  C   UNL     1     111.909 107.587 129.481  1.00  0.00     0.039 C 
ATOM     15  C   UNL     1     111.922 105.157 129.236  1.00  0.00     0.008 C 
ENDBRANCH   1  13
TORSDOF 1
ENDMDL
MODEL 4
REMARK VINA RESULT:    -6.108      4.349      5.720
REMARK INTER + INTRA:          -6.775
REMARK INTER:                  -6.453
REMARK INTRA:                  -0.323
REMARK UNBOUND:                -0.310
REMARK SMILES C=C(C)[C@@H]1CC[C@]2(C)CCCC(=C)[C@@H]2C1
REMARK SMILES IDX 4 1 5 2 6 3 7 4 9 5 10 6 11 7 12 8 13 9 14 10 15 11 8 12
REMARK SMILES IDX 2 13 3 14 1 15
REMARK H PARENT
REMARK Flexibility Score: inf
ROOT
ATOM      1  C   UNL     1     106.249 102.674 129.067  1.00  0.00     0.015 C 
ATOM      2  C   UNL     1     104.868 103.370 128.973  1.00  0.00     0.008 C 
ATOM      3  C   UNL     1     104.308 103.501 127.544  1.00  0.00     0.008 C 
ATOM      4  C   UNL     1     105.326 104.057 126.511  1.00  0.00    -0.026 C 
ATOM      5  C   UNL     1     104.692 104.055 125.088  1.00  0.00     0.008 C 
ATOM      6  C   UNL     1     104.456 102.655 124.515  1.00  0.00     0.005 C 
ATOM      7  C   UNL     1     105.746 101.845 124.478  1.00  0.00     0.031 C 
ATOM      8  C   UNL     1     106.449 101.844 125.818  1.00  0.00    -0.074 C 
ATOM      9  C   UNL     1     107.143 100.736 126.144  1.00  0.00     0.008 C 
ATOM     10  C   UNL     1     106.637 103.196 126.528  1.00  0.00     0.021 C 
ATOM     11  C   UNL     1     107.234 103.128 127.963  1.00  0.00     0.016 C 
ATOM     12  C   UNL     1     105.639 105.541 126.841  1.00  0.00     0.012 C 
ENDROOT
BRANCH   1  13
ATOM     13  C   UNL     1     106.233 101.156 129.260  1.00  0.00    -0.077 C 
ATOM     14  C   UNL     1     107.546 100.437 129.443  1.00  0.00     0.039 C 
ATOM     15  C   UNL     1     105.110 100.416 129.267  1.00  0.00     0.008 C 
ENDBRANCH   1  13
TORSDOF 1
ENDMDL
MODEL 5
REMARK VINA RESULT:    -5.911      5.708      7.786
REMARK INTER + INTRA:          -6.566
REMARK INTER:                  -6.181
REMARK INTRA:                  -0.385
REMARK UNBOUND:                -0.310
REMARK SMILES C=C(C)[C@@H]1CC[C@]2(C)CCCC(=C)[C@@H]2C1
REMARK SMILES IDX 4 1 5 2 6 3 7 4 9 5 10 6 11 7 12 8 13 9 14 10 15 11 8 12
REMARK SMILES IDX 2 13 3 14 1 15
REMARK H PARENT
REMARK Flexibility Score: inf
ROOT
ATOM      1  C   UNL     1     110.939 107.332 126.811  1.00  0.00     0.015 C 
ATOM      2  C   UNL     1     109.975 107.786 125.687  1.00  0.00     0.008 C 
ATOM      3  C   UNL     1     108.823 106.807 125.390  1.00  0.00     0.008 C 
ATOM      4  C   UNL     1     109.272 105.329 125.229  1.00  0.00    -0.026 C 
ATOM      5  C   UNL     1     108.025 104.416 125.031  1.00  0.00     0.008 C 
ATOM      6  C   UNL     1     107.138 104.299 126.274  1.00  0.00     0.005 C 
ATOM      7  C   UNL     1     107.928 103.798 127.476  1.00  0.00     0.031 C 
ATOM      8  C   UNL     1     109.187 104.607 127.701  1.00  0.00    -0.074 C 
ATOM      9  C   UNL     1     109.598 104.759 128.975  1.00  0.00     0.008 C 
ATOM     10  C   UNL     1     110.092 104.874 126.485  1.00  0.00     0.021 C 
ATOM     11  C   UNL     1     111.295 105.828 126.736  1.00  0.00     0.016 C 
ATOM     12  C   UNL     1     110.120 105.185 123.936  1.00  0.00     0.012 C 
ENDROOT
BRANCH   1  13
ATOM     13  C   UNL     1     110.591 107.788 128.230  1.00  0.00    -0.077 C 
ATOM     14  C   UNL     1     111.660 107.724 129.292  1.00  0.00     0.039 C 
ATOM     15  C   UNL     1     109.376 108.237 128.593  1.00  0.00     0.008 C 
ENDBRANCH   1  13
TORSDOF 1
ENDMDL
MODEL 6
REMARK VINA RESULT:    -5.891      4.208      5.904
REMARK INTER + INTRA:          -6.545
REMARK INTER:                  -6.160
REMARK INTRA:                  -0.385
REMARK UNBOUND:                -0.310
REMARK SMILES C=C(C)[C@@H]1CC[C@]2(C)CCCC(=C)[C@@H]2C1
REMARK SMILES IDX 4 1 5 2 6 3 7 4 9 5 10 6 11 7 12 8 13 9 14 10 15 11 8 12
REMARK SMILES IDX 2 13 3 14 1 15
REMARK H PARENT
REMARK Flexibility Score: inf
ROOT
ATOM      1  C   UNL     1     107.386 101.544 126.797  1.00  0.00     0.015 C 
ATOM      2  C   UNL     1     107.874 102.515 125.693  1.00  0.00     0.008 C 
ATOM      3  C   UNL     1     106.902 103.666 125.370  1.00  0.00     0.008 C 
ATOM      4  C   UNL     1     105.431 103.214 125.159  1.00  0.00    -0.026 C 
ATOM      5  C   UNL     1     104.522 104.460 124.938  1.00  0.00     0.008 C 
ATOM      6  C   UNL     1     104.362 105.341 126.180  1.00  0.00     0.005 C 
ATOM      7  C   UNL     1     103.825 104.543 127.362  1.00  0.00     0.031 C 
ATOM      8  C   UNL     1     104.630 103.285 127.606  1.00  0.00    -0.074 C 
ATOM      9  C   UNL     1     104.741 102.868 128.882  1.00  0.00     0.008 C 
ATOM     10  C   UNL     1     104.938 102.387 126.396  1.00  0.00     0.021 C 
ATOM     11  C   UNL     1     105.886 101.185 126.671  1.00  0.00     0.016 C 
ATOM     12  C   UNL     1     105.331 102.372 123.858  1.00  0.00     0.012 C 
ENDROOT
BRANCH   1  13
ATOM     13  C   UNL     1     107.795 101.887 128.231  1.00  0.00    -0.077 C 
ATOM     14  C   UNL     1     107.698 100.812 129.286  1.00  0.00     0.039 C 
ATOM     15  C   UNL     1     108.230 103.100 128.615  1.00  0.00     0.008 C 
ENDBRANCH   1  13
TORSDOF 1
ENDMDL
MODEL 7
REMARK VINA RESULT:    -5.821      3.863      5.922
REMARK INTER + INTRA:          -6.471
REMARK INTER:                  -6.086
REMARK INTRA:                  -0.385
REMARK UNBOUND:                -0.310
REMARK SMILES C=C(C)[C@@H]1CC[C@]2(C)CCCC(=C)[C@@H]2C1
REMARK SMILES IDX 4 1 5 2 6 3 7 4 9 5 10 6 11 7 12 8 13 9 14 10 15 11 8 12
REMARK SMILES IDX 2 13 3 14 1 15
REMARK H PARENT
REMARK Flexibility Score: inf
ROOT
ATOM      1  C   UNL     1     105.050 110.854 126.791  1.00  0.00     0.015 C 
ATOM      2  C   UNL     1     104.570 109.868 125.696  1.00  0.00     0.008 C 
ATOM      3  C   UNL     1     105.567 108.744 125.359  1.00  0.00     0.008 C 
ATOM      4  C   UNL     1     107.022 109.235 125.123  1.00  0.00    -0.026 C 
ATOM      5  C   UNL     1     107.962 108.014 124.889  1.00  0.00     0.008 C 
ATOM      6  C   UNL     1     108.165 107.140 126.129  1.00  0.00     0.005 C 
ATOM      7  C   UNL     1     108.700 107.954 127.301  1.00  0.00     0.031 C 
ATOM      8  C   UNL     1     107.865 109.190 127.557  1.00  0.00    -0.074 C 
ATOM      9  C   UNL     1     107.763 109.605 128.835  1.00  0.00     0.008 C 
ATOM     10  C   UNL     1     107.513 110.078 126.351  1.00  0.00     0.021 C 
ATOM     11  C   UNL     1     106.537 111.254 126.640  1.00  0.00     0.016 C 
ATOM     12  C   UNL     1     107.078 110.078 123.820  1.00  0.00     0.012 C 
ENDROOT
BRANCH   1  13
ATOM     13  C   UNL     1     104.673 110.502 128.232  1.00  0.00    -0.077 C 
ATOM     14  C   UNL     1     104.764 111.579 129.285  1.00  0.00     0.039 C 
ATOM     15  C   UNL     1     104.272 109.280 128.623  1.00  0.00     0.008 C 
ENDBRANCH   1  13
TORSDOF 1
ENDMDL
MODEL 8
REMARK VINA RESULT:    -5.809      1.259      3.151
REMARK INTER + INTRA:          -6.458
REMARK INTER:                  -6.083
REMARK INTRA:                  -0.375
REMARK UNBOUND:                -0.310
REMARK SMILES C=C(C)[C@@H]1CC[C@]2(C)CCCC(=C)[C@@H]2C1
REMARK SMILES IDX 4 1 5 2 6 3 7 4 9 5 10 6 11 7 12 8 13 9 14 10 15 11 8 12
REMARK SMILES IDX 2 13 3 14 1 15
REMARK H PARENT
REMARK Flexibility Score: inf
ROOT
ATOM      1  C   UNL     1     101.521 105.091 126.719  1.00  0.00     0.015 C 
ATOM      2  C   UNL     1     102.457 104.550 125.609  1.00  0.00     0.008 C 
ATOM      3  C   UNL     1     103.610 105.495 125.220  1.00  0.00     0.008 C 
ATOM      4  C   UNL     1     103.168 106.962 124.964  1.00  0.00    -0.026 C 
ATOM      5  C   UNL     1     104.417 107.848 124.676  1.00  0.00     0.008 C 
ATOM      6  C   UNL     1     105.331 108.045 125.888  1.00  0.00     0.005 C 
ATOM      7  C   UNL     1     104.571 108.637 127.068  1.00  0.00     0.031 C 
ATOM      8  C   UNL     1     103.311 107.856 127.376  1.00  0.00    -0.074 C 
ATOM      9  C   UNL     1     102.927 107.798 128.665  1.00  0.00     0.008 C 
ATOM     10  C   UNL     1     102.378 107.512 126.202  1.00  0.00     0.021 C 
ATOM     11  C   UNL     1     101.174 106.589 126.544  1.00  0.00     0.016 C 
ATOM     12  C   UNL     1     102.293 107.022 123.682  1.00  0.00     0.012 C 
ENDROOT
BRANCH   1  13
ATOM     13  C   UNL     1     101.897 104.733 128.158  1.00  0.00    -0.077 C 
ATOM     14  C   UNL     1     100.843 104.855 129.231  1.00  0.00     0.039 C 
ATOM     15  C   UNL     1     103.122 104.323 128.531  1.00  0.00     0.008 C 
ENDBRANCH   1  13
TORSDOF 1
ENDMDL
MODEL 9
REMARK VINA RESULT:    -5.678      1.474      4.245
REMARK INTER + INTRA:          -6.320
REMARK INTER:                  -6.025
REMARK INTRA:                  -0.294
REMARK UNBOUND:                -0.310
REMARK SMILES C=C(C)[C@@H]1CC[C@]2(C)CCCC(=C)[C@@H]2C1
REMARK SMILES IDX 4 1 5 2 6 3 7 4 9 5 10 6 11 7 12 8 13 9 14 10 15 11 8 12
REMARK SMILES IDX 2 13 3 14 1 15
REMARK H PARENT
REMARK Flexibility Score: inf
ROOT
ATOM      1  C   UNL     1     101.626 106.937 125.991  1.00  0.00     0.015 C 
ATOM      2  C   UNL     1     102.035 107.447 127.396  1.00  0.00     0.008 C 
ATOM      3  C   UNL     1     102.990 106.517 128.166  1.00  0.00     0.008 C 
ATOM      4  C   UNL     1     102.553 105.026 128.177  1.00  0.00    -0.026 C 
ATOM      5  C   UNL     1     103.634 104.163 128.895  1.00  0.00     0.008 C 
ATOM      6  C   UNL     1     104.954 104.056 128.126  1.00  0.00     0.005 C 
ATOM      7  C   UNL     1     104.737 103.505 126.723  1.00  0.00     0.031 C 
ATOM      8  C   UNL     1     103.659 104.263 125.979  1.00  0.00    -0.074 C 
ATOM      9  C   UNL     1     103.800 104.376 124.644  1.00  0.00     0.008 C 
ATOM     10  C   UNL     1     102.330 104.518 126.711  1.00  0.00     0.021 C 
ATOM     11  C   UNL     1     101.309 105.423 125.962  1.00  0.00     0.016 C 
ATOM     12  C   UNL     1     101.255 104.875 129.016  1.00  0.00     0.012 C 
ENDROOT
BRANCH   1  13
ATOM     13  C   UNL     1     102.511 107.380 124.824  1.00  0.00    -0.077 C 
ATOM     14  C   UNL     1     103.753 108.183 125.123  1.00  0.00     0.039 C 
ATOM     15  C   UNL     1     102.243 107.103 123.536  1.00  0.00     0.008 C 
ENDBRANCH   1  13
TORSDOF 1
ENDMDL
