MODEL 1
REMARK VINA RESULT:    -3.173      0.000      0.000
REMARK INTER + INTRA:          -7.956
REMARK INTER:                  -5.771
REMARK INTRA:                  -2.185
REMARK UNBOUND:                -2.185
REMARK SMILES CCCCCCCCCCCCCCCC(=O)[O-]
REMARK SMILES IDX 9 1 10 2 11 3 12 4 13 5 14 6 15 7 16 8 17 9 18 10 8 11 7 12
REMARK SMILES IDX 6 13 5 14 4 15 3 16 2 17 1 18
REMARK H PARENT
REMARK Flexibility Score: inf
ROOT
ATOM      1  C   UNL     1      32.044  11.278  22.689  1.00  0.00     0.000 C 
ENDROOT
BRANCH   1   2
ATOM      2  C   UNL     1      32.237   9.755  22.561  1.00  0.00     0.000 C 
BRANCH   2   3
ATOM      3  C   UNL     1      30.910   8.985  22.630  1.00  0.00     0.000 C 
BRANCH   3   4
ATOM      4  C   UNL     1      31.000   7.593  21.988  1.00  0.00     0.000 C 
BRANCH   4   5
ATOM      5  C   UNL     1      31.916   7.614  20.756  1.00  0.00     0.000 C 
BRANCH   5   6
ATOM      6  C   UNL     1      33.063   6.590  20.847  1.00  0.00     0.006 C 
BRANCH   6   7
ATOM      7  C   UNL     1      32.768   5.246  20.164  1.00  0.00     0.053 C 
BRANCH   7   8
ATOM      8  C   UNL     1      32.620   4.133  21.155  1.00  0.00     0.041 C 
ATOM      9  O   UNL     1      32.687   4.371  22.390  1.00  0.00    -0.550 OA
ATOM     10  O   UNL     1      32.442   2.828  20.714  1.00  0.00    -0.550 OA
ENDBRANCH   7   8
ENDBRANCH   6   7
ENDBRANCH   5   6
ENDBRANCH   4   5
ENDBRANCH   3   4
ENDBRANCH   2   3
ENDBRANCH   1   2
BRANCH   1  11
ATOM     11  C   UNL     1      33.375  12.047  22.669  1.00  0.00     0.000 C 
BRANCH  11  12
ATOM     12  C   UNL     1      34.479  11.337  23.473  1.00  0.00    -0.000 C 
BRANCH  12  13
ATOM     13  C   UNL     1      35.777  11.166  22.668  1.00  0.00    -0.000 C 
BRANCH  13  14
ATOM     14  C   UNL     1      36.157   9.690  22.461  1.00  0.00    -0.000 C 
BRANCH  14  15
ATOM     15  C   UNL     1      35.705   9.144  21.095  1.00  0.00    -0.000 C 
BRANCH  15  16
ATOM     16  C   UNL     1      35.514  10.240  20.024  1.00  0.00    -0.000 C 
BRANCH  16  17
ATOM     17  C   UNL     1      34.235  10.031  19.200  1.00  0.00    -0.003 C 
ATOM     18  C   UNL     1      33.450  11.332  19.061  1.00  0.00     0.004 C 
ENDBRANCH  16  17
ENDBRANCH  15  16
ENDBRANCH  14  15
ENDBRANCH  13  14
ENDBRANCH  12  13
ENDBRANCH  11  12
ENDBRANCH   1  11
TORSDOF 14
ENDMDL
MODEL 2
REMARK VINA RESULT:    -3.168      1.196      2.123
REMARK INTER + INTRA:          -7.946
REMARK INTER:                  -6.151
REMARK INTRA:                  -1.794
REMARK UNBOUND:                -2.185
REMARK SMILES CCCCCCCCCCCCCCCC(=O)[O-]
REMARK SMILES IDX 9 1 10 2 11 3 12 4 13 5 14 6 15 7 16 8 17 9 18 10 8 11 7 12
REMARK SMILES IDX 6 13 5 14 4 15 3 16 2 17 1 18
REMARK H PARENT
REMARK Flexibility Score: inf
ROOT
ATOM      1  C   UNL     1      31.073   9.228  22.611  1.00  0.00     0.000 C 
ENDROOT
BRANCH   1   2
ATOM      2  C   UNL     1      31.869   8.239  21.740  1.00  0.00     0.000 C 
BRANCH   2   3
ATOM      3  C   UNL     1      30.961   7.276  20.959  1.00  0.00     0.000 C 
BRANCH   3   4
ATOM      4  C   UNL     1      31.743   6.141  20.283  1.00  0.00     0.000 C 
BRANCH   4   5
ATOM      5  C   UNL     1      33.250   6.279  20.548  1.00  0.00     0.000 C 
BRANCH   5   6
ATOM      6  C   UNL     1      33.855   5.030  21.216  1.00  0.00     0.006 C 
BRANCH   6   7
ATOM      7  C   UNL     1      32.820   4.083  21.843  1.00  0.00     0.053 C 
BRANCH   7   8
ATOM      8  C   UNL     1      32.798   2.747  21.164  1.00  0.00     0.041 C 
ATOM      9  O   UNL     1      33.869   2.226  20.755  1.00  0.00    -0.550 OA
ATOM     10  O   UNL     1      31.590   2.095  20.954  1.00  0.00    -0.550 OA
ENDBRANCH   7   8
ENDBRANCH   6   7
ENDBRANCH   5   6
ENDBRANCH   4   5
ENDBRANCH   3   4
ENDBRANCH   2   3
ENDBRANCH   1   2
BRANCH   1  11
ATOM     11  C   UNL     1      31.967  10.295  23.262  1.00  0.00     0.000 C 
BRANCH  11  12
ATOM     12  C   UNL     1      32.356  11.417  22.282  1.00  0.00    -0.000 C 
BRANCH  12  13
ATOM     13  C   UNL     1      33.660  12.124  22.684  1.00  0.00    -0.000 C 
BRANCH  13  14
ATOM     14  C   UNL     1      34.635  11.194  23.428  1.00  0.00    -0.000 C 
BRANCH  14  15
ATOM     15  C   UNL     1      35.776  10.685  22.530  1.00  0.00    -0.000 C 
BRANCH  15  16
ATOM     16  C   UNL     1      35.461   9.346  21.830  1.00  0.00    -0.000 C 
BRANCH  16  17
ATOM     17  C   UNL     1      35.055   9.538  20.362  1.00  0.00    -0.003 C 
ATOM     18  C   UNL     1      35.656  10.817  19.787  1.00  0.00     0.004 C 
ENDBRANCH  16  17
ENDBRANCH  15  16
ENDBRANCH  14  15
ENDBRANCH  13  14
ENDBRANCH  12  13
ENDBRANCH  11  12
ENDBRANCH   1  11
TORSDOF 14
ENDMDL
MODEL 3
REMARK VINA RESULT:    -3.020      2.841      5.458
REMARK INTER + INTRA:          -7.676
REMARK INTER:                  -5.827
REMARK INTRA:                  -1.849
REMARK UNBOUND:                -2.185
REMARK SMILES CCCCCCCCCCCCCCCC(=O)[O-]
REMARK SMILES IDX 9 1 10 2 11 3 12 4 13 5 14 6 15 7 16 8 17 9 18 10 8 11 7 12
REMARK SMILES IDX 6 13 5 14 4 15 3 16 2 17 1 18
REMARK H PARENT
REMARK Flexibility Score: inf
ROOT
ATOM      1  C   UNL     1      31.864   8.618  21.872  1.00  0.00     0.000 C 
ENDROOT
BRANCH   1   2
ATOM      2  C   UNL     1      31.185   9.438  22.984  1.00  0.00     0.000 C 
BRANCH   2   3
ATOM      3  C   UNL     1      32.036  10.635  23.437  1.00  0.00     0.000 C 
BRANCH   3   4
ATOM      4  C   UNL     1      32.666  11.393  22.259  1.00  0.00     0.000 C 
BRANCH   4   5
ATOM      5  C   UNL     1      33.945  12.122  22.696  1.00  0.00     0.000 C 
BRANCH   5   6
ATOM      6  C   UNL     1      35.057  11.157  23.149  1.00  0.00     0.006 C 
BRANCH   6   7
ATOM      7  C   UNL     1      36.482  11.651  22.857  1.00  0.00     0.053 C 
BRANCH   7   8
ATOM      8  C   UNL     1      37.495  10.556  22.995  1.00  0.00     0.041 C 
ATOM      9  O   UNL     1      37.125   9.375  23.229  1.00  0.00    -0.550 OA
ATOM     10  O   UNL     1      38.850  10.846  22.899  1.00  0.00    -0.550 OA
ENDBRANCH   7   8
ENDBRANCH   6   7
ENDBRANCH   5   6
ENDBRANCH   4   5
ENDBRANCH   3   4
ENDBRANCH   2   3
ENDBRANCH   1   2
BRANCH   1  11
ATOM     11  C   UNL     1      31.017   7.416  21.421  1.00  0.00     0.000 C 
BRANCH  11  12
ATOM     12  C   UNL     1      31.791   6.464  20.493  1.00  0.00    -0.000 C 
BRANCH  12  13
ATOM     13  C   UNL     1      32.585   5.400  21.269  1.00  0.00    -0.000 C 
BRANCH  13  14
ATOM     14  C   UNL     1      34.100   5.489  21.016  1.00  0.00    -0.000 C 
BRANCH  14  15
ATOM     15  C   UNL     1      34.487   6.680  20.123  1.00  0.00    -0.000 C 
BRANCH  15  16
ATOM     16  C   UNL     1      35.181   7.827  20.888  1.00  0.00    -0.000 C 
BRANCH  16  17
ATOM     17  C   UNL     1      35.735   8.905  19.944  1.00  0.00    -0.003 C 
ATOM     18  C   UNL     1      34.657   9.918  19.571  1.00  0.00     0.004 C 
ENDBRANCH  16  17
ENDBRANCH  15  16
ENDBRANCH  14  15
ENDBRANCH  13  14
ENDBRANCH  12  13
ENDBRANCH  11  12
ENDBRANCH   1  11
TORSDOF 14
ENDMDL
MODEL 4
REMARK VINA RESULT:    -2.974      1.379      2.220
REMARK INTER + INTRA:          -7.592
REMARK INTER:                  -5.707
REMARK INTRA:                  -1.886
REMARK UNBOUND:                -2.185
REMARK SMILES CCCCCCCCCCCCCCCC(=O)[O-]
REMARK SMILES IDX 9 1 10 2 11 3 12 4 13 5 14 6 15 7 16 8 17 9 18 10 8 11 7 12
REMARK SMILES IDX 6 13 5 14 4 15 3 16 2 17 1 18
REMARK H PARENT
REMARK Flexibility Score: inf
ROOT
ATOM      1  C   UNL     1      32.632  11.472  22.242  1.00  0.00     0.000 C 
ENDROOT
BRANCH   1   2
ATOM      2  C   UNL     1      31.995  10.615  23.352  1.00  0.00     0.000 C 
BRANCH   2   3
ATOM      3  C   UNL     1      31.235   9.402  22.796  1.00  0.00     0.000 C 
BRANCH   3   4
ATOM      4  C   UNL     1      32.031   8.645  21.723  1.00  0.00     0.000 C 
BRANCH   4   5
ATOM      5  C   UNL     1      31.260   7.409  21.236  1.00  0.00     0.000 C 
BRANCH   5   6
ATOM      6  C   UNL     1      32.038   6.097  21.449  1.00  0.00     0.006 C 
BRANCH   6   7
ATOM      7  C   UNL     1      32.085   5.181  20.216  1.00  0.00     0.053 C 
BRANCH   7   8
ATOM      8  C   UNL     1      32.259   3.741  20.592  1.00  0.00     0.041 C 
ATOM      9  O   UNL     1      32.816   3.432  21.678  1.00  0.00    -0.550 OA
ATOM     10  O   UNL     1      31.835   2.741  19.727  1.00  0.00    -0.550 OA
ENDBRANCH   7   8
ENDBRANCH   6   7
ENDBRANCH   5   6
ENDBRANCH   4   5
ENDBRANCH   3   4
ENDBRANCH   2   3
ENDBRANCH   1   2
BRANCH   1  11
ATOM     11  C   UNL     1      33.964  12.106  22.674  1.00  0.00     0.000 C 
BRANCH  11  12
ATOM     12  C   UNL     1      34.947  11.074  23.255  1.00  0.00    -0.000 C 
BRANCH  12  13
ATOM     13  C   UNL     1      35.953  10.565  22.210  1.00  0.00    -0.000 C 
BRANCH  13  14
ATOM     14  C   UNL     1      35.746   9.081  21.860  1.00  0.00    -0.000 C 
BRANCH  14  15
ATOM     15  C   UNL     1      35.322   8.867  20.397  1.00  0.00    -0.000 C 
BRANCH  15  16
ATOM     16  C   UNL     1      35.461   7.405  19.921  1.00  0.00    -0.000 C 
BRANCH  16  17
ATOM     17  C   UNL     1      35.662   6.429  21.089  1.00  0.00    -0.003 C 
ATOM     18  C   UNL     1      35.961   5.021  20.585  1.00  0.00     0.004 C 
ENDBRANCH  16  17
ENDBRANCH  15  16
ENDBRANCH  14  15
ENDBRANCH  13  14
ENDBRANCH  12  13
ENDBRANCH  11  12
ENDBRANCH   1  11
TORSDOF 14
ENDMDL
MODEL 5
REMARK VINA RESULT:    -2.952      1.564      3.472
REMARK INTER + INTRA:          -7.553
REMARK INTER:                  -6.064
REMARK INTRA:                  -1.489
REMARK UNBOUND:                -2.185
REMARK SMILES CCCCCCCCCCCCCCCC(=O)[O-]
REMARK SMILES IDX 9 1 10 2 11 3 12 4 13 5 14 6 15 7 16 8 17 9 18 10 8 11 7 12
REMARK SMILES IDX 6 13 5 14 4 15 3 16 2 17 1 18
REMARK H PARENT
REMARK Flexibility Score: inf
ROOT
ATOM      1  C   UNL     1      36.834   7.941  22.055  1.00  0.00     0.000 C 
ENDROOT
BRANCH   1   2
ATOM      2  C   UNL     1      35.917   7.398  20.944  1.00  0.00     0.000 C 
BRANCH   2   3
ATOM      3  C   UNL     1      34.832   8.405  20.531  1.00  0.00     0.000 C 
BRANCH   3   4
ATOM      4  C   UNL     1      33.428   7.782  20.499  1.00  0.00     0.000 C 
BRANCH   4   5
ATOM      5  C   UNL     1      33.507   6.248  20.522  1.00  0.00     0.000 C 
BRANCH   5   6
ATOM      6  C   UNL     1      32.243   5.594  21.109  1.00  0.00     0.006 C 
BRANCH   6   7
ATOM      7  C   UNL     1      32.520   4.412  22.052  1.00  0.00     0.053 C 
BRANCH   7   8
ATOM      8  C   UNL     1      32.863   3.162  21.299  1.00  0.00     0.041 C 
ATOM      9  O   UNL     1      34.035   2.977  20.878  1.00  0.00    -0.550 OA
ATOM     10  O   UNL     1      31.879   2.219  21.034  1.00  0.00    -0.550 OA
ENDBRANCH   7   8
ENDBRANCH   6   7
ENDBRANCH   5   6
ENDBRANCH   4   5
ENDBRANCH   3   4
ENDBRANCH   2   3
ENDBRANCH   1   2
BRANCH   1  11
ATOM     11  C   UNL     1      37.452   9.303  21.700  1.00  0.00     0.000 C 
BRANCH  11  12
ATOM     12  C   UNL     1      37.389  10.302  22.868  1.00  0.00    -0.000 C 
BRANCH  12  13
ATOM     13  C   UNL     1      35.947  10.689  23.236  1.00  0.00    -0.000 C 
BRANCH  13  14
ATOM     14  C   UNL     1      35.294  11.610  22.191  1.00  0.00    -0.000 C 
BRANCH  14  15
ATOM     15  C   UNL     1      33.810  11.888  22.485  1.00  0.00    -0.000 C 
BRANCH  15  16
ATOM     16  C   UNL     1      33.104  10.741  23.240  1.00  0.00    -0.000 C 
BRANCH  16  17
ATOM     17  C   UNL     1      31.608  10.657  22.903  1.00  0.00    -0.003 C 
ATOM     18  C   UNL     1      31.150   9.207  22.785  1.00  0.00     0.004 C 
ENDBRANCH  16  17
ENDBRANCH  15  16
ENDBRANCH  14  15
ENDBRANCH  13  14
ENDBRANCH  12  13
ENDBRANCH  11  12
ENDBRANCH   1  11
TORSDOF 14
ENDMDL
MODEL 6
REMARK VINA RESULT:    -2.929      3.503      5.424
REMARK INTER + INTRA:          -7.512
REMARK INTER:                  -5.259
REMARK INTRA:                  -2.253
REMARK UNBOUND:                -2.185
REMARK SMILES CCCCCCCCCCCCCCCC(=O)[O-]
REMARK SMILES IDX 9 1 10 2 11 3 12 4 13 5 14 6 15 7 16 8 17 9 18 10 8 11 7 12
REMARK SMILES IDX 6 13 5 14 4 15 3 16 2 17 1 18
REMARK H PARENT
REMARK Flexibility Score: inf
ROOT
ATOM      1  C   UNL     1      32.180  10.308  23.292  1.00  0.00     0.000 C 
ENDROOT
BRANCH   1   2
ATOM      2  C   UNL     1      32.386  11.682  22.627  1.00  0.00     0.000 C 
BRANCH   2   3
ATOM      3  C   UNL     1      33.871  12.045  22.472  1.00  0.00     0.000 C 
BRANCH   3   4
ATOM      4  C   UNL     1      34.781  11.220  23.394  1.00  0.00     0.000 C 
BRANCH   4   5
ATOM      5  C   UNL     1      36.222  11.197  22.865  1.00  0.00     0.000 C 
BRANCH   5   6
ATOM      6  C   UNL     1      36.949   9.874  23.169  1.00  0.00     0.006 C 
BRANCH   6   7
ATOM      7  C   UNL     1      38.206   9.631  22.319  1.00  0.00     0.053 C 
BRANCH   7   8
ATOM      8  C   UNL     1      39.463   9.778  23.120  1.00  0.00     0.041 C 
ATOM      9  O   UNL     1      40.039  10.896  23.196  1.00  0.00    -0.550 OA
ATOM     10  O   UNL     1      40.017   8.674  23.754  1.00  0.00    -0.550 OA
ENDBRANCH   7   8
ENDBRANCH   6   7
ENDBRANCH   5   6
ENDBRANCH   4   5
ENDBRANCH   3   4
ENDBRANCH   2   3
ENDBRANCH   1   2
BRANCH   1  11
ATOM     11  C   UNL     1      31.233   9.399  22.493  1.00  0.00     0.000 C 
BRANCH  11  12
ATOM     12  C   UNL     1      31.981   8.288  21.736  1.00  0.00    -0.000 C 
BRANCH  12  13
ATOM     13  C   UNL     1      32.970   8.844  20.699  1.00  0.00    -0.000 C 
BRANCH  13  14
ATOM     14  C   UNL     1      34.350   8.168  20.773  1.00  0.00    -0.000 C 
BRANCH  14  15
ATOM     15  C   UNL     1      35.422   8.909  19.954  1.00  0.00    -0.000 C 
BRANCH  15  16
ATOM     16  C   UNL     1      34.960  10.288  19.437  1.00  0.00    -0.000 C 
BRANCH  16  17
ATOM     17  C   UNL     1      36.011  10.953  18.535  1.00  0.00    -0.003 C 
ATOM     18  C   UNL     1      37.088  11.647  19.363  1.00  0.00     0.004 C 
ENDBRANCH  16  17
ENDBRANCH  15  16
ENDBRANCH  14  15
ENDBRANCH  13  14
ENDBRANCH  12  13
ENDBRANCH  11  12
ENDBRANCH   1  11
TORSDOF 14
ENDMDL
MODEL 7
REMARK VINA RESULT:    -2.920      2.590      5.494
REMARK INTER + INTRA:          -7.495
REMARK INTER:                  -5.482
REMARK INTRA:                  -2.013
REMARK UNBOUND:                -2.185
REMARK SMILES CCCCCCCCCCCCCCCC(=O)[O-]
REMARK SMILES IDX 9 1 10 2 11 3 12 4 13 5 14 6 15 7 16 8 17 9 18 10 8 11 7 12
REMARK SMILES IDX 6 13 5 14 4 15 3 16 2 17 1 18
REMARK H PARENT
REMARK Flexibility Score: inf
ROOT
ATOM      1  C   UNL     1      30.967   8.996  22.576  1.00  0.00     0.000 C 
ENDROOT
BRANCH   1   2
ATOM      2  C   UNL     1      31.977  10.121  22.283  1.00  0.00     0.000 C 
BRANCH   2   3
ATOM      3  C   UNL     1      32.490  10.800  23.562  1.00  0.00     0.000 C 
BRANCH   3   4
ATOM      4  C   UNL     1      33.976  11.178  23.475  1.00  0.00     0.000 C 
BRANCH   4   5
ATOM      5  C   UNL     1      34.585  10.712  22.144  1.00  0.00     0.000 C 
BRANCH   5   6
ATOM      6  C   UNL     1      35.822   9.815  22.334  1.00  0.00     0.006 C 
BRANCH   6   7
ATOM      7  C   UNL     1      36.050   8.801  21.202  1.00  0.00     0.053 C 
BRANCH   7   8
ATOM      8  C   UNL     1      36.102   9.461  19.859  1.00  0.00     0.041 C 
ATOM      9  O   UNL     1      35.246   9.177  18.979  1.00  0.00    -0.550 OA
ATOM     10  O   UNL     1      37.115  10.364  19.567  1.00  0.00    -0.550 OA
ENDBRANCH   7   8
ENDBRANCH   6   7
ENDBRANCH   5   6
ENDBRANCH   4   5
ENDBRANCH   3   4
ENDBRANCH   2   3
ENDBRANCH   1   2
BRANCH   1  11
ATOM     11  C   UNL     1      31.238   7.728  21.751  1.00  0.00     0.000 C 
BRANCH  11  12
ATOM     12  C   UNL     1      32.509   7.843  20.892  1.00  0.00    -0.000 C 
BRANCH  12  13
ATOM     13  C   UNL     1      32.401   7.062  19.572  1.00  0.00    -0.000 C 
BRANCH  13  14
ATOM     14  C   UNL     1      33.611   6.144  19.326  1.00  0.00    -0.000 C 
BRANCH  14  15
ATOM     15  C   UNL     1      34.267   5.659  20.630  1.00  0.00    -0.000 C 
BRANCH  15  16
ATOM     16  C   UNL     1      33.864   4.223  21.028  1.00  0.00    -0.000 C 
BRANCH  16  17
ATOM     17  C   UNL     1      32.604   4.194  21.905  1.00  0.00    -0.003 C 
ATOM     18  C   UNL     1      31.406   3.653  21.131  1.00  0.00     0.004 C 
ENDBRANCH  16  17
ENDBRANCH  15  16
ENDBRANCH  14  15
ENDBRANCH  13  14
ENDBRANCH  12  13
ENDBRANCH  11  12
ENDBRANCH   1  11
TORSDOF 14
ENDMDL
MODEL 8
REMARK VINA RESULT:    -2.883      2.640      4.968
REMARK INTER + INTRA:          -7.427
REMARK INTER:                  -5.713
REMARK INTRA:                  -1.713
REMARK UNBOUND:                -2.185
REMARK SMILES CCCCCCCCCCCCCCCC(=O)[O-]
REMARK SMILES IDX 9 1 10 2 11 3 12 4 13 5 14 6 15 7 16 8 17 9 18 10 8 11 7 12
REMARK SMILES IDX 6 13 5 14 4 15 3 16 2 17 1 18
REMARK H PARENT
REMARK Flexibility Score: inf
ROOT
ATOM      1  C   UNL     1      33.085  11.288  22.392  1.00  0.00     0.000 C 
ENDROOT
BRANCH   1   2
ATOM      2  C   UNL     1      34.437  11.644  23.039  1.00  0.00     0.000 C 
BRANCH   2   3
ATOM      3  C   UNL     1      35.491  10.542  22.846  1.00  0.00     0.000 C 
BRANCH   3   4
ATOM      4  C   UNL     1      35.670  10.145  21.374  1.00  0.00     0.000 C 
BRANCH   4   5
ATOM      5  C   UNL     1      36.784   9.101  21.218  1.00  0.00     0.000 C 
BRANCH   5   6
ATOM      6  C   UNL     1      37.185   8.450  22.556  1.00  0.00     0.006 C 
BRANCH   6   7
ATOM      7  C   UNL     1      37.229   6.914  22.524  1.00  0.00     0.053 C 
BRANCH   7   8
ATOM      8  C   UNL     1      38.084   6.355  23.620  1.00  0.00     0.041 C 
ATOM      9  O   UNL     1      38.671   5.251  23.466  1.00  0.00    -0.550 OA
ATOM     10  O   UNL     1      38.206   7.037  24.824  1.00  0.00    -0.550 OA
ENDBRANCH   7   8
ENDBRANCH   6   7
ENDBRANCH   5   6
ENDBRANCH   4   5
ENDBRANCH   3   4
ENDBRANCH   2   3
ENDBRANCH   1   2
BRANCH   1  11
ATOM     11  C   UNL     1      32.042  10.821  23.420  1.00  0.00     0.000 C 
BRANCH  11  12
ATOM     12  C   UNL     1      31.318   9.535  22.984  1.00  0.00    -0.000 C 
BRANCH  12  13
ATOM     13  C   UNL     1      32.021   8.833  21.811  1.00  0.00    -0.000 C 
BRANCH  13  14
ATOM     14  C   UNL     1      31.410   7.457  21.491  1.00  0.00    -0.000 C 
BRANCH  14  15
ATOM     15  C   UNL     1      32.367   6.550  20.699  1.00  0.00    -0.000 C 
BRANCH  15  16
ATOM     16  C   UNL     1      33.751   7.183  20.445  1.00  0.00    -0.000 C 
BRANCH  16  17
ATOM     17  C   UNL     1      34.745   6.184  19.835  1.00  0.00    -0.003 C 
ATOM     18  C   UNL     1      34.706   4.848  20.570  1.00  0.00     0.004 C 
ENDBRANCH  16  17
ENDBRANCH  15  16
ENDBRANCH  14  15
ENDBRANCH  13  14
ENDBRANCH  12  13
ENDBRANCH  11  12
ENDBRANCH   1  11
TORSDOF 14
ENDMDL
MODEL 9
REMARK VINA RESULT:    -2.851      3.428      5.846
REMARK INTER + INTRA:          -7.370
REMARK INTER:                  -5.489
REMARK INTRA:                  -1.881
REMARK UNBOUND:                -2.185
REMARK SMILES CCCCCCCCCCCCCCCC(=O)[O-]
REMARK SMILES IDX 9 1 10 2 11 3 12 4 13 5 14 6 15 7 16 8 17 9 18 10 8 11 7 12
REMARK SMILES IDX 6 13 5 14 4 15 3 16 2 17 1 18
REMARK H PARENT
REMARK Flexibility Score: inf
ROOT
ATOM      1  C   UNL     1      32.676   5.361  21.351  1.00  0.00     0.000 C 
ENDROOT
BRANCH   1   2
ATOM      2  C   UNL     1      34.149   5.640  20.999  1.00  0.00     0.000 C 
BRANCH   2   3
ATOM      3  C   UNL     1      34.304   6.405  19.676  1.00  0.00     0.000 C 
BRANCH   3   4
ATOM      4  C   UNL     1      34.984   7.770  19.858  1.00  0.00     0.000 C 
BRANCH   4   5
ATOM      5  C   UNL     1      35.344   8.012  21.331  1.00  0.00     0.000 C 
BRANCH   5   6
ATOM      6  C   UNL     1      36.438   9.081  21.511  1.00  0.00     0.006 C 
BRANCH   6   7
ATOM      7  C   UNL     1      37.377   8.833  22.701  1.00  0.00     0.053 C 
BRANCH   7   8
ATOM      8  C   UNL     1      38.289   9.995  22.949  1.00  0.00     0.041 C 
ATOM      9  O   UNL     1      39.459   9.804  23.374  1.00  0.00    -0.550 OA
ATOM     10  O   UNL     1      37.835  11.291  22.743  1.00  0.00    -0.550 OA
ENDBRANCH   7   8
ENDBRANCH   6   7
ENDBRANCH   5   6
ENDBRANCH   4   5
ENDBRANCH   3   4
ENDBRANCH   2   3
ENDBRANCH   1   2
BRANCH   1  11
ATOM     11  C   UNL     1      31.708   6.339  20.666  1.00  0.00     0.000 C 
BRANCH  11  12
ATOM     12  C   UNL     1      31.038   7.302  21.663  1.00  0.00    -0.000 C 
BRANCH  12  13
ATOM     13  C   UNL     1      31.782   8.642  21.779  1.00  0.00    -0.000 C 
BRANCH  13  14
ATOM     14  C   UNL     1      31.259   9.512  22.935  1.00  0.00    -0.000 C 
BRANCH  14  15
ATOM     15  C   UNL     1      31.811  10.948  22.896  1.00  0.00    -0.000 C 
BRANCH  15  16
ATOM     16  C   UNL     1      32.840  11.185  21.771  1.00  0.00    -0.000 C 
BRANCH  16  17
ATOM     17  C   UNL     1      34.109  11.884  22.280  1.00  0.00    -0.003 C 
ATOM     18  C   UNL     1      34.541  11.325  23.632  1.00  0.00     0.004 C 
ENDBRANCH  16  17
ENDBRANCH  15  16
ENDBRANCH  14  15
ENDBRANCH  13  14
ENDBRANCH  12  13
ENDBRANCH  11  12
ENDBRANCH   1  11
TORSDOF 14
ENDMDL
