MODEL 1
REMARK VINA RESULT:    -4.916      0.000      0.000
REMARK INTER + INTRA:         -14.001
REMARK INTER:                 -10.665
REMARK INTRA:                  -3.337
REMARK UNBOUND:                -3.337
REMARK SMILES CCCCCCCCCCCCCCCCCCCCCC(=O)[O-]
REMARK SMILES IDX 12 1 11 2 10 3 9 4 8 5 7 6 6 7 5 8 4 9 3 10 2 11 1 12 13 13
REMARK SMILES IDX 14 14 15 15 16 16 17 17 18 18 19 19 20 20 21 21 22 22 23 23
REMARK SMILES IDX 24 24
REMARK H PARENT
REMARK Flexibility Score: inf
ROOT
ATOM      1  C   UNL     1      14.614 -33.124  21.567  1.00  0.00     0.000 C 
ENDROOT
BRANCH   1   2
ATOM      2  C   UNL     1      13.758 -32.252  20.633  1.00  0.00     0.000 C 
BRANCH   2   3
ATOM      3  C   UNL     1      12.956 -31.186  21.397  1.00  0.00     0.000 C 
BRANCH   3   4
ATOM      4  C   UNL     1      13.202 -31.236  22.913  1.00  0.00    -0.000 C 
BRANCH   4   5
ATOM      5  C   UNL     1      13.771 -29.918  23.467  1.00  0.00    -0.000 C 
BRANCH   5   6
ATOM      6  C   UNL     1      14.427 -29.055  22.378  1.00  0.00    -0.000 C 
BRANCH   6   7
ATOM      7  C   UNL     1      15.874 -29.481  22.075  1.00  0.00    -0.000 C 
BRANCH   7   8
ATOM      8  C   UNL     1      16.541 -30.170  23.284  1.00  0.00    -0.000 C 
BRANCH   8   9
ATOM      9  C   UNL     1      17.591 -31.223  22.891  1.00  0.00    -0.000 C 
BRANCH   9  10
ATOM     10  C   UNL     1      17.756 -31.364  21.369  1.00  0.00    -0.000 C 
BRANCH  10  11
ATOM     11  C   UNL     1      19.230 -31.342  20.932  1.00  0.00    -0.003 C 
ATOM     12  C   UNL     1      19.872 -29.962  21.079  1.00  0.00     0.004 C 
ENDBRANCH  10  11
ENDBRANCH   9  10
ENDBRANCH   8   9
ENDBRANCH   7   8
ENDBRANCH   6   7
ENDBRANCH   5   6
ENDBRANCH   4   5
ENDBRANCH   3   4
ENDBRANCH   2   3
ENDBRANCH   1   2
BRANCH   1  13
ATOM     13  C   UNL     1      15.183 -34.365  20.860  1.00  0.00     0.000 C 
BRANCH  13  14
ATOM     14  C   UNL     1      15.876 -33.981  19.548  1.00  0.00     0.000 C 
BRANCH  14  15
ATOM     15  C   UNL     1      16.887 -35.058  19.126  1.00  0.00     0.000 C 
BRANCH  15  16
ATOM     16  C   UNL     1      16.615 -36.419  19.788  1.00  0.00     0.000 C 
BRANCH  16  17
ATOM     17  C   UNL     1      17.897 -37.105  20.286  1.00  0.00     0.000 C 
BRANCH  17  18
ATOM     18  C   UNL     1      18.666 -36.193  21.254  1.00  0.00     0.000 C 
BRANCH  18  19
ATOM     19  C   UNL     1      18.014 -36.106  22.645  1.00  0.00     0.000 C 
BRANCH  19  20
ATOM     20  C   UNL     1      17.878 -34.681  23.212  1.00  0.00     0.006 C 
BRANCH  20  21
ATOM     21  C   UNL     1      17.093 -34.632  24.530  1.00  0.00     0.053 C 
BRANCH  21  22
ATOM     22  C   UNL     1      17.615 -35.655  25.488  1.00  0.00     0.041 C 
ATOM     23  O   UNL     1      18.812 -35.605  25.877  1.00  0.00    -0.550 OA
ATOM     24  O   UNL     1      16.767 -36.631  25.993  1.00  0.00    -0.550 OA
ENDBRANCH  21  22
ENDBRANCH  20  21
ENDBRANCH  19  20
ENDBRANCH  18  19
ENDBRANCH  17  18
ENDBRANCH  16  17
ENDBRANCH  15  16
ENDBRANCH  14  15
ENDBRANCH  13  14
ENDBRANCH   1  13
TORSDOF 20
ENDMDL
MODEL 2
REMARK VINA RESULT:    -4.858      3.113      6.027
REMARK INTER + INTRA:         -13.873
REMARK INTER:                 -11.238
REMARK INTRA:                  -2.636
REMARK UNBOUND:                -3.337
REMARK SMILES CCCCCCCCCCCCCCCCCCCCCC(=O)[O-]
REMARK SMILES IDX 12 1 11 2 10 3 9 4 8 5 7 6 6 7 5 8 4 9 3 10 2 11 1 12 13 13
REMARK SMILES IDX 14 14 15 15 16 16 17 17 18 18 19 19 20 20 21 21 22 22 23 23
REMARK SMILES IDX 24 24
REMARK H PARENT
REMARK Flexibility Score: inf
ROOT
ATOM      1  C   UNL     1      18.650 -34.940  20.536  1.00  0.00     0.000 C 
ENDROOT
BRANCH   1   2
ATOM      2  C   UNL     1      18.677 -33.674  21.408  1.00  0.00     0.000 C 
BRANCH   2   3
ATOM      3  C   UNL     1      18.581 -32.385  20.576  1.00  0.00     0.000 C 
BRANCH   3   4
ATOM      4  C   UNL     1      17.494 -31.429  21.092  1.00  0.00    -0.000 C 
BRANCH   4   5
ATOM      5  C   UNL     1      17.975 -30.559  22.267  1.00  0.00    -0.000 C 
BRANCH   5   6
ATOM      6  C   UNL     1      17.032 -30.632  23.478  1.00  0.00    -0.000 C 
BRANCH   6   7
ATOM      7  C   UNL     1      16.405 -32.025  23.659  1.00  0.00    -0.000 C 
BRANCH   7   8
ATOM      8  C   UNL     1      17.262 -32.933  24.566  1.00  0.00    -0.000 C 
BRANCH   8   9
ATOM      9  C   UNL     1      16.595 -34.278  24.898  1.00  0.00    -0.000 C 
BRANCH   9  10
ATOM     10  C   UNL     1      17.606 -35.361  25.310  1.00  0.00    -0.000 C 
BRANCH  10  11
ATOM     11  C   UNL     1      16.979 -36.444  26.202  1.00  0.00    -0.003 C 
ATOM     12  C   UNL     1      18.024 -37.330  26.882  1.00  0.00     0.004 C 
ENDBRANCH  10  11
ENDBRANCH   9  10
ENDBRANCH   8   9
ENDBRANCH   7   8
ENDBRANCH   6   7
ENDBRANCH   5   6
ENDBRANCH   4   5
ENDBRANCH   3   4
ENDBRANCH   2   3
ENDBRANCH   1   2
BRANCH   1  13
ATOM     13  C   UNL     1      17.692 -34.814  19.341  1.00  0.00     0.000 C 
BRANCH  13  14
ATOM     14  C   UNL     1      16.478 -35.735  19.509  1.00  0.00     0.000 C 
BRANCH  14  15
ATOM     15  C   UNL     1      15.429 -35.096  20.431  1.00  0.00     0.000 C 
BRANCH  15  16
ATOM     16  C   UNL     1      14.894 -33.761  19.887  1.00  0.00     0.000 C 
BRANCH  16  17
ATOM     17  C   UNL     1      14.267 -32.882  20.981  1.00  0.00     0.000 C 
BRANCH  17  18
ATOM     18  C   UNL     1      13.282 -31.872  20.374  1.00  0.00     0.000 C 
BRANCH  18  19
ATOM     19  C   UNL     1      12.625 -30.964  21.429  1.00  0.00     0.000 C 
BRANCH  19  20
ATOM     20  C   UNL     1      13.590 -30.014  22.162  1.00  0.00     0.006 C 
BRANCH  20  21
ATOM     21  C   UNL     1      13.278 -29.881  23.659  1.00  0.00     0.053 C 
BRANCH  21  22
ATOM     22  C   UNL     1      12.439 -28.670  23.913  1.00  0.00     0.041 C 
ATOM     23  O   UNL     1      12.722 -27.890  24.860  1.00  0.00    -0.550 OA
ATOM     24  O   UNL     1      11.374 -28.373  23.072  1.00  0.00    -0.550 OA
ENDBRANCH  21  22
ENDBRANCH  20  21
ENDBRANCH  19  20
ENDBRANCH  18  19
ENDBRANCH  17  18
ENDBRANCH  16  17
ENDBRANCH  15  16
ENDBRANCH  14  15
ENDBRANCH  13  14
ENDBRANCH   1  13
TORSDOF 20
ENDMDL
MODEL 3
REMARK VINA RESULT:    -4.743      2.973      5.534
REMARK INTER + INTRA:         -13.624
REMARK INTER:                  -9.727
REMARK INTRA:                  -3.897
REMARK UNBOUND:                -3.337
REMARK SMILES CCCCCCCCCCCCCCCCCCCCCC(=O)[O-]
REMARK SMILES IDX 12 1 11 2 10 3 9 4 8 5 7 6 6 7 5 8 4 9 3 10 2 11 1 12 13 13
REMARK SMILES IDX 14 14 15 15 16 16 17 17 18 18 19 19 20 20 21 21 22 22 23 23
REMARK SMILES IDX 24 24
REMARK H PARENT
REMARK Flexibility Score: inf
ROOT
ATOM      1  C   UNL     1      17.984 -37.113  20.700  1.00  0.00     0.000 C 
ENDROOT
BRANCH   1   2
ATOM      2  C   UNL     1      17.211 -36.530  19.506  1.00  0.00     0.000 C 
BRANCH   2   3
ATOM      3  C   UNL     1      16.177 -35.474  19.933  1.00  0.00     0.000 C 
BRANCH   3   4
ATOM      4  C   UNL     1      16.297 -34.171  19.129  1.00  0.00    -0.000 C 
BRANCH   4   5
ATOM      5  C   UNL     1      17.758 -33.753  18.887  1.00  0.00    -0.000 C 
BRANCH   5   6
ATOM      6  C   UNL     1      18.345 -32.957  20.064  1.00  0.00    -0.000 C 
BRANCH   6   7
ATOM      7  C   UNL     1      17.654 -31.598  20.265  1.00  0.00    -0.000 C 
BRANCH   7   8
ATOM      8  C   UNL     1      18.107 -30.904  21.566  1.00  0.00    -0.000 C 
BRANCH   8   9
ATOM      9  C   UNL     1      19.537 -31.270  21.995  1.00  0.00    -0.000 C 
BRANCH   9  10
ATOM     10  C   UNL     1      19.658 -31.544  23.502  1.00  0.00    -0.000 C 
BRANCH  10  11
ATOM     11  C   UNL     1      20.548 -32.758  23.812  1.00  0.00    -0.003 C 
ATOM     12  C   UNL     1      21.055 -33.458  22.550  1.00  0.00     0.004 C 
ENDBRANCH  10  11
ENDBRANCH   9  10
ENDBRANCH   8   9
ENDBRANCH   7   8
ENDBRANCH   6   7
ENDBRANCH   5   6
ENDBRANCH   4   5
ENDBRANCH   3   4
ENDBRANCH   2   3
ENDBRANCH   1   2
BRANCH   1  13
ATOM     13  C   UNL     1      18.554 -36.024  21.623  1.00  0.00     0.000 C 
BRANCH  13  14
ATOM     14  C   UNL     1      18.383 -36.409  23.097  1.00  0.00     0.000 C 
BRANCH  14  15
ATOM     15  C   UNL     1      17.798 -35.240  23.904  1.00  0.00     0.000 C 
BRANCH  15  16
ATOM     16  C   UNL     1      16.929 -34.304  23.050  1.00  0.00     0.000 C 
BRANCH  16  17
ATOM     17  C   UNL     1      16.328 -33.145  23.861  1.00  0.00     0.000 C 
BRANCH  17  18
ATOM     18  C   UNL     1      14.843 -32.949  23.520  1.00  0.00     0.000 C 
BRANCH  18  19
ATOM     19  C   UNL     1      14.597 -32.699  22.021  1.00  0.00     0.000 C 
BRANCH  19  20
ATOM     20  C   UNL     1      14.212 -31.254  21.658  1.00  0.00     0.006 C 
BRANCH  20  21
ATOM     21  C   UNL     1      12.714 -30.969  21.838  1.00  0.00     0.053 C 
BRANCH  21  22
ATOM     22  C   UNL     1      12.508 -29.844  22.801  1.00  0.00     0.041 C 
ATOM     23  O   UNL     1      11.716 -28.906  22.520  1.00  0.00    -0.550 OA
ATOM     24  O   UNL     1      13.149 -29.857  24.033  1.00  0.00    -0.550 OA
ENDBRANCH  21  22
ENDBRANCH  20  21
ENDBRANCH  19  20
ENDBRANCH  18  19
ENDBRANCH  17  18
ENDBRANCH  16  17
ENDBRANCH  15  16
ENDBRANCH  14  15
ENDBRANCH  13  14
ENDBRANCH   1  13
TORSDOF 20
ENDMDL
MODEL 4
REMARK VINA RESULT:    -4.705      2.892      6.631
REMARK INTER + INTRA:         -13.542
REMARK INTER:                 -10.773
REMARK INTRA:                  -2.769
REMARK UNBOUND:                -3.337
REMARK SMILES CCCCCCCCCCCCCCCCCCCCCC(=O)[O-]
REMARK SMILES IDX 12 1 11 2 10 3 9 4 8 5 7 6 6 7 5 8 4 9 3 10 2 11 1 12 13 13
REMARK SMILES IDX 14 14 15 15 16 16 17 17 18 18 19 19 20 20 21 21 22 22 23 23
REMARK SMILES IDX 24 24
REMARK H PARENT
REMARK Flexibility Score: inf
ROOT
ATOM      1  C   UNL     1      17.804 -37.182  20.625  1.00  0.00     0.000 C 
ENDROOT
BRANCH   1   2
ATOM      2  C   UNL     1      18.105 -36.212  21.779  1.00  0.00     0.000 C 
BRANCH   2   3
ATOM      3  C   UNL     1      19.565 -35.729  21.776  1.00  0.00     0.000 C 
BRANCH   3   4
ATOM      4  C   UNL     1      19.954 -35.016  23.081  1.00  0.00    -0.000 C 
BRANCH   4   5
ATOM      5  C   UNL     1      19.064 -33.796  23.380  1.00  0.00    -0.000 C 
BRANCH   5   6
ATOM      6  C   UNL     1      18.490 -33.822  24.805  1.00  0.00    -0.000 C 
BRANCH   6   7
ATOM      7  C   UNL     1      17.029 -34.302  24.847  1.00  0.00    -0.000 C 
BRANCH   7   8
ATOM      8  C   UNL     1      16.880 -35.641  25.600  1.00  0.00    -0.000 C 
BRANCH   8   9
ATOM      9  C   UNL     1      18.214 -36.217  26.104  1.00  0.00    -0.000 C 
BRANCH   9  10
ATOM     10  C   UNL     1      18.028 -37.377  27.094  1.00  0.00    -0.000 C 
BRANCH  10  11
ATOM     11  C   UNL     1      16.619 -37.989  27.028  1.00  0.00    -0.003 C 
ATOM     12  C   UNL     1      15.967 -38.125  28.404  1.00  0.00     0.004 C 
ENDBRANCH  10  11
ENDBRANCH   9  10
ENDBRANCH   8   9
ENDBRANCH   7   8
ENDBRANCH   6   7
ENDBRANCH   5   6
ENDBRANCH   4   5
ENDBRANCH   3   4
ENDBRANCH   2   3
ENDBRANCH   1   2
BRANCH   1  13
ATOM     13  C   UNL     1      17.588 -36.458  19.287  1.00  0.00     0.000 C 
BRANCH  13  14
ATOM     14  C   UNL     1      16.563 -35.328  19.431  1.00  0.00     0.000 C 
BRANCH  14  15
ATOM     15  C   UNL     1      17.104 -34.017  18.842  1.00  0.00     0.000 C 
BRANCH  15  16
ATOM     16  C   UNL     1      17.716 -33.094  19.909  1.00  0.00     0.000 C 
BRANCH  16  17
ATOM     17  C   UNL     1      16.720 -32.729  21.021  1.00  0.00     0.000 C 
BRANCH  17  18
ATOM     18  C   UNL     1      16.864 -31.254  21.422  1.00  0.00     0.000 C 
BRANCH  18  19
ATOM     19  C   UNL     1      16.280 -30.948  22.814  1.00  0.00     0.000 C 
BRANCH  19  20
ATOM     20  C   UNL     1      14.933 -30.204  22.804  1.00  0.00     0.006 C 
BRANCH  20  21
ATOM     21  C   UNL     1      14.357 -30.024  21.393  1.00  0.00     0.053 C 
BRANCH  21  22
ATOM     22  C   UNL     1      13.192 -30.938  21.183  1.00  0.00     0.041 C 
ATOM     23  O   UNL     1      13.348 -32.038  20.590  1.00  0.00    -0.550 OA
ATOM     24  O   UNL     1      11.943 -30.600  21.689  1.00  0.00    -0.550 OA
ENDBRANCH  21  22
ENDBRANCH  20  21
ENDBRANCH  19  20
ENDBRANCH  18  19
ENDBRANCH  17  18
ENDBRANCH  16  17
ENDBRANCH  15  16
ENDBRANCH  14  15
ENDBRANCH  13  14
ENDBRANCH   1  13
TORSDOF 20
ENDMDL
MODEL 5
REMARK VINA RESULT:    -4.704      2.795      5.583
REMARK INTER + INTRA:         -13.541
REMARK INTER:                 -10.716
REMARK INTRA:                  -2.825
REMARK UNBOUND:                -3.337
REMARK SMILES CCCCCCCCCCCCCCCCCCCCCC(=O)[O-]
REMARK SMILES IDX 12 1 11 2 10 3 9 4 8 5 7 6 6 7 5 8 4 9 3 10 2 11 1 12 13 13
REMARK SMILES IDX 14 14 15 15 16 16 17 17 18 18 19 19 20 20 21 21 22 22 23 23
REMARK SMILES IDX 24 24
REMARK H PARENT
REMARK Flexibility Score: inf
ROOT
ATOM      1  C   UNL     1      17.136 -30.559  22.899  1.00  0.00     0.000 C 
ENDROOT
BRANCH   1   2
ATOM      2  C   UNL     1      16.963 -30.532  21.372  1.00  0.00     0.000 C 
BRANCH   2   3
ATOM      3  C   UNL     1      18.274 -30.830  20.626  1.00  0.00     0.000 C 
BRANCH   3   4
ATOM      4  C   UNL     1      19.518 -30.445  21.442  1.00  0.00    -0.000 C 
BRANCH   4   5
ATOM      5  C   UNL     1      20.524 -29.605  20.635  1.00  0.00    -0.000 C 
BRANCH   5   6
ATOM      6  C   UNL     1      20.546 -28.132  21.072  1.00  0.00    -0.000 C 
BRANCH   6   7
ATOM      7  C   UNL     1      19.459 -27.292  20.381  1.00  0.00    -0.000 C 
BRANCH   7   8
ATOM      8  C   UNL     1      19.936 -25.855  20.085  1.00  0.00    -0.000 C 
BRANCH   8   9
ATOM      9  C   UNL     1      21.256 -25.487  20.784  1.00  0.00    -0.000 C 
BRANCH   9  10
ATOM     10  C   UNL     1      22.372 -25.114  19.795  1.00  0.00    -0.000 C 
BRANCH  10  11
ATOM     11  C   UNL     1      23.261 -26.314  19.430  1.00  0.00    -0.003 C 
ATOM     12  C   UNL     1      23.950 -26.933  20.647  1.00  0.00     0.004 C 
ENDBRANCH  10  11
ENDBRANCH   9  10
ENDBRANCH   8   9
ENDBRANCH   7   8
ENDBRANCH   6   7
ENDBRANCH   5   6
ENDBRANCH   4   5
ENDBRANCH   3   4
ENDBRANCH   2   3
ENDBRANCH   1   2
BRANCH   1  13
ATOM     13  C   UNL     1      15.881 -31.065  23.627  1.00  0.00     0.000 C 
BRANCH  13  14
ATOM     14  C   UNL     1      14.646 -30.250  23.226  1.00  0.00     0.000 C 
BRANCH  14  15
ATOM     15  C   UNL     1      13.490 -31.174  22.814  1.00  0.00     0.000 C 
BRANCH  15  16
ATOM     16  C   UNL     1      12.961 -30.871  21.403  1.00  0.00     0.000 C 
BRANCH  16  17
ATOM     17  C   UNL     1      13.382 -31.930  20.371  1.00  0.00     0.000 C 
BRANCH  17  18
ATOM     18  C   UNL     1      14.238 -33.023  21.026  1.00  0.00     0.000 C 
BRANCH  18  19
ATOM     19  C   UNL     1      15.001 -33.884  20.002  1.00  0.00     0.000 C 
BRANCH  19  20
ATOM     20  C   UNL     1      16.094 -34.788  20.599  1.00  0.00     0.006 C 
BRANCH  20  21
ATOM     21  C   UNL     1      16.583 -34.310  21.973  1.00  0.00     0.053 C 
BRANCH  21  22
ATOM     22  C   UNL     1      18.075 -34.201  21.989  1.00  0.00     0.041 C 
ATOM     23  O   UNL     1      18.736 -34.400  20.936  1.00  0.00    -0.550 OA
ATOM     24  O   UNL     1      18.732 -33.827  23.154  1.00  0.00    -0.550 OA
ENDBRANCH  21  22
ENDBRANCH  20  21
ENDBRANCH  19  20
ENDBRANCH  18  19
ENDBRANCH  17  18
ENDBRANCH  16  17
ENDBRANCH  15  16
ENDBRANCH  14  15
ENDBRANCH  13  14
ENDBRANCH   1  13
TORSDOF 20
ENDMDL
MODEL 6
REMARK VINA RESULT:    -4.694      1.685      3.919
REMARK INTER + INTRA:         -13.518
REMARK INTER:                 -10.943
REMARK INTRA:                  -2.576
REMARK UNBOUND:                -3.337
REMARK SMILES CCCCCCCCCCCCCCCCCCCCCC(=O)[O-]
REMARK SMILES IDX 12 1 11 2 10 3 9 4 8 5 7 6 6 7 5 8 4 9 3 10 2 11 1 12 13 13
REMARK SMILES IDX 14 14 15 15 16 16 17 17 18 18 19 19 20 20 21 21 22 22 23 23
REMARK SMILES IDX 24 24
REMARK H PARENT
REMARK Flexibility Score: inf
ROOT
ATOM      1  C   UNL     1      16.379 -34.295  19.400  1.00  0.00     0.000 C 
ENDROOT
BRANCH   1   2
ATOM      2  C   UNL     1      17.815 -33.773  19.226  1.00  0.00     0.000 C 
BRANCH   2   3
ATOM      3  C   UNL     1      18.217 -32.780  20.329  1.00  0.00     0.000 C 
BRANCH   3   4
ATOM      4  C   UNL     1      17.006 -32.072  20.956  1.00  0.00    -0.000 C 
BRANCH   4   5
ATOM      5  C   UNL     1      17.144 -31.893  22.478  1.00  0.00    -0.000 C 
BRANCH   5   6
ATOM      6  C   UNL     1      16.913 -30.441  22.924  1.00  0.00    -0.000 C 
BRANCH   6   7
ATOM      7  C   UNL     1      16.566 -29.508  21.751  1.00  0.00    -0.000 C 
BRANCH   7   8
ATOM      8  C   UNL     1      15.093 -29.051  21.788  1.00  0.00    -0.000 C 
BRANCH   8   9
ATOM      9  C   UNL     1      14.431 -29.216  23.166  1.00  0.00    -0.000 C 
BRANCH   9  10
ATOM     10  C   UNL     1      13.045 -29.875  23.087  1.00  0.00    -0.000 C 
BRANCH  10  11
ATOM     11  C   UNL     1      13.126 -31.395  22.870  1.00  0.00    -0.003 C 
ATOM     12  C   UNL     1      13.838 -32.120  24.013  1.00  0.00     0.004 C 
ENDBRANCH  10  11
ENDBRANCH   9  10
ENDBRANCH   8   9
ENDBRANCH   7   8
ENDBRANCH   6   7
ENDBRANCH   5   6
ENDBRANCH   4   5
ENDBRANCH   3   4
ENDBRANCH   2   3
ENDBRANCH   1   2
BRANCH   1  13
ATOM     13  C   UNL     1      16.318 -35.824  19.537  1.00  0.00     0.000 C 
BRANCH  13  14
ATOM     14  C   UNL     1      17.726 -36.431  19.551  1.00  0.00     0.000 C 
BRANCH  14  15
ATOM     15  C   UNL     1      17.980 -37.197  20.858  1.00  0.00     0.000 C 
BRANCH  15  16
ATOM     16  C   UNL     1      18.669 -36.334  21.928  1.00  0.00     0.000 C 
BRANCH  16  17
ATOM     17  C   UNL     1      17.671 -35.524  22.771  1.00  0.00     0.000 C 
BRANCH  17  18
ATOM     18  C   UNL     1      18.318 -35.052  24.082  1.00  0.00     0.000 C 
BRANCH  18  19
ATOM     19  C   UNL     1      18.753 -36.214  24.992  1.00  0.00     0.000 C 
BRANCH  19  20
ATOM     20  C   UNL     1      18.001 -36.308  26.332  1.00  0.00     0.006 C 
BRANCH  20  21
ATOM     21  C   UNL     1      17.393 -37.696  26.582  1.00  0.00     0.053 C 
BRANCH  21  22
ATOM     22  C   UNL     1      16.677 -37.724  27.894  1.00  0.00     0.041 C 
ATOM     23  O   UNL     1      15.485 -38.124  27.957  1.00  0.00    -0.550 OA
ATOM     24  O   UNL     1      17.342 -37.359  29.057  1.00  0.00    -0.550 OA
ENDBRANCH  21  22
ENDBRANCH  20  21
ENDBRANCH  19  20
ENDBRANCH  18  19
ENDBRANCH  17  18
ENDBRANCH  16  17
ENDBRANCH  15  16
ENDBRANCH  14  15
ENDBRANCH  13  14
ENDBRANCH   1  13
TORSDOF 20
ENDMDL
MODEL 7
REMARK VINA RESULT:    -4.675      3.443      6.341
REMARK INTER + INTRA:         -13.479
REMARK INTER:                 -10.179
REMARK INTRA:                  -3.299
REMARK UNBOUND:                -3.337
REMARK SMILES CCCCCCCCCCCCCCCCCCCCCC(=O)[O-]
REMARK SMILES IDX 12 1 11 2 10 3 9 4 8 5 7 6 6 7 5 8 4 9 3 10 2 11 1 12 13 13
REMARK SMILES IDX 14 14 15 15 16 16 17 17 18 18 19 19 20 20 21 21 22 22 23 23
REMARK SMILES IDX 24 24
REMARK H PARENT
REMARK Flexibility Score: inf
ROOT
ATOM      1  C   UNL     1      17.427 -36.281  19.615  1.00  0.00     0.000 C 
ENDROOT
BRANCH   1   2
ATOM      2  C   UNL     1      17.949 -37.042  20.845  1.00  0.00     0.000 C 
BRANCH   2   3
ATOM      3  C   UNL     1      18.974 -36.226  21.650  1.00  0.00     0.000 C 
BRANCH   3   4
ATOM      4  C   UNL     1      18.663 -36.208  23.155  1.00  0.00    -0.000 C 
BRANCH   4   5
ATOM      5  C   UNL     1      17.533 -35.228  23.517  1.00  0.00    -0.000 C 
BRANCH   5   6
ATOM      6  C   UNL     1      18.037 -33.788  23.697  1.00  0.00    -0.000 C 
BRANCH   6   7
ATOM      7  C   UNL     1      16.919 -32.815  24.109  1.00  0.00    -0.000 C 
BRANCH   7   8
ATOM      8  C   UNL     1      15.658 -32.977  23.236  1.00  0.00    -0.000 C 
BRANCH   8   9
ATOM      9  C   UNL     1      14.562 -31.941  23.538  1.00  0.00    -0.000 C 
BRANCH   9  10
ATOM     10  C   UNL     1      14.730 -30.642  22.734  1.00  0.00    -0.000 C 
BRANCH  10  11
ATOM     11  C   UNL     1      13.622 -30.450  21.686  1.00  0.00    -0.003 C 
ATOM     12  C   UNL     1      13.403 -31.692  20.821  1.00  0.00     0.004 C 
ENDBRANCH  10  11
ENDBRANCH   9  10
ENDBRANCH   8   9
ENDBRANCH   7   8
ENDBRANCH   6   7
ENDBRANCH   5   6
ENDBRANCH   4   5
ENDBRANCH   3   4
ENDBRANCH   2   3
ENDBRANCH   1   2
BRANCH   1  13
ATOM     13  C   UNL     1      16.078 -35.595  19.874  1.00  0.00     0.000 C 
BRANCH  13  14
ATOM     14  C   UNL     1      16.213 -34.069  19.797  1.00  0.00     0.000 C 
BRANCH  14  15
ATOM     15  C   UNL     1      17.600 -33.667  19.274  1.00  0.00     0.000 C 
BRANCH  15  16
ATOM     16  C   UNL     1      18.364 -32.762  20.253  1.00  0.00     0.000 C 
BRANCH  16  17
ATOM     17  C   UNL     1      17.643 -31.431  20.520  1.00  0.00     0.000 C 
BRANCH  17  18
ATOM     18  C   UNL     1      18.468 -30.539  21.458  1.00  0.00     0.000 C 
BRANCH  18  19
ATOM     19  C   UNL     1      19.958 -30.925  21.501  1.00  0.00     0.000 C 
BRANCH  19  20
ATOM     20  C   UNL     1      20.938 -29.739  21.485  1.00  0.00     0.006 C 
BRANCH  20  21
ATOM     21  C   UNL     1      20.392 -28.520  20.729  1.00  0.00     0.053 C 
BRANCH  21  22
ATOM     22  C   UNL     1      21.317 -27.354  20.878  1.00  0.00     0.041 C 
ATOM     23  O   UNL     1      21.055 -26.438  21.701  1.00  0.00    -0.550 OA
ATOM     24  O   UNL     1      22.496 -27.305  20.147  1.00  0.00    -0.550 OA
ENDBRANCH  21  22
ENDBRANCH  20  21
ENDBRANCH  19  20
ENDBRANCH  18  19
ENDBRANCH  17  18
ENDBRANCH  16  17
ENDBRANCH  15  16
ENDBRANCH  14  15
ENDBRANCH  13  14
ENDBRANCH   1  13
TORSDOF 20
ENDMDL
MODEL 8
REMARK VINA RESULT:    -4.655      1.931      5.218
REMARK INTER + INTRA:         -13.433
REMARK INTER:                  -9.223
REMARK INTRA:                  -4.210
REMARK UNBOUND:                -3.337
REMARK SMILES CCCCCCCCCCCCCCCCCCCCCC(=O)[O-]
REMARK SMILES IDX 12 1 11 2 10 3 9 4 8 5 7 6 6 7 5 8 4 9 3 10 2 11 1 12 13 13
REMARK SMILES IDX 14 14 15 15 16 16 17 17 18 18 19 19 20 20 21 21 22 22 23 23
REMARK SMILES IDX 24 24
REMARK H PARENT
REMARK Flexibility Score: inf
ROOT
ATOM      1  C   UNL     1      16.540 -29.928  22.910  1.00  0.00     0.000 C 
ENDROOT
BRANCH   1   2
ATOM      2  C   UNL     1      17.283 -30.123  21.578  1.00  0.00     0.000 C 
BRANCH   2   3
ATOM      3  C   UNL     1      18.709 -30.663  21.774  1.00  0.00     0.000 C 
BRANCH   3   4
ATOM      4  C   UNL     1      18.969 -31.948  20.972  1.00  0.00    -0.000 C 
BRANCH   4   5
ATOM      5  C   UNL     1      17.856 -32.249  19.953  1.00  0.00    -0.000 C 
BRANCH   5   6
ATOM      6  C   UNL     1      17.958 -33.668  19.372  1.00  0.00    -0.000 C 
BRANCH   6   7
ATOM      7  C   UNL     1      16.582 -34.318  19.147  1.00  0.00    -0.000 C 
BRANCH   7   8
ATOM      8  C   UNL     1      16.567 -35.804  19.563  1.00  0.00    -0.000 C 
BRANCH   8   9
ATOM      9  C   UNL     1      17.963 -36.374  19.864  1.00  0.00    -0.000 C 
BRANCH   9  10
ATOM     10  C   UNL     1      18.001 -37.211  21.153  1.00  0.00    -0.000 C 
BRANCH  10  11
ATOM     11  C   UNL     1      18.537 -36.418  22.356  1.00  0.00    -0.003 C 
ATOM     12  C   UNL     1      19.678 -35.472  21.981  1.00  0.00     0.004 C 
ENDBRANCH  10  11
ENDBRANCH   9  10
ENDBRANCH   8   9
ENDBRANCH   7   8
ENDBRANCH   6   7
ENDBRANCH   5   6
ENDBRANCH   4   5
ENDBRANCH   3   4
ENDBRANCH   2   3
ENDBRANCH   1   2
BRANCH   1  13
ATOM     13  C   UNL     1      15.119 -29.375  22.718  1.00  0.00     0.000 C 
BRANCH  13  14
ATOM     14  C   UNL     1      14.067 -30.462  22.970  1.00  0.00     0.000 C 
BRANCH  14  15
ATOM     15  C   UNL     1      13.626 -31.115  21.651  1.00  0.00     0.000 C 
BRANCH  15  16
ATOM     16  C   UNL     1      14.364 -32.433  21.365  1.00  0.00     0.000 C 
BRANCH  16  17
ATOM     17  C   UNL     1      14.646 -33.245  22.639  1.00  0.00     0.000 C 
BRANCH  17  18
ATOM     18  C   UNL     1      16.131 -33.625  22.729  1.00  0.00     0.000 C 
BRANCH  18  19
ATOM     19  C   UNL     1      16.655 -33.669  24.175  1.00  0.00     0.000 C 
BRANCH  19  20
ATOM     20  C   UNL     1      18.116 -33.217  24.352  1.00  0.00     0.006 C 
BRANCH  20  21
ATOM     21  C   UNL     1      18.354 -32.458  25.664  1.00  0.00     0.053 C 
BRANCH  21  22
ATOM     22  C   UNL     1      19.582 -31.610  25.562  1.00  0.00     0.041 C 
ATOM     23  O   UNL     1      19.484 -30.355  25.525  1.00  0.00    -0.550 OA
ATOM     24  O   UNL     1      20.838 -32.202  25.561  1.00  0.00    -0.550 OA
ENDBRANCH  21  22
ENDBRANCH  20  21
ENDBRANCH  19  20
ENDBRANCH  18  19
ENDBRANCH  17  18
ENDBRANCH  16  17
ENDBRANCH  15  16
ENDBRANCH  14  15
ENDBRANCH  13  14
ENDBRANCH   1  13
TORSDOF 20
ENDMDL
MODEL 9
REMARK VINA RESULT:    -4.584      1.355      2.346
REMARK INTER + INTRA:         -13.280
REMARK INTER:                  -9.309
REMARK INTRA:                  -3.971
REMARK UNBOUND:                -3.337
REMARK SMILES CCCCCCCCCCCCCCCCCCCCCC(=O)[O-]
REMARK SMILES IDX 12 1 11 2 10 3 9 4 8 5 7 6 6 7 5 8 4 9 3 10 2 11 1 12 13 13
REMARK SMILES IDX 14 14 15 15 16 16 17 17 18 18 19 19 20 20 21 21 22 22 23 23
REMARK SMILES IDX 24 24
REMARK H PARENT
REMARK Flexibility Score: inf
ROOT
ATOM      1  C   UNL     1      14.621 -32.919  21.612  1.00  0.00     0.000 C 
ENDROOT
BRANCH   1   2
ATOM      2  C   UNL     1      14.696 -32.456  23.076  1.00  0.00     0.000 C 
BRANCH   2   3
ATOM      3  C   UNL     1      15.051 -30.965  23.204  1.00  0.00     0.000 C 
BRANCH   3   4
ATOM      4  C   UNL     1      15.031 -30.236  21.851  1.00  0.00    -0.000 C 
BRANCH   4   5
ATOM      5  C   UNL     1      16.106 -29.139  21.750  1.00  0.00    -0.000 C 
BRANCH   5   6
ATOM      6  C   UNL     1      17.528 -29.715  21.662  1.00  0.00    -0.000 C 
BRANCH   6   7
ATOM      7  C   UNL     1      17.647 -30.846  20.625  1.00  0.00    -0.000 C 
BRANCH   7   8
ATOM      8  C   UNL     1      18.827 -31.791  20.930  1.00  0.00    -0.000 C 
BRANCH   8   9
ATOM      9  C   UNL     1      18.555 -32.763  22.090  1.00  0.00    -0.000 C 
BRANCH   9  10
ATOM     10  C   UNL     1      19.252 -32.346  23.395  1.00  0.00    -0.000 C 
BRANCH  10  11
ATOM     11  C   UNL     1      18.260 -32.136  24.551  1.00  0.00    -0.003 C 
ATOM     12  C   UNL     1      18.749 -31.106  25.571  1.00  0.00     0.004 C 
ENDBRANCH  10  11
ENDBRANCH   9  10
ENDBRANCH   8   9
ENDBRANCH   7   8
ENDBRANCH   6   7
ENDBRANCH   5   6
ENDBRANCH   4   5
ENDBRANCH   3   4
ENDBRANCH   2   3
ENDBRANCH   1   2
BRANCH   1  13
ATOM     13  C   UNL     1      15.444 -34.190  21.352  1.00  0.00     0.000 C 
BRANCH  13  14
ATOM     14  C   UNL     1      15.375 -34.598  19.875  1.00  0.00     0.000 C 
BRANCH  14  15
ATOM     15  C   UNL     1      16.658 -34.193  19.134  1.00  0.00     0.000 C 
BRANCH  15  16
ATOM     16  C   UNL     1      17.812 -35.184  19.359  1.00  0.00     0.000 C 
BRANCH  16  17
ATOM     17  C   UNL     1      17.333 -36.641  19.458  1.00  0.00     0.000 C 
BRANCH  17  18
ATOM     18  C   UNL     1      17.999 -37.358  20.641  1.00  0.00     0.000 C 
BRANCH  18  19
ATOM     19  C   UNL     1      18.695 -36.391  21.617  1.00  0.00     0.000 C 
BRANCH  19  20
ATOM     20  C   UNL     1      18.001 -36.232  22.982  1.00  0.00     0.006 C 
BRANCH  20  21
ATOM     21  C   UNL     1      18.989 -36.002  24.133  1.00  0.00     0.053 C 
BRANCH  21  22
ATOM     22  C   UNL     1      18.316 -36.219  25.451  1.00  0.00     0.041 C 
ATOM     23  O   UNL     1      18.716 -37.128  26.225  1.00  0.00    -0.550 OA
ATOM     24  O   UNL     1      17.280 -35.384  25.848  1.00  0.00    -0.550 OA
ENDBRANCH  21  22
ENDBRANCH  20  21
ENDBRANCH  19  20
ENDBRANCH  18  19
ENDBRANCH  17  18
ENDBRANCH  16  17
ENDBRANCH  15  16
ENDBRANCH  14  15
ENDBRANCH  13  14
ENDBRANCH   1  13
TORSDOF 20
ENDMDL
