MODEL 1
REMARK VINA RESULT:    -5.200      0.000      0.000
REMARK INTER + INTRA:          -5.656
REMARK INTER:                  -5.656
REMARK INTRA:                   0.000
REMARK UNBOUND:                 0.000
REMARK SMILES Cc1cc(O)c2c(c1)C(=O)c1cc(O)cc(O)c1C2=O
REMARK SMILES IDX 1 1 2 2 8 3 7 4 6 5 4 6 3 7 19 8 20 9 18 10 11 11 9 12 10 13
REMARK SMILES IDX 12 14 13 15 15 16 16 17 5 18 17 20 14 22
REMARK H PARENT 5 19 17 21 14 23
REMARK Flexibility Score: inf
ROOT
ATOM      1  C   UNL     1       8.265  14.572  -0.734  1.00  0.00     0.044 C 
ATOM      2  C   UNL     1       7.331  15.560  -1.368  1.00  0.00    -0.047 A 
ATOM      3  C   UNL     1       5.967  15.266  -1.479  1.00  0.00     0.016 A 
ATOM      4  C   UNL     1       5.079  16.196  -2.046  1.00  0.00     0.038 A 
ATOM      5  C   UNL     1       5.563  17.440  -2.509  1.00  0.00     0.076 A 
ATOM      6  C   UNL     1       6.930  17.764  -2.316  1.00  0.00     0.127 A 
ATOM      7  C   UNL     1       7.799  16.815  -1.769  1.00  0.00     0.050 A 
ATOM      8  C   UNL     1       4.624  18.333  -3.235  1.00  0.00     0.201 C 
ATOM      9  O   UNL     1       5.061  19.112  -4.123  1.00  0.00    -0.288 OA
ATOM     10  C   UNL     1       3.159  18.173  -3.048  1.00  0.00     0.076 A 
ATOM     11  C   UNL     1       2.677  16.928  -2.581  1.00  0.00     0.041 A 
ATOM     12  C   UNL     1       3.634  15.881  -2.154  1.00  0.00     0.194 C 
ATOM     13  O   UNL     1       3.216  14.726  -1.857  1.00  0.00    -0.289 OA
ATOM     14  C   UNL     1       1.293  16.692  -2.522  1.00  0.00     0.059 A 
ATOM     15  C   UNL     1       0.388  17.684  -2.905  1.00  0.00     0.120 A 
ATOM     16  C   UNL     1       0.858  18.928  -3.327  1.00  0.00     0.093 A 
ATOM     17  C   UNL     1       2.229  19.194  -3.376  1.00  0.00     0.131 A 
ENDROOT
BRANCH   6  18
ATOM     18  O   UNL     1       7.458  19.022  -2.619  1.00  0.00    -0.507 OA
ATOM     19  H   UNL     1       7.734  19.302  -3.551  1.00  0.00     0.293 HD
ENDBRANCH   6  18
BRANCH  17  20
ATOM     20  O   UNL     1       2.622  20.490  -3.721  1.00  0.00    -0.507 OA
ATOM     21  H   UNL     1       1.976  21.211  -4.012  1.00  0.00     0.293 HD
ENDBRANCH  17  20
BRANCH  15  22
ATOM     22  O   UNL     1      -0.985  17.450  -2.859  1.00  0.00    -0.508 OA
ATOM     23  H   UNL     1      -1.393  16.611  -3.258  1.00  0.00     0.293 HD
ENDBRANCH  15  22
TORSDOF 3
ENDMDL
MODEL 2
REMARK VINA RESULT:    -5.039      1.174      3.459
REMARK INTER + INTRA:          -5.481
REMARK INTER:                  -5.481
REMARK INTRA:                   0.000
REMARK UNBOUND:                 0.000
REMARK SMILES Cc1cc(O)c2c(c1)C(=O)c1cc(O)cc(O)c1C2=O
REMARK SMILES IDX 1 1 2 2 8 3 7 4 6 5 4 6 3 7 19 8 20 9 18 10 11 11 9 12 10 13
REMARK SMILES IDX 12 14 13 15 15 16 16 17 5 18 17 20 14 22
REMARK H PARENT 5 19 17 21 14 23
REMARK Flexibility Score: inf
ROOT
ATOM      1  C   UNL     1       9.257  14.243  -1.303  1.00  0.00     0.044 C 
ATOM      2  C   UNL     1       7.806  14.620  -1.357  1.00  0.00    -0.047 A 
ATOM      3  C   UNL     1       7.425  15.884  -1.822  1.00  0.00     0.016 A 
ATOM      4  C   UNL     1       6.067  16.237  -1.903  1.00  0.00     0.038 A 
ATOM      5  C   UNL     1       5.074  15.310  -1.514  1.00  0.00     0.076 A 
ATOM      6  C   UNL     1       5.464  14.003  -1.125  1.00  0.00     0.127 A 
ATOM      7  C   UNL     1       6.822  13.681  -1.032  1.00  0.00     0.050 A 
ATOM      8  C   UNL     1       3.662  15.768  -1.473  1.00  0.00     0.201 C 
ATOM      9  O   UNL     1       2.861  15.255  -0.648  1.00  0.00    -0.288 OA
ATOM     10  C   UNL     1       3.247  16.953  -2.269  1.00  0.00     0.076 A 
ATOM     11  C   UNL     1       4.243  17.877  -2.660  1.00  0.00     0.041 A 
ATOM     12  C   UNL     1       5.670  17.575  -2.403  1.00  0.00     0.194 C 
ATOM     13  O   UNL     1       6.552  18.449  -2.634  1.00  0.00    -0.289 OA
ATOM     14  C   UNL     1       3.874  19.076  -3.293  1.00  0.00     0.059 A 
ATOM     15  C   UNL     1       2.530  19.355  -3.554  1.00  0.00     0.120 A 
ATOM     16  C   UNL     1       1.548  18.427  -3.207  1.00  0.00     0.093 A 
ATOM     17  C   UNL     1       1.891  17.218  -2.595  1.00  0.00     0.131 A 
ENDROOT
BRANCH   6  18
ATOM     18  O   UNL     1       4.542  12.987  -0.859  1.00  0.00    -0.507 OA
ATOM     19  H   UNL     1       3.576  13.019  -1.156  1.00  0.00     0.293 HD
ENDBRANCH   6  18
BRANCH  17  20
ATOM     20  O   UNL     1       0.864  16.300  -2.360  1.00  0.00    -0.507 OA
ATOM     21  H   UNL     1       0.273  16.321  -1.541  1.00  0.00     0.293 HD
ENDBRANCH  17  20
BRANCH  15  22
ATOM     22  O   UNL     1       2.159  20.548  -4.170  1.00  0.00    -0.508 OA
ATOM     23  H   UNL     1       1.185  20.784  -4.327  1.00  0.00     0.293 HD
ENDBRANCH  15  22
TORSDOF 3
ENDMDL
MODEL 3
REMARK VINA RESULT:    -4.967      2.146      4.438
REMARK INTER + INTRA:          -5.403
REMARK INTER:                  -5.403
REMARK INTRA:                   0.000
REMARK UNBOUND:                 0.000
REMARK SMILES Cc1cc(O)c2c(c1)C(=O)c1cc(O)cc(O)c1C2=O
REMARK SMILES IDX 1 1 2 2 8 3 7 4 6 5 4 6 3 7 19 8 20 9 18 10 11 11 9 12 10 13
REMARK SMILES IDX 12 14 13 15 15 16 16 17 5 18 17 20 14 22
REMARK H PARENT 5 19 17 21 14 23
REMARK Flexibility Score: inf
ROOT
ATOM      1  C   UNL     1       4.249  13.394  -0.482  1.00  0.00     0.044 C 
ATOM      2  C   UNL     1       3.739  14.557  -1.282  1.00  0.00    -0.047 A 
ATOM      3  C   UNL     1       4.628  15.347  -2.019  1.00  0.00     0.016 A 
ATOM      4  C   UNL     1       4.158  16.421  -2.793  1.00  0.00     0.038 A 
ATOM      5  C   UNL     1       2.775  16.709  -2.832  1.00  0.00     0.076 A 
ATOM      6  C   UNL     1       1.872  15.852  -2.150  1.00  0.00     0.127 A 
ATOM      7  C   UNL     1       2.365  14.802  -1.370  1.00  0.00     0.050 A 
ATOM      8  C   UNL     1       2.332  17.937  -3.540  1.00  0.00     0.201 C 
ATOM      9  O   UNL     1       1.296  18.541  -3.156  1.00  0.00    -0.288 OA
ATOM     10  C   UNL     1       3.209  18.552  -4.570  1.00  0.00     0.076 A 
ATOM     11  C   UNL     1       4.591  18.260  -4.531  1.00  0.00     0.041 A 
ATOM     12  C   UNL     1       5.105  17.250  -3.578  1.00  0.00     0.194 C 
ATOM     13  O   UNL     1       6.350  17.077  -3.450  1.00  0.00    -0.289 OA
ATOM     14  C   UNL     1       5.471  18.927  -5.401  1.00  0.00     0.059 A 
ATOM     15  C   UNL     1       4.987  19.866  -6.315  1.00  0.00     0.120 A 
ATOM     16  C   UNL     1       3.619  20.126  -6.385  1.00  0.00     0.093 A 
ATOM     17  C   UNL     1       2.721  19.461  -5.545  1.00  0.00     0.131 A 
ENDROOT
BRANCH   6  18
ATOM     18  O   UNL     1       0.485  15.984  -2.250  1.00  0.00    -0.507 OA
ATOM     19  H   UNL     1       0.027  16.825  -2.576  1.00  0.00     0.293 HD
ENDBRANCH   6  18
BRANCH  17  20
ATOM     20  O   UNL     1       1.359  19.707  -5.734  1.00  0.00    -0.507 OA
ATOM     21  H   UNL     1       0.689  18.989  -5.976  1.00  0.00     0.293 HD
ENDBRANCH  17  20
BRANCH  15  22
ATOM     22  O   UNL     1       5.858  20.538  -7.170  1.00  0.00    -0.508 OA
ATOM     23  H   UNL     1       5.948  20.279  -8.146  1.00  0.00     0.293 HD
ENDBRANCH  15  22
TORSDOF 3
ENDMDL
MODEL 4
REMARK VINA RESULT:    -4.948      2.498      3.051
REMARK INTER + INTRA:          -5.382
REMARK INTER:                  -5.382
REMARK INTRA:                   0.000
REMARK UNBOUND:                 0.000
REMARK SMILES Cc1cc(O)c2c(c1)C(=O)c1cc(O)cc(O)c1C2=O
REMARK SMILES IDX 1 1 2 2 8 3 7 4 6 5 4 6 3 7 19 8 20 9 18 10 11 11 9 12 10 13
REMARK SMILES IDX 12 14 13 15 15 16 16 17 5 18 17 20 14 22
REMARK H PARENT 5 19 17 21 14 23
REMARK Flexibility Score: inf
ROOT
ATOM      1  C   UNL     1       8.451  15.044  -0.388  1.00  0.00     0.044 C 
ATOM      2  C   UNL     1       7.617  15.334  -1.601  1.00  0.00    -0.047 A 
ATOM      3  C   UNL     1       6.535  16.216  -1.516  1.00  0.00     0.016 A 
ATOM      4  C   UNL     1       5.765  16.517  -2.652  1.00  0.00     0.038 A 
ATOM      5  C   UNL     1       6.084  15.926  -3.895  1.00  0.00     0.076 A 
ATOM      6  C   UNL     1       7.234  15.100  -3.992  1.00  0.00     0.127 A 
ATOM      7  C   UNL     1       7.972  14.799  -2.843  1.00  0.00     0.050 A 
ATOM      8  C   UNL     1       5.162  16.151  -5.038  1.00  0.00     0.201 C 
ATOM      9  O   UNL     1       5.045  15.269  -5.930  1.00  0.00    -0.288 OA
ATOM     10  C   UNL     1       4.247  17.321  -5.028  1.00  0.00     0.076 A 
ATOM     11  C   UNL     1       3.931  17.913  -3.784  1.00  0.00     0.041 A 
ATOM     12  C   UNL     1       4.623  17.459  -2.555  1.00  0.00     0.194 C 
ATOM     13  O   UNL     1       4.257  17.892  -1.427  1.00  0.00    -0.289 OA
ATOM     14  C   UNL     1       2.965  18.931  -3.719  1.00  0.00     0.059 A 
ATOM     15  C   UNL     1       2.325  19.375  -4.879  1.00  0.00     0.120 A 
ATOM     16  C   UNL     1       2.664  18.823  -6.113  1.00  0.00     0.093 A 
ATOM     17  C   UNL     1       3.636  17.823  -6.207  1.00  0.00     0.131 A 
ENDROOT
BRANCH   6  18
ATOM     18  O   UNL     1       7.697  14.590  -5.208  1.00  0.00    -0.507 OA
ATOM     19  H   UNL     1       8.634  14.741  -5.555  1.00  0.00     0.293 HD
ENDBRANCH   6  18
BRANCH  17  20
ATOM     20  O   UNL     1       3.986  17.383  -7.486  1.00  0.00    -0.507 OA
ATOM     21  H   UNL     1       4.469  17.958  -8.163  1.00  0.00     0.293 HD
ENDBRANCH  17  20
BRANCH  15  22
ATOM     22  O   UNL     1       1.358  20.377  -4.817  1.00  0.00    -0.508 OA
ATOM     23  H   UNL     1       1.003  20.824  -5.655  1.00  0.00     0.293 HD
ENDBRANCH  15  22
TORSDOF 3
ENDMDL
MODEL 5
REMARK VINA RESULT:    -4.926      4.117      5.206
REMARK INTER + INTRA:          -5.358
REMARK INTER:                  -5.358
REMARK INTRA:                   0.000
REMARK UNBOUND:                 0.000
REMARK SMILES Cc1cc(O)c2c(c1)C(=O)c1cc(O)cc(O)c1C2=O
REMARK SMILES IDX 1 1 2 2 8 3 7 4 6 5 4 6 3 7 19 8 20 9 18 10 11 11 9 12 10 13
REMARK SMILES IDX 12 14 13 15 15 16 16 17 5 18 17 20 14 22
REMARK H PARENT 5 19 17 21 14 23
REMARK Flexibility Score: inf
ROOT
ATOM      1  C   UNL     1       7.101  18.940  -2.987  1.00  0.00     0.044 C 
ATOM      2  C   UNL     1       5.833  18.806  -3.778  1.00  0.00    -0.047 A 
ATOM      3  C   UNL     1       5.791  17.979  -4.906  1.00  0.00     0.016 A 
ATOM      4  C   UNL     1       4.602  17.825  -5.637  1.00  0.00     0.038 A 
ATOM      5  C   UNL     1       3.434  18.510  -5.233  1.00  0.00     0.076 A 
ATOM      6  C   UNL     1       3.461  19.279  -4.042  1.00  0.00     0.127 A 
ATOM      7  C   UNL     1       4.662  19.434  -3.342  1.00  0.00     0.050 A 
ATOM      8  C   UNL     1       2.238  18.440  -6.113  1.00  0.00     0.201 C 
ATOM      9  O   UNL     1       1.429  19.405  -6.146  1.00  0.00    -0.288 OA
ATOM     10  C   UNL     1       2.100  17.324  -7.083  1.00  0.00     0.076 A 
ATOM     11  C   UNL     1       3.270  16.638  -7.484  1.00  0.00     0.041 A 
ATOM     12  C   UNL     1       4.563  16.940  -6.827  1.00  0.00     0.194 C 
ATOM     13  O   UNL     1       5.630  16.425  -7.264  1.00  0.00    -0.289 OA
ATOM     14  C   UNL     1       3.200  15.670  -8.500  1.00  0.00     0.059 A 
ATOM     15  C   UNL     1       1.979  15.369  -9.108  1.00  0.00     0.120 A 
ATOM     16  C   UNL     1       0.816  16.014  -8.688  1.00  0.00     0.093 A 
ATOM     17  C   UNL     1       0.856  16.966  -7.665  1.00  0.00     0.131 A 
ENDROOT
BRANCH   6  18
ATOM     18  O   UNL     1       2.319  19.874  -3.500  1.00  0.00    -0.507 OA
ATOM     19  H   UNL     1       2.313  20.796  -3.086  1.00  0.00     0.293 HD
ENDBRANCH   6  18
BRANCH  17  20
ATOM     20  O   UNL     1      -0.361  17.502  -7.236  1.00  0.00    -0.507 OA
ATOM     21  H   UNL     1      -0.700  17.429  -6.287  1.00  0.00     0.293 HD
ENDBRANCH  17  20
BRANCH  15  22
ATOM     22  O   UNL     1       1.907  14.419 -10.125  1.00  0.00    -0.508 OA
ATOM     23  H   UNL     1       1.220  13.673 -10.106  1.00  0.00     0.293 HD
ENDBRANCH  15  22
TORSDOF 3
ENDMDL
MODEL 6
REMARK VINA RESULT:    -4.889      2.461      4.076
REMARK INTER + INTRA:          -5.318
REMARK INTER:                  -5.318
REMARK INTRA:                   0.000
REMARK UNBOUND:                 0.000
REMARK SMILES Cc1cc(O)c2c(c1)C(=O)c1cc(O)cc(O)c1C2=O
REMARK SMILES IDX 1 1 2 2 8 3 7 4 6 5 4 6 3 7 19 8 20 9 18 10 11 11 9 12 10 13
REMARK SMILES IDX 12 14 13 15 15 16 16 17 5 18 17 20 14 22
REMARK H PARENT 5 19 17 21 14 23
REMARK Flexibility Score: inf
ROOT
ATOM      1  C   UNL     1       9.044  14.746  -0.089  1.00  0.00     0.044 C 
ATOM      2  C   UNL     1       7.862  15.042  -0.965  1.00  0.00    -0.047 A 
ATOM      3  C   UNL     1       7.788  16.253  -1.661  1.00  0.00     0.016 A 
ATOM      4  C   UNL     1       6.700  16.528  -2.506  1.00  0.00     0.038 A 
ATOM      5  C   UNL     1       5.669  15.575  -2.658  1.00  0.00     0.076 A 
ATOM      6  C   UNL     1       5.792  14.315  -2.016  1.00  0.00     0.127 A 
ATOM      7  C   UNL     1       6.873  14.073  -1.164  1.00  0.00     0.050 A 
ATOM      8  C   UNL     1       4.465  15.959  -3.441  1.00  0.00     0.201 C 
ATOM      9  O   UNL     1       3.347  15.454  -3.157  1.00  0.00    -0.288 OA
ATOM     10  C   UNL     1       4.549  17.070  -4.424  1.00  0.00     0.076 A 
ATOM     11  C   UNL     1       5.584  18.021  -4.272  1.00  0.00     0.041 A 
ATOM     12  C   UNL     1       6.633  17.811  -3.247  1.00  0.00     0.194 C 
ATOM     13  O   UNL     1       7.485  18.715  -3.021  1.00  0.00    -0.289 OA
ATOM     14  C   UNL     1       5.615  19.158  -5.096  1.00  0.00     0.059 A 
ATOM     15  C   UNL     1       4.638  19.349  -6.077  1.00  0.00     0.120 A 
ATOM     16  C   UNL     1       3.639  18.393  -6.257  1.00  0.00     0.093 A 
ATOM     17  C   UNL     1       3.598  17.243  -5.464  1.00  0.00     0.131 A 
ENDROOT
BRANCH   6  18
ATOM     18  O   UNL     1       4.888  13.270  -2.224  1.00  0.00    -0.507 OA
ATOM     19  H   UNL     1       4.147  13.037  -1.577  1.00  0.00     0.293 HD
ENDBRANCH   6  18
BRANCH  17  20
ATOM     20  O   UNL     1       2.624  16.288  -5.763  1.00  0.00    -0.507 OA
ATOM     21  H   UNL     1       2.685  15.319  -5.481  1.00  0.00     0.293 HD
ENDBRANCH  17  20
BRANCH  15  22
ATOM     22  O   UNL     1       4.658  20.482  -6.888  1.00  0.00    -0.508 OA
ATOM     23  H   UNL     1       3.831  21.052  -7.023  1.00  0.00     0.293 HD
ENDBRANCH  15  22
TORSDOF 3
ENDMDL
MODEL 7
REMARK VINA RESULT:    -4.879      2.327      4.156
REMARK INTER + INTRA:          -5.307
REMARK INTER:                  -5.307
REMARK INTRA:                   0.000
REMARK UNBOUND:                 0.000
REMARK SMILES Cc1cc(O)c2c(c1)C(=O)c1cc(O)cc(O)c1C2=O
REMARK SMILES IDX 1 1 2 2 8 3 7 4 6 5 4 6 3 7 19 8 20 9 18 10 11 11 9 12 10 13
REMARK SMILES IDX 12 14 13 15 15 16 16 17 5 18 17 20 14 22
REMARK H PARENT 5 19 17 21 14 23
REMARK Flexibility Score: inf
ROOT
ATOM      1  C   UNL     1       5.424  20.077  -6.655  1.00  0.00     0.044 C 
ATOM      2  C   UNL     1       5.134  19.282  -5.416  1.00  0.00    -0.047 A 
ATOM      3  C   UNL     1       3.894  18.653  -5.258  1.00  0.00     0.016 A 
ATOM      4  C   UNL     1       3.622  17.883  -4.115  1.00  0.00     0.038 A 
ATOM      5  C   UNL     1       4.608  17.738  -3.113  1.00  0.00     0.076 A 
ATOM      6  C   UNL     1       5.891  18.307  -3.320  1.00  0.00     0.127 A 
ATOM      7  C   UNL     1       6.131  19.087  -4.455  1.00  0.00     0.050 A 
ATOM      8  C   UNL     1       4.235  17.042  -1.855  1.00  0.00     0.201 C 
ATOM      9  O   UNL     1       4.799  17.359  -0.774  1.00  0.00    -0.288 OA
ATOM     10  C   UNL     1       3.075  16.113  -1.841  1.00  0.00     0.076 A 
ATOM     11  C   UNL     1       2.092  16.258  -2.846  1.00  0.00     0.041 A 
ATOM     12  C   UNL     1       2.308  17.213  -3.958  1.00  0.00     0.194 C 
ATOM     13  O   UNL     1       1.382  17.440  -4.786  1.00  0.00    -0.289 OA
ATOM     14  C   UNL     1       0.915  15.493  -2.788  1.00  0.00     0.059 A 
ATOM     15  C   UNL     1       0.716  14.577  -1.752  1.00  0.00     0.120 A 
ATOM     16  C   UNL     1       1.702  14.401  -0.781  1.00  0.00     0.093 A 
ATOM     17  C   UNL     1       2.890  15.136  -0.828  1.00  0.00     0.131 A 
ENDROOT
BRANCH   6  18
ATOM     18  O   UNL     1       6.961  18.095  -2.446  1.00  0.00    -0.507 OA
ATOM     19  H   UNL     1       6.904  18.246  -1.448  1.00  0.00     0.293 HD
ENDBRANCH   6  18
BRANCH  17  20
ATOM     20  O   UNL     1       3.869  14.841   0.124  1.00  0.00    -0.507 OA
ATOM     21  H   UNL     1       4.476  15.536   0.535  1.00  0.00     0.293 HD
ENDBRANCH  17  20
BRANCH  15  22
ATOM     22  O   UNL     1      -0.455  13.825  -1.684  1.00  0.00    -0.508 OA
ATOM     23  H   UNL     1      -1.244  14.121  -1.120  1.00  0.00     0.293 HD
ENDBRANCH  15  22
TORSDOF 3
ENDMDL
MODEL 8
REMARK VINA RESULT:    -4.778      3.053      3.862
REMARK INTER + INTRA:          -5.197
REMARK INTER:                  -5.197
REMARK INTRA:                   0.000
REMARK UNBOUND:                 0.000
REMARK SMILES Cc1cc(O)c2c(c1)C(=O)c1cc(O)cc(O)c1C2=O
REMARK SMILES IDX 1 1 2 2 8 3 7 4 6 5 4 6 3 7 19 8 20 9 18 10 11 11 9 12 10 13
REMARK SMILES IDX 12 14 13 15 15 16 16 17 5 18 17 20 14 22
REMARK H PARENT 5 19 17 21 14 23
REMARK Flexibility Score: inf
ROOT
ATOM      1  C   UNL     1       8.491  13.571  -6.997  1.00  0.00     0.044 C 
ATOM      2  C   UNL     1       7.795  14.478  -6.025  1.00  0.00    -0.047 A 
ATOM      3  C   UNL     1       6.863  15.416  -6.483  1.00  0.00     0.016 A 
ATOM      4  C   UNL     1       6.185  16.251  -5.579  1.00  0.00     0.038 A 
ATOM      5  C   UNL     1       6.443  16.145  -4.194  1.00  0.00     0.076 A 
ATOM      6  C   UNL     1       7.326  15.135  -3.731  1.00  0.00     0.127 A 
ATOM      7  C   UNL     1       8.004  14.330  -4.651  1.00  0.00     0.050 A 
ATOM      8  C   UNL     1       5.820  17.142  -3.284  1.00  0.00     0.201 C 
ATOM      9  O   UNL     1       6.408  17.470  -2.219  1.00  0.00    -0.288 OA
ATOM     10  C   UNL     1       4.609  17.883  -3.721  1.00  0.00     0.076 A 
ATOM     11  C   UNL     1       4.351  17.984  -5.107  1.00  0.00     0.041 A 
ATOM     12  C   UNL     1       5.192  17.237  -6.070  1.00  0.00     0.194 C 
ATOM     13  O   UNL     1       5.048  17.422  -7.311  1.00  0.00    -0.289 OA
ATOM     14  C   UNL     1       3.294  18.790  -5.564  1.00  0.00     0.059 A 
ATOM     15  C   UNL     1       2.486  19.480  -4.657  1.00  0.00     0.120 A 
ATOM     16  C   UNL     1       2.712  19.350  -3.287  1.00  0.00     0.093 A 
ATOM     17  C   UNL     1       3.743  18.538  -2.806  1.00  0.00     0.131 A 
ENDROOT
BRANCH   6  18
ATOM     18  O   UNL     1       7.529  14.875  -2.373  1.00  0.00    -0.507 OA
ATOM     19  H   UNL     1       7.839  13.981  -2.017  1.00  0.00     0.293 HD
ENDBRANCH   6  18
BRANCH  17  20
ATOM     20  O   UNL     1       3.851  18.386  -1.422  1.00  0.00    -0.507 OA
ATOM     21  H   UNL     1       3.249  18.855  -0.759  1.00  0.00     0.293 HD
ENDBRANCH  17  20
BRANCH  15  22
ATOM     22  O   UNL     1       1.445  20.290  -5.107  1.00  0.00    -0.508 OA
ATOM     23  H   UNL     1       1.086  21.054  -4.544  1.00  0.00     0.293 HD
ENDBRANCH  15  22
TORSDOF 3
ENDMDL
MODEL 9
REMARK VINA RESULT:    -4.731      2.378      2.514
REMARK INTER + INTRA:          -5.146
REMARK INTER:                  -5.146
REMARK INTRA:                   0.000
REMARK UNBOUND:                 0.000
REMARK SMILES Cc1cc(O)c2c(c1)C(=O)c1cc(O)cc(O)c1C2=O
REMARK SMILES IDX 1 1 2 2 8 3 7 4 6 5 4 6 3 7 19 8 20 9 18 10 11 11 9 12 10 13
REMARK SMILES IDX 12 14 13 15 15 16 16 17 5 18 17 20 14 22
REMARK H PARENT 5 19 17 21 14 23
REMARK Flexibility Score: inf
ROOT
ATOM      1  C   UNL     1       8.374  13.318  -3.167  1.00  0.00     0.044 C 
ATOM      2  C   UNL     1       7.555  14.573  -3.234  1.00  0.00    -0.047 A 
ATOM      3  C   UNL     1       6.541  14.701  -4.190  1.00  0.00     0.016 A 
ATOM      4  C   UNL     1       5.750  15.861  -4.243  1.00  0.00     0.038 A 
ATOM      5  C   UNL     1       5.976  16.910  -3.324  1.00  0.00     0.076 A 
ATOM      6  C   UNL     1       6.948  16.738  -2.304  1.00  0.00     0.127 A 
ATOM      7  C   UNL     1       7.737  15.584  -2.285  1.00  0.00     0.050 A 
ATOM      8  C   UNL     1       5.222  18.178  -3.504  1.00  0.00     0.201 C 
ATOM      9  O   UNL     1       5.738  19.269  -3.144  1.00  0.00    -0.288 OA
ATOM     10  C   UNL     1       3.951  18.177  -4.274  1.00  0.00     0.076 A 
ATOM     11  C   UNL     1       3.726  17.125  -5.191  1.00  0.00     0.041 A 
ATOM     12  C   UNL     1       4.673  15.987  -5.254  1.00  0.00     0.194 C 
ATOM     13  O   UNL     1       4.547  15.110  -6.154  1.00  0.00    -0.289 OA
ATOM     14  C   UNL     1       2.603  17.162  -6.035  1.00  0.00     0.059 A 
ATOM     15  C   UNL     1       1.698  18.223  -5.964  1.00  0.00     0.120 A 
ATOM     16  C   UNL     1       1.895  19.242  -5.032  1.00  0.00     0.093 A 
ATOM     17  C   UNL     1       2.993  19.218  -4.168  1.00  0.00     0.131 A 
ENDROOT
BRANCH   6  18
ATOM     18  O   UNL     1       7.137  17.666  -1.277  1.00  0.00    -0.507 OA
ATOM     19  H   UNL     1       7.991  18.191  -1.149  1.00  0.00     0.293 HD
ENDBRANCH   6  18
BRANCH  17  20
ATOM     20  O   UNL     1       3.074  20.224  -3.201  1.00  0.00    -0.507 OA
ATOM     21  H   UNL     1       2.268  20.705  -2.826  1.00  0.00     0.293 HD
ENDBRANCH  17  20
BRANCH  15  22
ATOM     22  O   UNL     1       0.590  18.269  -6.808  1.00  0.00    -0.508 OA
ATOM     23  H   UNL     1      -0.348  18.106  -6.460  1.00  0.00     0.293 HD
ENDBRANCH  15  22
TORSDOF 3
ENDMDL
