MODEL 1
REMARK VINA RESULT:     0.000      0.000      0.000
REMARK INTER + INTRA:          -0.485
REMARK INTER:                   0.000
REMARK INTRA:                  -0.485
REMARK UNBOUND:                -0.485
REMARK SMILES CCCCCCC(=O)[O-]
REMARK SMILES IDX 5 1 6 2 7 3 8 4 9 5 4 6 3 7 2 8 1 9
REMARK H PARENT
REMARK Flexibility Score: inf
ROOT
ATOM      1  C   UNL     1     174.599 183.537 193.792  1.00  0.00     0.006 C 
ENDROOT
BRANCH   1   2
ATOM      2  C   UNL     1     175.098 182.571 192.706  1.00  0.00     0.053 C 
BRANCH   2   3
ATOM      3  C   UNL     1     174.123 181.463 192.447  1.00  0.00     0.041 C 
ATOM      4  O   UNL     1     174.507 180.265 192.461  1.00  0.00    -0.550 OA
ATOM      5  O   UNL     1     172.783 181.754 192.224  1.00  0.00    -0.550 OA
ENDBRANCH   2   3
ENDBRANCH   1   2
BRANCH   1   6
ATOM      6  C   UNL     1     174.505 182.916 195.197  1.00  0.00     0.000 C 
BRANCH   6   7
ATOM      7  C   UNL     1     173.074 182.924 195.756  1.00  0.00    -0.000 C 
BRANCH   7   8
ATOM      8  C   UNL     1     172.511 181.500 195.841  1.00  0.00    -0.003 C 
ATOM      9  C   UNL     1     173.628 180.474 196.012  1.00  0.00     0.004 C 
ENDBRANCH   7   8
ENDBRANCH   6   7
ENDBRANCH   1   6
TORSDOF 5
ENDMDL
MODEL 2
REMARK VINA RESULT:     0.000      8.864      9.941
REMARK INTER + INTRA:          -0.485
REMARK INTER:                   0.000
REMARK INTRA:                  -0.485
REMARK UNBOUND:                -0.485
REMARK SMILES CCCCCCC(=O)[O-]
REMARK SMILES IDX 5 1 6 2 7 3 8 4 9 5 4 6 3 7 2 8 1 9
REMARK H PARENT
REMARK Flexibility Score: inf
ROOT
ATOM      1  C   UNL     1     174.086 192.932 192.446  1.00  0.00     0.006 C 
ENDROOT
BRANCH   1   2
ATOM      2  C   UNL     1     173.557 191.872 191.468  1.00  0.00     0.053 C 
BRANCH   2   3
ATOM      3  C   UNL     1     173.796 190.478 191.964  1.00  0.00     0.041 C 
ATOM      4  O   UNL     1     174.354 189.628 191.222  1.00  0.00    -0.550 OA
ATOM      5  O   UNL     1     173.436 190.130 193.259  1.00  0.00    -0.550 OA
ENDBRANCH   2   3
ENDBRANCH   1   2
BRANCH   1   6
ATOM      6  C   UNL     1     175.618 192.949 192.594  1.00  0.00     0.000 C 
BRANCH   6   7
ATOM      7  C   UNL     1     176.081 192.647 194.027  1.00  0.00    -0.000 C 
BRANCH   7   8
ATOM      8  C   UNL     1     176.780 191.285 194.103  1.00  0.00    -0.003 C 
ATOM      9  C   UNL     1     177.416 190.916 192.766  1.00  0.00     0.004 C 
ENDBRANCH   7   8
ENDBRANCH   6   7
ENDBRANCH   1   6
TORSDOF 5
ENDMDL
MODEL 3
REMARK VINA RESULT:     0.000      6.499      7.382
REMARK INTER + INTRA:          -0.485
REMARK INTER:                   0.000
REMARK INTRA:                  -0.485
REMARK UNBOUND:                -0.485
REMARK SMILES CCCCCCC(=O)[O-]
REMARK SMILES IDX 5 1 6 2 7 3 8 4 9 5 4 6 3 7 2 8 1 9
REMARK H PARENT
REMARK Flexibility Score: inf
ROOT
ATOM      1  C   UNL     1     175.217 189.564 198.166  1.00  0.00     0.006 C 
ENDROOT
BRANCH   1   2
ATOM      2  C   UNL     1     175.709 190.154 196.835  1.00  0.00     0.053 C 
BRANCH   2   3
ATOM      3  C   UNL     1     175.001 189.555 195.658  1.00  0.00     0.041 C 
ATOM      4  O   UNL     1     175.659 189.089 194.692  1.00  0.00    -0.550 OA
ATOM      5  O   UNL     1     173.614 189.481 195.646  1.00  0.00    -0.550 OA
ENDBRANCH   2   3
ENDBRANCH   1   2
BRANCH   1   6
ATOM      6  C   UNL     1     175.559 188.077 198.365  1.00  0.00     0.000 C 
BRANCH   6   7
ATOM      7  C   UNL     1     174.311 187.192 198.509  1.00  0.00    -0.000 C 
BRANCH   7   8
ATOM      8  C   UNL     1     174.142 186.281 197.289  1.00  0.00    -0.003 C 
ATOM      9  C   UNL     1     175.486 185.983 196.630  1.00  0.00     0.004 C 
ENDBRANCH   7   8
ENDBRANCH   6   7
ENDBRANCH   1   6
TORSDOF 5
ENDMDL
MODEL 4
REMARK VINA RESULT:     0.000     10.362     11.323
REMARK INTER + INTRA:          -0.485
REMARK INTER:                   0.000
REMARK INTRA:                  -0.485
REMARK UNBOUND:                -0.485
REMARK SMILES CCCCCCC(=O)[O-]
REMARK SMILES IDX 5 1 6 2 7 3 8 4 9 5 4 6 3 7 2 8 1 9
REMARK H PARENT
REMARK Flexibility Score: inf
ROOT
ATOM      1  C   UNL     1     176.018 188.926 200.631  1.00  0.00     0.006 C 
ENDROOT
BRANCH   1   2
ATOM      2  C   UNL     1     176.930 188.652 199.425  1.00  0.00     0.053 C 
BRANCH   2   3
ATOM      3  C   UNL     1     178.180 189.478 199.465  1.00  0.00     0.041 C 
ATOM      4  O   UNL     1     178.522 190.160 198.464  1.00  0.00    -0.550 OA
ATOM      5  O   UNL     1     178.948 189.520 200.621  1.00  0.00    -0.550 OA
ENDBRANCH   2   3
ENDBRANCH   1   2
BRANCH   1   6
ATOM      6  C   UNL     1     175.416 190.342 200.662  1.00  0.00     0.000 C 
BRANCH   6   7
ATOM      7  C   UNL     1     175.841 191.144 201.902  1.00  0.00    -0.000 C 
BRANCH   7   8
ATOM      8  C   UNL     1     176.776 192.296 201.517  1.00  0.00    -0.003 C 
ATOM      9  C   UNL     1     176.518 192.762 200.087  1.00  0.00     0.004 C 
ENDBRANCH   7   8
ENDBRANCH   6   7
ENDBRANCH   1   6
TORSDOF 5
ENDMDL
MODEL 5
REMARK VINA RESULT:     0.000     14.656     16.121
REMARK INTER + INTRA:          -0.485
REMARK INTER:                   0.000
REMARK INTRA:                  -0.485
REMARK UNBOUND:                -0.485
REMARK SMILES CCCCCCC(=O)[O-]
REMARK SMILES IDX 5 1 6 2 7 3 8 4 9 5 4 6 3 7 2 8 1 9
REMARK H PARENT
REMARK Flexibility Score: inf
ROOT
ATOM      1  C   UNL     1     179.153 195.361 190.684  1.00  0.00     0.006 C 
ENDROOT
BRANCH   1   2
ATOM      2  C   UNL     1     177.730 195.267 191.258  1.00  0.00     0.053 C 
BRANCH   2   3
ATOM      3  C   UNL     1     177.170 196.615 191.598  1.00  0.00     0.041 C 
ATOM      4  O   UNL     1     176.679 196.828 192.737  1.00  0.00    -0.550 OA
ATOM      5  O   UNL     1     177.224 197.645 190.668  1.00  0.00    -0.550 OA
ENDBRANCH   2   3
ENDBRANCH   1   2
BRANCH   1   6
ATOM      6  C   UNL     1     180.210 195.854 191.687  1.00  0.00     0.000 C 
BRANCH   6   7
ATOM      7  C   UNL     1     180.880 197.166 191.251  1.00  0.00    -0.000 C 
BRANCH   7   8
ATOM      8  C   UNL     1     180.469 198.324 192.168  1.00  0.00    -0.003 C 
ATOM      9  C   UNL     1     180.107 197.821 193.563  1.00  0.00     0.004 C 
ENDBRANCH   7   8
ENDBRANCH   6   7
ENDBRANCH   1   6
TORSDOF 5
ENDMDL
MODEL 6
REMARK VINA RESULT:     0.000      9.593     10.849
REMARK INTER + INTRA:          -0.485
REMARK INTER:                   0.000
REMARK INTRA:                  -0.485
REMARK UNBOUND:                -0.485
REMARK SMILES CCCCCCC(=O)[O-]
REMARK SMILES IDX 5 1 6 2 7 3 8 4 9 5 4 6 3 7 2 8 1 9
REMARK H PARENT
REMARK Flexibility Score: inf
ROOT
ATOM      1  C   UNL     1     175.781 191.227 193.848  1.00  0.00     0.006 C 
ENDROOT
BRANCH   1   2
ATOM      2  C   UNL     1     176.157 192.675 194.202  1.00  0.00     0.053 C 
BRANCH   2   3
ATOM      3  C   UNL     1     177.110 193.267 193.208  1.00  0.00     0.041 C 
ATOM      4  O   UNL     1     178.171 193.819 193.600  1.00  0.00    -0.550 OA
ATOM      5  O   UNL     1     176.841 193.177 191.849  1.00  0.00    -0.550 OA
ENDBRANCH   2   3
ENDBRANCH   1   2
BRANCH   1   6
ATOM      6  C   UNL     1     176.946 190.226 193.954  1.00  0.00     0.000 C 
BRANCH   6   7
ATOM      7  C   UNL     1     177.274 189.552 192.614  1.00  0.00    -0.000 C 
BRANCH   7   8
ATOM      8  C   UNL     1     178.633 190.021 192.082  1.00  0.00    -0.003 C 
ATOM      9  C   UNL     1     179.555 190.446 193.221  1.00  0.00     0.004 C 
ENDBRANCH   7   8
ENDBRANCH   6   7
ENDBRANCH   1   6
TORSDOF 5
ENDMDL
MODEL 7
REMARK VINA RESULT:     0.000      7.058      8.331
REMARK INTER + INTRA:          -0.485
REMARK INTER:                   0.000
REMARK INTRA:                  -0.485
REMARK UNBOUND:                -0.485
REMARK SMILES CCCCCCC(=O)[O-]
REMARK SMILES IDX 5 1 6 2 7 3 8 4 9 5 4 6 3 7 2 8 1 9
REMARK H PARENT
REMARK Flexibility Score: inf
ROOT
ATOM      1  C   UNL     1     171.343 190.297 196.884  1.00  0.00     0.006 C 
ENDROOT
BRANCH   1   2
ATOM      2  C   UNL     1     170.396 190.357 195.676  1.00  0.00     0.053 C 
BRANCH   2   3
ATOM      3  C   UNL     1     170.592 189.197 194.748  1.00  0.00     0.041 C 
ATOM      4  O   UNL     1     170.765 189.391 193.517  1.00  0.00    -0.550 OA
ATOM      5  O   UNL     1     170.619 187.902 195.251  1.00  0.00    -0.550 OA
ENDBRANCH   2   3
ENDBRANCH   1   2
BRANCH   1   6
ATOM      6  C   UNL     1     172.831 190.474 196.532  1.00  0.00     0.000 C 
BRANCH   6   7
ATOM      7  C   UNL     1     173.681 189.249 196.903  1.00  0.00    -0.000 C 
BRANCH   7   8
ATOM      8  C   UNL     1     174.180 188.526 195.646  1.00  0.00    -0.003 C 
ATOM      9  C   UNL     1     174.304 189.489 194.469  1.00  0.00     0.004 C 
ENDBRANCH   7   8
ENDBRANCH   6   7
ENDBRANCH   1   6
TORSDOF 5
ENDMDL
MODEL 8
REMARK VINA RESULT:     0.000     11.615     12.818
REMARK INTER + INTRA:          -0.484
REMARK INTER:                   0.000
REMARK INTRA:                  -0.484
REMARK UNBOUND:                -0.485
REMARK SMILES CCCCCCC(=O)[O-]
REMARK SMILES IDX 5 1 6 2 7 3 8 4 9 5 4 6 3 7 2 8 1 9
REMARK H PARENT
REMARK Flexibility Score: inf
ROOT
ATOM      1  C   UNL     1     171.532 192.442 199.120  1.00  0.00     0.006 C 
ENDROOT
BRANCH   1   2
ATOM      2  C   UNL     1     171.499 193.551 200.185  1.00  0.00     0.053 C 
BRANCH   2   3
ATOM      3  C   UNL     1     172.692 194.453 200.094  1.00  0.00     0.041 C 
ATOM      4  O   UNL     1     173.385 194.694 201.117  1.00  0.00    -0.550 OA
ATOM      5  O   UNL     1     173.058 195.000 198.871  1.00  0.00    -0.550 OA
ENDBRANCH   2   3
ENDBRANCH   1   2
BRANCH   1   6
ATOM      6  C   UNL     1     172.668 191.420 199.304  1.00  0.00     0.000 C 
BRANCH   6   7
ATOM      7  C   UNL     1     173.641 191.392 198.115  1.00  0.00    -0.000 C 
BRANCH   7   8
ATOM      8  C   UNL     1     175.011 191.953 198.514  1.00  0.00    -0.003 C 
ATOM      9  C   UNL     1     175.274 191.758 200.005  1.00  0.00     0.004 C 
ENDBRANCH   7   8
ENDBRANCH   6   7
ENDBRANCH   1   6
TORSDOF 5
ENDMDL
MODEL 9
REMARK VINA RESULT:     0.001      4.618      5.637
REMARK INTER + INTRA:          -0.484
REMARK INTER:                   0.000
REMARK INTRA:                  -0.484
REMARK UNBOUND:                -0.485
REMARK SMILES CCCCCCC(=O)[O-]
REMARK SMILES IDX 5 1 6 2 7 3 8 4 9 5 4 6 3 7 2 8 1 9
REMARK H PARENT
REMARK Flexibility Score: inf
ROOT
ATOM      1  C   UNL     1     174.170 185.829 194.846  1.00  0.00     0.006 C 
ENDROOT
BRANCH   1   2
ATOM      2  C   UNL     1     173.869 185.899 193.340  1.00  0.00     0.053 C 
BRANCH   2   3
ATOM      3  C   UNL     1     173.299 187.226 192.941  1.00  0.00     0.041 C 
ATOM      4  O   UNL     1     172.233 187.284 192.275  1.00  0.00    -0.550 OA
ATOM      5  O   UNL     1     173.929 188.400 193.336  1.00  0.00    -0.550 OA
ENDBRANCH   2   3
ENDBRANCH   1   2
BRANCH   1   6
ATOM      6  C   UNL     1     172.922 185.885 195.745  1.00  0.00     0.000 C 
BRANCH   6   7
ATOM      7  C   UNL     1     172.920 187.099 196.686  1.00  0.00    -0.000 C 
BRANCH   7   8
ATOM      8  C   UNL     1     171.829 188.100 196.288  1.00  0.00    -0.003 C 
ATOM      9  C   UNL     1     170.669 187.402 195.585  1.00  0.00     0.004 C 
ENDBRANCH   7   8
ENDBRANCH   6   7
ENDBRANCH   1   6
TORSDOF 5
ENDMDL
