MODEL 1
REMARK VINA RESULT:    -3.916      0.000      0.000
REMARK INTER + INTRA:          -4.861
REMARK INTER:                  -4.602
REMARK INTRA:                  -0.258
REMARK UNBOUND:                -0.258
REMARK SMILES C=CC(C)=CCC=C(C)C
REMARK SMILES IDX 5 1 3 2 4 3 6 4 7 5 9 6 8 7 10 8 2 9 1 10
REMARK H PARENT
REMARK Flexibility Score: inf
ROOT
ATOM      1  C   UNL     1     152.884 136.840 161.380  1.00  0.00    -0.020 C 
ATOM      2  C   UNL     1     151.800 136.165 160.952  1.00  0.00    -0.055 C 
ATOM      3  C   UNL     1     151.356 134.875 161.607  1.00  0.00     0.044 C 
ENDROOT
BRANCH   1   4
ATOM      4  C   UNL     1     153.757 136.385 162.522  1.00  0.00     0.055 C 
BRANCH   4   5
ATOM      5  C   UNL     1     153.532 137.229 163.752  1.00  0.00    -0.024 C 
ATOM      6  C   UNL     1     153.801 139.167 165.241  1.00  0.00     0.039 C 
ATOM      7  C   UNL     1     154.126 138.423 163.971  1.00  0.00    -0.080 C 
ATOM      8  C   UNL     1     155.106 139.017 162.987  1.00  0.00     0.039 C 
ENDBRANCH   4   5
ENDBRANCH   1   4
BRANCH   2   9
ATOM      9  C   UNL     1     150.998 136.761 159.851  1.00  0.00    -0.005 C 
ATOM     10  C   UNL     1     150.248 137.855 159.993  1.00  0.00     0.009 C 
ENDBRANCH   2   9
TORSDOF 3
ENDMDL
MODEL 2
REMARK VINA RESULT:    -3.663      1.146      4.809
REMARK INTER + INTRA:          -4.563
REMARK INTER:                  -4.280
REMARK INTRA:                  -0.283
REMARK UNBOUND:                -0.258
REMARK SMILES C=CC(C)=CCC=C(C)C
REMARK SMILES IDX 5 1 3 2 4 3 6 4 7 5 9 6 8 7 10 8 2 9 1 10
REMARK H PARENT
REMARK Flexibility Score: inf
ROOT
ATOM      1  C   UNL     1     152.802 136.840 162.334  1.00  0.00    -0.020 C 
ATOM      2  C   UNL     1     153.859 136.341 163.003  1.00  0.00    -0.055 C 
ATOM      3  C   UNL     1     153.950 134.876 163.369  1.00  0.00     0.044 C 
ENDROOT
BRANCH   1   4
ATOM      4  C   UNL     1     151.618 136.012 161.901  1.00  0.00     0.055 C 
BRANCH   4   5
ATOM      5  C   UNL     1     151.539 135.915 160.398  1.00  0.00    -0.024 C 
ATOM      6  C   UNL     1     150.932 136.610 158.119  1.00  0.00     0.039 C 
ATOM      7  C   UNL     1     150.924 136.826 159.611  1.00  0.00    -0.080 C 
ATOM      8  C   UNL     1     150.229 138.037 160.187  1.00  0.00     0.039 C 
ENDBRANCH   4   5
ENDBRANCH   1   4
BRANCH   2   9
ATOM      9  C   UNL     1     154.983 137.263 163.316  1.00  0.00    -0.005 C 
ATOM     10  C   UNL     1     154.972 138.564 163.026  1.00  0.00     0.009 C 
ENDBRANCH   2   9
TORSDOF 3
ENDMDL
MODEL 3
REMARK VINA RESULT:    -3.458     20.802     22.336
REMARK INTER + INTRA:          -4.323
REMARK INTER:                  -4.314
REMARK INTRA:                  -0.009
REMARK UNBOUND:                -0.258
REMARK SMILES C=CC(C)=CCC=C(C)C
REMARK SMILES IDX 5 1 3 2 4 3 6 4 7 5 9 6 8 7 10 8 2 9 1 10
REMARK H PARENT
REMARK Flexibility Score: inf
ROOT
ATOM      1  C   UNL     1     139.240 154.799 161.325  1.00  0.00    -0.020 C 
ATOM      2  C   UNL     1     139.393 153.756 160.487  1.00  0.00    -0.055 C 
ATOM      3  C   UNL     1     138.794 152.399 160.787  1.00  0.00     0.044 C 
ENDROOT
BRANCH   1   4
ATOM      4  C   UNL     1     138.485 154.724 162.628  1.00  0.00     0.055 C 
BRANCH   4   5
ATOM      5  C   UNL     1     137.022 154.442 162.396  1.00  0.00    -0.024 C 
ATOM      6  C   UNL     1     134.875 153.276 162.674  1.00  0.00     0.039 C 
ATOM      7  C   UNL     1     136.341 153.435 162.987  1.00  0.00    -0.080 C 
ATOM      8  C   UNL     1     137.010 152.471 163.938  1.00  0.00     0.039 C 
ENDBRANCH   4   5
ENDBRANCH   1   4
BRANCH   2   9
ATOM      9  C   UNL     1     140.115 153.990 159.208  1.00  0.00    -0.005 C 
ATOM     10  C   UNL     1     139.521 153.987 158.015  1.00  0.00     0.009 C 
ENDBRANCH   2   9
TORSDOF 3
ENDMDL
MODEL 4
REMARK VINA RESULT:    -3.452      0.492      5.043
REMARK INTER + INTRA:          -4.315
REMARK INTER:                  -4.043
REMARK INTRA:                  -0.272
REMARK UNBOUND:                -0.258
REMARK SMILES C=CC(C)=CCC=C(C)C
REMARK SMILES IDX 5 1 3 2 4 3 6 4 7 5 9 6 8 7 10 8 2 9 1 10
REMARK H PARENT
REMARK Flexibility Score: inf
ROOT
ATOM      1  C   UNL     1     153.403 137.131 163.442  1.00  0.00    -0.020 C 
ATOM      2  C   UNL     1     153.959 138.294 163.834  1.00  0.00    -0.055 C 
ATOM      3  C   UNL     1     154.909 139.062 162.942  1.00  0.00     0.044 C 
ENDROOT
BRANCH   1   4
ATOM      4  C   UNL     1     153.674 136.481 162.109  1.00  0.00     0.055 C 
BRANCH   4   5
ATOM      5  C   UNL     1     152.705 136.963 161.058  1.00  0.00    -0.024 C 
ATOM      6  C   UNL     1     150.709 136.892 159.625  1.00  0.00     0.039 C 
ATOM      7  C   UNL     1     151.598 136.286 160.680  1.00  0.00    -0.080 C 
ATOM      8  C   UNL     1     151.241 134.946 161.277  1.00  0.00     0.039 C 
ENDBRANCH   4   5
ENDBRANCH   1   4
BRANCH   2   9
ATOM      9  C   UNL     1     153.557 138.848 165.153  1.00  0.00    -0.005 C 
ATOM     10  C   UNL     1     154.000 140.011 165.632  1.00  0.00     0.009 C 
ENDBRANCH   2   9
TORSDOF 3
ENDMDL
MODEL 5
REMARK VINA RESULT:    -3.304     13.377     15.714
REMARK INTER + INTRA:          -4.142
REMARK INTER:                  -5.184
REMARK INTRA:                   1.043
REMARK UNBOUND:                -0.258
REMARK SMILES C=CC(C)=CCC=C(C)C
REMARK SMILES IDX 5 1 3 2 4 3 6 4 7 5 9 6 8 7 10 8 2 9 1 10
REMARK H PARENT
REMARK Flexibility Score: inf
ROOT
ATOM      1  C   UNL     1     136.970 136.877 161.873  1.00  0.00    -0.020 C 
ATOM      2  C   UNL     1     135.689 136.472 161.972  1.00  0.00    -0.055 C 
ATOM      3  C   UNL     1     135.062 136.138 163.307  1.00  0.00     0.044 C 
ENDROOT
BRANCH   1   4
ATOM      4  C   UNL     1     137.896 137.023 163.053  1.00  0.00     0.055 C 
BRANCH   4   5
ATOM      5  C   UNL     1     139.234 136.380 162.782  1.00  0.00    -0.024 C 
ATOM      6  C   UNL     1     140.834 134.877 161.676  1.00  0.00     0.039 C 
ATOM      7  C   UNL     1     139.440 135.424 161.850  1.00  0.00    -0.080 C 
ATOM      8  C   UNL     1     138.316 134.890 160.994  1.00  0.00     0.039 C 
ENDBRANCH   4   5
ENDBRANCH   1   4
BRANCH   2   9
ATOM      9  C   UNL     1     134.875 136.429 160.729  1.00  0.00    -0.005 C 
ATOM     10  C   UNL     1     134.939 137.355 159.772  1.00  0.00     0.009 C 
ENDBRANCH   2   9
TORSDOF 3
ENDMDL
MODEL 6
REMARK VINA RESULT:    -3.257     21.117     22.376
REMARK INTER + INTRA:          -4.086
REMARK INTER:                  -4.735
REMARK INTRA:                   0.649
REMARK UNBOUND:                -0.258
REMARK SMILES C=CC(C)=CCC=C(C)C
REMARK SMILES IDX 5 1 3 2 4 3 6 4 7 5 9 6 8 7 10 8 2 9 1 10
REMARK H PARENT
REMARK Flexibility Score: inf
ROOT
ATOM      1  C   UNL     1     137.747 153.750 163.298  1.00  0.00    -0.020 C 
ATOM      2  C   UNL     1     136.570 153.102 163.401  1.00  0.00    -0.055 C 
ATOM      3  C   UNL     1     135.313 153.627 162.744  1.00  0.00     0.044 C 
ENDROOT
BRANCH   1   4
ATOM      4  C   UNL     1     137.928 155.044 162.545  1.00  0.00     0.055 C 
BRANCH   4   5
ATOM      5  C   UNL     1     138.992 154.915 161.484  1.00  0.00    -0.024 C 
ATOM      6  C   UNL     1     140.218 153.863 159.630  1.00  0.00     0.039 C 
ATOM      7  C   UNL     1     139.112 153.855 160.655  1.00  0.00    -0.080 C 
ATOM      8  C   UNL     1     138.179 152.670 160.737  1.00  0.00     0.039 C 
ENDBRANCH   4   5
ENDBRANCH   1   4
BRANCH   2   9
ATOM      9  C   UNL     1     136.551 151.805 164.127  1.00  0.00    -0.005 C 
ATOM     10  C   UNL     1     137.190 151.594 165.278  1.00  0.00     0.009 C 
ENDBRANCH   2   9
TORSDOF 3
ENDMDL
MODEL 7
REMARK VINA RESULT:    -3.099     20.455     22.341
REMARK INTER + INTRA:          -3.901
REMARK INTER:                  -3.888
REMARK INTRA:                  -0.014
REMARK UNBOUND:                -0.258
REMARK SMILES C=CC(C)=CCC=C(C)C
REMARK SMILES IDX 5 1 3 2 4 3 6 4 7 5 9 6 8 7 10 8 2 9 1 10
REMARK H PARENT
REMARK Flexibility Score: inf
ROOT
ATOM      1  C   UNL     1     137.308 154.002 161.297  1.00  0.00    -0.020 C 
ATOM      2  C   UNL     1     138.600 154.306 161.063  1.00  0.00    -0.055 C 
ATOM      3  C   UNL     1     139.414 155.125 162.040  1.00  0.00     0.044 C 
ENDROOT
BRANCH   1   4
ATOM      4  C   UNL     1     136.551 154.448 162.522  1.00  0.00     0.055 C 
BRANCH   4   5
ATOM      5  C   UNL     1     136.930 153.626 163.729  1.00  0.00    -0.024 C 
ATOM      6  C   UNL     1     137.033 151.627 165.157  1.00  0.00     0.039 C 
ATOM      7  C   UNL     1     136.573 152.335 163.908  1.00  0.00    -0.080 C 
ATOM      8  C   UNL     1     135.726 151.595 162.900  1.00  0.00     0.039 C 
ENDBRANCH   4   5
ENDBRANCH   1   4
BRANCH   2   9
ATOM      9  C   UNL     1     139.235 153.749 159.839  1.00  0.00    -0.005 C 
ATOM     10  C   UNL     1     140.462 153.228 159.816  1.00  0.00     0.009 C 
ENDBRANCH   2   9
TORSDOF 3
ENDMDL
MODEL 8
REMARK VINA RESULT:    -2.679     20.226     22.376
REMARK INTER + INTRA:          -3.408
REMARK INTER:                  -3.356
REMARK INTRA:                  -0.052
REMARK UNBOUND:                -0.258
REMARK SMILES C=CC(C)=CCC=C(C)C
REMARK SMILES IDX 5 1 3 2 4 3 6 4 7 5 9 6 8 7 10 8 2 9 1 10
REMARK H PARENT
REMARK Flexibility Score: inf
ROOT
ATOM      1  C   UNL     1     137.034 154.476 161.630  1.00  0.00    -0.020 C 
ATOM      2  C   UNL     1     136.751 153.761 162.737  1.00  0.00    -0.055 C 
ATOM      3  C   UNL     1     137.770 153.560 163.836  1.00  0.00     0.044 C 
ENDROOT
BRANCH   1   4
ATOM      4  C   UNL     1     138.371 155.124 161.371  1.00  0.00     0.055 C 
BRANCH   4   5
ATOM      5  C   UNL     1     139.448 154.089 161.160  1.00  0.00    -0.024 C 
ATOM      6  C   UNL     1     140.964 152.636 159.881  1.00  0.00     0.039 C 
ATOM      7  C   UNL     1     139.868 153.669 159.946  1.00  0.00    -0.080 C 
ATOM      8  C   UNL     1     139.263 154.197 158.667  1.00  0.00     0.039 C 
ENDBRANCH   4   5
ENDBRANCH   1   4
BRANCH   2   9
ATOM      9  C   UNL     1     135.372 153.228 162.886  1.00  0.00    -0.005 C 
ATOM     10  C   UNL     1     135.088 151.927 162.971  1.00  0.00     0.009 C 
ENDBRANCH   2   9
TORSDOF 3
ENDMDL
MODEL 9
REMARK VINA RESULT:    -2.618     14.047     16.768
REMARK INTER + INTRA:          -3.335
REMARK INTER:                  -3.075
REMARK INTRA:                  -0.260
REMARK UNBOUND:                -0.258
REMARK SMILES C=CC(C)=CCC=C(C)C
REMARK SMILES IDX 5 1 3 2 4 3 6 4 7 5 9 6 8 7 10 8 2 9 1 10
REMARK H PARENT
REMARK Flexibility Score: inf
ROOT
ATOM      1  C   UNL     1     136.700 136.739 163.524  1.00  0.00    -0.020 C 
ATOM      2  C   UNL     1     137.971 136.527 163.131  1.00  0.00    -0.055 C 
ATOM      3  C   UNL     1     138.297 135.776 161.859  1.00  0.00     0.044 C 
ENDROOT
BRANCH   1   4
ATOM      4  C   UNL     1     135.495 136.249 162.761  1.00  0.00     0.055 C 
BRANCH   4   5
ATOM      5  C   UNL     1     135.242 137.093 161.537  1.00  0.00    -0.024 C 
ATOM      6  C   UNL     1     134.877 137.558 159.151  1.00  0.00     0.039 C 
ATOM      7  C   UNL     1     135.146 136.600 160.283  1.00  0.00    -0.080 C 
ATOM      8  C   UNL     1     135.310 135.127 159.991  1.00  0.00     0.039 C 
ENDBRANCH   4   5
ENDBRANCH   1   4
BRANCH   2   9
ATOM      9  C   UNL     1     139.061 137.118 163.952  1.00  0.00    -0.005 C 
ATOM     10  C   UNL     1     139.044 137.154 165.285  1.00  0.00     0.009 C 
ENDBRANCH   2   9
TORSDOF 3
ENDMDL
