MODEL 1
REMARK VINA RESULT:    -6.557      0.000      0.000
REMARK INTER + INTRA:          -8.948
REMARK INTER:                  -8.282
REMARK INTRA:                  -0.666
REMARK UNBOUND:                -0.666
REMARK SMILES O=C(C=Cc1ccc(O)cc1)c1ccc(O)cc1O
REMARK SMILES IDX 4 1 3 2 5 3 6 4 7 5 8 6 11 7 10 8 9 9 2 11 1 12 12 13 18 14
REMARK SMILES IDX 13 15 17 16 14 17 15 18 19 19 16 21
REMARK H PARENT 9 10 19 20 16 22
REMARK Flexibility Score: inf
ROOT
ATOM      1  C   UNL     1       2.579   3.414 -23.626  1.00  0.00     0.012 C 
ATOM      2  C   UNL     1       1.322   3.142 -23.246  1.00  0.00     0.053 C 
ENDROOT
BRANCH   1   3
ATOM      3  C   UNL     1       2.992   4.700 -24.239  1.00  0.00    -0.025 A 
ATOM      4  C   UNL     1       3.441   4.794 -25.573  1.00  0.00     0.012 A 
ATOM      5  C   UNL     1       3.807   6.032 -26.110  1.00  0.00     0.047 A 
ATOM      6  C   UNL     1       3.723   7.192 -25.330  1.00  0.00     0.115 A 
ATOM      7  C   UNL     1       2.896   5.873 -23.472  1.00  0.00     0.012 A 
ATOM      8  C   UNL     1       3.264   7.109 -24.013  1.00  0.00     0.047 A 
BRANCH   6   9
ATOM      9  O   UNL     1       4.087   8.430 -25.856  1.00  0.00    -0.508 OA
ATOM     10  H   UNL     1       4.682   9.068 -25.342  1.00  0.00     0.293 HD
ENDBRANCH   6   9
ENDBRANCH   1   3
BRANCH   2  11
ATOM     11  C   UNL     1       0.943   1.841 -22.651  1.00  0.00     0.189 C 
ATOM     12  O   UNL     1       0.499   0.919 -23.389  1.00  0.00    -0.289 OA
BRANCH  11  13
ATOM     13  C   UNL     1       1.025   1.616 -21.189  1.00  0.00     0.064 A 
ATOM     14  C   UNL     1       1.335   0.349 -20.647  1.00  0.00     0.130 A 
ATOM     15  C   UNL     1       0.764   2.688 -20.317  1.00  0.00     0.020 A 
ATOM     16  C   UNL     1       1.416   0.187 -19.255  1.00  0.00     0.093 A 
ATOM     17  C   UNL     1       0.841   2.513 -18.933  1.00  0.00     0.047 A 
ATOM     18  C   UNL     1       1.171   1.266 -18.399  1.00  0.00     0.119 A 
BRANCH  14  19
ATOM     19  O   UNL     1       1.534  -0.751 -21.481  1.00  0.00    -0.507 OA
ATOM     20  H   UNL     1       0.879  -0.987 -22.217  1.00  0.00     0.293 HD
ENDBRANCH  14  19
BRANCH  18  21
ATOM     21  O   UNL     1       1.248   1.108 -17.016  1.00  0.00    -0.508 OA
ATOM     22  H   UNL     1       0.845   0.303 -16.551  1.00  0.00     0.293 HD
ENDBRANCH  18  21
ENDBRANCH  11  13
ENDBRANCH   2  11
TORSDOF 6
ENDMDL
MODEL 2
REMARK VINA RESULT:    -6.365      1.618      7.234
REMARK INTER + INTRA:          -8.706
REMARK INTER:                  -8.129
REMARK INTRA:                  -0.577
REMARK UNBOUND:                -0.666
REMARK SMILES O=C(C=Cc1ccc(O)cc1)c1ccc(O)cc1O
REMARK SMILES IDX 4 1 3 2 5 3 6 4 7 5 8 6 11 7 10 8 9 9 2 11 1 12 12 13 18 14
REMARK SMILES IDX 13 15 17 16 14 17 15 18 19 19 16 21
REMARK H PARENT 9 10 19 20 16 22
REMARK Flexibility Score: inf
ROOT
ATOM      1  C   UNL     1       1.086   3.401 -22.259  1.00  0.00     0.012 C 
ATOM      2  C   UNL     1       1.402   2.754 -23.390  1.00  0.00     0.053 C 
ENDROOT
BRANCH   1   3
ATOM      3  C   UNL     1       1.126   2.773 -20.915  1.00  0.00    -0.025 A 
ATOM      4  C   UNL     1       0.842   1.408 -20.708  1.00  0.00     0.012 A 
ATOM      5  C   UNL     1       0.906   0.860 -19.422  1.00  0.00     0.047 A 
ATOM      6  C   UNL     1       1.263   1.661 -18.331  1.00  0.00     0.115 A 
ATOM      7  C   UNL     1       1.499   3.563 -19.814  1.00  0.00     0.012 A 
ATOM      8  C   UNL     1       1.561   3.012 -18.531  1.00  0.00     0.047 A 
BRANCH   6   9
ATOM      9  O   UNL     1       1.328   1.125 -17.047  1.00  0.00    -0.508 OA
ATOM     10  H   UNL     1       0.980   0.196 -16.843  1.00  0.00     0.293 HD
ENDBRANCH   6   9
ENDBRANCH   1   3
BRANCH   2  11
ATOM     11  C   UNL     1       1.335   3.409 -24.716  1.00  0.00     0.189 C 
ATOM     12  O   UNL     1       0.715   2.850 -25.662  1.00  0.00    -0.289 OA
BRANCH  11  13
ATOM     13  C   UNL     1       2.031   4.691 -24.971  1.00  0.00     0.064 A 
ATOM     14  C   UNL     1       1.373   5.935 -24.839  1.00  0.00     0.130 A 
ATOM     15  C   UNL     1       3.376   4.670 -25.380  1.00  0.00     0.020 A 
ATOM     16  C   UNL     1       2.077   7.125 -25.078  1.00  0.00     0.093 A 
ATOM     17  C   UNL     1       4.065   5.860 -25.621  1.00  0.00     0.047 A 
ATOM     18  C   UNL     1       3.421   7.090 -25.467  1.00  0.00     0.119 A 
BRANCH  14  19
ATOM     19  O   UNL     1       0.021   5.991 -24.500  1.00  0.00    -0.507 OA
ATOM     20  H   UNL     1      -0.585   5.184 -24.594  1.00  0.00     0.293 HD
ENDBRANCH  14  19
BRANCH  18  21
ATOM     21  O   UNL     1       4.123   8.269 -25.707  1.00  0.00    -0.508 OA
ATOM     22  H   UNL     1       4.783   8.639 -25.033  1.00  0.00     0.293 HD
ENDBRANCH  18  21
ENDBRANCH  11  13
ENDBRANCH   2  11
TORSDOF 6
ENDMDL
MODEL 3
REMARK VINA RESULT:    -6.205      1.987      7.754
REMARK INTER + INTRA:          -8.503
REMARK INTER:                  -7.751
REMARK INTRA:                  -0.752
REMARK UNBOUND:                -0.666
REMARK SMILES O=C(C=Cc1ccc(O)cc1)c1ccc(O)cc1O
REMARK SMILES IDX 4 1 3 2 5 3 6 4 7 5 8 6 11 7 10 8 9 9 2 11 1 12 12 13 18 14
REMARK SMILES IDX 13 15 17 16 14 17 15 18 19 19 16 21
REMARK H PARENT 9 10 19 20 16 22
REMARK Flexibility Score: inf
ROOT
ATOM      1  C   UNL     1       1.464   3.742 -22.692  1.00  0.00     0.012 C 
ATOM      2  C   UNL     1       2.523   4.530 -22.459  1.00  0.00     0.053 C 
ENDROOT
BRANCH   1   3
ATOM      3  C   UNL     1       1.124   2.557 -21.868  1.00  0.00    -0.025 A 
ATOM      4  C   UNL     1       0.994   2.621 -20.465  1.00  0.00     0.012 A 
ATOM      5  C   UNL     1       0.658   1.478 -19.734  1.00  0.00     0.047 A 
ATOM      6  C   UNL     1       0.439   0.260 -20.388  1.00  0.00     0.115 A 
ATOM      7  C   UNL     1       0.885   1.333 -22.516  1.00  0.00     0.012 A 
ATOM      8  C   UNL     1       0.551   0.192 -21.780  1.00  0.00     0.047 A 
BRANCH   6   9
ATOM      9  O   UNL     1       0.106  -0.885 -19.668  1.00  0.00    -0.508 OA
ATOM     10  H   UNL     1      -0.000  -1.784 -20.122  1.00  0.00     0.293 HD
ENDBRANCH   6   9
ENDBRANCH   1   3
BRANCH   2  11
ATOM     11  C   UNL     1       2.841   5.697 -23.313  1.00  0.00     0.189 C 
ATOM     12  O   UNL     1       3.031   6.827 -22.786  1.00  0.00    -0.289 OA
BRANCH  11  13
ATOM     13  C   UNL     1       2.888   5.574 -24.788  1.00  0.00     0.064 A 
ATOM     14  C   UNL     1       1.984   6.267 -25.624  1.00  0.00     0.130 A 
ATOM     15  C   UNL     1       3.845   4.725 -25.373  1.00  0.00     0.020 A 
ATOM     16  C   UNL     1       2.076   6.131 -27.017  1.00  0.00     0.093 A 
ATOM     17  C   UNL     1       3.924   4.592 -26.761  1.00  0.00     0.047 A 
ATOM     18  C   UNL     1       3.044   5.296 -27.587  1.00  0.00     0.119 A 
BRANCH  14  19
ATOM     19  O   UNL     1       0.980   7.066 -25.075  1.00  0.00    -0.507 OA
ATOM     20  H   UNL     1       0.232   7.446 -25.642  1.00  0.00     0.293 HD
ENDBRANCH  14  19
BRANCH  18  21
ATOM     21  O   UNL     1       3.138   5.156 -28.970  1.00  0.00    -0.508 OA
ATOM     22  H   UNL     1       2.392   5.459 -29.585  1.00  0.00     0.293 HD
ENDBRANCH  18  21
ENDBRANCH  11  13
ENDBRANCH   2  11
TORSDOF 6
ENDMDL
MODEL 4
REMARK VINA RESULT:    -6.056      5.657      7.550
REMARK INTER + INTRA:          -8.315
REMARK INTER:                  -7.578
REMARK INTRA:                  -0.737
REMARK UNBOUND:                -0.666
REMARK SMILES O=C(C=Cc1ccc(O)cc1)c1ccc(O)cc1O
REMARK SMILES IDX 4 1 3 2 5 3 6 4 7 5 8 6 11 7 10 8 9 9 2 11 1 12 12 13 18 14
REMARK SMILES IDX 13 15 17 16 14 17 15 18 19 19 16 21
REMARK H PARENT 9 10 19 20 16 22
REMARK Flexibility Score: inf
ROOT
ATOM      1  C   UNL     1      -1.615   1.216 -19.992  1.00  0.00     0.012 C 
ATOM      2  C   UNL     1      -2.796   1.721 -19.606  1.00  0.00     0.053 C 
ENDROOT
BRANCH   1   3
ATOM      3  C   UNL     1      -0.346   1.439 -19.258  1.00  0.00    -0.025 A 
ATOM      4  C   UNL     1      -0.088   2.620 -18.532  1.00  0.00     0.012 A 
ATOM      5  C   UNL     1       1.120   2.777 -17.845  1.00  0.00     0.047 A 
ATOM      6  C   UNL     1       2.081   1.759 -17.864  1.00  0.00     0.115 A 
ATOM      7  C   UNL     1       0.619   0.417 -19.256  1.00  0.00     0.012 A 
ATOM      8  C   UNL     1       1.826   0.579 -18.569  1.00  0.00     0.047 A 
BRANCH   6   9
ATOM      9  O   UNL     1       3.288   1.907 -17.184  1.00  0.00    -0.508 OA
ATOM     10  H   UNL     1       3.328   1.914 -16.172  1.00  0.00     0.293 HD
ENDBRANCH   6   9
ENDBRANCH   1   3
BRANCH   2  11
ATOM     11  C   UNL     1      -4.040   1.490 -20.372  1.00  0.00     0.189 C 
ATOM     12  O   UNL     1      -5.089   1.125 -19.773  1.00  0.00    -0.289 OA
BRANCH  11  13
ATOM     13  C   UNL     1      -4.067   1.629 -21.847  1.00  0.00     0.064 A 
ATOM     14  C   UNL     1      -4.385   0.543 -22.693  1.00  0.00     0.130 A 
ATOM     15  C   UNL     1      -3.743   2.871 -22.422  1.00  0.00     0.020 A 
ATOM     16  C   UNL     1      -4.411   0.726 -24.083  1.00  0.00     0.093 A 
ATOM     17  C   UNL     1      -3.766   3.041 -23.808  1.00  0.00     0.047 A 
ATOM     18  C   UNL     1      -4.104   1.972 -24.642  1.00  0.00     0.119 A 
BRANCH  14  19
ATOM     19  O   UNL     1      -4.646  -0.719 -22.159  1.00  0.00    -0.507 OA
ATOM     20  H   UNL     1      -4.035  -1.143 -21.471  1.00  0.00     0.293 HD
ENDBRANCH  14  19
BRANCH  18  21
ATOM     21  O   UNL     1      -4.127   2.158 -26.022  1.00  0.00    -0.508 OA
ATOM     22  H   UNL     1      -4.716   1.592 -26.623  1.00  0.00     0.293 HD
ENDBRANCH  18  21
ENDBRANCH  11  13
ENDBRANCH   2  11
TORSDOF 6
ENDMDL
MODEL 5
REMARK VINA RESULT:    -6.004      3.081      3.857
REMARK INTER + INTRA:          -8.249
REMARK INTER:                  -7.742
REMARK INTRA:                  -0.507
REMARK UNBOUND:                -0.666
REMARK SMILES O=C(C=Cc1ccc(O)cc1)c1ccc(O)cc1O
REMARK SMILES IDX 4 1 3 2 5 3 6 4 7 5 8 6 11 7 10 8 9 9 2 11 1 12 12 13 18 14
REMARK SMILES IDX 13 15 17 16 14 17 15 18 19 19 16 21
REMARK H PARENT 9 10 19 20 16 22
REMARK Flexibility Score: inf
ROOT
ATOM      1  C   UNL     1       1.169   2.432 -21.967  1.00  0.00     0.012 C 
ATOM      2  C   UNL     1       0.825   1.145 -21.812  1.00  0.00     0.053 C 
ENDROOT
BRANCH   1   3
ATOM      3  C   UNL     1       1.711   2.991 -23.229  1.00  0.00    -0.025 A 
ATOM      4  C   UNL     1       1.420   2.434 -24.491  1.00  0.00     0.012 A 
ATOM      5  C   UNL     1       1.946   3.006 -25.654  1.00  0.00     0.047 A 
ATOM      6  C   UNL     1       2.758   4.144 -25.576  1.00  0.00     0.115 A 
ATOM      7  C   UNL     1       2.514   4.143 -23.165  1.00  0.00     0.012 A 
ATOM      8  C   UNL     1       3.038   4.711 -24.330  1.00  0.00     0.047 A 
BRANCH   6   9
ATOM      9  O   UNL     1       3.287   4.720 -26.729  1.00  0.00    -0.508 OA
ATOM     10  H   UNL     1       3.692   4.155 -27.465  1.00  0.00     0.293 HD
ENDBRANCH   6   9
ENDBRANCH   1   3
BRANCH   2  11
ATOM     11  C   UNL     1       0.301   0.619 -20.532  1.00  0.00     0.189 C 
ATOM     12  O   UNL     1       1.080   0.044 -19.723  1.00  0.00    -0.289 OA
BRANCH  11  13
ATOM     13  C   UNL     1      -1.140   0.707 -20.201  1.00  0.00     0.064 A 
ATOM     14  C   UNL     1      -1.699   1.858 -19.603  1.00  0.00     0.130 A 
ATOM     15  C   UNL     1      -1.972  -0.396 -20.468  1.00  0.00     0.020 A 
ATOM     16  C   UNL     1      -3.073   1.902 -19.321  1.00  0.00     0.093 A 
ATOM     17  C   UNL     1      -3.337  -0.344 -20.178  1.00  0.00     0.047 A 
ATOM     18  C   UNL     1      -3.892   0.804 -19.608  1.00  0.00     0.119 A 
BRANCH  14  19
ATOM     19  O   UNL     1      -0.892   2.944 -19.263  1.00  0.00    -0.507 OA
ATOM     20  H   UNL     1      -0.988   3.844 -19.721  1.00  0.00     0.293 HD
ENDBRANCH  14  19
BRANCH  18  21
ATOM     21  O   UNL     1      -5.256   0.842 -19.328  1.00  0.00    -0.508 OA
ATOM     22  H   UNL     1      -5.656   0.304 -18.568  1.00  0.00     0.293 HD
ENDBRANCH  18  21
ENDBRANCH  11  13
ENDBRANCH   2  11
TORSDOF 6
ENDMDL
MODEL 6
REMARK VINA RESULT:    -5.936      2.937      3.345
REMARK INTER + INTRA:          -8.163
REMARK INTER:                  -7.431
REMARK INTRA:                  -0.732
REMARK UNBOUND:                -0.666
REMARK SMILES O=C(C=Cc1ccc(O)cc1)c1ccc(O)cc1O
REMARK SMILES IDX 4 1 3 2 5 3 6 4 7 5 8 6 11 7 10 8 9 9 2 11 1 12 12 13 18 14
REMARK SMILES IDX 13 15 17 16 14 17 15 18 19 19 16 21
REMARK H PARENT 9 10 19 20 16 22
REMARK Flexibility Score: inf
ROOT
ATOM      1  C   UNL     1       0.514   2.864 -22.742  1.00  0.00     0.012 C 
ATOM      2  C   UNL     1       0.854   2.362 -21.546  1.00  0.00     0.053 C 
ENDROOT
BRANCH   1   3
ATOM      3  C   UNL     1       1.113   4.093 -23.318  1.00  0.00    -0.025 A 
ATOM      4  C   UNL     1       0.454   4.873 -24.290  1.00  0.00     0.012 A 
ATOM      5  C   UNL     1       1.055   6.031 -24.793  1.00  0.00     0.047 A 
ATOM      6  C   UNL     1       2.313   6.432 -24.329  1.00  0.00     0.115 A 
ATOM      7  C   UNL     1       2.368   4.514 -22.848  1.00  0.00     0.012 A 
ATOM      8  C   UNL     1       2.966   5.672 -23.354  1.00  0.00     0.047 A 
BRANCH   6   9
ATOM      9  O   UNL     1       2.921   7.583 -24.825  1.00  0.00    -0.508 OA
ATOM     10  H   UNL     1       3.698   8.020 -24.345  1.00  0.00     0.293 HD
ENDBRANCH   6   9
ENDBRANCH   1   3
BRANCH   2  11
ATOM     11  C   UNL     1       0.224   1.141 -20.996  1.00  0.00     0.189 C 
ATOM     12  O   UNL     1       0.902   0.085 -20.873  1.00  0.00    -0.289 OA
BRANCH  11  13
ATOM     13  C   UNL     1      -1.212   1.119 -20.633  1.00  0.00     0.064 A 
ATOM     14  C   UNL     1      -2.150   0.338 -21.346  1.00  0.00     0.130 A 
ATOM     15  C   UNL     1      -1.659   1.917 -19.565  1.00  0.00     0.020 A 
ATOM     16  C   UNL     1      -3.498   0.339 -20.957  1.00  0.00     0.093 A 
ATOM     17  C   UNL     1      -3.005   1.914 -19.190  1.00  0.00     0.047 A 
ATOM     18  C   UNL     1      -3.926   1.123 -19.880  1.00  0.00     0.119 A 
BRANCH  14  19
ATOM     19  O   UNL     1      -1.753  -0.413 -22.452  1.00  0.00    -0.507 OA
ATOM     20  H   UNL     1      -2.181  -1.304 -22.673  1.00  0.00     0.293 HD
ENDBRANCH  14  19
BRANCH  18  21
ATOM     21  O   UNL     1      -5.264   1.128 -19.491  1.00  0.00    -0.508 OA
ATOM     22  H   UNL     1      -5.768   0.266 -19.317  1.00  0.00     0.293 HD
ENDBRANCH  18  21
ENDBRANCH  11  13
ENDBRANCH   2  11
TORSDOF 6
ENDMDL
MODEL 7
REMARK VINA RESULT:    -5.908      1.742      2.436
REMARK INTER + INTRA:          -8.128
REMARK INTER:                  -7.392
REMARK INTRA:                  -0.736
REMARK UNBOUND:                -0.666
REMARK SMILES O=C(C=Cc1ccc(O)cc1)c1ccc(O)cc1O
REMARK SMILES IDX 4 1 3 2 5 3 6 4 7 5 8 6 11 7 10 8 9 9 2 11 1 12 12 13 18 14
REMARK SMILES IDX 13 15 17 16 14 17 15 18 19 19 16 21
REMARK H PARENT 9 10 19 20 16 22
REMARK Flexibility Score: inf
ROOT
ATOM      1  C   UNL     1       1.052   2.446 -23.480  1.00  0.00     0.012 C 
ATOM      2  C   UNL     1       0.517   1.224 -23.618  1.00  0.00     0.053 C 
ENDROOT
BRANCH   1   3
ATOM      3  C   UNL     1       1.845   3.121 -24.536  1.00  0.00    -0.025 A 
ATOM      4  C   UNL     1       1.762   2.755 -25.896  1.00  0.00     0.012 A 
ATOM      5  C   UNL     1       2.520   3.431 -26.857  1.00  0.00     0.047 A 
ATOM      6  C   UNL     1       3.363   4.483 -26.479  1.00  0.00     0.115 A 
ATOM      7  C   UNL     1       2.682   4.189 -24.172  1.00  0.00     0.012 A 
ATOM      8  C   UNL     1       3.439   4.861 -25.135  1.00  0.00     0.047 A 
BRANCH   6   9
ATOM      9  O   UNL     1       4.124   5.161 -27.429  1.00  0.00    -0.508 OA
ATOM     10  H   UNL     1       4.670   5.978 -27.184  1.00  0.00     0.293 HD
ENDBRANCH   6   9
ENDBRANCH   1   3
BRANCH   2  11
ATOM     11  C   UNL     1      -0.256   0.576 -22.536  1.00  0.00     0.189 C 
ATOM     12  O   UNL     1      -1.263  -0.130 -22.819  1.00  0.00    -0.289 OA
BRANCH  11  13
ATOM     13  C   UNL     1       0.099   0.782 -21.113  1.00  0.00     0.064 A 
ATOM     14  C   UNL     1      -0.689   1.582 -20.256  1.00  0.00     0.130 A 
ATOM     15  C   UNL     1       1.268   0.185 -20.607  1.00  0.00     0.020 A 
ATOM     16  C   UNL     1      -0.320   1.738 -18.911  1.00  0.00     0.093 A 
ATOM     17  C   UNL     1       1.629   0.352 -19.268  1.00  0.00     0.047 A 
ATOM     18  C   UNL     1       0.835   1.124 -18.416  1.00  0.00     0.119 A 
BRANCH  14  19
ATOM     19  O   UNL     1      -1.818   2.244 -20.741  1.00  0.00    -0.507 OA
ATOM     20  H   UNL     1      -2.160   2.092 -21.683  1.00  0.00     0.293 HD
ENDBRANCH  14  19
BRANCH  18  21
ATOM     21  O   UNL     1       1.206   1.277 -17.082  1.00  0.00    -0.508 OA
ATOM     22  H   UNL     1       0.515   1.359 -16.345  1.00  0.00     0.293 HD
ENDBRANCH  18  21
ENDBRANCH  11  13
ENDBRANCH   2  11
TORSDOF 6
ENDMDL
MODEL 8
REMARK VINA RESULT:    -4.719      4.260      7.633
REMARK INTER + INTRA:          -6.626
REMARK INTER:                  -6.055
REMARK INTRA:                  -0.571
REMARK UNBOUND:                -0.666
REMARK SMILES O=C(C=Cc1ccc(O)cc1)c1ccc(O)cc1O
REMARK SMILES IDX 4 1 3 2 5 3 6 4 7 5 8 6 11 7 10 8 9 9 2 11 1 12 12 13 18 14
REMARK SMILES IDX 13 15 17 16 14 17 15 18 19 19 16 21
REMARK H PARENT 9 10 19 20 16 22
REMARK Flexibility Score: inf
ROOT
ATOM      1  C   UNL     1      -1.704   0.469 -20.063  1.00  0.00     0.012 C 
ATOM      2  C   UNL     1      -0.662  -0.345 -20.281  1.00  0.00     0.053 C 
ENDROOT
BRANCH   1   3
ATOM      3  C   UNL     1      -3.108   0.111 -20.385  1.00  0.00    -0.025 A 
ATOM      4  C   UNL     1      -3.840  -0.832 -19.635  1.00  0.00     0.012 A 
ATOM      5  C   UNL     1      -5.166  -1.125 -19.971  1.00  0.00     0.047 A 
ATOM      6  C   UNL     1      -5.780  -0.478 -21.050  1.00  0.00     0.115 A 
ATOM      7  C   UNL     1      -3.741   0.766 -21.455  1.00  0.00     0.012 A 
ATOM      8  C   UNL     1      -5.066   0.469 -21.788  1.00  0.00     0.047 A 
BRANCH   6   9
ATOM      9  O   UNL     1      -7.100  -0.765 -21.393  1.00  0.00    -0.508 OA
ATOM     10  H   UNL     1      -7.339  -1.583 -21.939  1.00  0.00     0.293 HD
ENDBRANCH   6   9
ENDBRANCH   1   3
BRANCH   2  11
ATOM     11  C   UNL     1       0.728   0.052 -19.961  1.00  0.00     0.189 C 
ATOM     12  O   UNL     1       1.673  -0.762 -20.150  1.00  0.00    -0.289 OA
BRANCH  11  13
ATOM     13  C   UNL     1       1.028   1.376 -19.370  1.00  0.00     0.064 A 
ATOM     14  C   UNL     1       1.192   2.530 -20.170  1.00  0.00     0.130 A 
ATOM     15  C   UNL     1       1.177   1.485 -17.976  1.00  0.00     0.020 A 
ATOM     16  C   UNL     1       1.461   3.766 -19.564  1.00  0.00     0.093 A 
ATOM     17  C   UNL     1       1.451   2.720 -17.384  1.00  0.00     0.047 A 
ATOM     18  C   UNL     1       1.590   3.864 -18.174  1.00  0.00     0.119 A 
BRANCH  14  19
ATOM     19  O   UNL     1       1.116   2.445 -21.560  1.00  0.00    -0.507 OA
ATOM     20  H   UNL     1       0.424   1.867 -22.022  1.00  0.00     0.293 HD
ENDBRANCH  14  19
BRANCH  18  21
ATOM     21  O   UNL     1       1.859   5.090 -17.569  1.00  0.00    -0.508 OA
ATOM     22  H   UNL     1       2.557   5.178 -16.840  1.00  0.00     0.293 HD
ENDBRANCH  18  21
ENDBRANCH  11  13
ENDBRANCH   2  11
TORSDOF 6
ENDMDL
