MODEL 1
REMARK VINA RESULT:    -2.496      0.000      0.000
REMARK INTER + INTRA:          -2.715
REMARK INTER:                  -2.715
REMARK INTRA:                   0.000
REMARK UNBOUND:                 0.000
REMARK SMILES [NH3+]CC(=O)[O-]
REMARK SMILES IDX 2 1 1 2 3 6 4 7 5 8
REMARK H PARENT 1 3 1 4 1 5
REMARK Flexibility Score: inf
ROOT
ATOM      1  C   UNL     1       7.320  19.059  20.092  1.00  0.00     0.312 C 
ENDROOT
BRANCH   1   2
ATOM      2  N   UNL     1       6.276  19.674  19.274  1.00  0.00    -0.353 N 
ATOM      3  H   UNL     1       5.661  18.923  18.884  1.00  0.00     0.344 HD
ATOM      4  H   UNL     1       6.706  20.205  18.482  1.00  0.00     0.344 HD
ATOM      5  H   UNL     1       5.696  20.319  19.858  1.00  0.00     0.344 HD
ENDBRANCH   1   2
BRANCH   1   6
ATOM      6  C   UNL     1       7.952  17.911  19.366  1.00  0.00     0.096 C 
ATOM      7  O   UNL     1       7.309  16.843  19.189  1.00  0.00    -0.544 OA
ATOM      8  O   UNL     1       9.267  18.004  18.929  1.00  0.00    -0.544 OA
ENDBRANCH   1   6
TORSDOF 2
ENDMDL
MODEL 2
REMARK VINA RESULT:    -2.457     14.948     15.409
REMARK INTER + INTRA:          -2.673
REMARK INTER:                  -2.673
REMARK INTRA:                   0.000
REMARK UNBOUND:                 0.000
REMARK SMILES [NH3+]CC(=O)[O-]
REMARK SMILES IDX 2 1 1 2 3 6 4 7 5 8
REMARK H PARENT 1 3 1 4 1 5
REMARK Flexibility Score: inf
ROOT
ATOM      1  C   UNL     1       6.194   5.293  10.105  1.00  0.00     0.312 C 
ENDROOT
BRANCH   1   2
ATOM      2  N   UNL     1       7.473   5.312  10.813  1.00  0.00    -0.353 N 
ATOM      3  H   UNL     1       7.815   4.330  10.926  1.00  0.00     0.344 HD
ATOM      4  H   UNL     1       7.353   5.741  11.759  1.00  0.00     0.344 HD
ATOM      5  H   UNL     1       8.178   5.856  10.265  1.00  0.00     0.344 HD
ENDBRANCH   1   2
BRANCH   1   6
ATOM      6  C   UNL     1       5.614   6.672  10.027  1.00  0.00     0.096 C 
ATOM      7  O   UNL     1       6.367   7.679  10.076  1.00  0.00    -0.544 OA
ATOM      8  O   UNL     1       4.238   6.844   9.950  1.00  0.00    -0.544 OA
ENDBRANCH   1   6
TORSDOF 2
ENDMDL
MODEL 3
REMARK VINA RESULT:    -2.447      2.180      2.324
REMARK INTER + INTRA:          -2.661
REMARK INTER:                  -2.661
REMARK INTRA:                   0.000
REMARK UNBOUND:                 0.000
REMARK SMILES [NH3+]CC(=O)[O-]
REMARK SMILES IDX 2 1 1 2 3 6 4 7 5 8
REMARK H PARENT 1 3 1 4 1 5
REMARK Flexibility Score: inf
ROOT
ATOM      1  C   UNL     1       7.358  18.789  19.720  1.00  0.00     0.312 C 
ENDROOT
BRANCH   1   2
ATOM      2  N   UNL     1       6.280  19.676  19.288  1.00  0.00    -0.353 N 
ATOM      3  H   UNL     1       5.380  19.352  19.712  1.00  0.00     0.344 HD
ATOM      4  H   UNL     1       6.192  19.652  18.246  1.00  0.00     0.344 HD
ATOM      5  H   UNL     1       6.471  20.654  19.605  1.00  0.00     0.344 HD
ENDBRANCH   1   2
BRANCH   1   6
ATOM      6  C   UNL     1       8.082  19.372  20.895  1.00  0.00     0.096 C 
ATOM      7  O   UNL     1       7.954  18.857  22.036  1.00  0.00    -0.544 OA
ATOM      8  O   UNL     1       8.857  20.513  20.737  1.00  0.00    -0.544 OA
ENDBRANCH   1   6
TORSDOF 2
ENDMDL
MODEL 4
REMARK VINA RESULT:    -2.444     11.243     11.688
REMARK INTER + INTRA:          -2.659
REMARK INTER:                  -2.659
REMARK INTRA:                   0.000
REMARK UNBOUND:                 0.000
REMARK SMILES [NH3+]CC(=O)[O-]
REMARK SMILES IDX 2 1 1 2 3 6 4 7 5 8
REMARK H PARENT 1 3 1 4 1 5
REMARK Flexibility Score: inf
ROOT
ATOM      1  C   UNL     1       8.861  10.587  10.074  1.00  0.00     0.312 C 
ENDROOT
BRANCH   1   2
ATOM      2  N   UNL     1       9.207   9.169  10.153  1.00  0.00    -0.353 N 
ATOM      3  H   UNL     1       9.909   8.947   9.410  1.00  0.00     0.344 HD
ATOM      4  H   UNL     1       8.355   8.583  10.001  1.00  0.00     0.344 HD
ATOM      5  H   UNL     1       9.623   8.953  11.088  1.00  0.00     0.344 HD
ENDBRANCH   1   2
BRANCH   1   6
ATOM      6  C   UNL     1       8.087  11.010  11.284  1.00  0.00     0.096 C 
ATOM      7  O   UNL     1       8.212  12.176  11.740  1.00  0.00    -0.544 OA
ATOM      8  O   UNL     1       7.265  10.100  11.936  1.00  0.00    -0.544 OA
ENDBRANCH   1   6
TORSDOF 2
ENDMDL
MODEL 5
REMARK VINA RESULT:    -2.442      1.932      2.335
REMARK INTER + INTRA:          -2.657
REMARK INTER:                  -2.657
REMARK INTRA:                   0.000
REMARK UNBOUND:                 0.000
REMARK SMILES [NH3+]CC(=O)[O-]
REMARK SMILES IDX 2 1 1 2 3 6 4 7 5 8
REMARK H PARENT 1 3 1 4 1 5
REMARK Flexibility Score: inf
ROOT
ATOM      1  C   UNL     1       7.306  19.643  20.359  1.00  0.00     0.312 C 
ENDROOT
BRANCH   1   2
ATOM      2  N   UNL     1       6.310  19.617  19.289  1.00  0.00    -0.353 N 
ATOM      3  H   UNL     1       5.631  18.843  19.472  1.00  0.00     0.344 HD
ATOM      4  H   UNL     1       6.777  19.448  18.368  1.00  0.00     0.344 HD
ATOM      5  H   UNL     1       5.791  20.525  19.260  1.00  0.00     0.344 HD
ENDBRANCH   1   2
BRANCH   1   6
ATOM      6  C   UNL     1       7.154  18.448  21.250  1.00  0.00     0.096 C 
ATOM      7  O   UNL     1       7.073  18.595  22.497  1.00  0.00    -0.544 OA
ATOM      8  O   UNL     1       7.153  17.171  20.705  1.00  0.00    -0.544 OA
ENDBRANCH   1   6
TORSDOF 2
ENDMDL
MODEL 6
REMARK VINA RESULT:    -2.367      4.281      4.703
REMARK INTER + INTRA:          -2.575
REMARK INTER:                  -2.575
REMARK INTRA:                   0.000
REMARK UNBOUND:                 0.000
REMARK SMILES [NH3+]CC(=O)[O-]
REMARK SMILES IDX 2 1 1 2 3 6 4 7 5 8
REMARK H PARENT 1 3 1 4 1 5
REMARK Flexibility Score: inf
ROOT
ATOM      1  C   UNL     1       5.658  14.389  16.895  1.00  0.00     0.312 C 
ENDROOT
BRANCH   1   2
ATOM      2  N   UNL     1       4.820  15.259  17.719  1.00  0.00    -0.353 N 
ATOM      3  H   UNL     1       4.169  15.793  17.100  1.00  0.00     0.344 HD
ATOM      4  H   UNL     1       5.417  15.935  18.249  1.00  0.00     0.344 HD
ATOM      5  H   UNL     1       4.257  14.685  18.388  1.00  0.00     0.344 HD
ENDBRANCH   1   2
BRANCH   1   6
ATOM      6  C   UNL     1       6.830  15.146  16.351  1.00  0.00     0.096 C 
ATOM      7  O   UNL     1       7.714  15.589  17.130  1.00  0.00    -0.544 OA
ATOM      8  O   UNL     1       6.919  15.405  14.990  1.00  0.00    -0.544 OA
ENDBRANCH   1   6
TORSDOF 2
ENDMDL
MODEL 7
REMARK VINA RESULT:    -2.336      9.160      9.544
REMARK INTER + INTRA:          -2.541
REMARK INTER:                  -2.541
REMARK INTRA:                   0.000
REMARK UNBOUND:                 0.000
REMARK SMILES [NH3+]CC(=O)[O-]
REMARK SMILES IDX 2 1 1 2 3 6 4 7 5 8
REMARK H PARENT 1 3 1 4 1 5
REMARK Flexibility Score: inf
ROOT
ATOM      1  C   UNL     1       3.835  12.761  11.966  1.00  0.00     0.312 C 
ENDROOT
BRANCH   1   2
ATOM      2  N   UNL     1       4.094  12.444  10.563  1.00  0.00    -0.353 N 
ATOM      3  H   UNL     1       3.202  12.135  10.112  1.00  0.00     0.344 HD
ATOM      4  H   UNL     1       4.795  11.671  10.493  1.00  0.00     0.344 HD
ATOM      5  H   UNL     1       4.451  13.291  10.064  1.00  0.00     0.344 HD
ENDBRANCH   1   2
BRANCH   1   6
ATOM      6  C   UNL     1       5.113  13.075  12.681  1.00  0.00     0.096 C 
ATOM      7  O   UNL     1       5.160  14.024  13.506  1.00  0.00    -0.544 OA
ATOM      8  O   UNL     1       6.264  12.350  12.398  1.00  0.00    -0.544 OA
ENDBRANCH   1   6
TORSDOF 2
ENDMDL
MODEL 8
REMARK VINA RESULT:    -2.309     12.413     12.772
REMARK INTER + INTRA:          -2.511
REMARK INTER:                  -2.511
REMARK INTRA:                   0.000
REMARK UNBOUND:                 0.000
REMARK SMILES [NH3+]CC(=O)[O-]
REMARK SMILES IDX 2 1 1 2 3 6 4 7 5 8
REMARK H PARENT 1 3 1 4 1 5
REMARK Flexibility Score: inf
ROOT
ATOM      1  C   UNL     1       8.483  10.332  10.392  1.00  0.00     0.312 C 
ENDROOT
BRANCH   1   2
ATOM      2  N   UNL     1       9.291   9.139  10.142  1.00  0.00    -0.353 N 
ATOM      3  H   UNL     1       9.845   8.916  11.000  1.00  0.00     0.344 HD
ATOM      4  H   UNL     1       9.949   9.312   9.348  1.00  0.00     0.344 HD
ATOM      5  H   UNL     1       8.671   8.327   9.917  1.00  0.00     0.344 HD
ENDBRANCH   1   2
BRANCH   1   6
ATOM      6  C   UNL     1       7.039  10.062  10.100  1.00  0.00     0.096 C 
ATOM      7  O   UNL     1       6.223  11.016  10.009  1.00  0.00    -0.544 OA
ATOM      8  O   UNL     1       6.587   8.755   9.979  1.00  0.00    -0.544 OA
ENDBRANCH   1   6
TORSDOF 2
ENDMDL
MODEL 9
REMARK VINA RESULT:    -2.130      7.031      7.414
REMARK INTER + INTRA:          -2.317
REMARK INTER:                  -2.317
REMARK INTRA:                   0.000
REMARK UNBOUND:                 0.000
REMARK SMILES [NH3+]CC(=O)[O-]
REMARK SMILES IDX 2 1 1 2 3 6 4 7 5 8
REMARK H PARENT 1 3 1 4 1 5
REMARK Flexibility Score: inf
ROOT
ATOM      1  C   UNL     1       6.352  14.229  14.866  1.00  0.00     0.312 C 
ENDROOT
BRANCH   1   2
ATOM      2  N   UNL     1       7.031  15.513  14.700  1.00  0.00    -0.353 N 
ATOM      3  H   UNL     1       6.465  16.261  15.161  1.00  0.00     0.344 HD
ATOM      4  H   UNL     1       7.129  15.738  13.684  1.00  0.00     0.344 HD
ATOM      5  H   UNL     1       7.976  15.479  15.147  1.00  0.00     0.344 HD
ENDBRANCH   1   2
BRANCH   1   6
ATOM      6  C   UNL     1       6.052  13.614  13.534  1.00  0.00     0.096 C 
ATOM      7  O   UNL     1       6.978  13.108  12.848  1.00  0.00    -0.544 OA
ATOM      8  O   UNL     1       4.759  13.646  13.029  1.00  0.00    -0.544 OA
ENDBRANCH   1   6
TORSDOF 2
ENDMDL
