MODEL 1
REMARK VINA RESULT:    -7.171      0.000      0.000
REMARK INTER + INTRA:          -8.695
REMARK INTER:                  -8.428
REMARK INTRA:                  -0.267
REMARK UNBOUND:                -0.267
REMARK SMILES O=c1cc(-c2ccc(O)c(O)c2)oc2cc(O)cc(O)c12
REMARK SMILES IDX 4 1 3 2 2 3 1 4 21 5 19 6 18 7 16 8 15 9 14 10 13 11 5 12
REMARK SMILES IDX 6 13 7 14 8 15 12 16 10 17 9 18 11 20 20 22 17 24
REMARK H PARENT 9 19 11 21 20 23 17 25
REMARK Flexibility Score: inf
ROOT
ATOM      1  C   UNL     1      30.886 -92.216  37.294  1.00  0.00     0.138 A 
ATOM      2  C   UNL     1      29.662 -92.807  36.951  1.00  0.00     0.100 A 
ATOM      3  C   UNL     1      29.491 -94.183  37.107  1.00  0.00     0.197 A 
ATOM      4  O   UNL     1      28.404 -94.693  36.733  1.00  0.00    -0.289 OA
ATOM      5  C   UNL     1      30.544 -94.966  37.639  1.00  0.00     0.107 A 
ATOM      6  C   UNL     1      30.470 -96.370  37.880  1.00  0.00     0.134 A 
ATOM      7  C   UNL     1      31.615 -97.059  38.300  1.00  0.00     0.093 A 
ATOM      8  C   UNL     1      32.812 -96.387  38.545  1.00  0.00     0.123 A 
ATOM      9  C   UNL     1      32.881 -95.005  38.364  1.00  0.00     0.094 A 
ATOM     10  C   UNL     1      31.765 -94.294  37.913  1.00  0.00     0.146 A 
ATOM     11  O   UNL     1      31.877 -92.981  37.739  1.00  0.00    -0.456 OA
ENDROOT
BRANCH   1  12
ATOM     12  C   UNL     1      31.119 -90.756  37.148  1.00  0.00     0.021 A 
ATOM     13  C   UNL     1      32.041 -90.297  36.194  1.00  0.00     0.016 A 
ATOM     14  C   UNL     1      32.283 -88.931  36.042  1.00  0.00     0.051 A 
ATOM     15  C   UNL     1      31.622 -87.994  36.844  1.00  0.00     0.157 A 
ATOM     16  C   UNL     1      30.463 -89.816  37.965  1.00  0.00     0.062 A 
ATOM     17  C   UNL     1      30.703 -88.444  37.821  1.00  0.00     0.158 A 
BRANCH  15  18
ATOM     18  O   UNL     1      31.904 -86.643  36.638  1.00  0.00    -0.504 OA
ATOM     19  H   UNL     1      32.042 -85.974  37.382  1.00  0.00     0.293 HD
ENDBRANCH  15  18
BRANCH  17  20
ATOM     20  O   UNL     1      30.017 -87.570  38.668  1.00  0.00    -0.504 OA
ATOM     21  H   UNL     1      30.066 -86.565  38.601  1.00  0.00     0.293 HD
ENDBRANCH  17  20
ENDBRANCH   1  12
BRANCH   6  22
ATOM     22  O   UNL     1      29.300 -97.125  37.749  1.00  0.00    -0.507 OA
ATOM     23  H   UNL     1      28.867 -97.651  38.491  1.00  0.00     0.293 HD
ENDBRANCH   6  22
BRANCH   8  24
ATOM     24  O   UNL     1      33.926 -97.103  38.977  1.00  0.00    -0.508 OA
ATOM     25  H   UNL     1      34.861 -96.718  38.912  1.00  0.00     0.293 HD
ENDBRANCH   8  24
TORSDOF 5
ENDMDL
MODEL 2
REMARK VINA RESULT:    -6.246      1.305      2.803
REMARK INTER + INTRA:          -7.608
REMARK INTER:                  -7.320
REMARK INTRA:                  -0.289
REMARK UNBOUND:                -0.267
REMARK SMILES O=c1cc(-c2ccc(O)c(O)c2)oc2cc(O)cc(O)c12
REMARK SMILES IDX 4 1 3 2 2 3 1 4 21 5 19 6 18 7 16 8 15 9 14 10 13 11 5 12
REMARK SMILES IDX 6 13 7 14 8 15 12 16 10 17 9 18 11 20 20 22 17 24
REMARK H PARENT 9 19 11 21 20 23 17 25
REMARK Flexibility Score: inf
ROOT
ATOM      1  C   UNL     1      30.974 -92.013  37.323  1.00  0.00     0.138 A 
ATOM      2  C   UNL     1      32.009 -92.780  37.875  1.00  0.00     0.100 A 
ATOM      3  C   UNL     1      31.838 -94.155  38.039  1.00  0.00     0.197 A 
ATOM      4  O   UNL     1      32.759 -94.807  38.593  1.00  0.00    -0.289 OA
ATOM      5  C   UNL     1      30.634 -94.769  37.617  1.00  0.00     0.107 A 
ATOM      6  C   UNL     1      30.363 -96.167  37.696  1.00  0.00     0.134 A 
ATOM      7  C   UNL     1      29.091 -96.644  37.357  1.00  0.00     0.093 A 
ATOM      8  C   UNL     1      28.101 -95.784  36.884  1.00  0.00     0.123 A 
ATOM      9  C   UNL     1      28.372 -94.422  36.750  1.00  0.00     0.094 A 
ATOM     10  C   UNL     1      29.620 -93.910  37.114  1.00  0.00     0.146 A 
ATOM     11  O   UNL     1      29.833 -92.604  36.986  1.00  0.00    -0.456 OA
ENDROOT
BRANCH   1  12
ATOM     12  C   UNL     1      31.104 -90.546  37.126  1.00  0.00     0.021 A 
ATOM     13  C   UNL     1      32.252 -90.033  36.501  1.00  0.00     0.016 A 
ATOM     14  C   UNL     1      32.402 -88.659  36.311  1.00  0.00     0.051 A 
ATOM     15  C   UNL     1      31.419 -87.765  36.749  1.00  0.00     0.157 A 
ATOM     16  C   UNL     1      30.121 -89.647  37.581  1.00  0.00     0.062 A 
ATOM     17  C   UNL     1      30.265 -88.266  37.397  1.00  0.00     0.158 A 
BRANCH  15  18
ATOM     18  O   UNL     1      31.627 -86.403  36.523  1.00  0.00    -0.504 OA
ATOM     19  H   UNL     1      32.432 -85.892  36.855  1.00  0.00     0.293 HD
ENDBRANCH  15  18
BRANCH  17  20
ATOM     20  O   UNL     1      29.250 -87.435  37.875  1.00  0.00    -0.504 OA
ATOM     21  H   UNL     1      29.335 -86.434  37.963  1.00  0.00     0.293 HD
ENDBRANCH  17  20
ENDBRANCH   1  12
BRANCH   6  22
ATOM     22  O   UNL     1      31.309 -97.125  38.075  1.00  0.00    -0.507 OA
ATOM     23  H   UNL     1      32.102 -96.948  38.672  1.00  0.00     0.293 HD
ENDBRANCH   6  22
BRANCH   8  24
ATOM     24  O   UNL     1      26.852 -96.297  36.540  1.00  0.00    -0.508 OA
ATOM     25  H   UNL     1      26.347 -95.963  35.727  1.00  0.00     0.293 HD
ENDBRANCH   8  24
TORSDOF 5
ENDMDL
MODEL 3
REMARK VINA RESULT:    -5.618      8.764     10.924
REMARK INTER + INTRA:          -6.870
REMARK INTER:                  -6.554
REMARK INTRA:                  -0.317
REMARK UNBOUND:                -0.267
REMARK SMILES O=c1cc(-c2ccc(O)c(O)c2)oc2cc(O)cc(O)c12
REMARK SMILES IDX 4 1 3 2 2 3 1 4 21 5 19 6 18 7 16 8 15 9 14 10 13 11 5 12
REMARK SMILES IDX 6 13 7 14 8 15 12 16 10 17 9 18 11 20 20 22 17 24
REMARK H PARENT 9 19 11 21 20 23 17 25
REMARK Flexibility Score: inf
ROOT
ATOM      1  C   UNL     1      40.305 -95.274  35.384  1.00  0.00     0.138 A 
ATOM      2  C   UNL     1      41.424 -95.485  34.565  1.00  0.00     0.100 A 
ATOM      3  C   UNL     1      41.265 -95.544  33.180  1.00  0.00     0.197 A 
ATOM      4  O   UNL     1      42.276 -95.796  32.476  1.00  0.00    -0.289 OA
ATOM      5  C   UNL     1      39.982 -95.359  32.611  1.00  0.00     0.107 A 
ATOM      6  C   UNL     1      39.707 -95.357  31.212  1.00  0.00     0.134 A 
ATOM      7  C   UNL     1      38.380 -95.281  30.769  1.00  0.00     0.093 A 
ATOM      8  C   UNL     1      37.325 -95.145  31.672  1.00  0.00     0.123 A 
ATOM      9  C   UNL     1      37.588 -95.091  33.041  1.00  0.00     0.094 A 
ATOM     10  C   UNL     1      38.898 -95.199  33.516  1.00  0.00     0.146 A 
ATOM     11  O   UNL     1      39.104 -95.158  34.828  1.00  0.00    -0.456 OA
ENDROOT
BRANCH   1  12
ATOM     12  C   UNL     1      40.419 -95.202  36.863  1.00  0.00     0.021 A 
ATOM     13  C   UNL     1      41.637 -95.532  37.478  1.00  0.00     0.016 A 
ATOM     14  C   UNL     1      41.768 -95.479  38.866  1.00  0.00     0.051 A 
ATOM     15  C   UNL     1      40.687 -95.108  39.673  1.00  0.00     0.157 A 
ATOM     16  C   UNL     1      39.326 -94.842  37.673  1.00  0.00     0.062 A 
ATOM     17  C   UNL     1      39.449 -94.789  39.068  1.00  0.00     0.158 A 
BRANCH  15  18
ATOM     18  O   UNL     1      40.885 -95.069  41.054  1.00  0.00    -0.504 OA
ATOM     19  H   UNL     1      40.783 -94.236  41.616  1.00  0.00     0.293 HD
ENDBRANCH  15  18
BRANCH  17  20
ATOM     20  O   UNL     1      38.321 -94.425  39.807  1.00  0.00    -0.504 OA
ATOM     21  H   UNL     1      37.393 -94.783  39.635  1.00  0.00     0.293 HD
ENDBRANCH  17  20
ENDBRANCH   1  12
BRANCH   6  22
ATOM     22  O   UNL     1      40.693 -95.403  30.221  1.00  0.00    -0.507 OA
ATOM     23  H   UNL     1      41.680 -95.283  30.385  1.00  0.00     0.293 HD
ENDBRANCH   6  22
BRANCH   8  24
ATOM     24  O   UNL     1      36.020 -95.056  31.195  1.00  0.00    -0.508 OA
ATOM     25  H   UNL     1      35.223 -95.129  31.816  1.00  0.00     0.293 HD
ENDBRANCH   8  24
TORSDOF 5
ENDMDL
MODEL 4
REMARK VINA RESULT:    -5.599     15.258     17.331
REMARK INTER + INTRA:          -6.848
REMARK INTER:                  -6.554
REMARK INTRA:                  -0.294
REMARK UNBOUND:                -0.267
REMARK SMILES O=c1cc(-c2ccc(O)c(O)c2)oc2cc(O)cc(O)c12
REMARK SMILES IDX 4 1 3 2 2 3 1 4 21 5 19 6 18 7 16 8 15 9 14 10 13 11 5 12
REMARK SMILES IDX 6 13 7 14 8 15 12 16 10 17 9 18 11 20 20 22 17 24
REMARK H PARENT 9 19 11 21 20 23 17 25
REMARK Flexibility Score: inf
ROOT
ATOM      1  C   UNL     1      37.587 -77.469  34.283  1.00  0.00     0.138 A 
ATOM      2  C   UNL     1      37.851 -77.218  35.637  1.00  0.00     0.100 A 
ATOM      3  C   UNL     1      36.808 -77.263  36.563  1.00  0.00     0.197 A 
ATOM      4  O   UNL     1      37.064 -76.973  37.760  1.00  0.00    -0.289 OA
ATOM      5  C   UNL     1      35.500 -77.593  36.134  1.00  0.00     0.107 A 
ATOM      6  C   UNL     1      34.368 -77.708  36.994  1.00  0.00     0.134 A 
ATOM      7  C   UNL     1      33.100 -77.925  36.441  1.00  0.00     0.093 A 
ATOM      8  C   UNL     1      32.932 -78.090  35.066  1.00  0.00     0.123 A 
ATOM      9  C   UNL     1      34.040 -78.033  34.220  1.00  0.00     0.094 A 
ATOM     10  C   UNL     1      35.314 -77.784  34.739  1.00  0.00     0.146 A 
ATOM     11  O   UNL     1      36.341 -77.722  33.898  1.00  0.00    -0.456 OA
ENDROOT
BRANCH   1  12
ATOM     12  C   UNL     1      38.661 -77.435  33.257  1.00  0.00     0.021 A 
ATOM     13  C   UNL     1      38.315 -77.336  31.900  1.00  0.00     0.016 A 
ATOM     14  C   UNL     1      39.304 -77.309  30.916  1.00  0.00     0.051 A 
ATOM     15  C   UNL     1      40.658 -77.391  31.260  1.00  0.00     0.157 A 
ATOM     16  C   UNL     1      40.021 -77.532  33.605  1.00  0.00     0.062 A 
ATOM     17  C   UNL     1      41.020 -77.508  32.623  1.00  0.00     0.158 A 
BRANCH  15  18
ATOM     18  O   UNL     1      41.598 -77.352  30.229  1.00  0.00    -0.504 OA
ATOM     19  H   UNL     1      41.600 -76.661  29.493  1.00  0.00     0.293 HD
ENDBRANCH  15  18
BRANCH  17  20
ATOM     20  O   UNL     1      42.348 -77.610  33.042  1.00  0.00    -0.504 OA
ATOM     21  H   UNL     1      43.138 -77.633  32.415  1.00  0.00     0.293 HD
ENDBRANCH  17  20
ENDBRANCH   1  12
BRANCH   6  22
ATOM     22  O   UNL     1      34.437 -77.644  38.389  1.00  0.00    -0.507 OA
ATOM     23  H   UNL     1      34.100 -78.358  39.017  1.00  0.00     0.293 HD
ENDBRANCH   6  22
BRANCH   8  24
ATOM     24  O   UNL     1      31.657 -78.320  34.552  1.00  0.00    -0.508 OA
ATOM     25  H   UNL     1      31.514 -78.887  33.725  1.00  0.00     0.293 HD
ENDBRANCH   8  24
TORSDOF 5
ENDMDL
MODEL 5
REMARK VINA RESULT:    -5.572     15.316     17.510
REMARK INTER + INTRA:          -6.816
REMARK INTER:                  -6.498
REMARK INTRA:                  -0.318
REMARK UNBOUND:                -0.267
REMARK SMILES O=c1cc(-c2ccc(O)c(O)c2)oc2cc(O)cc(O)c12
REMARK SMILES IDX 4 1 3 2 2 3 1 4 21 5 19 6 18 7 16 8 15 9 14 10 13 11 5 12
REMARK SMILES IDX 6 13 7 14 8 15 12 16 10 17 9 18 11 20 20 22 17 24
REMARK H PARENT 9 19 11 21 20 23 17 25
REMARK Flexibility Score: inf
ROOT
ATOM      1  C   UNL     1      36.433 -77.527  33.622  1.00  0.00     0.138 A 
ATOM      2  C   UNL     1      36.002 -77.280  32.311  1.00  0.00     0.100 A 
ATOM      3  C   UNL     1      36.941 -77.157  31.287  1.00  0.00     0.197 A 
ATOM      4  O   UNL     1      36.529 -76.875  30.133  1.00  0.00    -0.289 OA
ATOM      5  C   UNL     1      38.319 -77.314  31.573  1.00  0.00     0.107 A 
ATOM      6  C   UNL     1      39.363 -77.250  30.603  1.00  0.00     0.134 A 
ATOM      7  C   UNL     1      40.698 -77.304  31.022  1.00  0.00     0.093 A 
ATOM      8  C   UNL     1      41.026 -77.479  32.367  1.00  0.00     0.123 A 
ATOM      9  C   UNL     1      40.012 -77.597  33.318  1.00  0.00     0.094 A 
ATOM     10  C   UNL     1      38.670 -77.513  32.935  1.00  0.00     0.146 A 
ATOM     11  O   UNL     1      37.735 -77.615  33.874  1.00  0.00    -0.456 OA
ENDROOT
BRANCH   1  12
ATOM     12  C   UNL     1      35.475 -77.666  34.749  1.00  0.00     0.021 A 
ATOM     13  C   UNL     1      34.107 -77.451  34.522  1.00  0.00     0.016 A 
ATOM     14  C   UNL     1      33.187 -77.569  35.564  1.00  0.00     0.051 A 
ATOM     15  C   UNL     1      33.611 -77.894  36.858  1.00  0.00     0.157 A 
ATOM     16  C   UNL     1      35.905 -77.979  36.052  1.00  0.00     0.062 A 
ATOM     17  C   UNL     1      34.989 -78.097  37.105  1.00  0.00     0.158 A 
BRANCH  15  18
ATOM     18  O   UNL     1      32.640 -78.003  37.855  1.00  0.00    -0.504 OA
ATOM     19  H   UNL     1      32.364 -77.244  38.460  1.00  0.00     0.293 HD
ENDBRANCH  15  18
BRANCH  17  20
ATOM     20  O   UNL     1      35.488 -78.408  38.371  1.00  0.00    -0.504 OA
ATOM     21  H   UNL     1      36.453 -78.289  38.643  1.00  0.00     0.293 HD
ENDBRANCH  17  20
ENDBRANCH   1  12
BRANCH   6  22
ATOM     22  O   UNL     1      39.144 -77.161  29.225  1.00  0.00    -0.507 OA
ATOM     23  H   UNL     1      38.332 -77.517  28.746  1.00  0.00     0.293 HD
ENDBRANCH   6  22
BRANCH   8  24
ATOM     24  O   UNL     1      42.365 -77.543  32.745  1.00  0.00    -0.508 OA
ATOM     25  H   UNL     1      42.721 -78.308  33.306  1.00  0.00     0.293 HD
ENDBRANCH   8  24
TORSDOF 5
ENDMDL
MODEL 6
REMARK VINA RESULT:    -5.526     15.658     17.219
REMARK INTER + INTRA:          -6.761
REMARK INTER:                  -6.446
REMARK INTRA:                  -0.316
REMARK UNBOUND:                -0.267
REMARK SMILES O=c1cc(-c2ccc(O)c(O)c2)oc2cc(O)cc(O)c12
REMARK SMILES IDX 4 1 3 2 2 3 1 4 21 5 19 6 18 7 16 8 15 9 14 10 13 11 5 12
REMARK SMILES IDX 6 13 7 14 8 15 12 16 10 17 9 18 11 20 20 22 17 24
REMARK H PARENT 9 19 11 21 20 23 17 25
REMARK Flexibility Score: inf
ROOT
ATOM      1  C   UNL     1      37.985 -77.569  34.615  1.00  0.00     0.138 A 
ATOM      2  C   UNL     1      36.621 -77.306  34.426  1.00  0.00     0.100 A 
ATOM      3  C   UNL     1      35.741 -77.414  35.504  1.00  0.00     0.197 A 
ATOM      4  O   UNL     1      34.515 -77.233  35.291  1.00  0.00    -0.289 OA
ATOM      5  C   UNL     1      36.237 -77.755  36.785  1.00  0.00     0.107 A 
ATOM      6  C   UNL     1      35.441 -77.854  37.965  1.00  0.00     0.134 A 
ATOM      7  C   UNL     1      36.022 -78.314  39.153  1.00  0.00     0.093 A 
ATOM      8  C   UNL     1      37.381 -78.621  39.220  1.00  0.00     0.123 A 
ATOM      9  C   UNL     1      38.181 -78.476  38.086  1.00  0.00     0.094 A 
ATOM     10  C   UNL     1      37.623 -78.052  36.876  1.00  0.00     0.146 A 
ATOM     11  O   UNL     1      38.416 -77.941  35.815  1.00  0.00    -0.456 OA
ENDROOT
BRANCH   1  12
ATOM     12  C   UNL     1      38.963 -77.468  33.502  1.00  0.00     0.021 A 
ATOM     13  C   UNL     1      38.499 -77.386  32.180  1.00  0.00     0.016 A 
ATOM     14  C   UNL     1      39.397 -77.298  31.116  1.00  0.00     0.051 A 
ATOM     15  C   UNL     1      40.778 -77.301  31.345  1.00  0.00     0.157 A 
ATOM     16  C   UNL     1      40.352 -77.486  33.733  1.00  0.00     0.062 A 
ATOM     17  C   UNL     1      41.261 -77.401  32.670  1.00  0.00     0.158 A 
BRANCH  15  18
ATOM     18  O   UNL     1      41.623 -77.204  30.238  1.00  0.00    -0.504 OA
ATOM     19  H   UNL     1      41.382 -76.723  29.383  1.00  0.00     0.293 HD
ENDBRANCH  15  18
BRANCH  17  20
ATOM     20  O   UNL     1      42.623 -77.426  32.975  1.00  0.00    -0.504 OA
ATOM     21  H   UNL     1      43.355 -77.511  32.285  1.00  0.00     0.293 HD
ENDBRANCH  17  20
ENDBRANCH   1  12
BRANCH   6  22
ATOM     22  O   UNL     1      34.092 -77.492  38.029  1.00  0.00    -0.507 OA
ATOM     23  H   UNL     1      33.670 -76.969  38.781  1.00  0.00     0.293 HD
ENDBRANCH   6  22
BRANCH   8  24
ATOM     24  O   UNL     1      37.928 -79.061  40.423  1.00  0.00    -0.508 OA
ATOM     25  H   UNL     1      38.876 -79.414  40.476  1.00  0.00     0.293 HD
ENDBRANCH   8  24
TORSDOF 5
ENDMDL
MODEL 7
REMARK VINA RESULT:    -5.486     14.804     16.166
REMARK INTER + INTRA:          -6.715
REMARK INTER:                  -6.400
REMARK INTRA:                  -0.316
REMARK UNBOUND:                -0.267
REMARK SMILES O=c1cc(-c2ccc(O)c(O)c2)oc2cc(O)cc(O)c12
REMARK SMILES IDX 4 1 3 2 2 3 1 4 21 5 19 6 18 7 16 8 15 9 14 10 13 11 5 12
REMARK SMILES IDX 6 13 7 14 8 15 12 16 10 17 9 18 11 20 20 22 17 24
REMARK H PARENT 9 19 11 21 20 23 17 25
REMARK Flexibility Score: inf
ROOT
ATOM      1  C   UNL     1      36.917 -78.226  37.225  1.00  0.00     0.138 A 
ATOM      2  C   UNL     1      38.070 -77.720  36.609  1.00  0.00     0.100 A 
ATOM      3  C   UNL     1      39.296 -77.796  37.270  1.00  0.00     0.197 A 
ATOM      4  O   UNL     1      40.301 -77.278  36.719  1.00  0.00    -0.289 OA
ATOM      5  C   UNL     1      39.372 -78.412  38.542  1.00  0.00     0.107 A 
ATOM      6  C   UNL     1      40.574 -78.583  39.292  1.00  0.00     0.134 A 
ATOM      7  C   UNL     1      40.508 -79.101  40.591  1.00  0.00     0.093 A 
ATOM      8  C   UNL     1      39.295 -79.511  41.145  1.00  0.00     0.123 A 
ATOM      9  C   UNL     1      38.121 -79.399  40.400  1.00  0.00     0.094 A 
ATOM     10  C   UNL     1      38.148 -78.853  39.113  1.00  0.00     0.146 A 
ATOM     11  O   UNL     1      37.005 -78.749  38.443  1.00  0.00    -0.456 OA
ENDROOT
BRANCH   1  12
ATOM     12  C   UNL     1      35.587 -78.170  36.565  1.00  0.00     0.021 A 
ATOM     13  C   UNL     1      35.508 -77.866  35.197  1.00  0.00     0.016 A 
ATOM     14  C   UNL     1      34.271 -77.801  34.555  1.00  0.00     0.051 A 
ATOM     15  C   UNL     1      33.085 -78.027  35.263  1.00  0.00     0.157 A 
ATOM     16  C   UNL     1      34.395 -78.384  37.282  1.00  0.00     0.062 A 
ATOM     17  C   UNL     1      33.148 -78.317  36.646  1.00  0.00     0.158 A 
BRANCH  15  18
ATOM     18  O   UNL     1      31.881 -77.953  34.561  1.00  0.00    -0.504 OA
ATOM     19  H   UNL     1      30.991 -77.738  34.986  1.00  0.00     0.293 HD
ENDBRANCH  15  18
BRANCH  17  20
ATOM     20  O   UNL     1      32.008 -78.538  37.422  1.00  0.00    -0.504 OA
ATOM     21  H   UNL     1      31.735 -77.959  38.201  1.00  0.00     0.293 HD
ENDBRANCH  17  20
ENDBRANCH   1  12
BRANCH   6  22
ATOM     22  O   UNL     1      41.849 -78.285  38.802  1.00  0.00    -0.507 OA
ATOM     23  H   UNL     1      42.617 -77.947  39.360  1.00  0.00     0.293 HD
ENDBRANCH   6  22
BRANCH   8  24
ATOM     24  O   UNL     1      39.271 -80.037  42.434  1.00  0.00    -0.508 OA
ATOM     25  H   UNL     1      38.675 -79.647  43.154  1.00  0.00     0.293 HD
ENDBRANCH   8  24
TORSDOF 5
ENDMDL
MODEL 8
REMARK VINA RESULT:    -5.474      9.356     11.264
REMARK INTER + INTRA:          -6.701
REMARK INTER:                  -6.383
REMARK INTRA:                  -0.318
REMARK UNBOUND:                -0.267
REMARK SMILES O=c1cc(-c2ccc(O)c(O)c2)oc2cc(O)cc(O)c12
REMARK SMILES IDX 4 1 3 2 2 3 1 4 21 5 19 6 18 7 16 8 15 9 14 10 13 11 5 12
REMARK SMILES IDX 6 13 7 14 8 15 12 16 10 17 9 18 11 20 20 22 17 24
REMARK H PARENT 9 19 11 21 20 23 17 25
REMARK Flexibility Score: inf
ROOT
ATOM      1  C   UNL     1      39.816 -95.370  32.637  1.00  0.00     0.138 A 
ATOM      2  C   UNL     1      40.570 -95.707  31.504  1.00  0.00     0.100 A 
ATOM      3  C   UNL     1      39.935 -95.862  30.272  1.00  0.00     0.197 A 
ATOM      4  O   UNL     1      40.628 -96.224  29.287  1.00  0.00    -0.289 OA
ATOM      5  C   UNL     1      38.539 -95.647  30.169  1.00  0.00     0.107 A 
ATOM      6  C   UNL     1      37.791 -95.735  28.957  1.00  0.00     0.134 A 
ATOM      7  C   UNL     1      36.396 -95.617  28.998  1.00  0.00     0.093 A 
ATOM      8  C   UNL     1      35.729 -95.352  30.194  1.00  0.00     0.123 A 
ATOM      9  C   UNL     1      36.456 -95.209  31.376  1.00  0.00     0.094 A 
ATOM     10  C   UNL     1      37.846 -95.357  31.374  1.00  0.00     0.146 A 
ATOM     11  O   UNL     1      38.500 -95.228  32.524  1.00  0.00    -0.456 OA
ENDROOT
BRANCH   1  12
ATOM     12  C   UNL     1      40.443 -95.193  33.972  1.00  0.00     0.021 A 
ATOM     13  C   UNL     1      41.831 -95.351  34.109  1.00  0.00     0.016 A 
ATOM     14  C   UNL     1      42.443 -95.197  35.353  1.00  0.00     0.051 A 
ATOM     15  C   UNL     1      41.686 -94.893  36.490  1.00  0.00     0.157 A 
ATOM     16  C   UNL     1      39.678 -94.902  35.117  1.00  0.00     0.062 A 
ATOM     17  C   UNL     1      40.284 -94.748  36.370  1.00  0.00     0.158 A 
BRANCH  15  18
ATOM     18  O   UNL     1      42.360 -94.746  37.703  1.00  0.00    -0.504 OA
ATOM     19  H   UNL     1      42.832 -95.499  38.183  1.00  0.00     0.293 HD
ENDBRANCH  15  18
BRANCH  17  20
ATOM     20  O   UNL     1      39.462 -94.461  37.461  1.00  0.00    -0.504 OA
ATOM     21  H   UNL     1      38.505 -94.151  37.381  1.00  0.00     0.293 HD
ENDBRANCH  17  20
ENDBRANCH   1  12
BRANCH   6  22
ATOM     22  O   UNL     1      38.366 -95.913  27.695  1.00  0.00    -0.507 OA
ATOM     23  H   UNL     1      38.524 -96.805  27.254  1.00  0.00     0.293 HD
ENDBRANCH   6  22
BRANCH   8  24
ATOM     24  O   UNL     1      34.342 -95.224  30.193  1.00  0.00    -0.508 OA
ATOM     25  H   UNL     1      33.845 -94.833  30.985  1.00  0.00     0.293 HD
ENDBRANCH   8  24
TORSDOF 5
ENDMDL
MODEL 9
REMARK VINA RESULT:    -5.442      9.488     10.913
REMARK INTER + INTRA:          -6.663
REMARK INTER:                  -6.356
REMARK INTRA:                  -0.307
REMARK UNBOUND:                -0.267
REMARK SMILES O=c1cc(-c2ccc(O)c(O)c2)oc2cc(O)cc(O)c12
REMARK SMILES IDX 4 1 3 2 2 3 1 4 21 5 19 6 18 7 16 8 15 9 14 10 13 11 5 12
REMARK SMILES IDX 6 13 7 14 8 15 12 16 10 17 9 18 11 20 20 22 17 24
REMARK H PARENT 9 19 11 21 20 23 17 25
REMARK Flexibility Score: inf
ROOT
ATOM      1  C   UNL     1      36.356 -95.515  29.502  1.00  0.00     0.138 A 
ATOM      2  C   UNL     1      37.482 -95.834  28.731  1.00  0.00     0.100 A 
ATOM      3  C   UNL     1      38.747 -95.828  29.320  1.00  0.00     0.197 A 
ATOM      4  O   UNL     1      39.745 -96.058  28.589  1.00  0.00    -0.289 OA
ATOM      5  C   UNL     1      38.880 -95.531  30.698  1.00  0.00     0.107 A 
ATOM      6  C   UNL     1      40.113 -95.535  31.415  1.00  0.00     0.134 A 
ATOM      7  C   UNL     1      40.136 -95.111  32.749  1.00  0.00     0.093 A 
ATOM      8  C   UNL     1      38.964 -94.742  33.410  1.00  0.00     0.123 A 
ATOM      9  C   UNL     1      37.745 -94.786  32.734  1.00  0.00     0.094 A 
ATOM     10  C   UNL     1      37.693 -95.172  31.391  1.00  0.00     0.146 A 
ATOM     11  O   UNL     1      36.513 -95.186  30.780  1.00  0.00    -0.456 OA
ENDROOT
BRANCH   1  12
ATOM     12  C   UNL     1      34.988 -95.507  28.924  1.00  0.00     0.021 A 
ATOM     13  C   UNL     1      34.816 -95.225  27.560  1.00  0.00     0.016 A 
ATOM     14  C   UNL     1      33.541 -95.206  26.994  1.00  0.00     0.051 A 
ATOM     15  C   UNL     1      32.408 -95.454  27.777  1.00  0.00     0.157 A 
ATOM     16  C   UNL     1      33.848 -95.744  29.716  1.00  0.00     0.062 A 
ATOM     17  C   UNL     1      32.564 -95.722  29.157  1.00  0.00     0.158 A 
BRANCH  15  18
ATOM     18  O   UNL     1      31.161 -95.425  27.149  1.00  0.00    -0.504 OA
ATOM     19  H   UNL     1      30.636 -96.250  26.897  1.00  0.00     0.293 HD
ENDBRANCH  15  18
BRANCH  17  20
ATOM     20  O   UNL     1      31.480 -95.964  30.004  1.00  0.00    -0.504 OA
ATOM     21  H   UNL     1      30.543 -96.152  29.681  1.00  0.00     0.293 HD
ENDBRANCH  17  20
ENDBRANCH   1  12
BRANCH   6  22
ATOM     22  O   UNL     1      41.329 -95.966  30.876  1.00  0.00    -0.507 OA
ATOM     23  H   UNL     1      41.920 -96.675  31.281  1.00  0.00     0.293 HD
ENDBRANCH   6  22
BRANCH   8  24
ATOM     24  O   UNL     1      39.024 -94.340  34.743  1.00  0.00    -0.508 OA
ATOM     25  H   UNL     1      39.899 -94.071  35.176  1.00  0.00     0.293 HD
ENDBRANCH   8  24
TORSDOF 5
ENDMDL
