MODEL 1
REMARK VINA RESULT:    -3.741      0.000      0.000
REMARK INTER + INTRA:          -4.768
REMARK INTER:                  -4.616
REMARK INTRA:                  -0.152
REMARK UNBOUND:                -0.152
REMARK SMILES CCCCCC(=O)[O-]
REMARK SMILES IDX 4 1 5 2 6 3 7 4 8 5 3 6 2 7 1 8
REMARK H PARENT
REMARK Flexibility Score: inf
ROOT
ATOM      1  C   UNL     1      19.879  53.933  14.369  1.00  0.00     0.006 C 
ENDROOT
BRANCH   1   2
ATOM      2  C   UNL     1      19.915  52.884  15.492  1.00  0.00     0.053 C 
BRANCH   2   3
ATOM      3  C   UNL     1      20.896  53.245  16.564  1.00  0.00     0.041 C 
ATOM      4  O   UNL     1      22.112  53.408  16.283  1.00  0.00    -0.550 OA
ATOM      5  O   UNL     1      20.472  53.368  17.881  1.00  0.00    -0.550 OA
ENDBRANCH   2   3
ENDBRANCH   1   2
BRANCH   1   6
ATOM      6  C   UNL     1      19.304  55.301  14.789  1.00  0.00     0.000 C 
BRANCH   6   7
ATOM      7  C   UNL     1      17.928  55.638  14.189  1.00  0.00    -0.003 C 
ATOM      8  C   UNL     1      17.688  54.973  12.834  1.00  0.00     0.004 C 
ENDBRANCH   6   7
ENDBRANCH   1   6
TORSDOF 4
ENDMDL
MODEL 2
REMARK VINA RESULT:    -3.680      1.873      2.237
REMARK INTER + INTRA:          -4.693
REMARK INTER:                  -4.566
REMARK INTRA:                  -0.127
REMARK UNBOUND:                -0.152
REMARK SMILES CCCCCC(=O)[O-]
REMARK SMILES IDX 4 1 5 2 6 3 7 4 8 5 3 6 2 7 1 8
REMARK H PARENT
REMARK Flexibility Score: inf
ROOT
ATOM      1  C   UNL     1      20.693  54.088  15.137  1.00  0.00     0.006 C 
ENDROOT
BRANCH   1   2
ATOM      2  C   UNL     1      21.042  55.508  15.607  1.00  0.00     0.053 C 
BRANCH   2   3
ATOM      3  C   UNL     1      20.658  55.736  17.036  1.00  0.00     0.041 C 
ATOM      4  O   UNL     1      20.330  54.766  17.768  1.00  0.00    -0.550 OA
ATOM      5  O   UNL     1      20.629  57.027  17.550  1.00  0.00    -0.550 OA
ENDBRANCH   2   3
ENDBRANCH   1   2
BRANCH   1   6
ATOM      6  C   UNL     1      19.717  54.029  13.944  1.00  0.00     0.000 C 
BRANCH   6   7
ATOM      7  C   UNL     1      18.452  54.891  14.099  1.00  0.00    -0.003 C 
ATOM      8  C   UNL     1      17.662  55.032  12.799  1.00  0.00     0.004 C 
ENDBRANCH   6   7
ENDBRANCH   1   6
TORSDOF 4
ENDMDL
MODEL 3
REMARK VINA RESULT:    -3.666     14.085     14.850
REMARK INTER + INTRA:          -4.675
REMARK INTER:                  -4.460
REMARK INTRA:                  -0.215
REMARK UNBOUND:                -0.152
REMARK SMILES CCCCCC(=O)[O-]
REMARK SMILES IDX 4 1 5 2 6 3 7 4 8 5 3 6 2 7 1 8
REMARK H PARENT
REMARK Flexibility Score: inf
ROOT
ATOM      1  C   UNL     1      25.499  64.093   6.849  1.00  0.00     0.006 C 
ENDROOT
BRANCH   1   2
ATOM      2  C   UNL     1      24.200  64.029   7.667  1.00  0.00     0.053 C 
BRANCH   2   3
ATOM      3  C   UNL     1      23.022  63.659   6.821  1.00  0.00     0.041 C 
ATOM      4  O   UNL     1      22.428  64.536   6.141  1.00  0.00    -0.550 OA
ATOM      5  O   UNL     1      22.559  62.349   6.810  1.00  0.00    -0.550 OA
ENDBRANCH   2   3
ENDBRANCH   1   2
BRANCH   1   6
ATOM      6  C   UNL     1      25.856  65.498   6.322  1.00  0.00     0.000 C 
BRANCH   6   7
ATOM      7  C   UNL     1      25.731  65.670   4.798  1.00  0.00    -0.003 C 
ATOM      8  C   UNL     1      24.700  66.725   4.398  1.00  0.00     0.004 C 
ENDBRANCH   6   7
ENDBRANCH   1   6
TORSDOF 4
ENDMDL
MODEL 4
REMARK VINA RESULT:    -3.623      1.255      1.838
REMARK INTER + INTRA:          -4.622
REMARK INTER:                  -4.393
REMARK INTRA:                  -0.230
REMARK UNBOUND:                -0.152
REMARK SMILES CCCCCC(=O)[O-]
REMARK SMILES IDX 4 1 5 2 6 3 7 4 8 5 3 6 2 7 1 8
REMARK H PARENT
REMARK Flexibility Score: inf
ROOT
ATOM      1  C   UNL     1      19.500  54.050  13.630  1.00  0.00     0.006 C 
ENDROOT
BRANCH   1   2
ATOM      2  C   UNL     1      19.834  53.422  14.992  1.00  0.00     0.053 C 
BRANCH   2   3
ATOM      3  C   UNL     1      21.062  54.024  15.600  1.00  0.00     0.041 C 
ATOM      4  O   UNL     1      21.868  53.305  16.248  1.00  0.00    -0.550 OA
ATOM      5  O   UNL     1      21.301  55.388  15.480  1.00  0.00    -0.550 OA
ENDBRANCH   2   3
ENDBRANCH   1   2
BRANCH   1   6
ATOM      6  C   UNL     1      18.186  54.856  13.601  1.00  0.00     0.000 C 
BRANCH   6   7
ATOM      7  C   UNL     1      17.538  55.087  14.978  1.00  0.00    -0.003 C 
ATOM      8  C   UNL     1      17.837  56.470  15.555  1.00  0.00     0.004 C 
ENDBRANCH   6   7
ENDBRANCH   1   6
TORSDOF 4
ENDMDL
MODEL 5
REMARK VINA RESULT:    -3.558      2.167      2.854
REMARK INTER + INTRA:          -4.543
REMARK INTER:                  -4.401
REMARK INTRA:                  -0.142
REMARK UNBOUND:                -0.152
REMARK SMILES CCCCCC(=O)[O-]
REMARK SMILES IDX 4 1 5 2 6 3 7 4 8 5 3 6 2 7 1 8
REMARK H PARENT
REMARK Flexibility Score: inf
ROOT
ATOM      1  C   UNL     1      18.868  56.249  15.196  1.00  0.00     0.006 C 
ENDROOT
BRANCH   1   2
ATOM      2  C   UNL     1      18.267  56.199  16.609  1.00  0.00     0.053 C 
BRANCH   2   3
ATOM      3  C   UNL     1      19.324  56.244  17.669  1.00  0.00     0.041 C 
ATOM      4  O   UNL     1      19.854  57.340  17.990  1.00  0.00    -0.550 OA
ATOM      5  O   UNL     1      19.748  55.070  18.279  1.00  0.00    -0.550 OA
ENDBRANCH   2   3
ENDBRANCH   1   2
BRANCH   1   6
ATOM      6  C   UNL     1      19.514  54.930  14.727  1.00  0.00     0.000 C 
BRANCH   6   7
ATOM      7  C   UNL     1      18.884  54.313  13.465  1.00  0.00    -0.003 C 
ATOM      8  C   UNL     1      17.750  55.160  12.888  1.00  0.00     0.004 C 
ENDBRANCH   6   7
ENDBRANCH   1   6
TORSDOF 4
ENDMDL
MODEL 6
REMARK VINA RESULT:    -3.508      2.153      3.360
REMARK INTER + INTRA:          -4.480
REMARK INTER:                  -4.267
REMARK INTRA:                  -0.213
REMARK UNBOUND:                -0.152
REMARK SMILES CCCCCC(=O)[O-]
REMARK SMILES IDX 4 1 5 2 6 3 7 4 8 5 3 6 2 7 1 8
REMARK H PARENT
REMARK Flexibility Score: inf
ROOT
ATOM      1  C   UNL     1      18.019  55.930  14.864  1.00  0.00     0.006 C 
ENDROOT
BRANCH   1   2
ATOM      2  C   UNL     1      19.250  56.606  15.487  1.00  0.00     0.053 C 
BRANCH   2   3
ATOM      3  C   UNL     1      19.263  56.482  16.979  1.00  0.00     0.041 C 
ATOM      4  O   UNL     1      18.537  55.627  17.551  1.00  0.00    -0.550 OA
ATOM      5  O   UNL     1      20.052  57.335  17.741  1.00  0.00    -0.550 OA
ENDBRANCH   2   3
ENDBRANCH   1   2
BRANCH   1   6
ATOM      6  C   UNL     1      18.344  54.859  13.803  1.00  0.00     0.000 C 
BRANCH   6   7
ATOM      7  C   UNL     1      19.666  54.103  14.030  1.00  0.00    -0.003 C 
ATOM      8  C   UNL     1      19.534  52.955  15.030  1.00  0.00     0.004 C 
ENDBRANCH   6   7
ENDBRANCH   1   6
TORSDOF 4
ENDMDL
MODEL 7
REMARK VINA RESULT:    -3.485      1.903      2.846
REMARK INTER + INTRA:          -4.452
REMARK INTER:                  -4.201
REMARK INTRA:                  -0.251
REMARK UNBOUND:                -0.152
REMARK SMILES CCCCCC(=O)[O-]
REMARK SMILES IDX 4 1 5 2 6 3 7 4 8 5 3 6 2 7 1 8
REMARK H PARENT
REMARK Flexibility Score: inf
ROOT
ATOM      1  C   UNL     1      17.956  55.465  13.587  1.00  0.00     0.006 C 
ENDROOT
BRANCH   1   2
ATOM      2  C   UNL     1      18.765  54.196  13.278  1.00  0.00     0.053 C 
BRANCH   2   3
ATOM      3  C   UNL     1      19.724  53.861  14.377  1.00  0.00     0.041 C 
ATOM      4  O   UNL     1      20.710  54.609  14.610  1.00  0.00    -0.550 OA
ATOM      5  O   UNL     1      19.548  52.703  15.124  1.00  0.00    -0.550 OA
ENDBRANCH   2   3
ENDBRANCH   1   2
BRANCH   1   6
ATOM      6  C   UNL     1      17.309  55.487  14.987  1.00  0.00     0.000 C 
BRANCH   6   7
ATOM      7  C   UNL     1      17.660  56.716  15.844  1.00  0.00    -0.003 C 
ATOM      8  C   UNL     1      18.507  56.369  17.068  1.00  0.00     0.004 C 
ENDBRANCH   6   7
ENDBRANCH   1   6
TORSDOF 4
ENDMDL
MODEL 8
REMARK VINA RESULT:    -3.480      2.316      3.809
REMARK INTER + INTRA:          -4.446
REMARK INTER:                  -4.193
REMARK INTRA:                  -0.253
REMARK UNBOUND:                -0.152
REMARK SMILES CCCCCC(=O)[O-]
REMARK SMILES IDX 4 1 5 2 6 3 7 4 8 5 3 6 2 7 1 8
REMARK H PARENT
REMARK Flexibility Score: inf
ROOT
ATOM      1  C   UNL     1      19.760  54.144  14.086  1.00  0.00     0.006 C 
ENDROOT
BRANCH   1   2
ATOM      2  C   UNL     1      18.591  55.135  13.974  1.00  0.00     0.053 C 
BRANCH   2   3
ATOM      3  C   UNL     1      18.498  56.029  15.171  1.00  0.00     0.041 C 
ATOM      4  O   UNL     1      19.515  56.650  15.581  1.00  0.00    -0.550 OA
ATOM      5  O   UNL     1      17.296  56.152  15.856  1.00  0.00    -0.550 OA
ENDBRANCH   2   3
ENDBRANCH   1   2
BRANCH   1   6
ATOM      6  C   UNL     1      19.496  52.945  15.019  1.00  0.00     0.000 C 
BRANCH   6   7
ATOM      7  C   UNL     1      20.334  52.932  16.310  1.00  0.00    -0.003 C 
ATOM      8  C   UNL     1      21.642  53.713  16.181  1.00  0.00     0.004 C 
ENDBRANCH   6   7
ENDBRANCH   1   6
TORSDOF 4
ENDMDL
MODEL 9
REMARK VINA RESULT:    -3.478     12.837     13.710
REMARK INTER + INTRA:          -4.443
REMARK INTER:                  -4.326
REMARK INTRA:                  -0.117
REMARK UNBOUND:                -0.152
REMARK SMILES CCCCCC(=O)[O-]
REMARK SMILES IDX 4 1 5 2 6 3 7 4 8 5 3 6 2 7 1 8
REMARK H PARENT
REMARK Flexibility Score: inf
ROOT
ATOM      1  C   UNL     1      25.355  64.158   7.412  1.00  0.00     0.006 C 
ENDROOT
BRANCH   1   2
ATOM      2  C   UNL     1      23.935  64.058   7.991  1.00  0.00     0.053 C 
BRANCH   2   3
ATOM      3  C   UNL     1      22.935  63.653   6.954  1.00  0.00     0.041 C 
ATOM      4  O   UNL     1      22.571  62.451   6.857  1.00  0.00    -0.550 OA
ATOM      5  O   UNL     1      22.428  64.598   6.070  1.00  0.00    -0.550 OA
ENDBRANCH   2   3
ENDBRANCH   1   2
BRANCH   1   6
ATOM      6  C   UNL     1      26.342  63.103   7.951  1.00  0.00     0.000 C 
BRANCH   6   7
ATOM      7  C   UNL     1      26.942  62.172   6.882  1.00  0.00    -0.003 C 
ATOM      8  C   UNL     1      26.412  60.742   6.969  1.00  0.00     0.004 C 
ENDBRANCH   6   7
ENDBRANCH   1   6
TORSDOF 4
ENDMDL
