MODEL 1
REMARK VINA RESULT:    -3.107      0.000      0.000
REMARK INTER + INTRA:          -3.728
REMARK INTER:                  -3.652
REMARK INTRA:                  -0.076
REMARK UNBOUND:                -0.076
REMARK SMILES O=C([O-])CCC(=O)[O-]
REMARK SMILES IDX 4 1 2 2 1 3 3 4 5 5 6 6 7 7 8 8
REMARK H PARENT
REMARK Flexibility Score: inf
ROOT
ATOM      1  C   UNL     1     -23.297   7.365  22.099  1.00  0.00     0.059 C 
ENDROOT
BRANCH   1   2
ATOM      2  C   UNL     1     -23.925   6.179  22.757  1.00  0.00     0.042 C 
ATOM      3  O   UNL     1     -25.104   6.246  23.194  1.00  0.00    -0.550 OA
ATOM      4  O   UNL     1     -23.227   4.981  22.844  1.00  0.00    -0.550 OA
ENDBRANCH   1   2
BRANCH   1   5
ATOM      5  C   UNL     1     -21.773   7.219  22.075  1.00  0.00     0.059 C 
BRANCH   5   6
ATOM      6  C   UNL     1     -21.275   7.166  20.665  1.00  0.00     0.042 C 
ATOM      7  O   UNL     1     -21.876   7.798  19.757  1.00  0.00    -0.550 OA
ATOM      8  O   UNL     1     -20.120   6.458  20.362  1.00  0.00    -0.550 OA
ENDBRANCH   5   6
ENDBRANCH   1   5
TORSDOF 3
ENDMDL
MODEL 2
REMARK VINA RESULT:    -3.101      0.099      3.784
REMARK INTER + INTRA:          -3.721
REMARK INTER:                  -3.647
REMARK INTRA:                  -0.074
REMARK UNBOUND:                -0.076
REMARK SMILES O=C([O-])CCC(=O)[O-]
REMARK SMILES IDX 4 1 2 2 1 3 3 4 5 5 6 6 7 7 8 8
REMARK H PARENT
REMARK Flexibility Score: inf
ROOT
ATOM      1  C   UNL     1     -21.789   7.192  22.090  1.00  0.00     0.059 C 
ENDROOT
BRANCH   1   2
ATOM      2  C   UNL     1     -21.344   7.180  20.663  1.00  0.00     0.042 C 
ATOM      3  O   UNL     1     -21.909   7.921  19.815  1.00  0.00    -0.550 OA
ATOM      4  O   UNL     1     -20.270   6.388  20.276  1.00  0.00    -0.550 OA
ENDBRANCH   1   2
BRANCH   1   5
ATOM      5  C   UNL     1     -23.309   7.356  22.175  1.00  0.00     0.059 C 
BRANCH   5   6
ATOM      6  C   UNL     1     -23.930   6.155  22.814  1.00  0.00     0.042 C 
ATOM      7  O   UNL     1     -25.116   6.202  23.233  1.00  0.00    -0.550 OA
ATOM      8  O   UNL     1     -23.214   4.968  22.906  1.00  0.00    -0.550 OA
ENDBRANCH   5   6
ENDBRANCH   1   5
TORSDOF 3
ENDMDL
MODEL 3
REMARK VINA RESULT:    -3.088      0.110      4.084
REMARK INTER + INTRA:          -3.705
REMARK INTER:                  -3.626
REMARK INTRA:                  -0.079
REMARK UNBOUND:                -0.076
REMARK SMILES O=C([O-])CCC(=O)[O-]
REMARK SMILES IDX 4 1 2 2 1 3 3 4 5 5 6 6 7 7 8 8
REMARK H PARENT
REMARK Flexibility Score: inf
ROOT
ATOM      1  C   UNL     1     -21.714   7.292  22.097  1.00  0.00     0.059 C 
ENDROOT
BRANCH   1   2
ATOM      2  C   UNL     1     -21.187   7.193  20.702  1.00  0.00     0.042 C 
ATOM      3  O   UNL     1     -20.177   6.482  20.454  1.00  0.00    -0.550 OA
ATOM      4  O   UNL     1     -21.840   7.845  19.664  1.00  0.00    -0.550 OA
ENDBRANCH   1   2
BRANCH   1   5
ATOM      5  C   UNL     1     -23.243   7.361  22.088  1.00  0.00     0.059 C 
BRANCH   5   6
ATOM      6  C   UNL     1     -23.825   6.151  22.749  1.00  0.00     0.042 C 
ATOM      7  O   UNL     1     -23.125   5.116  22.904  1.00  0.00    -0.550 OA
ATOM      8  O   UNL     1     -25.125   6.183  23.237  1.00  0.00    -0.550 OA
ENDBRANCH   5   6
ENDBRANCH   1   5
TORSDOF 3
ENDMDL
MODEL 4
REMARK VINA RESULT:    -2.932      1.268      1.743
REMARK INTER + INTRA:          -3.522
REMARK INTER:                  -3.484
REMARK INTRA:                  -0.038
REMARK UNBOUND:                -0.076
REMARK SMILES O=C([O-])CCC(=O)[O-]
REMARK SMILES IDX 4 1 2 2 1 3 3 4 5 5 6 6 7 7 8 8
REMARK H PARENT
REMARK Flexibility Score: inf
ROOT
ATOM      1  C   UNL     1     -22.882   5.805  22.759  1.00  0.00     0.059 C 
ENDROOT
BRANCH   1   2
ATOM      2  C   UNL     1     -24.051   5.254  23.510  1.00  0.00     0.042 C 
ATOM      3  O   UNL     1     -25.125   5.909  23.582  1.00  0.00    -0.550 OA
ATOM      4  O   UNL     1     -23.974   3.994  24.089  1.00  0.00    -0.550 OA
ENDBRANCH   1   2
BRANCH   1   5
ATOM      5  C   UNL     1     -23.254   7.127  22.083  1.00  0.00     0.059 C 
BRANCH   5   6
ATOM      6  C   UNL     1     -22.056   7.732  21.422  1.00  0.00     0.042 C 
ATOM      7  O   UNL     1     -20.989   7.892  22.071  1.00  0.00    -0.550 OA
ATOM      8  O   UNL     1     -22.103   8.076  20.077  1.00  0.00    -0.550 OA
ENDBRANCH   5   6
ENDBRANCH   1   5
TORSDOF 3
ENDMDL
MODEL 5
REMARK VINA RESULT:    -2.887      0.909      3.865
REMARK INTER + INTRA:          -3.470
REMARK INTER:                  -3.375
REMARK INTRA:                  -0.095
REMARK UNBOUND:                -0.076
REMARK SMILES O=C([O-])CCC(=O)[O-]
REMARK SMILES IDX 4 1 2 2 1 3 3 4 5 5 6 6 7 7 8 8
REMARK H PARENT
REMARK Flexibility Score: inf
ROOT
ATOM      1  C   UNL     1     -21.312   7.043  21.419  1.00  0.00     0.059 C 
ENDROOT
BRANCH   1   2
ATOM      2  C   UNL     1     -21.205   6.394  20.077  1.00  0.00     0.042 C 
ATOM      3  O   UNL     1     -21.518   7.033  19.037  1.00  0.00    -0.550 OA
ATOM      4  O   UNL     1     -20.711   5.100  19.968  1.00  0.00    -0.550 OA
ENDBRANCH   1   2
BRANCH   1   5
ATOM      5  C   UNL     1     -22.767   7.408  21.723  1.00  0.00     0.059 C 
BRANCH   5   6
ATOM      6  C   UNL     1     -23.405   6.353  22.570  1.00  0.00     0.042 C 
ATOM      7  O   UNL     1     -22.713   5.410  23.036  1.00  0.00    -0.550 OA
ATOM      8  O   UNL     1     -24.756   6.435  22.883  1.00  0.00    -0.550 OA
ENDBRANCH   5   6
ENDBRANCH   1   5
TORSDOF 3
ENDMDL
MODEL 6
REMARK VINA RESULT:    -2.865      1.830      2.541
REMARK INTER + INTRA:          -3.444
REMARK INTER:                  -3.312
REMARK INTRA:                  -0.132
REMARK UNBOUND:                -0.076
REMARK SMILES O=C([O-])CCC(=O)[O-]
REMARK SMILES IDX 4 1 2 2 1 3 3 4 5 5 6 6 7 7 8 8
REMARK H PARENT
REMARK Flexibility Score: inf
ROOT
ATOM      1  C   UNL     1     -21.748   7.799  20.280  1.00  0.00     0.059 C 
ENDROOT
BRANCH   1   2
ATOM      2  C   UNL     1     -22.273   7.483  21.644  1.00  0.00     0.042 C 
ATOM      3  O   UNL     1     -23.414   6.967  21.781  1.00  0.00    -0.550 OA
ATOM      4  O   UNL     1     -21.482   7.711  22.763  1.00  0.00    -0.550 OA
ENDBRANCH   1   2
BRANCH   1   5
ATOM      5  C   UNL     1     -21.430   6.511  19.517  1.00  0.00     0.059 C 
BRANCH   5   6
ATOM      6  C   UNL     1     -20.438   5.686  20.275  1.00  0.00     0.042 C 
ATOM      7  O   UNL     1     -20.684   4.478  20.534  1.00  0.00    -0.550 OA
ATOM      8  O   UNL     1     -19.220   6.236  20.653  1.00  0.00    -0.550 OA
ENDBRANCH   5   6
ENDBRANCH   1   5
TORSDOF 3
ENDMDL
MODEL 7
REMARK VINA RESULT:    -2.825      1.666      2.154
REMARK INTER + INTRA:          -3.397
REMARK INTER:                  -3.330
REMARK INTRA:                  -0.067
REMARK UNBOUND:                -0.076
REMARK SMILES O=C([O-])CCC(=O)[O-]
REMARK SMILES IDX 4 1 2 2 1 3 3 4 5 5 6 6 7 7 8 8
REMARK H PARENT
REMARK Flexibility Score: inf
ROOT
ATOM      1  C   UNL     1     -22.149   5.623  22.363  1.00  0.00     0.059 C 
ENDROOT
BRANCH   1   2
ATOM      2  C   UNL     1     -23.283   6.597  22.332  1.00  0.00     0.042 C 
ATOM      3  O   UNL     1     -23.140   7.720  21.779  1.00  0.00    -0.550 OA
ATOM      4  O   UNL     1     -24.515   6.248  22.871  1.00  0.00    -0.550 OA
ENDBRANCH   1   2
BRANCH   1   5
ATOM      5  C   UNL     1     -22.001   4.931  21.006  1.00  0.00     0.059 C 
BRANCH   5   6
ATOM      6  C   UNL     1     -21.042   5.684  20.138  1.00  0.00     0.042 C 
ATOM      7  O   UNL     1     -19.939   6.074  20.603  1.00  0.00    -0.550 OA
ATOM      8  O   UNL     1     -21.346   5.913  18.802  1.00  0.00    -0.550 OA
ENDBRANCH   5   6
ENDBRANCH   1   5
TORSDOF 3
ENDMDL
MODEL 8
REMARK VINA RESULT:    -2.663     25.449     26.169
REMARK INTER + INTRA:          -3.206
REMARK INTER:                  -3.092
REMARK INTRA:                  -0.113
REMARK UNBOUND:                -0.076
REMARK SMILES O=C([O-])CCC(=O)[O-]
REMARK SMILES IDX 4 1 2 2 1 3 3 4 5 5 6 6 7 7 8 8
REMARK H PARENT
REMARK Flexibility Score: inf
ROOT
ATOM      1  C   UNL     1      -6.067  -8.899  35.169  1.00  0.00     0.059 C 
ENDROOT
BRANCH   1   2
ATOM      2  C   UNL     1      -5.936  -7.484  35.634  1.00  0.00     0.042 C 
ATOM      3  O   UNL     1      -5.505  -7.234  36.791  1.00  0.00    -0.550 OA
ATOM      4  O   UNL     1      -6.242  -6.438  34.773  1.00  0.00    -0.550 OA
ENDBRANCH   1   2
BRANCH   1   5
ATOM      5  C   UNL     1      -4.876  -9.287  34.290  1.00  0.00     0.059 C 
BRANCH   5   6
ATOM      6  C   UNL     1      -5.341  -9.698  32.929  1.00  0.00     0.042 C 
ATOM      7  O   UNL     1      -6.099  -8.944  32.264  1.00  0.00    -0.550 OA
ATOM      8  O   UNL     1      -4.901 -10.893  32.375  1.00  0.00    -0.550 OA
ENDBRANCH   5   6
ENDBRANCH   1   5
TORSDOF 3
ENDMDL
MODEL 9
REMARK VINA RESULT:    -2.619     25.688     26.178
REMARK INTER + INTRA:          -3.155
REMARK INTER:                  -3.051
REMARK INTRA:                  -0.104
REMARK UNBOUND:                -0.076
REMARK SMILES O=C([O-])CCC(=O)[O-]
REMARK SMILES IDX 4 1 2 2 1 3 3 4 5 5 6 6 7 7 8 8
REMARK H PARENT
REMARK Flexibility Score: inf
ROOT
ATOM      1  C   UNL     1      -6.490  -9.111  34.149  1.00  0.00     0.059 C 
ENDROOT
BRANCH   1   2
ATOM      2  C   UNL     1      -5.854  -9.375  32.823  1.00  0.00     0.042 C 
ATOM      3  O   UNL     1      -6.198 -10.378  32.143  1.00  0.00    -0.550 OA
ATOM      4  O   UNL     1      -4.915  -8.487  32.313  1.00  0.00    -0.550 OA
ENDBRANCH   1   2
BRANCH   1   5
ATOM      5  C   UNL     1      -5.421  -8.911  35.226  1.00  0.00     0.059 C 
BRANCH   5   6
ATOM      6  C   UNL     1      -5.620  -7.604  35.926  1.00  0.00     0.042 C 
ATOM      7  O   UNL     1      -6.003  -7.579  37.125  1.00  0.00    -0.550 OA
ATOM      8  O   UNL     1      -5.338  -6.413  35.268  1.00  0.00    -0.550 OA
ENDBRANCH   5   6
ENDBRANCH   1   5
TORSDOF 3
ENDMDL
