MODEL 1
REMARK VINA RESULT:    -5.667      0.000      0.000
REMARK INTER + INTRA:          -7.738
REMARK INTER:                  -7.489
REMARK INTRA:                  -0.250
REMARK UNBOUND:                -0.250
REMARK SMILES CCCCC=CC=CCO
REMARK SMILES IDX 5 1 6 2 4 3 3 4 2 5 1 6 7 7 8 8 9 9 10 10
REMARK H PARENT 10 11
REMARK Flexibility Score: inf
ROOT
ATOM      1  C   UNL     1     -15.573   1.861  -7.378  1.00  0.00    -0.027 C 
ATOM      2  C   UNL     1     -15.444   1.685  -8.695  1.00  0.00    -0.005 C 
ENDROOT
BRANCH   1   3
ATOM      3  C   UNL     1     -16.656   2.727  -6.798  1.00  0.00     0.027 C 
BRANCH   3   4
ATOM      4  C   UNL     1     -16.998   2.316  -5.361  1.00  0.00     0.004 C 
BRANCH   4   5
ATOM      5  C   UNL     1     -16.773   0.817  -5.118  1.00  0.00    -0.003 C 
ATOM      6  C   UNL     1     -18.030   0.154  -4.561  1.00  0.00     0.004 C 
ENDBRANCH   4   5
ENDBRANCH   3   4
ENDBRANCH   1   3
BRANCH   2   7
ATOM      7  C   UNL     1     -14.355   0.864  -9.248  1.00  0.00    -0.002 C 
ATOM      8  C   UNL     1     -14.615  -0.213  -9.993  1.00  0.00     0.001 C 
BRANCH   8   9
ATOM      9  C   UNL     1     -13.510  -1.045 -10.565  1.00  0.00     0.183 C 
BRANCH   9  10
ATOM     10  O   UNL     1     -13.989  -1.779 -11.657  1.00  0.00    -0.392 OA
ATOM     11  H   UNL     1     -14.908  -1.445 -11.831  1.00  0.00     0.210 HD
ENDBRANCH   9  10
ENDBRANCH   8   9
ENDBRANCH   2   7
TORSDOF 6
ENDMDL
MODEL 2
REMARK VINA RESULT:    -5.612      3.228      4.168
REMARK INTER + INTRA:          -7.666
REMARK INTER:                  -7.411
REMARK INTRA:                  -0.255
REMARK UNBOUND:                -0.250
REMARK SMILES CCCCC=CC=CCO
REMARK SMILES IDX 5 1 6 2 4 3 3 4 2 5 1 6 7 7 8 8 9 9 10 10
REMARK H PARENT 10 11
REMARK Flexibility Score: inf
ROOT
ATOM      1  C   UNL     1     -14.368   2.141  -6.396  1.00  0.00    -0.027 C 
ATOM      2  C   UNL     1     -15.639   2.446  -6.127  1.00  0.00    -0.005 C 
ENDROOT
BRANCH   1   3
ATOM      3  C   UNL     1     -13.304   2.184  -5.335  1.00  0.00     0.027 C 
BRANCH   3   4
ATOM      4  C   UNL     1     -13.802   1.591  -4.011  1.00  0.00     0.004 C 
BRANCH   4   5
ATOM      5  C   UNL     1     -12.666   0.952  -3.199  1.00  0.00    -0.003 C 
ATOM      6  C   UNL     1     -11.364   1.730  -3.367  1.00  0.00     0.004 C 
ENDBRANCH   4   5
ENDBRANCH   3   4
ENDBRANCH   1   3
BRANCH   2   7
ATOM      7  C   UNL     1     -16.661   2.435  -7.186  1.00  0.00    -0.002 C 
ATOM      8  C   UNL     1     -16.361   2.055  -8.429  1.00  0.00     0.001 C 
BRANCH   8   9
ATOM      9  C   UNL     1     -17.399   2.033  -9.507  1.00  0.00     0.183 C 
BRANCH   9  10
ATOM     10  O   UNL     1     -17.394   0.785 -10.142  1.00  0.00    -0.392 OA
ATOM     11  H   UNL     1     -18.316   0.427 -10.050  1.00  0.00     0.210 HD
ENDBRANCH   9  10
ENDBRANCH   8   9
ENDBRANCH   2   7
TORSDOF 6
ENDMDL
MODEL 3
REMARK VINA RESULT:    -5.537      2.899      4.061
REMARK INTER + INTRA:          -7.567
REMARK INTER:                  -7.341
REMARK INTRA:                  -0.226
REMARK UNBOUND:                -0.250
REMARK SMILES CCCCC=CC=CCO
REMARK SMILES IDX 5 1 6 2 4 3 3 4 2 5 1 6 7 7 8 8 9 9 10 10
REMARK H PARENT 10 11
REMARK Flexibility Score: inf
ROOT
ATOM      1  C   UNL     1     -17.164   2.101  -4.849  1.00  0.00    -0.027 C 
ATOM      2  C   UNL     1     -16.642   2.793  -5.864  1.00  0.00    -0.005 C 
ENDROOT
BRANCH   1   3
ATOM      3  C   UNL     1     -17.412   2.732  -3.508  1.00  0.00     0.027 C 
BRANCH   3   4
ATOM      4  C   UNL     1     -18.420   3.885  -3.604  1.00  0.00     0.004 C 
BRANCH   4   5
ATOM      5  C   UNL     1     -18.647   4.570  -2.249  1.00  0.00    -0.003 C 
ATOM      6  C   UNL     1     -17.716   4.002  -1.182  1.00  0.00     0.004 C 
ENDBRANCH   4   5
ENDBRANCH   3   4
ENDBRANCH   1   3
BRANCH   2   7
ATOM      7  C   UNL     1     -16.370   2.150  -7.159  1.00  0.00    -0.002 C 
ATOM      8  C   UNL     1     -17.154   2.372  -8.217  1.00  0.00     0.001 C 
BRANCH   8   9
ATOM      9  C   UNL     1     -16.876   1.727  -9.538  1.00  0.00     0.183 C 
BRANCH   9  10
ATOM     10  O   UNL     1     -18.052   1.158 -10.043  1.00  0.00    -0.392 OA
ATOM     11  H   UNL     1     -17.774   0.580 -10.800  1.00  0.00     0.210 HD
ENDBRANCH   9  10
ENDBRANCH   8   9
ENDBRANCH   2   7
TORSDOF 6
ENDMDL
MODEL 4
REMARK VINA RESULT:    -5.466      4.309      6.910
REMARK INTER + INTRA:          -7.473
REMARK INTER:                  -7.282
REMARK INTRA:                  -0.191
REMARK UNBOUND:                -0.250
REMARK SMILES CCCCC=CC=CCO
REMARK SMILES IDX 5 1 6 2 4 3 3 4 2 5 1 6 7 7 8 8 9 9 10 10
REMARK H PARENT 10 11
REMARK Flexibility Score: inf
ROOT
ATOM      1  C   UNL     1     -16.862   2.731  -6.090  1.00  0.00    -0.027 C 
ATOM      2  C   UNL     1     -16.941   2.052  -4.943  1.00  0.00    -0.005 C 
ENDROOT
BRANCH   1   3
ATOM      3  C   UNL     1     -16.071   2.217  -7.260  1.00  0.00     0.027 C 
BRANCH   3   4
ATOM      4  C   UNL     1     -16.888   2.263  -8.557  1.00  0.00     0.004 C 
BRANCH   4   5
ATOM      5  C   UNL     1     -16.353   1.286  -9.614  1.00  0.00    -0.003 C 
ATOM      6  C   UNL     1     -14.828   1.224  -9.583  1.00  0.00     0.004 C 
ENDBRANCH   4   5
ENDBRANCH   3   4
ENDBRANCH   1   3
BRANCH   2   7
ATOM      7  C   UNL     1     -17.689   2.588  -3.795  1.00  0.00    -0.002 C 
ATOM      8  C   UNL     1     -17.479   3.831  -3.356  1.00  0.00     0.001 C 
BRANCH   8   9
ATOM      9  C   UNL     1     -18.243   4.385  -2.195  1.00  0.00     0.183 C 
BRANCH   9  10
ATOM     10  O   UNL     1     -19.588   4.547  -2.549  1.00  0.00    -0.392 OA
ATOM     11  H   UNL     1     -20.055   4.844  -1.725  1.00  0.00     0.210 HD
ENDBRANCH   9  10
ENDBRANCH   8   9
ENDBRANCH   2   7
TORSDOF 6
ENDMDL
MODEL 5
REMARK VINA RESULT:    -5.427      1.972      2.850
REMARK INTER + INTRA:          -7.422
REMARK INTER:                  -7.057
REMARK INTRA:                  -0.364
REMARK UNBOUND:                -0.250
REMARK SMILES CCCCC=CC=CCO
REMARK SMILES IDX 5 1 6 2 4 3 3 4 2 5 1 6 7 7 8 8 9 9 10 10
REMARK H PARENT 10 11
REMARK Flexibility Score: inf
ROOT
ATOM      1  C   UNL     1     -15.837   2.216  -5.920  1.00  0.00    -0.027 C 
ATOM      2  C   UNL     1     -16.669   2.559  -6.907  1.00  0.00    -0.005 C 
ENDROOT
BRANCH   1   3
ATOM      3  C   UNL     1     -16.003   2.750  -4.525  1.00  0.00     0.027 C 
BRANCH   3   4
ATOM      4  C   UNL     1     -17.377   2.395  -3.944  1.00  0.00     0.004 C 
BRANCH   4   5
ATOM      5  C   UNL     1     -18.043   3.595  -3.255  1.00  0.00    -0.003 C 
ATOM      6  C   UNL     1     -18.507   4.628  -4.277  1.00  0.00     0.004 C 
ENDBRANCH   4   5
ENDBRANCH   3   4
ENDBRANCH   1   3
BRANCH   2   7
ATOM      7  C   UNL     1     -16.469   2.056  -8.275  1.00  0.00    -0.002 C 
ATOM      8  C   UNL     1     -15.937   0.852  -8.495  1.00  0.00     0.001 C 
BRANCH   8   9
ATOM      9  C   UNL     1     -15.742   0.332  -9.885  1.00  0.00     0.183 C 
BRANCH   9  10
ATOM     10  O   UNL     1     -16.969  -0.098 -10.405  1.00  0.00    -0.392 OA
ATOM     11  H   UNL     1     -17.568  -0.227  -9.625  1.00  0.00     0.210 HD
ENDBRANCH   9  10
ENDBRANCH   8   9
ENDBRANCH   2   7
TORSDOF 6
ENDMDL
MODEL 6
REMARK VINA RESULT:    -5.405      4.228      6.813
REMARK INTER + INTRA:          -7.393
REMARK INTER:                  -7.235
REMARK INTRA:                  -0.158
REMARK UNBOUND:                -0.250
REMARK SMILES CCCCC=CC=CCO
REMARK SMILES IDX 5 1 6 2 4 3 3 4 2 5 1 6 7 7 8 8 9 9 10 10
REMARK H PARENT 10 11
REMARK Flexibility Score: inf
ROOT
ATOM      1  C   UNL     1     -16.626   2.726  -6.533  1.00  0.00    -0.027 C 
ATOM      2  C   UNL     1     -16.947   1.975  -5.477  1.00  0.00    -0.005 C 
ENDROOT
BRANCH   1   3
ATOM      3  C   UNL     1     -16.439   2.129  -7.900  1.00  0.00     0.027 C 
BRANCH   3   4
ATOM      4  C   UNL     1     -15.013   1.597  -8.092  1.00  0.00     0.004 C 
BRANCH   4   5
ATOM      5  C   UNL     1     -14.774   1.085  -9.520  1.00  0.00    -0.003 C 
ATOM      6  C   UNL     1     -13.728  -0.026  -9.538  1.00  0.00     0.004 C 
ENDBRANCH   4   5
ENDBRANCH   3   4
ENDBRANCH   1   3
BRANCH   2   7
ATOM      7  C   UNL     1     -17.090   2.571  -4.139  1.00  0.00    -0.002 C 
ATOM      8  C   UNL     1     -18.015   3.501  -3.895  1.00  0.00     0.001 C 
BRANCH   8   9
ATOM      9  C   UNL     1     -18.170   4.102  -2.533  1.00  0.00     0.183 C 
BRANCH   9  10
ATOM     10  O   UNL     1     -19.459   4.633  -2.395  1.00  0.00    -0.392 OA
ATOM     11  H   UNL     1     -19.549   4.891  -1.441  1.00  0.00     0.210 HD
ENDBRANCH   9  10
ENDBRANCH   8   9
ENDBRANCH   2   7
TORSDOF 6
ENDMDL
MODEL 7
REMARK VINA RESULT:    -4.929      4.397      6.935
REMARK INTER + INTRA:          -6.764
REMARK INTER:                  -6.464
REMARK INTRA:                  -0.300
REMARK UNBOUND:                -0.250
REMARK SMILES CCCCC=CC=CCO
REMARK SMILES IDX 5 1 6 2 4 3 3 4 2 5 1 6 7 7 8 8 9 9 10 10
REMARK H PARENT 10 11
REMARK Flexibility Score: inf
ROOT
ATOM      1  C   UNL     1     -17.061   0.982  -5.199  1.00  0.00    -0.027 C 
ATOM      2  C   UNL     1     -16.953   2.254  -4.808  1.00  0.00    -0.005 C 
ENDROOT
BRANCH   1   3
ATOM      3  C   UNL     1     -16.295   0.449  -6.377  1.00  0.00     0.027 C 
BRANCH   3   4
ATOM      4  C   UNL     1     -15.583   1.572  -7.142  1.00  0.00     0.004 C 
BRANCH   4   5
ATOM      5  C   UNL     1     -15.701   1.402  -8.663  1.00  0.00    -0.003 C 
ATOM      6  C   UNL     1     -17.001   2.006  -9.185  1.00  0.00     0.004 C 
ENDBRANCH   4   5
ENDBRANCH   3   4
ENDBRANCH   1   3
BRANCH   2   7
ATOM      7  C   UNL     1     -17.739   2.768  -3.676  1.00  0.00    -0.002 C 
ATOM      8  C   UNL     1     -17.480   3.966  -3.146  1.00  0.00     0.001 C 
BRANCH   8   9
ATOM      9  C   UNL     1     -18.284   4.497  -2.001  1.00  0.00     0.183 C 
BRANCH   9  10
ATOM     10  O   UNL     1     -19.625   4.624  -2.383  1.00  0.00    -0.392 OA
ATOM     11  H   UNL     1     -19.890   3.741  -2.750  1.00  0.00     0.210 HD
ENDBRANCH   9  10
ENDBRANCH   8   9
ENDBRANCH   2   7
TORSDOF 6
ENDMDL
MODEL 8
REMARK VINA RESULT:    -4.917      2.690      3.842
REMARK INTER + INTRA:          -6.747
REMARK INTER:                  -6.426
REMARK INTRA:                  -0.321
REMARK UNBOUND:                -0.250
REMARK SMILES CCCCC=CC=CCO
REMARK SMILES IDX 5 1 6 2 4 3 3 4 2 5 1 6 7 7 8 8 9 9 10 10
REMARK H PARENT 10 11
REMARK Flexibility Score: inf
ROOT
ATOM      1  C   UNL     1     -17.003   2.370  -5.189  1.00  0.00    -0.027 C 
ATOM      2  C   UNL     1     -16.418   2.762  -6.324  1.00  0.00    -0.005 C 
ENDROOT
BRANCH   1   3
ATOM      3  C   UNL     1     -17.054   3.260  -3.979  1.00  0.00     0.027 C 
BRANCH   3   4
ATOM      4  C   UNL     1     -15.797   3.109  -3.113  1.00  0.00     0.004 C 
BRANCH   4   5
ATOM      5  C   UNL     1     -14.810   4.266  -3.319  1.00  0.00    -0.003 C 
ATOM      6  C   UNL     1     -13.470   3.760  -3.846  1.00  0.00     0.004 C 
ENDBRANCH   4   5
ENDBRANCH   3   4
ENDBRANCH   1   3
BRANCH   2   7
ATOM      7  C   UNL     1     -16.343   1.864  -7.487  1.00  0.00    -0.002 C 
ATOM      8  C   UNL     1     -16.893   2.202  -8.655  1.00  0.00     0.001 C 
BRANCH   8   9
ATOM      9  C   UNL     1     -16.811   1.297  -9.843  1.00  0.00     0.183 C 
BRANCH   9  10
ATOM     10  O   UNL     1     -18.100   0.918 -10.239  1.00  0.00    -0.392 OA
ATOM     11  H   UNL     1     -18.163   1.129 -11.206  1.00  0.00     0.210 HD
ENDBRANCH   9  10
ENDBRANCH   8   9
ENDBRANCH   2   7
TORSDOF 6
ENDMDL
MODEL 9
REMARK VINA RESULT:    -4.876      4.677      6.800
REMARK INTER + INTRA:          -6.693
REMARK INTER:                  -6.420
REMARK INTRA:                  -0.273
REMARK UNBOUND:                -0.250
REMARK SMILES CCCCC=CC=CCO
REMARK SMILES IDX 5 1 6 2 4 3 3 4 2 5 1 6 7 7 8 8 9 9 10 10
REMARK H PARENT 10 11
REMARK Flexibility Score: inf
ROOT
ATOM      1  C   UNL     1     -16.235   2.736  -5.999  1.00  0.00    -0.027 C 
ATOM      2  C   UNL     1     -17.377   3.112  -5.418  1.00  0.00    -0.005 C 
ENDROOT
BRANCH   1   3
ATOM      3  C   UNL     1     -16.210   2.135  -7.376  1.00  0.00     0.027 C 
BRANCH   3   4
ATOM      4  C   UNL     1     -15.458   0.798  -7.395  1.00  0.00     0.004 C 
BRANCH   4   5
ATOM      5  C   UNL     1     -16.234  -0.313  -6.672  1.00  0.00    -0.003 C 
ATOM      6  C   UNL     1     -15.502  -0.765  -5.412  1.00  0.00     0.004 C 
ENDBRANCH   4   5
ENDBRANCH   3   4
ENDBRANCH   1   3
BRANCH   2   7
ATOM      7  C   UNL     1     -17.388   3.664  -4.054  1.00  0.00    -0.002 C 
ATOM      8  C   UNL     1     -18.525   4.068  -3.484  1.00  0.00     0.001 C 
BRANCH   8   9
ATOM      9  C   UNL     1     -18.542   4.621  -2.093  1.00  0.00     0.183 C 
BRANCH   9  10
ATOM     10  O   UNL     1     -18.518   6.020  -2.141  1.00  0.00    -0.392 OA
ATOM     11  H   UNL     1     -18.050   6.315  -1.316  1.00  0.00     0.210 HD
ENDBRANCH   9  10
ENDBRANCH   8   9
ENDBRANCH   2   7
TORSDOF 6
ENDMDL
