MODEL 1
REMARK VINA RESULT:    -3.390      0.000      0.000
REMARK INTER + INTRA:          -4.043
REMARK INTER:                  -3.984
REMARK INTRA:                  -0.059
REMARK UNBOUND:                -0.059
REMARK SMILES O=C([O-])CCC(=O)[O-]
REMARK SMILES IDX 4 1 2 2 1 3 3 4 5 5 6 6 7 7 8 8
REMARK H PARENT
REMARK Flexibility Score: inf
ROOT
ATOM      1  C   UNL     1      15.604  38.125  34.157  1.00  0.00     0.059 C 
ENDROOT
BRANCH   1   2
ATOM      2  C   UNL     1      15.834  37.764  32.722  1.00  0.00     0.042 C 
ATOM      3  O   UNL     1      16.986  37.852  32.222  1.00  0.00    -0.550 OA
ATOM      4  O   UNL     1      14.781  37.293  31.947  1.00  0.00    -0.550 OA
ENDBRANCH   1   2
BRANCH   1   5
ATOM      5  C   UNL     1      16.912  38.125  34.955  1.00  0.00     0.059 C 
BRANCH   5   6
ATOM      6  C   UNL     1      16.781  37.349  36.230  1.00  0.00     0.042 C 
ATOM      7  O   UNL     1      15.683  36.812  36.534  1.00  0.00    -0.550 OA
ATOM      8  O   UNL     1      17.881  37.185  37.062  1.00  0.00    -0.550 OA
ENDBRANCH   5   6
ENDBRANCH   1   5
TORSDOF 3
ENDMDL
MODEL 2
REMARK VINA RESULT:    -3.261      8.233      9.039
REMARK INTER + INTRA:          -3.892
REMARK INTER:                  -3.861
REMARK INTRA:                  -0.031
REMARK UNBOUND:                -0.059
REMARK SMILES O=C([O-])CCC(=O)[O-]
REMARK SMILES IDX 4 1 2 2 1 3 3 4 5 5 6 6 7 7 8 8
REMARK H PARENT
REMARK Flexibility Score: inf
ROOT
ATOM      1  C   UNL     1      18.665  28.781  34.786  1.00  0.00     0.059 C 
ENDROOT
BRANCH   1   2
ATOM      2  C   UNL     1      17.632  27.959  35.493  1.00  0.00     0.042 C 
ATOM      3  O   UNL     1      16.827  27.248  34.834  1.00  0.00    -0.550 OA
ATOM      4  O   UNL     1      17.583  27.947  36.881  1.00  0.00    -0.550 OA
ENDBRANCH   1   2
BRANCH   1   5
ATOM      5  C   UNL     1      18.281  30.264  34.753  1.00  0.00     0.059 C 
BRANCH   5   6
ATOM      6  C   UNL     1      19.462  31.133  34.448  1.00  0.00     0.042 C 
ATOM      7  O   UNL     1      19.404  32.375  34.651  1.00  0.00    -0.550 OA
ATOM      8  O   UNL     1      20.641  30.567  33.980  1.00  0.00    -0.550 OA
ENDBRANCH   5   6
ENDBRANCH   1   5
TORSDOF 3
ENDMDL
MODEL 3
REMARK VINA RESULT:    -3.228      8.229      8.755
REMARK INTER + INTRA:          -3.853
REMARK INTER:                  -3.820
REMARK INTRA:                  -0.033
REMARK UNBOUND:                -0.059
REMARK SMILES O=C([O-])CCC(=O)[O-]
REMARK SMILES IDX 4 1 2 2 1 3 3 4 5 5 6 6 7 7 8 8
REMARK H PARENT
REMARK Flexibility Score: inf
ROOT
ATOM      1  C   UNL     1      18.318  30.242  34.765  1.00  0.00     0.059 C 
ENDROOT
BRANCH   1   2
ATOM      2  C   UNL     1      19.499  31.117  34.479  1.00  0.00     0.042 C 
ATOM      3  O   UNL     1      20.559  30.621  34.016  1.00  0.00    -0.550 OA
ATOM      4  O   UNL     1      19.414  32.488  34.685  1.00  0.00    -0.550 OA
ENDBRANCH   1   2
BRANCH   1   5
ATOM      5  C   UNL     1      18.715  28.764  34.837  1.00  0.00     0.059 C 
BRANCH   5   6
ATOM      6  C   UNL     1      17.666  27.943  35.523  1.00  0.00     0.042 C 
ATOM      7  O   UNL     1      16.874  27.234  34.847  1.00  0.00    -0.550 OA
ATOM      8  O   UNL     1      17.589  27.930  36.909  1.00  0.00    -0.550 OA
ENDBRANCH   5   6
ENDBRANCH   1   5
TORSDOF 3
ENDMDL
MODEL 4
REMARK VINA RESULT:    -3.226      1.794      2.895
REMARK INTER + INTRA:          -3.851
REMARK INTER:                  -3.820
REMARK INTRA:                  -0.031
REMARK UNBOUND:                -0.059
REMARK SMILES O=C([O-])CCC(=O)[O-]
REMARK SMILES IDX 4 1 2 2 1 3 3 4 5 5 6 6 7 7 8 8
REMARK H PARENT
REMARK Flexibility Score: inf
ROOT
ATOM      1  C   UNL     1      15.257  37.334  31.834  1.00  0.00     0.059 C 
ENDROOT
BRANCH   1   2
ATOM      2  C   UNL     1      13.945  36.627  31.684  1.00  0.00     0.042 C 
ATOM      3  O   UNL     1      13.893  35.369  31.728  1.00  0.00    -0.550 OA
ATOM      4  O   UNL     1      12.775  37.359  31.534  1.00  0.00    -0.550 OA
ENDBRANCH   1   2
BRANCH   1   5
ATOM      5  C   UNL     1      15.349  38.073  33.174  1.00  0.00     0.059 C 
BRANCH   5   6
ATOM      6  C   UNL     1      16.726  37.984  33.759  1.00  0.00     0.042 C 
ATOM      7  O   UNL     1      16.880  37.919  35.007  1.00  0.00    -0.550 OA
ATOM      8  O   UNL     1      17.834  37.933  32.924  1.00  0.00    -0.550 OA
ENDBRANCH   5   6
ENDBRANCH   1   5
TORSDOF 3
ENDMDL
MODEL 5
REMARK VINA RESULT:    -3.181     17.680     18.369
REMARK INTER + INTRA:          -3.797
REMARK INTER:                  -3.628
REMARK INTRA:                  -0.170
REMARK UNBOUND:                -0.059
REMARK SMILES O=C([O-])CCC(=O)[O-]
REMARK SMILES IDX 4 1 2 2 1 3 3 4 5 5 6 6 7 7 8 8
REMARK H PARENT
REMARK Flexibility Score: inf
ROOT
ATOM      1  C   UNL     1      29.458  25.454  31.597  1.00  0.00     0.059 C 
ENDROOT
BRANCH   1   2
ATOM      2  C   UNL     1      28.873  26.567  32.411  1.00  0.00     0.042 C 
ATOM      3  O   UNL     1      27.891  26.350  33.169  1.00  0.00    -0.550 OA
ATOM      4  O   UNL     1      29.438  27.835  32.362  1.00  0.00    -0.550 OA
ENDBRANCH   1   2
BRANCH   1   5
ATOM      5  C   UNL     1      30.040  24.351  32.486  1.00  0.00     0.059 C 
BRANCH   5   6
ATOM      6  C   UNL     1      31.159  24.864  33.341  1.00  0.00     0.042 C 
ATOM      7  O   UNL     1      32.125  25.480  32.817  1.00  0.00    -0.550 OA
ATOM      8  O   UNL     1      31.114  24.699  34.719  1.00  0.00    -0.550 OA
ENDBRANCH   5   6
ENDBRANCH   1   5
TORSDOF 3
ENDMDL
MODEL 6
REMARK VINA RESULT:    -3.123      3.745      4.799
REMARK INTER + INTRA:          -3.729
REMARK INTER:                  -3.699
REMARK INTRA:                  -0.030
REMARK UNBOUND:                -0.059
REMARK SMILES O=C([O-])CCC(=O)[O-]
REMARK SMILES IDX 4 1 2 2 1 3 3 4 5 5 6 6 7 7 8 8
REMARK H PARENT
REMARK Flexibility Score: inf
ROOT
ATOM      1  C   UNL     1      16.723  35.158  37.752  1.00  0.00     0.059 C 
ENDROOT
BRANCH   1   2
ATOM      2  C   UNL     1      15.244  35.271  37.967  1.00  0.00     0.042 C 
ATOM      3  O   UNL     1      14.533  34.235  38.042  1.00  0.00    -0.550 OA
ATOM      4  O   UNL     1      14.659  36.520  38.124  1.00  0.00    -0.550 OA
ENDBRANCH   1   2
BRANCH   1   5
ATOM      5  C   UNL     1      17.301  36.430  37.124  1.00  0.00     0.059 C 
BRANCH   5   6
ATOM      6  C   UNL     1      18.788  36.339  36.964  1.00  0.00     0.042 C 
ATOM      7  O   UNL     1      19.538  36.404  37.974  1.00  0.00    -0.550 OA
ATOM      8  O   UNL     1      19.342  36.142  35.706  1.00  0.00    -0.550 OA
ENDBRANCH   5   6
ENDBRANCH   1   5
TORSDOF 3
ENDMDL
MODEL 7
REMARK VINA RESULT:    -3.116     17.693     18.516
REMARK INTER + INTRA:          -3.721
REMARK INTER:                  -3.541
REMARK INTRA:                  -0.180
REMARK UNBOUND:                -0.059
REMARK SMILES O=C([O-])CCC(=O)[O-]
REMARK SMILES IDX 4 1 2 2 1 3 3 4 5 5 6 6 7 7 8 8
REMARK H PARENT
REMARK Flexibility Score: inf
ROOT
ATOM      1  C   UNL     1      29.962  24.254  32.470  1.00  0.00     0.059 C 
ENDROOT
BRANCH   1   2
ATOM      2  C   UNL     1      31.003  24.704  33.449  1.00  0.00     0.042 C 
ATOM      3  O   UNL     1      32.124  25.107  33.042  1.00  0.00    -0.550 OA
ATOM      4  O   UNL     1      30.719  24.717  34.808  1.00  0.00    -0.550 OA
ENDBRANCH   1   2
BRANCH   1   5
ATOM      5  C   UNL     1      29.490  25.407  31.578  1.00  0.00     0.059 C 
BRANCH   5   6
ATOM      6  C   UNL     1      28.920  26.531  32.387  1.00  0.00     0.042 C 
ATOM      7  O   UNL     1      27.939  26.328  33.151  1.00  0.00    -0.550 OA
ATOM      8  O   UNL     1      29.496  27.793  32.327  1.00  0.00    -0.550 OA
ENDBRANCH   5   6
ENDBRANCH   1   5
TORSDOF 3
ENDMDL
MODEL 8
REMARK VINA RESULT:    -3.074      2.396      4.452
REMARK INTER + INTRA:          -3.672
REMARK INTER:                  -3.530
REMARK INTRA:                  -0.142
REMARK UNBOUND:                -0.059
REMARK SMILES O=C([O-])CCC(=O)[O-]
REMARK SMILES IDX 4 1 2 2 1 3 3 4 5 5 6 6 7 7 8 8
REMARK H PARENT
REMARK Flexibility Score: inf
ROOT
ATOM      1  C   UNL     1      17.413  36.321  37.877  1.00  0.00     0.059 C 
ENDROOT
BRANCH   1   2
ATOM      2  C   UNL     1      16.965  34.922  37.585  1.00  0.00     0.042 C 
ATOM      3  O   UNL     1      15.770  34.583  37.789  1.00  0.00    -0.550 OA
ATOM      4  O   UNL     1      17.858  34.004  37.048  1.00  0.00    -0.550 OA
ENDBRANCH   1   2
BRANCH   1   5
ATOM      5  C   UNL     1      17.584  37.139  36.593  1.00  0.00     0.059 C 
BRANCH   5   6
ATOM      6  C   UNL     1      16.273  37.674  36.102  1.00  0.00     0.042 C 
ATOM      7  O   UNL     1      16.047  37.763  34.866  1.00  0.00    -0.550 OA
ATOM      8  O   UNL     1      15.286  38.036  37.010  1.00  0.00    -0.550 OA
ENDBRANCH   5   6
ENDBRANCH   1   5
TORSDOF 3
ENDMDL
MODEL 9
REMARK VINA RESULT:    -3.006     17.687     18.340
REMARK INTER + INTRA:          -3.592
REMARK INTER:                  -3.404
REMARK INTRA:                  -0.188
REMARK UNBOUND:                -0.059
REMARK SMILES O=C([O-])CCC(=O)[O-]
REMARK SMILES IDX 4 1 2 2 1 3 3 4 5 5 6 6 7 7 8 8
REMARK H PARENT
REMARK Flexibility Score: inf
ROOT
ATOM      1  C   UNL     1      29.495  25.441  31.642  1.00  0.00     0.059 C 
ENDROOT
BRANCH   1   2
ATOM      2  C   UNL     1      28.950  26.555  32.482  1.00  0.00     0.042 C 
ATOM      3  O   UNL     1      29.502  27.687  32.470  1.00  0.00    -0.550 OA
ATOM      4  O   UNL     1      27.807  26.354  33.246  1.00  0.00    -0.550 OA
ENDBRANCH   1   2
BRANCH   1   5
ATOM      5  C   UNL     1      29.902  24.237  32.498  1.00  0.00     0.059 C 
BRANCH   5   6
ATOM      6  C   UNL     1      30.915  24.614  33.535  1.00  0.00     0.042 C 
ATOM      7  O   UNL     1      30.688  24.388  34.753  1.00  0.00    -0.550 OA
ATOM      8  O   UNL     1      32.125  25.178  33.153  1.00  0.00    -0.550 OA
ENDBRANCH   5   6
ENDBRANCH   1   5
TORSDOF 3
ENDMDL
