MODEL 1
REMARK VINA RESULT:    -4.693      0.000      0.000
REMARK INTER + INTRA:          -7.335
REMARK INTER:                  -7.163
REMARK INTRA:                  -0.172
REMARK UNBOUND:                -0.172
REMARK SMILES CC1=CCC[C@@H](C)C(=O)C[C@@H](C(C)C)C(=O)C1
REMARK SMILES IDX 8 1 9 2 6 3 7 4 5 5 4 6 3 7 2 8 1 9 10 11 11 12 15 13 16 14
REMARK SMILES IDX 17 15 12 17 13 18 14 19
REMARK H PARENT
REMARK Flexibility Score: 70.00
ROOT
ATOM      1  C   UNL     1     -12.875 -15.358  30.192  1.00  0.00     0.136 C 
ATOM      2  O   UNL     1     -13.593 -14.392  29.974  1.00  0.00    -0.299 OA
ENDROOT
BRANCH   1   3
ATOM      3  C   UNL     1     -12.862 -15.974  31.572  1.00  0.00     0.053 C 
ATOM      4  C   UNL     1     -14.006 -15.417  32.429  1.00  0.00     0.016 C 
BRANCH   3   5
ATOM      5  C   UNL     1     -11.481 -15.720  32.235  1.00  0.00     0.015 C 
BRANCH   5   6
ATOM      6  C   UNL     1     -10.504 -16.904  32.165  1.00  0.00     0.028 C 
BRANCH   6   7
ATOM      7  C   UNL     1     -11.136 -18.278  32.104  1.00  0.00    -0.028 C 
ATOM      8  C   UNL     1     -11.268 -19.060  31.004  1.00  0.00    -0.070 CG0
ATOM      9  C   UNL     1     -11.792 -20.460  31.208  1.00  0.00     0.039 C 
ATOM     10  G   UNL     1     -10.885 -18.617  29.602  1.00  0.00     0.000 G0
ENDBRANCH   6   7
ENDBRANCH   5   6
ENDBRANCH   3   5
ENDBRANCH   1   3
BRANCH   1  11
ATOM     11  C   UNL     1     -12.024 -15.904  29.068  1.00  0.00     0.087 C 
BRANCH  11  12
ATOM     12  C   UNL     1     -12.663 -17.083  28.275  1.00  0.00     0.066 C 
BRANCH  12  13
ATOM     13  C   UNL     1     -12.057 -18.439  28.641  1.00  0.00     0.140 C 
ATOM     14  O   UNL     1     -12.546 -19.448  28.155  1.00  0.00    -0.299 OA
BRANCH  13  15
ATOM     15  C   UNL     1     -10.889 -18.617  29.602  1.00  0.00     0.106 CG0
ATOM     16  G   UNL     1     -11.262 -19.060  31.007  1.00  0.00     0.000 G0
ENDBRANCH  13  15
ENDBRANCH  12  13
BRANCH  12  17
ATOM     17  C   UNL     1     -12.618 -16.803  26.736  1.00  0.00    -0.006 C 
ATOM     18  C   UNL     1     -11.188 -16.884  26.188  1.00  0.00     0.008 C 
ATOM     19  C   UNL     1     -13.251 -15.462  26.315  1.00  0.00     0.008 C 
ENDBRANCH  12  17
ENDBRANCH  11  12
ENDBRANCH   1  11
TORSDOF 1
ENDMDL
MODEL 2
REMARK VINA RESULT:    -4.648      2.079      4.891
REMARK INTER + INTRA:          -7.265
REMARK INTER:                  -7.424
REMARK INTRA:                   0.158
REMARK UNBOUND:                -0.172
REMARK SMILES CC1=CCC[C@@H](C)C(=O)C[C@@H](C(C)C)C(=O)C1
REMARK SMILES IDX 8 1 9 2 6 3 7 4 5 5 4 6 3 7 2 8 1 9 10 11 11 12 15 13 16 14
REMARK SMILES IDX 17 15 12 17 13 18 14 19
REMARK H PARENT
REMARK Flexibility Score: 70.00
ROOT
ATOM      1  C   UNL     1     -12.156 -18.953  30.795  1.00  0.00     0.136 C 
ATOM      2  O   UNL     1     -12.019 -20.040  31.339  1.00  0.00    -0.299 OA
ENDROOT
BRANCH   1   3
ATOM      3  C   UNL     1     -12.266 -18.889  29.289  1.00  0.00     0.053 C 
ATOM      4  C   UNL     1     -12.981 -20.131  28.741  1.00  0.00     0.016 C 
BRANCH   3   5
ATOM      5  C   UNL     1     -10.846 -18.735  28.676  1.00  0.00     0.015 C 
BRANCH   5   6
ATOM      6  C   UNL     1     -10.743 -17.707  27.537  1.00  0.00     0.028 C 
BRANCH   6   7
ATOM      7  C   UNL     1     -11.999 -16.912  27.252  1.00  0.00    -0.028 C 
ATOM      8  C   UNL     1     -12.335 -15.711  27.783  1.00  0.00    -0.070 CG0
ATOM      9  C   UNL     1     -13.563 -15.029  27.234  1.00  0.00     0.039 C 
ATOM     10  G   UNL     1     -11.527 -15.009  28.862  1.00  0.00     0.000 G0
ENDBRANCH   6   7
ENDBRANCH   5   6
ENDBRANCH   3   5
ENDBRANCH   1   3
BRANCH   1  11
ATOM     11  C   UNL     1     -12.212 -17.708  31.651  1.00  0.00     0.087 C 
BRANCH  11  12
ATOM     12  C   UNL     1     -12.613 -16.408  30.893  1.00  0.00     0.066 C 
BRANCH  12  13
ATOM     13  C   UNL     1     -11.425 -15.739  30.200  1.00  0.00     0.140 C 
ATOM     14  O   UNL     1     -10.333 -15.775  30.749  1.00  0.00    -0.299 OA
BRANCH  13  15
ATOM     15  C   UNL     1     -11.518 -15.001  28.871  1.00  0.00     0.106 CG0
ATOM     16  G   UNL     1     -12.335 -15.698  27.796  1.00  0.00     0.000 G0
ENDBRANCH  13  15
ENDBRANCH  12  13
BRANCH  12  17
ATOM     17  C   UNL     1     -13.383 -15.430  31.841  1.00  0.00    -0.006 C 
ATOM     18  C   UNL     1     -14.112 -16.185  32.959  1.00  0.00     0.008 C 
ATOM     19  C   UNL     1     -14.377 -14.497  31.122  1.00  0.00     0.008 C 
ENDBRANCH  12  17
ENDBRANCH  11  12
ENDBRANCH   1  11
TORSDOF 1
ENDMDL
MODEL 3
REMARK VINA RESULT:    -4.535      2.227      3.403
REMARK INTER + INTRA:          -7.093
REMARK INTER:                  -6.782
REMARK INTRA:                  -0.311
REMARK UNBOUND:                -0.172
REMARK SMILES CC1=CCC[C@@H](C)C(=O)C[C@@H](C(C)C)C(=O)C1
REMARK SMILES IDX 8 1 9 2 6 3 7 4 5 5 4 6 3 7 2 8 1 9 10 11 11 12 15 13 16 14
REMARK SMILES IDX 17 15 12 17 13 18 14 19
REMARK H PARENT
REMARK Flexibility Score: 70.00
ROOT
ATOM      1  C   UNL     1     -13.819 -15.107  31.755  1.00  0.00     0.136 C 
ATOM      2  O   UNL     1     -14.705 -14.707  32.497  1.00  0.00    -0.299 OA
ENDROOT
BRANCH   1   3
ATOM      3  C   UNL     1     -13.185 -16.454  32.017  1.00  0.00     0.053 C 
ATOM      4  C   UNL     1     -13.980 -17.235  33.071  1.00  0.00     0.016 C 
BRANCH   3   5
ATOM      5  C   UNL     1     -11.708 -16.249  32.455  1.00  0.00     0.015 C 
BRANCH   5   6
ATOM      6  C   UNL     1     -10.687 -16.265  31.307  1.00  0.00     0.028 C 
BRANCH   6   7
ATOM      7  C   UNL     1     -11.011 -17.184  30.148  1.00  0.00    -0.028 C 
ATOM      8  C   UNL     1     -11.359 -16.810  28.893  1.00  0.00    -0.070 CG0
ATOM      9  C   UNL     1     -11.485 -17.898  27.856  1.00  0.00     0.039 C 
ATOM     10  G   UNL     1     -11.588 -15.368  28.473  1.00  0.00     0.000 G0
ENDBRANCH   6   7
ENDBRANCH   5   6
ENDBRANCH   3   5
ENDBRANCH   1   3
BRANCH   1  11
ATOM     11  C   UNL     1     -13.389 -14.236  30.595  1.00  0.00     0.087 C 
BRANCH  11  12
ATOM     12  C   UNL     1     -14.052 -14.589  29.230  1.00  0.00     0.066 C 
BRANCH  12  13
ATOM     13  C   UNL     1     -13.031 -14.989  28.163  1.00  0.00     0.140 C 
ATOM     14  O   UNL     1     -13.393 -15.031  26.996  1.00  0.00    -0.299 OA
BRANCH  13  15
ATOM     15  C   UNL     1     -11.588 -15.365  28.466  1.00  0.00     0.106 CG0
ATOM     16  G   UNL     1     -11.366 -16.806  28.894  1.00  0.00     0.000 G0
ENDBRANCH  13  15
ENDBRANCH  12  13
BRANCH  12  17
ATOM     17  C   UNL     1     -14.992 -13.432  28.756  1.00  0.00    -0.006 C 
ATOM     18  C   UNL     1     -14.364 -12.055  29.008  1.00  0.00     0.008 C 
ATOM     19  C   UNL     1     -16.406 -13.468  29.370  1.00  0.00     0.008 C 
ENDBRANCH  12  17
ENDBRANCH  11  12
ENDBRANCH   1  11
TORSDOF 1
ENDMDL
MODEL 4
REMARK VINA RESULT:    -4.442      1.626      3.694
REMARK INTER + INTRA:          -6.951
REMARK INTER:                  -7.387
REMARK INTRA:                   0.436
REMARK UNBOUND:                -0.172
REMARK SMILES CC1=CCC[C@@H](C)C(=O)C[C@@H](C(C)C)C(=O)C1
REMARK SMILES IDX 8 1 9 2 6 3 7 4 5 5 4 6 3 7 2 8 1 9 10 11 11 12 15 13 16 14
REMARK SMILES IDX 17 15 12 17 13 18 14 19
REMARK H PARENT
REMARK Flexibility Score: 70.00
ROOT
ATOM      1  C   UNL     1     -11.430 -19.010  29.176  1.00  0.00     0.136 C 
ATOM      2  O   UNL     1     -10.241 -18.803  29.376  1.00  0.00    -0.299 OA
ENDROOT
BRANCH   1   3
ATOM      3  C   UNL     1     -12.103 -20.179  29.859  1.00  0.00     0.053 C 
ATOM      4  C   UNL     1     -13.339 -20.632  29.073  1.00  0.00     0.016 C 
BRANCH   3   5
ATOM      5  C   UNL     1     -12.470 -19.780  31.315  1.00  0.00     0.015 C 
BRANCH   5   6
ATOM      6  C   UNL     1     -11.789 -18.500  31.825  1.00  0.00     0.028 C 
BRANCH   6   7
ATOM      7  C   UNL     1     -12.706 -17.325  32.090  1.00  0.00    -0.028 C 
ATOM      8  C   UNL     1     -12.655 -16.109  31.495  1.00  0.00    -0.070 CG0
ATOM      9  C   UNL     1     -13.769 -15.140  31.803  1.00  0.00     0.039 C 
ATOM     10  G   UNL     1     -11.570 -15.691  30.517  1.00  0.00     0.000 G0
ENDBRANCH   6   7
ENDBRANCH   5   6
ENDBRANCH   3   5
ENDBRANCH   1   3
BRANCH   1  11
ATOM     11  C   UNL     1     -12.187 -18.084  28.250  1.00  0.00     0.087 C 
BRANCH  11  12
ATOM     12  C   UNL     1     -11.521 -16.694  28.025  1.00  0.00     0.066 C 
BRANCH  12  13
ATOM     13  C   UNL     1     -11.970 -15.651  29.050  1.00  0.00     0.140 C 
ATOM     14  O   UNL     1     -12.684 -14.733  28.674  1.00  0.00    -0.299 OA
BRANCH  13  15
ATOM     15  C   UNL     1     -11.563 -15.669  30.517  1.00  0.00     0.106 CG0
ATOM     16  G   UNL     1     -12.647 -16.102  31.490  1.00  0.00     0.000 G0
ENDBRANCH  13  15
ENDBRANCH  12  13
BRANCH  12  17
ATOM     17  C   UNL     1     -11.729 -16.214  26.551  1.00  0.00    -0.006 C 
ATOM     18  C   UNL     1     -13.173 -16.433  26.083  1.00  0.00     0.008 C 
ATOM     19  C   UNL     1     -10.761 -16.847  25.533  1.00  0.00     0.008 C 
ENDBRANCH  12  17
ENDBRANCH  11  12
ENDBRANCH   1  11
TORSDOF 1
ENDMDL
MODEL 5
REMARK VINA RESULT:    -4.313      1.948      4.103
REMARK INTER + INTRA:          -6.754
REMARK INTER:                  -7.254
REMARK INTRA:                   0.500
REMARK UNBOUND:                -0.172
REMARK SMILES CC1=CCC[C@@H](C)C(=O)C[C@@H](C(C)C)C(=O)C1
REMARK SMILES IDX 8 1 9 2 6 3 7 4 5 5 4 6 3 7 2 8 1 9 10 11 11 12 15 13 16 14
REMARK SMILES IDX 17 15 12 17 13 18 14 19
REMARK H PARENT
REMARK Flexibility Score: 70.00
ROOT
ATOM      1  C   UNL     1     -13.510 -14.791  30.087  1.00  0.00     0.136 C 
ATOM      2  O   UNL     1     -14.347 -14.324  30.847  1.00  0.00    -0.299 OA
ENDROOT
BRANCH   1   3
ATOM      3  C   UNL     1     -13.262 -14.118  28.756  1.00  0.00     0.053 C 
ATOM      4  C   UNL     1     -13.928 -12.737  28.711  1.00  0.00     0.016 C 
BRANCH   3   5
ATOM      5  C   UNL     1     -13.776 -15.035  27.613  1.00  0.00     0.015 C 
BRANCH   5   6
ATOM      6  C   UNL     1     -12.702 -15.925  26.967  1.00  0.00     0.028 C 
BRANCH   6   7
ATOM      7  C   UNL     1     -12.673 -17.366  27.431  1.00  0.00    -0.028 C 
ATOM      8  C   UNL     1     -11.699 -17.961  28.161  1.00  0.00    -0.070 CG0
ATOM      9  C   UNL     1     -11.955 -19.367  28.642  1.00  0.00     0.039 C 
ATOM     10  G   UNL     1     -10.396 -17.280  28.546  1.00  0.00     0.000 G0
ENDBRANCH   6   7
ENDBRANCH   5   6
ENDBRANCH   3   5
ENDBRANCH   1   3
BRANCH   1  11
ATOM     11  C   UNL     1     -12.751 -16.029  30.508  1.00  0.00     0.087 C 
BRANCH  11  12
ATOM     12  C   UNL     1     -11.211 -15.838  30.648  1.00  0.00     0.066 C 
BRANCH  12  13
ATOM     13  C   UNL     1     -10.475 -15.978  29.315  1.00  0.00     0.140 C 
ATOM     14  O   UNL     1      -9.954 -14.985  28.829  1.00  0.00    -0.299 OA
BRANCH  13  15
ATOM     15  C   UNL     1     -10.368 -17.281  28.534  1.00  0.00     0.106 CG0
ATOM     16  G   UNL     1     -11.692 -17.932  28.169  1.00  0.00     0.000 G0
ENDBRANCH  13  15
ENDBRANCH  12  13
BRANCH  12  17
ATOM     17  C   UNL     1     -10.636 -16.783  31.754  1.00  0.00    -0.006 C 
ATOM     18  C   UNL     1     -11.558 -17.981  32.009  1.00  0.00     0.008 C 
ATOM     19  C   UNL     1     -10.325 -16.083  33.091  1.00  0.00     0.008 C 
ENDBRANCH  12  17
ENDBRANCH  11  12
ENDBRANCH   1  11
TORSDOF 1
ENDMDL
MODEL 6
REMARK VINA RESULT:    -4.217      2.114      3.777
REMARK INTER + INTRA:          -6.608
REMARK INTER:                  -7.551
REMARK INTRA:                   0.943
REMARK UNBOUND:                -0.172
REMARK SMILES CC1=CCC[C@@H](C)C(=O)C[C@@H](C(C)C)C(=O)C1
REMARK SMILES IDX 8 1 9 2 6 3 7 4 5 5 4 6 3 7 2 8 1 9 10 11 11 12 15 13 16 14
REMARK SMILES IDX 17 15 12 17 13 18 14 19
REMARK H PARENT
REMARK Flexibility Score: 70.00
ROOT
ATOM      1  C   UNL     1     -11.620 -16.724  31.875  1.00  0.00     0.136 C 
ATOM      2  O   UNL     1     -10.916 -16.230  32.745  1.00  0.00    -0.299 OA
ENDROOT
BRANCH   1   3
ATOM      3  C   UNL     1     -11.529 -18.208  31.602  1.00  0.00     0.053 C 
ATOM      4  C   UNL     1     -10.081 -18.619  31.304  1.00  0.00     0.016 C 
BRANCH   3   5
ATOM      5  C   UNL     1     -12.477 -18.573  30.427  1.00  0.00     0.015 C 
BRANCH   5   6
ATOM      6  C   UNL     1     -11.810 -19.346  29.277  1.00  0.00     0.028 C 
BRANCH   6   7
ATOM      7  C   UNL     1     -11.868 -18.684  27.917  1.00  0.00    -0.028 C 
ATOM      8  C   UNL     1     -11.116 -17.640  27.492  1.00  0.00    -0.070 CG0
ATOM      9  C   UNL     1     -11.234 -17.245  26.041  1.00  0.00     0.039 C 
ATOM     10  G   UNL     1     -10.143 -16.883  28.381  1.00  0.00     0.000 G0
ENDBRANCH   6   7
ENDBRANCH   5   6
ENDBRANCH   3   5
ENDBRANCH   1   3
BRANCH   1  11
ATOM     11  C   UNL     1     -12.562 -15.828  31.102  1.00  0.00     0.087 C 
BRANCH  11  12
ATOM     12  C   UNL     1     -12.261 -15.721  29.577  1.00  0.00     0.066 C 
BRANCH  12  13
ATOM     13  C   UNL     1     -10.766 -15.804  29.263  1.00  0.00     0.140 C 
ATOM     14  O   UNL     1     -10.024 -14.949  29.725  1.00  0.00    -0.299 OA
BRANCH  13  15
ATOM     15  C   UNL     1     -10.140 -16.878  28.384  1.00  0.00     0.106 CG0
ATOM     16  G   UNL     1     -11.106 -17.628  27.483  1.00  0.00     0.000 G0
ENDBRANCH  13  15
ENDBRANCH  12  13
BRANCH  12  17
ATOM     17  C   UNL     1     -12.931 -14.444  28.970  1.00  0.00    -0.006 C 
ATOM     18  C   UNL     1     -14.016 -13.881  29.897  1.00  0.00     0.008 C 
ATOM     19  C   UNL     1     -13.517 -14.642  27.559  1.00  0.00     0.008 C 
ENDBRANCH  12  17
ENDBRANCH  11  12
ENDBRANCH   1  11
TORSDOF 1
ENDMDL
MODEL 7
REMARK VINA RESULT:    -3.945      1.686      4.056
REMARK INTER + INTRA:          -6.192
REMARK INTER:                  -7.139
REMARK INTRA:                   0.947
REMARK UNBOUND:                -0.172
REMARK SMILES CC1=CCC[C@@H](C)C(=O)C[C@@H](C(C)C)C(=O)C1
REMARK SMILES IDX 8 1 9 2 6 3 7 4 5 5 4 6 3 7 2 8 1 9 10 11 11 12 15 13 16 14
REMARK SMILES IDX 17 15 12 17 13 18 14 19
REMARK H PARENT
REMARK Flexibility Score: 70.00
ROOT
ATOM      1  C   UNL     1     -12.973 -14.918  29.127  1.00  0.00     0.136 C 
ATOM      2  O   UNL     1     -13.606 -13.884  29.286  1.00  0.00    -0.299 OA
ENDROOT
BRANCH   1   3
ATOM      3  C   UNL     1     -12.179 -15.112  27.856  1.00  0.00     0.053 C 
ATOM      4  C   UNL     1     -13.017 -15.837  26.795  1.00  0.00     0.016 C 
BRANCH   3   5
ATOM      5  C   UNL     1     -10.874 -15.890  28.179  1.00  0.00     0.015 C 
BRANCH   5   6
ATOM      6  C   UNL     1     -10.872 -17.361  27.731  1.00  0.00     0.028 C 
BRANCH   6   7
ATOM      7  C   UNL     1     -11.093 -18.383  28.826  1.00  0.00    -0.028 C 
ATOM      8  C   UNL     1     -10.861 -18.214  30.150  1.00  0.00    -0.070 CG0
ATOM      9  C   UNL     1     -11.302 -19.318  31.078  1.00  0.00     0.039 C 
ATOM     10  G   UNL     1     -10.224 -16.968  30.744  1.00  0.00     0.000 G0
ENDBRANCH   6   7
ENDBRANCH   5   6
ENDBRANCH   3   5
ENDBRANCH   1   3
BRANCH   1  11
ATOM     11  C   UNL     1     -13.004 -15.969  30.215  1.00  0.00     0.087 C 
BRANCH  11  12
ATOM     12  C   UNL     1     -12.349 -15.539  31.561  1.00  0.00     0.066 C 
BRANCH  12  13
ATOM     13  C   UNL     1     -11.022 -16.252  31.826  1.00  0.00     0.140 C 
ATOM     14  O   UNL     1     -10.564 -16.231  32.959  1.00  0.00    -0.299 OA
BRANCH  13  15
ATOM     15  C   UNL     1     -10.214 -16.972  30.755  1.00  0.00     0.106 CG0
ATOM     16  G   UNL     1     -10.871 -18.207  30.163  1.00  0.00     0.000 G0
ENDBRANCH  13  15
ENDBRANCH  12  13
BRANCH  12  17
ATOM     17  C   UNL     1     -13.361 -15.697  32.743  1.00  0.00    -0.006 C 
ATOM     18  C   UNL     1     -13.746 -17.165  32.966  1.00  0.00     0.008 C 
ATOM     19  C   UNL     1     -14.640 -14.849  32.604  1.00  0.00     0.008 C 
ENDBRANCH  12  17
ENDBRANCH  11  12
ENDBRANCH   1  11
TORSDOF 1
ENDMDL
MODEL 8
REMARK VINA RESULT:    -3.869      2.220      4.175
REMARK INTER + INTRA:          -6.077
REMARK INTER:                  -6.303
REMARK INTRA:                   0.226
REMARK UNBOUND:                -0.172
REMARK SMILES CC1=CCC[C@@H](C)C(=O)C[C@@H](C(C)C)C(=O)C1
REMARK SMILES IDX 8 1 9 2 6 3 7 4 5 5 4 6 3 7 2 8 1 9 10 11 11 12 15 13 16 14
REMARK SMILES IDX 17 15 12 17 13 18 14 19
REMARK H PARENT
REMARK Flexibility Score: 70.00
ROOT
ATOM      1  C   UNL     1     -12.261 -18.686  29.495  1.00  0.00     0.136 C 
ATOM      2  O   UNL     1     -12.518 -19.879  29.567  1.00  0.00    -0.299 OA
ENDROOT
BRANCH   1   3
ATOM      3  C   UNL     1     -11.672 -17.982  30.696  1.00  0.00     0.053 C 
ATOM      4  C   UNL     1     -10.951 -18.978  31.613  1.00  0.00     0.016 C 
BRANCH   3   5
ATOM      5  C   UNL     1     -12.800 -17.227  31.453  1.00  0.00     0.015 C 
BRANCH   5   6
ATOM      6  C   UNL     1     -12.602 -15.706  31.556  1.00  0.00     0.028 C 
BRANCH   6   7
ATOM      7  C   UNL     1     -13.766 -14.857  31.093  1.00  0.00    -0.028 C 
ATOM      8  C   UNL     1     -13.898 -14.253  29.887  1.00  0.00    -0.070 CG0
ATOM      9  C   UNL     1     -15.216 -13.584  29.587  1.00  0.00     0.039 C 
ATOM     10  G   UNL     1     -12.815 -14.250  28.821  1.00  0.00     0.000 G0
ENDBRANCH   6   7
ENDBRANCH   5   6
ENDBRANCH   3   5
ENDBRANCH   1   3
BRANCH   1  11
ATOM     11  C   UNL     1     -12.541 -17.955  28.201  1.00  0.00     0.087 C 
BRANCH  11  12
ATOM     12  C   UNL     1     -11.806 -16.590  28.047  1.00  0.00     0.066 C 
BRANCH  12  13
ATOM     13  C   UNL     1     -12.770 -15.416  27.874  1.00  0.00     0.140 C 
ATOM     14  O   UNL     1     -13.535 -15.424  26.919  1.00  0.00    -0.299 OA
BRANCH  13  15
ATOM     15  C   UNL     1     -12.824 -14.213  28.806  1.00  0.00     0.106 CG0
ATOM     16  G   UNL     1     -13.895 -14.271  29.882  1.00  0.00     0.000 G0
ENDBRANCH  13  15
ENDBRANCH  12  13
BRANCH  12  17
ATOM     17  C   UNL     1     -10.739 -16.663  26.905  1.00  0.00    -0.006 C 
ATOM     18  C   UNL     1     -11.381 -16.502  25.521  1.00  0.00     0.008 C 
ATOM     19  C   UNL     1      -9.875 -17.939  26.921  1.00  0.00     0.008 C 
ENDBRANCH  12  17
ENDBRANCH  11  12
ENDBRANCH   1  11
TORSDOF 1
ENDMDL
MODEL 9
REMARK VINA RESULT:    -3.833      2.180      5.339
REMARK INTER + INTRA:          -6.022
REMARK INTER:                  -6.497
REMARK INTRA:                   0.474
REMARK UNBOUND:                -0.172
REMARK SMILES CC1=CCC[C@@H](C)C(=O)C[C@@H](C(C)C)C(=O)C1
REMARK SMILES IDX 8 1 9 2 6 3 7 4 5 5 4 6 3 7 2 8 1 9 10 11 11 12 15 13 16 14
REMARK SMILES IDX 17 15 12 17 13 18 14 19
REMARK H PARENT
REMARK Flexibility Score: 70.00
ROOT
ATOM      1  C   UNL     1     -11.167 -17.759  27.965  1.00  0.00     0.136 C 
ATOM      2  O   UNL     1      -9.992 -17.636  28.278  1.00  0.00    -0.299 OA
ENDROOT
BRANCH   1   3
ATOM      3  C   UNL     1     -11.570 -17.582  26.518  1.00  0.00     0.053 C 
ATOM      4  C   UNL     1     -10.625 -16.607  25.805  1.00  0.00     0.016 C 
BRANCH   3   5
ATOM      5  C   UNL     1     -13.044 -17.097  26.452  1.00  0.00     0.015 C 
BRANCH   5   6
ATOM      6  C   UNL     1     -13.216 -15.579  26.279  1.00  0.00     0.028 C 
BRANCH   6   7
ATOM      7  C   UNL     1     -13.829 -14.847  27.454  1.00  0.00    -0.028 C 
ATOM      8  C   UNL     1     -13.183 -14.412  28.563  1.00  0.00    -0.070 CG0
ATOM      9  C   UNL     1     -13.967 -13.567  29.535  1.00  0.00     0.039 C 
ATOM     10  G   UNL     1     -11.719 -14.696  28.853  1.00  0.00     0.000 G0
ENDBRANCH   6   7
ENDBRANCH   5   6
ENDBRANCH   3   5
ENDBRANCH   1   3
BRANCH   1  11
ATOM     11  C   UNL     1     -12.180 -18.087  29.039  1.00  0.00     0.087 C 
BRANCH  11  12
ATOM     12  C   UNL     1     -12.356 -16.989  30.131  1.00  0.00     0.066 C 
BRANCH  12  13
ATOM     13  C   UNL     1     -11.445 -15.781  29.906  1.00  0.00     0.140 C 
ATOM     14  O   UNL     1     -10.453 -15.659  30.612  1.00  0.00    -0.299 OA
BRANCH  13  15
ATOM     15  C   UNL     1     -11.707 -14.698  28.869  1.00  0.00     0.106 CG0
ATOM     16  G   UNL     1     -13.172 -14.423  28.571  1.00  0.00     0.000 G0
ENDBRANCH  13  15
ENDBRANCH  12  13
BRANCH  12  17
ATOM     17  C   UNL     1     -12.197 -17.602  31.561  1.00  0.00    -0.006 C 
ATOM     18  C   UNL     1     -12.056 -19.129  31.509  1.00  0.00     0.008 C 
ATOM     19  C   UNL     1     -13.324 -17.227  32.544  1.00  0.00     0.008 C 
ENDBRANCH  12  17
ENDBRANCH  11  12
ENDBRANCH   1  11
TORSDOF 1
ENDMDL
