MODEL 1
REMARK VINA RESULT:    -4.453      0.000      0.000
REMARK INTER + INTRA:         -10.295
REMARK INTER:                  -7.837
REMARK INTRA:                  -2.458
REMARK UNBOUND:                -2.458
REMARK SMILES CCCCCCCCCCCCCCC(=O)[O-]
REMARK SMILES IDX 9 1 10 2 11 3 12 4 13 5 14 6 15 7 16 8 17 9 8 10 7 11 6 12
REMARK SMILES IDX 5 13 4 14 3 15 2 16 1 17
REMARK H PARENT
REMARK Flexibility Score: inf
ROOT
ATOM      1  C   UNL     1      18.851 -41.856 -24.607  1.00  0.00     0.000 C 
ENDROOT
BRANCH   1   2
ATOM      2  C   UNL     1      17.768 -41.258 -23.697  1.00  0.00     0.000 C 
BRANCH   2   3
ATOM      3  C   UNL     1      16.423 -41.964 -23.907  1.00  0.00     0.000 C 
BRANCH   3   4
ATOM      4  C   UNL     1      15.612 -42.003 -22.607  1.00  0.00     0.000 C 
BRANCH   4   5
ATOM      5  C   UNL     1      16.364 -41.304 -21.467  1.00  0.00     0.006 C 
BRANCH   5   6
ATOM      6  C   UNL     1      15.793 -41.706 -20.105  1.00  0.00     0.053 C 
BRANCH   6   7
ATOM      7  C   UNL     1      16.885 -41.802 -19.087  1.00  0.00     0.041 C 
ATOM      8  O   UNL     1      18.077 -41.560 -19.413  1.00  0.00    -0.550 OA
ATOM      9  O   UNL     1      16.582 -42.108 -17.767  1.00  0.00    -0.550 OA
ENDBRANCH   6   7
ENDBRANCH   5   6
ENDBRANCH   4   5
ENDBRANCH   3   4
ENDBRANCH   2   3
ENDBRANCH   1   2
BRANCH   1  10
ATOM     10  C   UNL     1      20.036 -42.443 -23.821  1.00  0.00     0.000 C 
BRANCH  10  11
ATOM     11  C   UNL     1      19.793 -42.623 -22.308  1.00  0.00    -0.000 C 
BRANCH  11  12
ATOM     12  C   UNL     1      19.616 -44.079 -21.844  1.00  0.00    -0.000 C 
BRANCH  12  13
ATOM     13  C   UNL     1      18.145 -44.458 -21.617  1.00  0.00    -0.000 C 
BRANCH  13  14
ATOM     14  C   UNL     1      17.800 -45.774 -22.324  1.00  0.00    -0.000 C 
BRANCH  14  15
ATOM     15  C   UNL     1      17.293 -45.517 -23.750  1.00  0.00    -0.000 C 
BRANCH  15  16
ATOM     16  C   UNL     1      18.356 -45.816 -24.818  1.00  0.00    -0.003 C 
ATOM     17  C   UNL     1      18.038 -45.173 -26.168  1.00  0.00     0.004 C 
ENDBRANCH  15  16
ENDBRANCH  14  15
ENDBRANCH  13  14
ENDBRANCH  12  13
ENDBRANCH  11  12
ENDBRANCH  10  11
ENDBRANCH   1  10
TORSDOF 13
ENDMDL
MODEL 2
REMARK VINA RESULT:    -4.399      1.215      2.392
REMARK INTER + INTRA:         -10.200
REMARK INTER:                  -8.381
REMARK INTRA:                  -1.820
REMARK UNBOUND:                -2.458
REMARK SMILES CCCCCCCCCCCCCCC(=O)[O-]
REMARK SMILES IDX 9 1 10 2 11 3 12 4 13 5 14 6 15 7 16 8 17 9 8 10 7 11 6 12
REMARK SMILES IDX 5 13 4 14 3 15 2 16 1 17
REMARK H PARENT
REMARK Flexibility Score: inf
ROOT
ATOM      1  C   UNL     1      19.095 -42.171 -23.654  1.00  0.00     0.000 C 
ENDROOT
BRANCH   1   2
ATOM      2  C   UNL     1      17.972 -41.363 -24.321  1.00  0.00     0.000 C 
BRANCH   2   3
ATOM      3  C   UNL     1      16.692 -41.405 -23.479  1.00  0.00     0.000 C 
BRANCH   3   4
ATOM      4  C   UNL     1      16.955 -40.916 -22.050  1.00  0.00     0.000 C 
BRANCH   4   5
ATOM      5  C   UNL     1      16.433 -41.922 -21.018  1.00  0.00     0.006 C 
BRANCH   5   6
ATOM      6  C   UNL     1      17.058 -41.674 -19.643  1.00  0.00     0.053 C 
BRANCH   6   7
ATOM      7  C   UNL     1      16.029 -41.813 -18.566  1.00  0.00     0.041 C 
ATOM      8  O   UNL     1      16.374 -42.135 -17.399  1.00  0.00    -0.550 OA
ATOM      9  O   UNL     1      14.696 -41.536 -18.838  1.00  0.00    -0.550 OA
ENDBRANCH   6   7
ENDBRANCH   5   6
ENDBRANCH   4   5
ENDBRANCH   3   4
ENDBRANCH   2   3
ENDBRANCH   1   2
BRANCH   1  10
ATOM     10  C   UNL     1      19.432 -43.467 -24.413  1.00  0.00     0.000 C 
BRANCH  10  11
ATOM     11  C   UNL     1      18.237 -44.140 -25.120  1.00  0.00    -0.000 C 
BRANCH  11  12
ATOM     12  C   UNL     1      17.680 -45.389 -24.415  1.00  0.00    -0.000 C 
BRANCH  12  13
ATOM     13  C   UNL     1      16.817 -45.048 -23.191  1.00  0.00    -0.000 C 
BRANCH  13  14
ATOM     14  C   UNL     1      17.545 -45.402 -21.889  1.00  0.00    -0.000 C 
BRANCH  14  15
ATOM     15  C   UNL     1      18.173 -46.801 -21.972  1.00  0.00    -0.000 C 
BRANCH  15  16
ATOM     16  C   UNL     1      19.691 -46.782 -21.740  1.00  0.00    -0.003 C 
ATOM     17  C   UNL     1      20.232 -45.378 -21.467  1.00  0.00     0.004 C 
ENDBRANCH  15  16
ENDBRANCH  14  15
ENDBRANCH  13  14
ENDBRANCH  12  13
ENDBRANCH  11  12
ENDBRANCH  10  11
ENDBRANCH   1  10
TORSDOF 13
ENDMDL
MODEL 3
REMARK VINA RESULT:    -4.325      1.818      2.831
REMARK INTER + INTRA:         -10.070
REMARK INTER:                  -8.424
REMARK INTRA:                  -1.646
REMARK UNBOUND:                -2.458
REMARK SMILES CCCCCCCCCCCCCCC(=O)[O-]
REMARK SMILES IDX 9 1 10 2 11 3 12 4 13 5 14 6 15 7 16 8 17 9 8 10 7 11 6 12
REMARK SMILES IDX 5 13 4 14 3 15 2 16 1 17
REMARK H PARENT
REMARK Flexibility Score: inf
ROOT
ATOM      1  C   UNL     1      20.554 -43.419 -24.082  1.00  0.00     0.000 C 
ENDROOT
BRANCH   1   2
ATOM      2  C   UNL     1      19.645 -42.642 -25.046  1.00  0.00     0.000 C 
BRANCH   2   3
ATOM      3  C   UNL     1      18.794 -41.615 -24.291  1.00  0.00     0.000 C 
BRANCH   3   4
ATOM      4  C   UNL     1      17.332 -42.069 -24.203  1.00  0.00     0.000 C 
BRANCH   4   5
ATOM      5  C   UNL     1      16.558 -41.239 -23.172  1.00  0.00     0.006 C 
BRANCH   5   6
ATOM      6  C   UNL     1      17.283 -41.222 -21.824  1.00  0.00     0.053 C 
BRANCH   6   7
ATOM      7  C   UNL     1      16.340 -41.572 -20.717  1.00  0.00     0.041 C 
ATOM      8  O   UNL     1      15.096 -41.546 -20.913  1.00  0.00    -0.550 OA
ATOM      9  O   UNL     1      16.833 -41.975 -19.483  1.00  0.00    -0.550 OA
ENDBRANCH   6   7
ENDBRANCH   5   6
ENDBRANCH   4   5
ENDBRANCH   3   4
ENDBRANCH   2   3
ENDBRANCH   1   2
BRANCH   1  10
ATOM     10  C   UNL     1      20.503 -42.876 -22.643  1.00  0.00     0.000 C 
BRANCH  10  11
ATOM     11  C   UNL     1      19.874 -43.829 -21.606  1.00  0.00    -0.000 C 
BRANCH  11  12
ATOM     12  C   UNL     1      19.090 -45.013 -22.198  1.00  0.00    -0.000 C 
BRANCH  12  13
ATOM     13  C   UNL     1      17.606 -45.005 -21.800  1.00  0.00    -0.000 C 
BRANCH  13  14
ATOM     14  C   UNL     1      16.787 -45.924 -22.713  1.00  0.00    -0.000 C 
BRANCH  14  15
ATOM     15  C   UNL     1      16.747 -47.357 -22.161  1.00  0.00    -0.000 C 
BRANCH  15  16
ATOM     16  C   UNL     1      15.389 -47.713 -21.538  1.00  0.00    -0.003 C 
ATOM     17  C   UNL     1      15.372 -49.107 -20.911  1.00  0.00     0.004 C 
ENDBRANCH  15  16
ENDBRANCH  14  15
ENDBRANCH  13  14
ENDBRANCH  12  13
ENDBRANCH  11  12
ENDBRANCH  10  11
ENDBRANCH   1  10
TORSDOF 13
ENDMDL
MODEL 4
REMARK VINA RESULT:    -4.290      2.493      4.171
REMARK INTER + INTRA:         -10.007
REMARK INTER:                  -7.982
REMARK INTRA:                  -2.025
REMARK UNBOUND:                -2.458
REMARK SMILES CCCCCCCCCCCCCCC(=O)[O-]
REMARK SMILES IDX 9 1 10 2 11 3 12 4 13 5 14 6 15 7 16 8 17 9 8 10 7 11 6 12
REMARK SMILES IDX 5 13 4 14 3 15 2 16 1 17
REMARK H PARENT
REMARK Flexibility Score: inf
ROOT
ATOM      1  C   UNL     1      15.777 -41.692 -22.191  1.00  0.00     0.000 C 
ENDROOT
BRANCH   1   2
ATOM      2  C   UNL     1      16.915 -41.553 -21.170  1.00  0.00     0.000 C 
BRANCH   2   3
ATOM      3  C   UNL     1      17.340 -42.925 -20.632  1.00  0.00     0.000 C 
BRANCH   3   4
ATOM      4  C   UNL     1      18.717 -43.326 -21.173  1.00  0.00     0.000 C 
BRANCH   4   5
ATOM      5  C   UNL     1      18.717 -44.781 -21.656  1.00  0.00     0.006 C 
BRANCH   5   6
ATOM      6  C   UNL     1      17.298 -45.248 -21.993  1.00  0.00     0.053 C 
BRANCH   6   7
ATOM      7  C   UNL     1      17.231 -46.742 -22.024  1.00  0.00     0.041 C 
ATOM      8  O   UNL     1      16.186 -47.337 -21.651  1.00  0.00    -0.550 OA
ATOM      9  O   UNL     1      18.304 -47.477 -22.512  1.00  0.00    -0.550 OA
ENDBRANCH   6   7
ENDBRANCH   5   6
ENDBRANCH   4   5
ENDBRANCH   3   4
ENDBRANCH   2   3
ENDBRANCH   1   2
BRANCH   1  10
ATOM     10  C   UNL     1      16.211 -41.333 -23.623  1.00  0.00     0.000 C 
BRANCH  10  11
ATOM     11  C   UNL     1      17.285 -42.258 -24.233  1.00  0.00    -0.000 C 
BRANCH  11  12
ATOM     12  C   UNL     1      18.651 -41.597 -24.484  1.00  0.00    -0.000 C 
BRANCH  12  13
ATOM     13  C   UNL     1      19.804 -42.611 -24.535  1.00  0.00    -0.000 C 
BRANCH  13  14
ATOM     14  C   UNL     1      19.594 -43.626 -25.664  1.00  0.00    -0.000 C 
BRANCH  14  15
ATOM     15  C   UNL     1      19.361 -45.036 -25.101  1.00  0.00    -0.000 C 
BRANCH  15  16
ATOM     16  C   UNL     1      18.083 -45.688 -25.651  1.00  0.00    -0.003 C 
ATOM     17  C   UNL     1      17.809 -45.319 -27.109  1.00  0.00     0.004 C 
ENDBRANCH  15  16
ENDBRANCH  14  15
ENDBRANCH  13  14
ENDBRANCH  12  13
ENDBRANCH  11  12
ENDBRANCH  10  11
ENDBRANCH   1  10
TORSDOF 13
ENDMDL
MODEL 5
REMARK VINA RESULT:    -4.236      1.291      1.987
REMARK INTER + INTRA:          -9.914
REMARK INTER:                  -7.997
REMARK INTRA:                  -1.917
REMARK UNBOUND:                -2.458
REMARK SMILES CCCCCCCCCCCCCCC(=O)[O-]
REMARK SMILES IDX 9 1 10 2 11 3 12 4 13 5 14 6 15 7 16 8 17 9 8 10 7 11 6 12
REMARK SMILES IDX 5 13 4 14 3 15 2 16 1 17
REMARK H PARENT
REMARK Flexibility Score: inf
ROOT
ATOM      1  C   UNL     1      18.340 -43.302 -24.621  1.00  0.00     0.000 C 
ENDROOT
BRANCH   1   2
ATOM      2  C   UNL     1      17.993 -41.892 -24.121  1.00  0.00     0.000 C 
BRANCH   2   3
ATOM      3  C   UNL     1      16.487 -41.754 -23.869  1.00  0.00     0.000 C 
BRANCH   3   4
ATOM      4  C   UNL     1      16.097 -42.364 -22.518  1.00  0.00     0.000 C 
BRANCH   4   5
ATOM      5  C   UNL     1      16.531 -41.459 -21.359  1.00  0.00     0.006 C 
BRANCH   5   6
ATOM      6  C   UNL     1      16.871 -42.283 -20.115  1.00  0.00     0.053 C 
BRANCH   6   7
ATOM      7  C   UNL     1      16.174 -41.731 -18.912  1.00  0.00     0.041 C 
ATOM      8  O   UNL     1      14.941 -41.481 -18.954  1.00  0.00    -0.550 OA
ATOM      9  O   UNL     1      16.875 -41.539 -17.728  1.00  0.00    -0.550 OA
ENDBRANCH   6   7
ENDBRANCH   5   6
ENDBRANCH   4   5
ENDBRANCH   3   4
ENDBRANCH   2   3
ENDBRANCH   1   2
BRANCH   1  10
ATOM     10  C   UNL     1      19.788 -43.712 -24.299  1.00  0.00     0.000 C 
BRANCH  10  11
ATOM     11  C   UNL     1      20.313 -43.235 -22.929  1.00  0.00    -0.000 C 
BRANCH  11  12
ATOM     12  C   UNL     1      19.722 -43.968 -21.712  1.00  0.00    -0.000 C 
BRANCH  12  13
ATOM     13  C   UNL     1      20.168 -45.434 -21.623  1.00  0.00    -0.000 C 
BRANCH  13  14
ATOM     14  C   UNL     1      18.985 -46.384 -21.845  1.00  0.00    -0.000 C 
BRANCH  14  15
ATOM     15  C   UNL     1      17.651 -45.629 -21.772  1.00  0.00    -0.000 C 
BRANCH  15  16
ATOM     16  C   UNL     1      16.535 -46.321 -22.570  1.00  0.00    -0.003 C 
ATOM     17  C   UNL     1      15.983 -47.560 -21.865  1.00  0.00     0.004 C 
ENDBRANCH  15  16
ENDBRANCH  14  15
ENDBRANCH  13  14
ENDBRANCH  12  13
ENDBRANCH  11  12
ENDBRANCH  10  11
ENDBRANCH   1  10
TORSDOF 13
ENDMDL
MODEL 6
REMARK VINA RESULT:    -4.230      2.693      4.476
REMARK INTER + INTRA:          -9.903
REMARK INTER:                  -7.715
REMARK INTRA:                  -2.188
REMARK UNBOUND:                -2.458
REMARK SMILES CCCCCCCCCCCCCCC(=O)[O-]
REMARK SMILES IDX 9 1 10 2 11 3 12 4 13 5 14 6 15 7 16 8 17 9 8 10 7 11 6 12
REMARK SMILES IDX 5 13 4 14 3 15 2 16 1 17
REMARK H PARENT
REMARK Flexibility Score: inf
ROOT
ATOM      1  C   UNL     1      19.718 -41.998 -24.408  1.00  0.00     0.000 C 
ENDROOT
BRANCH   1   2
ATOM      2  C   UNL     1      19.531 -43.214 -25.326  1.00  0.00     0.000 C 
BRANCH   2   3
ATOM      3  C   UNL     1      19.168 -44.464 -24.515  1.00  0.00     0.000 C 
BRANCH   3   4
ATOM      4  C   UNL     1      17.668 -44.766 -24.611  1.00  0.00     0.000 C 
BRANCH   4   5
ATOM      5  C   UNL     1      17.212 -45.666 -23.456  1.00  0.00     0.006 C 
BRANCH   5   6
ATOM      6  C   UNL     1      18.356 -46.562 -22.974  1.00  0.00     0.053 C 
BRANCH   6   7
ATOM      7  C   UNL     1      17.831 -47.656 -22.098  1.00  0.00     0.041 C 
ATOM      8  O   UNL     1      18.588 -48.595 -21.736  1.00  0.00    -0.550 OA
ATOM      9  O   UNL     1      16.521 -47.613 -21.639  1.00  0.00    -0.550 OA
ENDBRANCH   6   7
ENDBRANCH   5   6
ENDBRANCH   4   5
ENDBRANCH   3   4
ENDBRANCH   2   3
ENDBRANCH   1   2
BRANCH   1  10
ATOM     10  C   UNL     1      21.038 -42.041 -23.617  1.00  0.00     0.000 C 
BRANCH  10  11
ATOM     11  C   UNL     1      20.880 -42.192 -22.090  1.00  0.00    -0.000 C 
BRANCH  11  12
ATOM     12  C   UNL     1      19.503 -41.792 -21.532  1.00  0.00    -0.000 C 
BRANCH  12  13
ATOM     13  C   UNL     1      18.636 -43.004 -21.160  1.00  0.00    -0.000 C 
BRANCH  13  14
ATOM     14  C   UNL     1      17.150 -42.712 -21.404  1.00  0.00    -0.000 C 
BRANCH  14  15
ATOM     15  C   UNL     1      16.964 -41.378 -22.141  1.00  0.00    -0.000 C 
BRANCH  15  16
ATOM     16  C   UNL     1      16.119 -41.520 -23.416  1.00  0.00    -0.003 C 
ATOM     17  C   UNL     1      14.847 -42.339 -23.196  1.00  0.00     0.004 C 
ENDBRANCH  15  16
ENDBRANCH  14  15
ENDBRANCH  13  14
ENDBRANCH  12  13
ENDBRANCH  11  12
ENDBRANCH  10  11
ENDBRANCH   1  10
TORSDOF 13
ENDMDL
MODEL 7
REMARK VINA RESULT:    -4.216      4.413      6.429
REMARK INTER + INTRA:          -9.877
REMARK INTER:                  -8.154
REMARK INTRA:                  -1.723
REMARK UNBOUND:                -2.458
REMARK SMILES CCCCCCCCCCCCCCC(=O)[O-]
REMARK SMILES IDX 9 1 10 2 11 3 12 4 13 5 14 6 15 7 16 8 17 9 8 10 7 11 6 12
REMARK SMILES IDX 5 13 4 14 3 15 2 16 1 17
REMARK H PARENT
REMARK Flexibility Score: inf
ROOT
ATOM      1  C   UNL     1      19.547 -42.205 -24.163  1.00  0.00     0.000 C 
ENDROOT
BRANCH   1   2
ATOM      2  C   UNL     1      19.847 -43.073 -25.393  1.00  0.00     0.000 C 
BRANCH   2   3
ATOM      3  C   UNL     1      19.275 -44.485 -25.222  1.00  0.00     0.000 C 
BRANCH   3   4
ATOM      4  C   UNL     1      17.956 -44.641 -25.986  1.00  0.00     0.000 C 
BRANCH   4   5
ATOM      5  C   UNL     1      18.085 -45.686 -27.101  1.00  0.00     0.006 C 
BRANCH   5   6
ATOM      6  C   UNL     1      17.281 -45.273 -28.337  1.00  0.00     0.053 C 
BRANCH   6   7
ATOM      7  C   UNL     1      17.430 -46.290 -29.423  1.00  0.00     0.041 C 
ATOM      8  O   UNL     1      17.432 -45.931 -30.630  1.00  0.00    -0.550 OA
ATOM      9  O   UNL     1      17.619 -47.628 -29.103  1.00  0.00    -0.550 OA
ENDBRANCH   6   7
ENDBRANCH   5   6
ENDBRANCH   4   5
ENDBRANCH   3   4
ENDBRANCH   2   3
ENDBRANCH   1   2
BRANCH   1  10
ATOM     10  C   UNL     1      18.342 -41.269 -24.370  1.00  0.00     0.000 C 
BRANCH  10  11
ATOM     11  C   UNL     1      17.296 -41.289 -23.236  1.00  0.00    -0.000 C 
BRANCH  11  12
ATOM     12  C   UNL     1      15.992 -42.038 -23.564  1.00  0.00    -0.000 C 
BRANCH  12  13
ATOM     13  C   UNL     1      15.917 -43.422 -22.904  1.00  0.00    -0.000 C 
BRANCH  13  14
ATOM     14  C   UNL     1      17.013 -43.588 -21.845  1.00  0.00    -0.000 C 
BRANCH  14  15
ATOM     15  C   UNL     1      17.648 -44.984 -21.923  1.00  0.00    -0.000 C 
BRANCH  15  16
ATOM     16  C   UNL     1      16.815 -45.966 -22.759  1.00  0.00    -0.003 C 
ATOM     17  C   UNL     1      16.383 -47.201 -21.968  1.00  0.00     0.004 C 
ENDBRANCH  15  16
ENDBRANCH  14  15
ENDBRANCH  13  14
ENDBRANCH  12  13
ENDBRANCH  11  12
ENDBRANCH  10  11
ENDBRANCH   1  10
TORSDOF 13
ENDMDL
MODEL 8
REMARK VINA RESULT:    -4.208      1.448      3.165
REMARK INTER + INTRA:          -9.864
REMARK INTER:                  -7.448
REMARK INTRA:                  -2.416
REMARK UNBOUND:                -2.458
REMARK SMILES CCCCCCCCCCCCCCC(=O)[O-]
REMARK SMILES IDX 9 1 10 2 11 3 12 4 13 5 14 6 15 7 16 8 17 9 8 10 7 11 6 12
REMARK SMILES IDX 5 13 4 14 3 15 2 16 1 17
REMARK H PARENT
REMARK Flexibility Score: inf
ROOT
ATOM      1  C   UNL     1      18.413 -43.889 -25.778  1.00  0.00     0.000 C 
ENDROOT
BRANCH   1   2
ATOM      2  C   UNL     1      19.844 -43.544 -25.342  1.00  0.00     0.000 C 
BRANCH   2   3
ATOM      3  C   UNL     1      19.873 -42.241 -24.534  1.00  0.00     0.000 C 
BRANCH   3   4
ATOM      4  C   UNL     1      18.458 -41.692 -24.321  1.00  0.00     0.000 C 
BRANCH   4   5
ATOM      5  C   UNL     1      18.133 -41.571 -22.828  1.00  0.00     0.006 C 
BRANCH   5   6
ATOM      6  C   UNL     1      16.626 -41.683 -22.582  1.00  0.00     0.053 C 
BRANCH   6   7
ATOM      7  C   UNL     1      16.347 -41.905 -21.129  1.00  0.00     0.041 C 
ATOM      8  O   UNL     1      17.229 -42.408 -20.385  1.00  0.00    -0.550 OA
ATOM      9  O   UNL     1      15.132 -41.509 -20.585  1.00  0.00    -0.550 OA
ENDBRANCH   6   7
ENDBRANCH   5   6
ENDBRANCH   4   5
ENDBRANCH   3   4
ENDBRANCH   2   3
ENDBRANCH   1   2
BRANCH   1  10
ATOM     10  C   UNL     1      18.139 -45.403 -25.790  1.00  0.00     0.000 C 
BRANCH  10  11
ATOM     11  C   UNL     1      17.985 -46.051 -24.398  1.00  0.00    -0.000 C 
BRANCH  11  12
ATOM     12  C   UNL     1      17.063 -45.295 -23.425  1.00  0.00    -0.000 C 
BRANCH  12  13
ATOM     13  C   UNL     1      17.362 -45.612 -21.952  1.00  0.00    -0.000 C 
BRANCH  13  14
ATOM     14  C   UNL     1      18.848 -45.934 -21.749  1.00  0.00    -0.000 C 
BRANCH  14  15
ATOM     15  C   UNL     1      19.689 -44.650 -21.703  1.00  0.00    -0.000 C 
BRANCH  15  16
ATOM     16  C   UNL     1      21.188 -44.918 -21.901  1.00  0.00    -0.003 C 
ATOM     17  C   UNL     1      21.471 -45.884 -23.052  1.00  0.00     0.004 C 
ENDBRANCH  15  16
ENDBRANCH  14  15
ENDBRANCH  13  14
ENDBRANCH  12  13
ENDBRANCH  11  12
ENDBRANCH  10  11
ENDBRANCH   1  10
TORSDOF 13
ENDMDL
MODEL 9
REMARK VINA RESULT:    -4.145      1.389      2.263
REMARK INTER + INTRA:          -9.753
REMARK INTER:                  -7.336
REMARK INTRA:                  -2.417
REMARK UNBOUND:                -2.458
REMARK SMILES CCCCCCCCCCCCCCC(=O)[O-]
REMARK SMILES IDX 9 1 10 2 11 3 12 4 13 5 14 6 15 7 16 8 17 9 8 10 7 11 6 12
REMARK SMILES IDX 5 13 4 14 3 15 2 16 1 17
REMARK H PARENT
REMARK Flexibility Score: inf
ROOT
ATOM      1  C   UNL     1      21.175 -43.812 -24.535  1.00  0.00     0.000 C 
ENDROOT
BRANCH   1   2
ATOM      2  C   UNL     1      20.457 -42.529 -24.980  1.00  0.00     0.000 C 
BRANCH   2   3
ATOM      3  C   UNL     1      19.579 -41.972 -23.854  1.00  0.00     0.000 C 
BRANCH   3   4
ATOM      4  C   UNL     1      18.211 -41.531 -24.388  1.00  0.00     0.000 C 
BRANCH   4   5
ATOM      5  C   UNL     1      17.208 -41.341 -23.245  1.00  0.00     0.006 C 
BRANCH   5   6
ATOM      6  C   UNL     1      17.762 -41.894 -21.929  1.00  0.00     0.053 C 
BRANCH   6   7
ATOM      7  C   UNL     1      16.685 -41.962 -20.894  1.00  0.00     0.041 C 
ATOM      8  O   UNL     1      16.957 -42.330 -19.720  1.00  0.00    -0.550 OA
ATOM      9  O   UNL     1      15.390 -41.571 -21.209  1.00  0.00    -0.550 OA
ENDBRANCH   6   7
ENDBRANCH   5   6
ENDBRANCH   4   5
ENDBRANCH   3   4
ENDBRANCH   2   3
ENDBRANCH   1   2
BRANCH   1  10
ATOM     10  C   UNL     1      21.418 -43.865 -23.016  1.00  0.00     0.000 C 
BRANCH  10  11
ATOM     11  C   UNL     1      20.933 -45.153 -22.321  1.00  0.00    -0.000 C 
BRANCH  11  12
ATOM     12  C   UNL     1      19.570 -45.040 -21.614  1.00  0.00    -0.000 C 
BRANCH  12  13
ATOM     13  C   UNL     1      18.590 -46.149 -22.027  1.00  0.00    -0.000 C 
BRANCH  13  14
ATOM     14  C   UNL     1      17.210 -45.568 -22.355  1.00  0.00    -0.000 C 
BRANCH  14  15
ATOM     15  C   UNL     1      17.166 -45.030 -23.793  1.00  0.00    -0.000 C 
BRANCH  15  16
ATOM     16  C   UNL     1      18.024 -45.858 -24.761  1.00  0.00    -0.003 C 
ATOM     17  C   UNL     1      18.111 -45.237 -26.155  1.00  0.00     0.004 C 
ENDBRANCH  15  16
ENDBRANCH  14  15
ENDBRANCH  13  14
ENDBRANCH  12  13
ENDBRANCH  11  12
ENDBRANCH  10  11
ENDBRANCH   1  10
TORSDOF 13
ENDMDL
