MODEL 1
REMARK VINA RESULT:    -5.359      0.000      0.000
REMARK INTER + INTRA:         -17.103
REMARK INTER:                 -13.506
REMARK INTRA:                  -3.597
REMARK UNBOUND:                -3.597
REMARK SMILES CCCCCCCCCCCCCCCCCCCCCCCCCCCC(=O)[O-]
REMARK SMILES IDX 15 1 16 2 17 3 18 4 19 5 20 6 21 7 22 8 23 9 24 10 25 11
REMARK SMILES IDX 26 12 27 13 28 14 29 15 30 16 14 17 13 18 12 19 11 20 10 21
REMARK SMILES IDX 9 22 8 23 7 24 6 25 5 26 4 27 3 28 2 29 1 30
REMARK H PARENT
REMARK Flexibility Score: inf
ROOT
ATOM      1  C   UNL     1      28.372 -10.850  15.783  1.00  0.00     0.000 C 
ENDROOT
BRANCH   1   2
ATOM      2  C   UNL     1      29.480 -10.843  14.719  1.00  0.00     0.000 C 
BRANCH   2   3
ATOM      3  C   UNL     1      30.854 -10.580  15.355  1.00  0.00     0.000 C 
BRANCH   3   4
ATOM      4  C   UNL     1      30.770 -10.265  16.859  1.00  0.00     0.000 C 
BRANCH   4   5
ATOM      5  C   UNL     1      31.425  -8.939  17.285  1.00  0.00     0.000 C 
BRANCH   5   6
ATOM      6  C   UNL     1      32.159  -8.236  16.134  1.00  0.00     0.000 C 
BRANCH   6   7
ATOM      7  C   UNL     1      31.520  -6.874  15.825  1.00  0.00     0.000 C 
BRANCH   7   8
ATOM      8  C   UNL     1      30.372  -6.981  14.802  1.00  0.00     0.000 C 
BRANCH   8   9
ATOM      9  C   UNL     1      28.967  -7.008  15.435  1.00  0.00     0.000 C 
BRANCH   9  10
ATOM     10  C   UNL     1      28.020  -5.902  14.925  1.00  0.00     0.000 C 
BRANCH  10  11
ATOM     11  C   UNL     1      28.647  -4.489  14.950  1.00  0.00     0.000 C 
BRANCH  11  12
ATOM     12  C   UNL     1      28.348  -3.704  16.243  1.00  0.00     0.006 C 
BRANCH  12  13
ATOM     13  C   UNL     1      29.477  -3.755  17.283  1.00  0.00     0.053 C 
BRANCH  13  14
ATOM     14  C   UNL     1      29.054  -4.449  18.544  1.00  0.00     0.041 C 
ATOM     15  O   UNL     1      29.531  -4.097  19.654  1.00  0.00    -0.550 OA
ATOM     16  O   UNL     1      28.107  -5.466  18.496  1.00  0.00    -0.550 OA
ENDBRANCH  13  14
ENDBRANCH  12  13
ENDBRANCH  11  12
ENDBRANCH  10  11
ENDBRANCH   9  10
ENDBRANCH   8   9
ENDBRANCH   7   8
ENDBRANCH   6   7
ENDBRANCH   5   6
ENDBRANCH   4   5
ENDBRANCH   3   4
ENDBRANCH   2   3
ENDBRANCH   1   2
BRANCH   1  17
ATOM     17  C   UNL     1      26.956 -10.835  15.177  1.00  0.00     0.000 C 
BRANCH  17  18
ATOM     18  C   UNL     1      25.821 -11.192  16.154  1.00  0.00     0.000 C 
BRANCH  18  19
ATOM     19  C   UNL     1      24.494 -11.501  15.442  1.00  0.00     0.000 C 
BRANCH  19  20
ATOM     20  C   UNL     1      23.754 -12.707  16.049  1.00  0.00     0.000 C 
BRANCH  20  21
ATOM     21  C   UNL     1      24.024 -12.963  17.543  1.00  0.00     0.000 C 
BRANCH  21  22
ATOM     22  C   UNL     1      22.838 -12.577  18.442  1.00  0.00    -0.000 C 
BRANCH  22  23
ATOM     23  C   UNL     1      22.798 -13.450  19.701  1.00  0.00    -0.000 C 
BRANCH  23  24
ATOM     24  C   UNL     1      22.631 -12.593  20.962  1.00  0.00    -0.000 C 
BRANCH  24  25
ATOM     25  C   UNL     1      22.631 -11.096  20.615  1.00  0.00    -0.000 C 
BRANCH  25  26
ATOM     26  C   UNL     1      23.825 -10.348  21.227  1.00  0.00    -0.000 C 
BRANCH  26  27
ATOM     27  C   UNL     1      24.486  -9.376  20.234  1.00  0.00    -0.000 C 
BRANCH  27  28
ATOM     28  C   UNL     1      25.462 -10.079  19.274  1.00  0.00    -0.000 C 
BRANCH  28  29
ATOM     29  C   UNL     1      26.937  -9.670  19.442  1.00  0.00    -0.003 C 
ATOM     30  C   UNL     1      27.427  -8.732  18.339  1.00  0.00     0.004 C 
ENDBRANCH  28  29
ENDBRANCH  27  28
ENDBRANCH  26  27
ENDBRANCH  25  26
ENDBRANCH  24  25
ENDBRANCH  23  24
ENDBRANCH  22  23
ENDBRANCH  21  22
ENDBRANCH  20  21
ENDBRANCH  19  20
ENDBRANCH  18  19
ENDBRANCH  17  18
ENDBRANCH   1  17
TORSDOF 26
ENDMDL
MODEL 2
REMARK VINA RESULT:    -5.212      2.510      7.310
REMARK INTER + INTRA:         -16.732
REMARK INTER:                 -13.056
REMARK INTRA:                  -3.676
REMARK UNBOUND:                -3.597
REMARK SMILES CCCCCCCCCCCCCCCCCCCCCCCCCCCC(=O)[O-]
REMARK SMILES IDX 15 1 16 2 17 3 18 4 19 5 20 6 21 7 22 8 23 9 24 10 25 11
REMARK SMILES IDX 26 12 27 13 28 14 29 15 30 16 14 17 13 18 12 19 11 20 10 21
REMARK SMILES IDX 9 22 8 23 7 24 6 25 5 26 4 27 3 28 2 29 1 30
REMARK H PARENT
REMARK Flexibility Score: inf
ROOT
ATOM      1  C   UNL     1      22.378 -12.088  19.726  1.00  0.00     0.000 C 
ENDROOT
BRANCH   1   2
ATOM      2  C   UNL     1      23.050 -13.391  19.270  1.00  0.00     0.000 C 
BRANCH   2   3
ATOM      3  C   UNL     1      24.155 -13.110  18.240  1.00  0.00     0.000 C 
BRANCH   3   4
ATOM      4  C   UNL     1      23.604 -12.686  16.867  1.00  0.00     0.000 C 
BRANCH   4   5
ATOM      5  C   UNL     1      24.251 -11.424  16.266  1.00  0.00     0.000 C 
BRANCH   5   6
ATOM      6  C   UNL     1      25.257 -11.740  15.151  1.00  0.00     0.000 C 
BRANCH   6   7
ATOM      7  C   UNL     1      26.260 -10.590  14.975  1.00  0.00     0.000 C 
BRANCH   7   8
ATOM      8  C   UNL     1      27.682 -11.091  14.656  1.00  0.00     0.000 C 
BRANCH   8   9
ATOM      9  C   UNL     1      28.596 -11.215  15.892  1.00  0.00     0.000 C 
BRANCH   9  10
ATOM     10  C   UNL     1      30.103 -11.114  15.577  1.00  0.00     0.000 C 
BRANCH  10  11
ATOM     11  C   UNL     1      30.903 -10.307  16.625  1.00  0.00     0.000 C 
BRANCH  11  12
ATOM     12  C   UNL     1      32.060  -9.485  16.022  1.00  0.00     0.006 C 
BRANCH  12  13
ATOM     13  C   UNL     1      33.250  -9.286  16.973  1.00  0.00     0.053 C 
BRANCH  13  14
ATOM     14  C   UNL     1      34.505  -8.915  16.238  1.00  0.00     0.041 C 
ATOM     15  O   UNL     1      34.446  -8.207  15.199  1.00  0.00    -0.550 OA
ATOM     16  O   UNL     1      35.743  -9.325  16.719  1.00  0.00    -0.550 OA
ENDBRANCH  13  14
ENDBRANCH  12  13
ENDBRANCH  11  12
ENDBRANCH  10  11
ENDBRANCH   9  10
ENDBRANCH   8   9
ENDBRANCH   7   8
ENDBRANCH   6   7
ENDBRANCH   5   6
ENDBRANCH   4   5
ENDBRANCH   3   4
ENDBRANCH   2   3
ENDBRANCH   1   2
BRANCH   1  17
ATOM     17  C   UNL     1      22.763 -11.683  21.161  1.00  0.00     0.000 C 
BRANCH  17  18
ATOM     18  C   UNL     1      23.565 -10.374  21.280  1.00  0.00     0.000 C 
BRANCH  18  19
ATOM     19  C   UNL     1      24.125  -9.891  19.931  1.00  0.00     0.000 C 
BRANCH  19  20
ATOM     20  C   UNL     1      25.664  -9.871  19.892  1.00  0.00     0.000 C 
BRANCH  20  21
ATOM     21  C   UNL     1      26.285  -9.662  18.498  1.00  0.00     0.000 C 
BRANCH  21  22
ATOM     22  C   UNL     1      27.739  -9.168  18.557  1.00  0.00    -0.000 C 
BRANCH  22  23
ATOM     23  C   UNL     1      27.830  -7.684  18.185  1.00  0.00    -0.000 C 
BRANCH  23  24
ATOM     24  C   UNL     1      29.023  -7.418  17.259  1.00  0.00    -0.000 C 
BRANCH  24  25
ATOM     25  C   UNL     1      28.598  -7.469  15.783  1.00  0.00    -0.000 C 
BRANCH  25  26
ATOM     26  C   UNL     1      29.304  -6.404  14.929  1.00  0.00    -0.000 C 
BRANCH  26  27
ATOM     27  C   UNL     1      30.780  -6.215  15.319  1.00  0.00    -0.000 C 
BRANCH  27  28
ATOM     28  C   UNL     1      31.714  -6.141  14.099  1.00  0.00    -0.000 C 
BRANCH  28  29
ATOM     29  C   UNL     1      32.681  -4.944  14.099  1.00  0.00    -0.003 C 
ATOM     30  C   UNL     1      32.368  -3.922  13.006  1.00  0.00     0.004 C 
ENDBRANCH  28  29
ENDBRANCH  27  28
ENDBRANCH  26  27
ENDBRANCH  25  26
ENDBRANCH  24  25
ENDBRANCH  23  24
ENDBRANCH  22  23
ENDBRANCH  21  22
ENDBRANCH  20  21
ENDBRANCH  19  20
ENDBRANCH  18  19
ENDBRANCH  17  18
ENDBRANCH   1  17
TORSDOF 26
ENDMDL
MODEL 3
REMARK VINA RESULT:    -5.103      1.758      5.161
REMARK INTER + INTRA:         -16.456
REMARK INTER:                 -12.621
REMARK INTRA:                  -3.834
REMARK UNBOUND:                -3.597
REMARK SMILES CCCCCCCCCCCCCCCCCCCCCCCCCCCC(=O)[O-]
REMARK SMILES IDX 15 1 16 2 17 3 18 4 19 5 20 6 21 7 22 8 23 9 24 10 25 11
REMARK SMILES IDX 26 12 27 13 28 14 29 15 30 16 14 17 13 18 12 19 11 20 10 21
REMARK SMILES IDX 9 22 8 23 7 24 6 25 5 26 4 27 3 28 2 29 1 30
REMARK H PARENT
REMARK Flexibility Score: inf
ROOT
ATOM      1  C   UNL     1      23.715 -10.382  21.340  1.00  0.00     0.000 C 
ENDROOT
BRANCH   1   2
ATOM      2  C   UNL     1      24.212  -9.845  19.990  1.00  0.00     0.000 C 
BRANCH   2   3
ATOM      3  C   UNL     1      25.741  -9.949  19.885  1.00  0.00     0.000 C 
BRANCH   3   4
ATOM      4  C   UNL     1      26.291  -9.404  18.554  1.00  0.00     0.000 C 
BRANCH   4   5
ATOM      5  C   UNL     1      27.691  -8.769  18.638  1.00  0.00     0.000 C 
BRANCH   5   6
ATOM      6  C   UNL     1      27.852  -7.551  17.717  1.00  0.00     0.000 C 
BRANCH   6   7
ATOM      7  C   UNL     1      28.836  -6.535  18.317  1.00  0.00     0.000 C 
BRANCH   7   8
ATOM      8  C   UNL     1      28.772  -5.166  17.613  1.00  0.00     0.000 C 
BRANCH   8   9
ATOM      9  C   UNL     1      29.809  -4.990  16.486  1.00  0.00     0.000 C 
BRANCH   9  10
ATOM     10  C   UNL     1      29.200  -4.633  15.114  1.00  0.00     0.000 C 
BRANCH  10  11
ATOM     11  C   UNL     1      27.793  -5.232  14.886  1.00  0.00     0.000 C 
BRANCH  11  12
ATOM     12  C   UNL     1      26.757  -4.204  14.389  1.00  0.00     0.006 C 
BRANCH  12  13
ATOM     13  C   UNL     1      25.783  -3.721  15.475  1.00  0.00     0.053 C 
BRANCH  13  14
ATOM     14  C   UNL     1      26.128  -2.349  15.975  1.00  0.00     0.041 C 
ATOM     15  O   UNL     1      27.079  -2.188  16.783  1.00  0.00    -0.550 OA
ATOM     16  O   UNL     1      25.418  -1.243  15.523  1.00  0.00    -0.550 OA
ENDBRANCH  13  14
ENDBRANCH  12  13
ENDBRANCH  11  12
ENDBRANCH  10  11
ENDBRANCH   9  10
ENDBRANCH   8   9
ENDBRANCH   7   8
ENDBRANCH   6   7
ENDBRANCH   5   6
ENDBRANCH   4   5
ENDBRANCH   3   4
ENDBRANCH   2   3
ENDBRANCH   1   2
BRANCH   1  17
ATOM     17  C   UNL     1      22.514 -11.337  21.203  1.00  0.00     0.000 C 
BRANCH  17  18
ATOM     18  C   UNL     1      22.331 -11.962  19.808  1.00  0.00     0.000 C 
BRANCH  18  19
ATOM     19  C   UNL     1      22.935 -13.373  19.701  1.00  0.00     0.000 C 
BRANCH  19  20
ATOM     20  C   UNL     1      23.874 -13.534  18.492  1.00  0.00     0.000 C 
BRANCH  20  21
ATOM     21  C   UNL     1      23.737 -12.455  17.402  1.00  0.00     0.000 C 
BRANCH  21  22
ATOM     22  C   UNL     1      25.085 -12.048  16.787  1.00  0.00    -0.000 C 
BRANCH  22  23
ATOM     23  C   UNL     1      24.879 -11.229  15.507  1.00  0.00    -0.000 C 
BRANCH  23  24
ATOM     24  C   UNL     1      26.159 -11.192  14.664  1.00  0.00    -0.000 C 
BRANCH  24  25
ATOM     25  C   UNL     1      27.278 -10.433  15.394  1.00  0.00    -0.000 C 
BRANCH  25  26
ATOM     26  C   UNL     1      28.680 -10.843  14.916  1.00  0.00    -0.000 C 
BRANCH  26  27
ATOM     27  C   UNL     1      29.610 -11.235  16.077  1.00  0.00    -0.000 C 
BRANCH  27  28
ATOM     28  C   UNL     1      30.476 -10.063  16.569  1.00  0.00    -0.000 C 
BRANCH  28  29
ATOM     29  C   UNL     1      30.540  -8.862  15.609  1.00  0.00    -0.003 C 
ATOM     30  C   UNL     1      31.814  -8.033  15.772  1.00  0.00     0.004 C 
ENDBRANCH  28  29
ENDBRANCH  27  28
ENDBRANCH  26  27
ENDBRANCH  25  26
ENDBRANCH  24  25
ENDBRANCH  23  24
ENDBRANCH  22  23
ENDBRANCH  21  22
ENDBRANCH  20  21
ENDBRANCH  19  20
ENDBRANCH  18  19
ENDBRANCH  17  18
ENDBRANCH   1  17
TORSDOF 26
ENDMDL
MODEL 4
REMARK VINA RESULT:    -5.073      2.414      8.627
REMARK INTER + INTRA:         -16.381
REMARK INTER:                 -12.338
REMARK INTRA:                  -4.042
REMARK UNBOUND:                -3.597
REMARK SMILES CCCCCCCCCCCCCCCCCCCCCCCCCCCC(=O)[O-]
REMARK SMILES IDX 15 1 16 2 17 3 18 4 19 5 20 6 21 7 22 8 23 9 24 10 25 11
REMARK SMILES IDX 26 12 27 13 28 14 29 15 30 16 14 17 13 18 12 19 11 20 10 21
REMARK SMILES IDX 9 22 8 23 7 24 6 25 5 26 4 27 3 28 2 29 1 30
REMARK H PARENT
REMARK Flexibility Score: inf
ROOT
ATOM      1  C   UNL     1      29.666  -7.926  16.698  1.00  0.00     0.000 C 
ENDROOT
BRANCH   1   2
ATOM      2  C   UNL     1      28.199  -7.666  17.071  1.00  0.00     0.000 C 
BRANCH   2   3
ATOM      3  C   UNL     1      27.787  -8.496  18.296  1.00  0.00     0.000 C 
BRANCH   3   4
ATOM      4  C   UNL     1      26.935  -9.725  17.930  1.00  0.00     0.000 C 
BRANCH   4   5
ATOM      5  C   UNL     1      27.736 -10.995  17.588  1.00  0.00     0.000 C 
BRANCH   5   6
ATOM      6  C   UNL     1      27.973 -11.166  16.081  1.00  0.00     0.000 C 
BRANCH   6   7
ATOM      7  C   UNL     1      26.856 -10.490  15.270  1.00  0.00     0.000 C 
BRANCH   7   8
ATOM      8  C   UNL     1      25.727 -11.469  14.893  1.00  0.00     0.000 C 
BRANCH   8   9
ATOM      9  C   UNL     1      24.423 -11.260  15.688  1.00  0.00     0.000 C 
BRANCH   9  10
ATOM     10  C   UNL     1      23.826 -12.555  16.278  1.00  0.00     0.000 C 
BRANCH  10  11
ATOM     11  C   UNL     1      24.537 -13.035  17.564  1.00  0.00     0.000 C 
BRANCH  11  12
ATOM     12  C   UNL     1      23.574 -13.322  18.733  1.00  0.00     0.006 C 
BRANCH  12  13
ATOM     13  C   UNL     1      22.581 -12.185  19.021  1.00  0.00     0.053 C 
BRANCH  13  14
ATOM     14  C   UNL     1      22.933 -11.429  20.268  1.00  0.00     0.041 C 
ATOM     15  O   UNL     1      22.554 -11.849  21.392  1.00  0.00    -0.550 OA
ATOM     16  O   UNL     1      23.707 -10.277  20.192  1.00  0.00    -0.550 OA
ENDBRANCH  13  14
ENDBRANCH  12  13
ENDBRANCH  11  12
ENDBRANCH  10  11
ENDBRANCH   9  10
ENDBRANCH   8   9
ENDBRANCH   7   8
ENDBRANCH   6   7
ENDBRANCH   5   6
ENDBRANCH   4   5
ENDBRANCH   3   4
ENDBRANCH   2   3
ENDBRANCH   1   2
BRANCH   1  17
ATOM     17  C   UNL     1      30.518  -8.389  17.894  1.00  0.00     0.000 C 
BRANCH  17  18
ATOM     18  C   UNL     1      31.606  -9.427  17.561  1.00  0.00     0.000 C 
BRANCH  18  19
ATOM     19  C   UNL     1      32.014  -9.411  16.078  1.00  0.00     0.000 C 
BRANCH  19  20
ATOM     20  C   UNL     1      33.518  -9.155  15.872  1.00  0.00     0.000 C 
BRANCH  20  21
ATOM     21  C   UNL     1      33.880  -7.771  15.301  1.00  0.00     0.000 C 
BRANCH  21  22
ATOM     22  C   UNL     1      32.646  -6.933  14.932  1.00  0.00    -0.000 C 
BRANCH  22  23
ATOM     23  C   UNL     1      32.487  -5.742  15.884  1.00  0.00    -0.000 C 
BRANCH  23  24
ATOM     24  C   UNL     1      31.977  -4.503  15.137  1.00  0.00    -0.000 C 
BRANCH  24  25
ATOM     25  C   UNL     1      31.120  -4.904  13.926  1.00  0.00    -0.000 C 
BRANCH  25  26
ATOM     26  C   UNL     1      29.880  -4.012  13.758  1.00  0.00    -0.000 C 
BRANCH  26  27
ATOM     27  C   UNL     1      29.406  -3.403  15.089  1.00  0.00    -0.000 C 
BRANCH  27  28
ATOM     28  C   UNL     1      28.227  -4.173  15.710  1.00  0.00    -0.000 C 
BRANCH  28  29
ATOM     29  C   UNL     1      28.141  -4.091  17.245  1.00  0.00    -0.003 C 
ATOM     30  C   UNL     1      29.407  -3.521  17.885  1.00  0.00     0.004 C 
ENDBRANCH  28  29
ENDBRANCH  27  28
ENDBRANCH  26  27
ENDBRANCH  25  26
ENDBRANCH  24  25
ENDBRANCH  23  24
ENDBRANCH  22  23
ENDBRANCH  21  22
ENDBRANCH  20  21
ENDBRANCH  19  20
ENDBRANCH  18  19
ENDBRANCH  17  18
ENDBRANCH   1  17
TORSDOF 26
ENDMDL
MODEL 5
REMARK VINA RESULT:    -5.020      1.583      4.284
REMARK INTER + INTRA:         -16.247
REMARK INTER:                 -11.875
REMARK INTRA:                  -4.373
REMARK UNBOUND:                -3.597
REMARK SMILES CCCCCCCCCCCCCCCCCCCCCCCCCCCC(=O)[O-]
REMARK SMILES IDX 15 1 16 2 17 3 18 4 19 5 20 6 21 7 22 8 23 9 24 10 25 11
REMARK SMILES IDX 26 12 27 13 28 14 29 15 30 16 14 17 13 18 12 19 11 20 10 21
REMARK SMILES IDX 9 22 8 23 7 24 6 25 5 26 4 27 3 28 2 29 1 30
REMARK H PARENT
REMARK Flexibility Score: inf
ROOT
ATOM      1  C   UNL     1      30.957  -9.135  15.825  1.00  0.00     0.000 C 
ENDROOT
BRANCH   1   2
ATOM      2  C   UNL     1      31.665  -9.663  17.082  1.00  0.00     0.000 C 
BRANCH   2   3
ATOM      3  C   UNL     1      33.097  -9.115  17.179  1.00  0.00     0.000 C 
BRANCH   3   4
ATOM      4  C   UNL     1      33.914  -9.338  15.894  1.00  0.00     0.000 C 
BRANCH   4   5
ATOM      5  C   UNL     1      34.290  -8.055  15.130  1.00  0.00     0.000 C 
BRANCH   5   6
ATOM      6  C   UNL     1      34.175  -6.789  15.991  1.00  0.00     0.000 C 
BRANCH   6   7
ATOM      7  C   UNL     1      33.510  -5.649  15.205  1.00  0.00     0.000 C 
BRANCH   7   8
ATOM      8  C   UNL     1      33.051  -6.091  13.802  1.00  0.00     0.000 C 
BRANCH   8   9
ATOM      9  C   UNL     1      31.556  -5.841  13.521  1.00  0.00     0.000 C 
BRANCH   9  10
ATOM     10  C   UNL     1      30.963  -4.633  14.276  1.00  0.00     0.000 C 
BRANCH  10  11
ATOM     11  C   UNL     1      29.426  -4.688  14.425  1.00  0.00     0.000 C 
BRANCH  11  12
ATOM     12  C   UNL     1      28.914  -4.126  15.766  1.00  0.00     0.006 C 
BRANCH  12  13
ATOM     13  C   UNL     1      30.022  -3.584  16.683  1.00  0.00     0.053 C 
BRANCH  13  14
ATOM     14  C   UNL     1      29.499  -3.203  18.036  1.00  0.00     0.041 C 
ATOM     15  O   UNL     1      29.169  -2.012  18.277  1.00  0.00    -0.550 OA
ATOM     16  O   UNL     1      29.347  -4.169  19.024  1.00  0.00    -0.550 OA
ENDBRANCH  13  14
ENDBRANCH  12  13
ENDBRANCH  11  12
ENDBRANCH  10  11
ENDBRANCH   9  10
ENDBRANCH   8   9
ENDBRANCH   7   8
ENDBRANCH   6   7
ENDBRANCH   5   6
ENDBRANCH   4   5
ENDBRANCH   3   4
ENDBRANCH   2   3
ENDBRANCH   1   2
BRANCH   1  17
ATOM     17  C   UNL     1      30.117  -7.872  16.094  1.00  0.00     0.000 C 
BRANCH  17  18
ATOM     18  C   UNL     1      30.029  -7.445  17.571  1.00  0.00     0.000 C 
BRANCH  18  19
ATOM     19  C   UNL     1      28.585  -7.411  18.099  1.00  0.00     0.000 C 
BRANCH  19  20
ATOM     20  C   UNL     1      27.669  -8.441  17.411  1.00  0.00     0.000 C 
BRANCH  20  21
ATOM     21  C   UNL     1      27.728  -9.866  17.991  1.00  0.00     0.000 C 
BRANCH  21  22
ATOM     22  C   UNL     1      27.710 -10.956  16.908  1.00  0.00    -0.000 C 
BRANCH  22  23
ATOM     23  C   UNL     1      27.376 -10.361  15.536  1.00  0.00    -0.000 C 
BRANCH  23  24
ATOM     24  C   UNL     1      26.187 -11.087  14.894  1.00  0.00    -0.000 C 
BRANCH  24  25
ATOM     25  C   UNL     1      24.939 -10.994  15.785  1.00  0.00    -0.000 C 
BRANCH  25  26
ATOM     26  C   UNL     1      24.093 -12.276  15.752  1.00  0.00    -0.000 C 
BRANCH  26  27
ATOM     27  C   UNL     1      23.780 -12.815  17.159  1.00  0.00    -0.000 C 
BRANCH  27  28
ATOM     28  C   UNL     1      24.106 -11.802  18.271  1.00  0.00    -0.000 C 
BRANCH  28  29
ATOM     29  C   UNL     1      23.190 -11.884  19.506  1.00  0.00    -0.003 C 
ATOM     30  C   UNL     1      22.647 -13.291  19.755  1.00  0.00     0.004 C 
ENDBRANCH  28  29
ENDBRANCH  27  28
ENDBRANCH  26  27
ENDBRANCH  25  26
ENDBRANCH  24  25
ENDBRANCH  23  24
ENDBRANCH  22  23
ENDBRANCH  21  22
ENDBRANCH  20  21
ENDBRANCH  19  20
ENDBRANCH  18  19
ENDBRANCH  17  18
ENDBRANCH   1  17
TORSDOF 26
ENDMDL
MODEL 6
REMARK VINA RESULT:    -4.950      2.231      4.166
REMARK INTER + INTRA:         -16.071
REMARK INTER:                 -13.292
REMARK INTRA:                  -2.780
REMARK UNBOUND:                -3.597
REMARK SMILES CCCCCCCCCCCCCCCCCCCCCCCCCCCC(=O)[O-]
REMARK SMILES IDX 15 1 16 2 17 3 18 4 19 5 20 6 21 7 22 8 23 9 24 10 25 11
REMARK SMILES IDX 26 12 27 13 28 14 29 15 30 16 14 17 13 18 12 19 11 20 10 21
REMARK SMILES IDX 9 22 8 23 7 24 6 25 5 26 4 27 3 28 2 29 1 30
REMARK H PARENT
REMARK Flexibility Score: inf
ROOT
ATOM      1  C   UNL     1      30.855  -9.731  16.274  1.00  0.00     0.000 C 
ENDROOT
BRANCH   1   2
ATOM      2  C   UNL     1      31.728  -9.095  17.366  1.00  0.00     0.000 C 
BRANCH   2   3
ATOM      3  C   UNL     1      33.171  -8.902  16.877  1.00  0.00     0.000 C 
BRANCH   3   4
ATOM      4  C   UNL     1      33.484  -7.446  16.487  1.00  0.00     0.000 C 
BRANCH   4   5
ATOM      5  C   UNL     1      33.452  -7.154  14.976  1.00  0.00     0.000 C 
BRANCH   5   6
ATOM      6  C   UNL     1      32.948  -5.741  14.649  1.00  0.00     0.000 C 
BRANCH   6   7
ATOM      7  C   UNL     1      31.774  -5.793  13.659  1.00  0.00     0.000 C 
BRANCH   7   8
ATOM      8  C   UNL     1      30.562  -4.971  14.140  1.00  0.00     0.000 C 
BRANCH   8   9
ATOM      9  C   UNL     1      30.179  -5.219  15.612  1.00  0.00     0.000 C 
BRANCH   9  10
ATOM     10  C   UNL     1      30.068  -3.937  16.463  1.00  0.00     0.000 C 
BRANCH  10  11
ATOM     11  C   UNL     1      28.611  -3.525  16.778  1.00  0.00     0.000 C 
BRANCH  11  12
ATOM     12  C   UNL     1      27.891  -2.846  15.596  1.00  0.00     0.006 C 
BRANCH  12  13
ATOM     13  C   UNL     1      26.852  -3.738  14.899  1.00  0.00     0.053 C 
BRANCH  13  14
ATOM     14  C   UNL     1      26.834  -3.531  13.414  1.00  0.00     0.041 C 
ATOM     15  O   UNL     1      27.866  -3.129  12.816  1.00  0.00    -0.550 OA
ATOM     16  O   UNL     1      25.685  -3.811  12.683  1.00  0.00    -0.550 OA
ENDBRANCH  13  14
ENDBRANCH  12  13
ENDBRANCH  11  12
ENDBRANCH  10  11
ENDBRANCH   9  10
ENDBRANCH   8   9
ENDBRANCH   7   8
ENDBRANCH   6   7
ENDBRANCH   5   6
ENDBRANCH   4   5
ENDBRANCH   3   4
ENDBRANCH   2   3
ENDBRANCH   1   2
BRANCH   1  17
ATOM     17  C   UNL     1      30.124  -8.689  15.406  1.00  0.00     0.000 C 
BRANCH  17  18
ATOM     18  C   UNL     1      28.629  -8.506  15.722  1.00  0.00     0.000 C 
BRANCH  18  19
ATOM     19  C   UNL     1      28.247  -9.013  17.123  1.00  0.00     0.000 C 
BRANCH  19  20
ATOM     20  C   UNL     1      27.086 -10.024  17.101  1.00  0.00     0.000 C 
BRANCH  20  21
ATOM     21  C   UNL     1      27.195 -11.130  16.034  1.00  0.00     0.000 C 
BRANCH  21  22
ATOM     22  C   UNL     1      26.022 -11.124  15.042  1.00  0.00    -0.000 C 
BRANCH  22  23
ATOM     23  C   UNL     1      24.681 -11.017  15.777  1.00  0.00    -0.000 C 
BRANCH  23  24
ATOM     24  C   UNL     1      24.102 -12.406  16.073  1.00  0.00    -0.000 C 
BRANCH  24  25
ATOM     25  C   UNL     1      24.214 -12.743  17.568  1.00  0.00    -0.000 C 
BRANCH  25  26
ATOM     26  C   UNL     1      22.906 -12.482  18.332  1.00  0.00    -0.000 C 
BRANCH  26  27
ATOM     27  C   UNL     1      22.747 -13.394  19.561  1.00  0.00    -0.000 C 
BRANCH  27  28
ATOM     28  C   UNL     1      22.637 -12.605  20.878  1.00  0.00    -0.000 C 
BRANCH  28  29
ATOM     29  C   UNL     1      22.935 -11.100  20.754  1.00  0.00    -0.003 C 
ATOM     30  C   UNL     1      23.306 -10.453  22.088  1.00  0.00     0.004 C 
ENDBRANCH  28  29
ENDBRANCH  27  28
ENDBRANCH  26  27
ENDBRANCH  25  26
ENDBRANCH  24  25
ENDBRANCH  23  24
ENDBRANCH  22  23
ENDBRANCH  21  22
ENDBRANCH  20  21
ENDBRANCH  19  20
ENDBRANCH  18  19
ENDBRANCH  17  18
ENDBRANCH   1  17
TORSDOF 26
ENDMDL
MODEL 7
REMARK VINA RESULT:    -4.937      2.519      9.056
REMARK INTER + INTRA:         -16.039
REMARK INTER:                 -13.110
REMARK INTRA:                  -2.929
REMARK UNBOUND:                -3.597
REMARK SMILES CCCCCCCCCCCCCCCCCCCCCCCCCCCC(=O)[O-]
REMARK SMILES IDX 15 1 16 2 17 3 18 4 19 5 20 6 21 7 22 8 23 9 24 10 25 11
REMARK SMILES IDX 26 12 27 13 28 14 29 15 30 16 14 17 13 18 12 19 11 20 10 21
REMARK SMILES IDX 9 22 8 23 7 24 6 25 5 26 4 27 3 28 2 29 1 30
REMARK H PARENT
REMARK Flexibility Score: inf
ROOT
ATOM      1  C   UNL     1      31.327  -8.861  17.638  1.00  0.00     0.000 C 
ENDROOT
BRANCH   1   2
ATOM      2  C   UNL     1      30.014  -9.180  16.908  1.00  0.00     0.000 C 
BRANCH   2   3
ATOM      3  C   UNL     1      30.285  -9.736  15.502  1.00  0.00     0.000 C 
BRANCH   3   4
ATOM      4  C   UNL     1      29.263 -10.803  15.069  1.00  0.00     0.000 C 
BRANCH   4   5
ATOM      5  C   UNL     1      28.187 -11.138  16.118  1.00  0.00     0.000 C 
BRANCH   5   6
ATOM      6  C   UNL     1      26.874 -10.375  15.894  1.00  0.00     0.000 C 
BRANCH   6   7
ATOM      7  C   UNL     1      25.927 -11.168  14.979  1.00  0.00     0.000 C 
BRANCH   7   8
ATOM      8  C   UNL     1      24.515 -11.312  15.577  1.00  0.00     0.000 C 
BRANCH   8   9
ATOM      9  C   UNL     1      24.295 -12.622  16.360  1.00  0.00     0.000 C 
BRANCH   9  10
ATOM     10  C   UNL     1      23.287 -12.504  17.522  1.00  0.00     0.000 C 
BRANCH  10  11
ATOM     11  C   UNL     1      23.643 -13.381  18.745  1.00  0.00     0.000 C 
BRANCH  11  12
ATOM     12  C   UNL     1      22.870 -13.002  20.023  1.00  0.00     0.006 C 
BRANCH  12  13
ATOM     13  C   UNL     1      22.410 -11.537  20.068  1.00  0.00     0.053 C 
BRANCH  13  14
ATOM     14  C   UNL     1      23.321 -10.683  20.899  1.00  0.00     0.041 C 
ATOM     15  O   UNL     1      23.144 -10.588  22.141  1.00  0.00    -0.550 OA
ATOM     16  O   UNL     1      24.386 -10.015  20.305  1.00  0.00    -0.550 OA
ENDBRANCH  13  14
ENDBRANCH  12  13
ENDBRANCH  11  12
ENDBRANCH  10  11
ENDBRANCH   9  10
ENDBRANCH   8   9
ENDBRANCH   7   8
ENDBRANCH   6   7
ENDBRANCH   5   6
ENDBRANCH   4   5
ENDBRANCH   3   4
ENDBRANCH   2   3
ENDBRANCH   1   2
BRANCH   1  17
ATOM     17  C   UNL     1      32.536  -9.620  17.060  1.00  0.00     0.000 C 
BRANCH  17  18
ATOM     18  C   UNL     1      33.902  -9.225  17.651  1.00  0.00     0.000 C 
BRANCH  18  19
ATOM     19  C   UNL     1      35.087  -9.778  16.841  1.00  0.00     0.000 C 
BRANCH  19  20
ATOM     20  C   UNL     1      35.765  -8.711  15.963  1.00  0.00     0.000 C 
BRANCH  20  21
ATOM     21  C   UNL     1      35.042  -8.387  14.643  1.00  0.00     0.000 C 
BRANCH  21  22
ATOM     22  C   UNL     1      35.001  -6.882  14.335  1.00  0.00    -0.000 C 
BRANCH  22  23
ATOM     23  C   UNL     1      34.509  -6.086  15.549  1.00  0.00    -0.000 C 
BRANCH  23  24
ATOM     24  C   UNL     1      32.987  -6.194  15.699  1.00  0.00    -0.000 C 
BRANCH  24  25
ATOM     25  C   UNL     1      32.266  -5.426  14.580  1.00  0.00    -0.000 C 
BRANCH  25  26
ATOM     26  C   UNL     1      30.861  -5.978  14.295  1.00  0.00    -0.000 C 
BRANCH  26  27
ATOM     27  C   UNL     1      29.883  -5.736  15.457  1.00  0.00    -0.000 C 
BRANCH  27  28
ATOM     28  C   UNL     1      28.466  -6.262  15.164  1.00  0.00    -0.000 C 
BRANCH  28  29
ATOM     29  C   UNL     1      27.451  -5.181  14.753  1.00  0.00    -0.003 C 
ATOM     30  C   UNL     1      27.830  -3.785  15.246  1.00  0.00     0.004 C 
ENDBRANCH  28  29
ENDBRANCH  27  28
ENDBRANCH  26  27
ENDBRANCH  25  26
ENDBRANCH  24  25
ENDBRANCH  23  24
ENDBRANCH  22  23
ENDBRANCH  21  22
ENDBRANCH  20  21
ENDBRANCH  19  20
ENDBRANCH  18  19
ENDBRANCH  17  18
ENDBRANCH   1  17
TORSDOF 26
ENDMDL
MODEL 8
REMARK VINA RESULT:    -4.880      3.317      5.736
REMARK INTER + INTRA:         -15.895
REMARK INTER:                 -13.863
REMARK INTRA:                  -2.033
REMARK UNBOUND:                -3.597
REMARK SMILES CCCCCCCCCCCCCCCCCCCCCCCCCCCC(=O)[O-]
REMARK SMILES IDX 15 1 16 2 17 3 18 4 19 5 20 6 21 7 22 8 23 9 24 10 25 11
REMARK SMILES IDX 26 12 27 13 28 14 29 15 30 16 14 17 13 18 12 19 11 20 10 21
REMARK SMILES IDX 9 22 8 23 7 24 6 25 5 26 4 27 3 28 2 29 1 30
REMARK H PARENT
REMARK Flexibility Score: inf
ROOT
ATOM      1  C   UNL     1      27.915  -6.783  17.992  1.00  0.00     0.000 C 
ENDROOT
BRANCH   1   2
ATOM      2  C   UNL     1      29.068  -5.910  18.508  1.00  0.00     0.000 C 
BRANCH   2   3
ATOM      3  C   UNL     1      29.783  -5.199  17.348  1.00  0.00     0.000 C 
BRANCH   3   4
ATOM      4  C   UNL     1      29.433  -3.703  17.252  1.00  0.00     0.000 C 
BRANCH   4   5
ATOM      5  C   UNL     1      28.282  -3.364  16.287  1.00  0.00     0.000 C 
BRANCH   5   6
ATOM      6  C   UNL     1      28.130  -4.386  15.152  1.00  0.00     0.000 C 
BRANCH   6   7
ATOM      7  C   UNL     1      26.761  -4.250  14.469  1.00  0.00     0.000 C 
BRANCH   7   8
ATOM      8  C   UNL     1      26.810  -3.336  13.229  1.00  0.00     0.000 C 
BRANCH   8   9
ATOM      9  C   UNL     1      25.500  -3.308  12.417  1.00  0.00     0.000 C 
BRANCH   9  10
ATOM     10  C   UNL     1      24.563  -2.133  12.765  1.00  0.00     0.000 C 
BRANCH  10  11
ATOM     11  C   UNL     1      23.169  -2.578  13.264  1.00  0.00     0.000 C 
BRANCH  11  12
ATOM     12  C   UNL     1      23.029  -2.566  14.799  1.00  0.00     0.006 C 
BRANCH  12  13
ATOM     13  C   UNL     1      21.880  -3.435  15.331  1.00  0.00     0.053 C 
BRANCH  13  14
ATOM     14  C   UNL     1      21.758  -3.360  16.824  1.00  0.00     0.041 C 
ATOM     15  O   UNL     1      21.364  -4.359  17.480  1.00  0.00    -0.550 OA
ATOM     16  O   UNL     1      22.109  -2.194  17.495  1.00  0.00    -0.550 OA
ENDBRANCH  13  14
ENDBRANCH  12  13
ENDBRANCH  11  12
ENDBRANCH  10  11
ENDBRANCH   9  10
ENDBRANCH   8   9
ENDBRANCH   7   8
ENDBRANCH   6   7
ENDBRANCH   5   6
ENDBRANCH   4   5
ENDBRANCH   3   4
ENDBRANCH   2   3
ENDBRANCH   1   2
BRANCH   1  17
ATOM     17  C   UNL     1      28.184  -8.291  18.154  1.00  0.00     0.000 C 
BRANCH  17  18
ATOM     18  C   UNL     1      29.546  -8.774  17.624  1.00  0.00     0.000 C 
BRANCH  18  19
ATOM     19  C   UNL     1      29.451  -9.422  16.233  1.00  0.00     0.000 C 
BRANCH  19  20
ATOM     20  C   UNL     1      29.259 -10.949  16.292  1.00  0.00     0.000 C 
BRANCH  20  21
ATOM     21  C   UNL     1      27.816 -11.441  16.078  1.00  0.00     0.000 C 
BRANCH  21  22
ATOM     22  C   UNL     1      27.012 -10.546  15.121  1.00  0.00    -0.000 C 
BRANCH  22  23
ATOM     23  C   UNL     1      25.549 -10.996  15.048  1.00  0.00    -0.000 C 
BRANCH  23  24
ATOM     24  C   UNL     1      24.951 -11.159  16.451  1.00  0.00    -0.000 C 
BRANCH  24  25
ATOM     25  C   UNL     1      24.062 -12.410  16.529  1.00  0.00    -0.000 C 
BRANCH  25  26
ATOM     26  C   UNL     1      23.931 -12.953  17.961  1.00  0.00    -0.000 C 
BRANCH  26  27
ATOM     27  C   UNL     1      22.594 -12.570  18.619  1.00  0.00    -0.000 C 
BRANCH  27  28
ATOM     28  C   UNL     1      22.697 -12.443  20.149  1.00  0.00    -0.000 C 
BRANCH  28  29
ATOM     29  C   UNL     1      23.051 -11.033  20.655  1.00  0.00    -0.003 C 
ATOM     30  C   UNL     1      23.045 -10.926  22.180  1.00  0.00     0.004 C 
ENDBRANCH  28  29
ENDBRANCH  27  28
ENDBRANCH  26  27
ENDBRANCH  25  26
ENDBRANCH  24  25
ENDBRANCH  23  24
ENDBRANCH  22  23
ENDBRANCH  21  22
ENDBRANCH  20  21
ENDBRANCH  19  20
ENDBRANCH  18  19
ENDBRANCH  17  18
ENDBRANCH   1  17
TORSDOF 26
ENDMDL
MODEL 9
REMARK VINA RESULT:    -4.781      3.162      8.836
REMARK INTER + INTRA:         -15.646
REMARK INTER:                 -13.229
REMARK INTRA:                  -2.416
REMARK UNBOUND:                -3.597
REMARK SMILES CCCCCCCCCCCCCCCCCCCCCCCCCCCC(=O)[O-]
REMARK SMILES IDX 15 1 16 2 17 3 18 4 19 5 20 6 21 7 22 8 23 9 24 10 25 11
REMARK SMILES IDX 26 12 27 13 28 14 29 15 30 16 14 17 13 18 12 19 11 20 10 21
REMARK SMILES IDX 9 22 8 23 7 24 6 25 5 26 4 27 3 28 2 29 1 30
REMARK H PARENT
REMARK Flexibility Score: inf
ROOT
ATOM      1  C   UNL     1      28.582  -7.602  16.059  1.00  0.00     0.000 C 
ENDROOT
BRANCH   1   2
ATOM      2  C   UNL     1      29.897  -8.357  15.815  1.00  0.00     0.000 C 
BRANCH   2   3
ATOM      3  C   UNL     1      29.630  -9.809  15.392  1.00  0.00     0.000 C 
BRANCH   3   4
ATOM      4  C   UNL     1      29.618 -10.789  16.579  1.00  0.00     0.000 C 
BRANCH   4   5
ATOM      5  C   UNL     1      28.265 -11.473  16.847  1.00  0.00     0.000 C 
BRANCH   5   6
ATOM      6  C   UNL     1      27.204 -11.137  15.788  1.00  0.00     0.000 C 
BRANCH   6   7
ATOM      7  C   UNL     1      25.851 -10.827  16.445  1.00  0.00     0.000 C 
BRANCH   7   8
ATOM      8  C   UNL     1      24.665 -11.425  15.663  1.00  0.00     0.000 C 
BRANCH   8   9
ATOM      9  C   UNL     1      23.729 -12.305  16.516  1.00  0.00     0.000 C 
BRANCH   9  10
ATOM     10  C   UNL     1      24.439 -13.065  17.655  1.00  0.00     0.000 C 
BRANCH  10  11
ATOM     11  C   UNL     1      23.517 -13.389  18.853  1.00  0.00     0.000 C 
BRANCH  11  12
ATOM     12  C   UNL     1      22.630 -12.205  19.287  1.00  0.00     0.006 C 
BRANCH  12  13
ATOM     13  C   UNL     1      22.584 -11.980  20.807  1.00  0.00     0.053 C 
BRANCH  13  14
ATOM     14  C   UNL     1      23.302 -10.727  21.214  1.00  0.00     0.041 C 
ATOM     15  O   UNL     1      23.284 -10.347  22.413  1.00  0.00    -0.550 OA
ATOM     16  O   UNL     1      24.019  -9.996  20.274  1.00  0.00    -0.550 OA
ENDBRANCH  13  14
ENDBRANCH  12  13
ENDBRANCH  11  12
ENDBRANCH  10  11
ENDBRANCH   9  10
ENDBRANCH   8   9
ENDBRANCH   7   8
ENDBRANCH   6   7
ENDBRANCH   5   6
ENDBRANCH   4   5
ENDBRANCH   3   4
ENDBRANCH   2   3
ENDBRANCH   1   2
BRANCH   1  17
ATOM     17  C   UNL     1      28.227  -7.481  17.553  1.00  0.00     0.000 C 
BRANCH  17  18
ATOM     18  C   UNL     1      28.221  -6.046  18.110  1.00  0.00     0.000 C 
BRANCH  18  19
ATOM     19  C   UNL     1      28.246  -4.975  17.006  1.00  0.00     0.000 C 
BRANCH  19  20
ATOM     20  C   UNL     1      28.906  -3.660  17.459  1.00  0.00     0.000 C 
BRANCH  20  21
ATOM     21  C   UNL     1      28.317  -2.379  16.840  1.00  0.00     0.000 C 
BRANCH  21  22
ATOM     22  C   UNL     1      27.510  -2.647  15.560  1.00  0.00    -0.000 C 
BRANCH  22  23
ATOM     23  C   UNL     1      26.044  -2.239  15.741  1.00  0.00    -0.000 C 
BRANCH  23  24
ATOM     24  C   UNL     1      25.100  -3.371  15.316  1.00  0.00    -0.000 C 
BRANCH  24  25
ATOM     25  C   UNL     1      24.307  -2.985  14.059  1.00  0.00    -0.000 C 
BRANCH  25  26
ATOM     26  C   UNL     1      24.517  -1.517  13.656  1.00  0.00    -0.000 C 
BRANCH  26  27
ATOM     27  C   UNL     1      25.143  -1.370  12.258  1.00  0.00    -0.000 C 
BRANCH  27  28
ATOM     28  C   UNL     1      25.925  -2.621  11.822  1.00  0.00    -0.000 C 
BRANCH  28  29
ATOM     29  C   UNL     1      26.910  -2.392  10.661  1.00  0.00    -0.003 C 
ATOM     30  C   UNL     1      27.228  -3.670   9.885  1.00  0.00     0.004 C 
ENDBRANCH  28  29
ENDBRANCH  27  28
ENDBRANCH  26  27
ENDBRANCH  25  26
ENDBRANCH  24  25
ENDBRANCH  23  24
ENDBRANCH  22  23
ENDBRANCH  21  22
ENDBRANCH  20  21
ENDBRANCH  19  20
ENDBRANCH  18  19
ENDBRANCH  17  18
ENDBRANCH   1  17
TORSDOF 26
ENDMDL
