MODEL 1
REMARK VINA RESULT:    -4.859      0.000      0.000
REMARK INTER + INTRA:          -7.260
REMARK INTER:                  -6.848
REMARK INTRA:                  -0.412
REMARK UNBOUND:                -0.412
REMARK SMILES C=CCCCCCCC(=O)[O-]
REMARK SMILES IDX 6 1 7 2 8 3 9 4 10 5 11 6 5 7 4 8 3 9 2 10 1 11
REMARK H PARENT
REMARK Flexibility Score: inf
ROOT
ATOM      1  C   UNL     1      42.675  45.630  41.962  1.00  0.00     0.000 C 
ENDROOT
BRANCH   1   2
ATOM      2  C   UNL     1      44.170  45.338  41.781  1.00  0.00     0.006 C 
BRANCH   2   3
ATOM      3  C   UNL     1      44.758  44.685  43.035  1.00  0.00     0.053 C 
BRANCH   3   4
ATOM      4  C   UNL     1      44.827  45.673  44.156  1.00  0.00     0.041 C 
ATOM      5  O   UNL     1      43.880  45.766  44.979  1.00  0.00    -0.550 OA
ATOM      6  O   UNL     1      45.961  46.459  44.320  1.00  0.00    -0.550 OA
ENDBRANCH   3   4
ENDBRANCH   2   3
ENDBRANCH   1   2
BRANCH   1   7
ATOM      7  C   UNL     1      41.844  44.939  40.875  1.00  0.00     0.000 C 
BRANCH   7   8
ATOM      8  C   UNL     1      41.551  45.896  39.713  1.00  0.00     0.004 C 
BRANCH   8   9
ATOM      9  C   UNL     1      41.869  45.237  38.365  1.00  0.00     0.027 C 
BRANCH   9  10
ATOM     10  C   UNL     1      42.763  44.041  38.541  1.00  0.00    -0.035 C 
ATOM     11  C   UNL     1      44.028  44.037  38.111  1.00  0.00     0.004 C 
ENDBRANCH   9  10
ENDBRANCH   8   9
ENDBRANCH   7   8
ENDBRANCH   1   7
TORSDOF 7
ENDMDL
MODEL 2
REMARK VINA RESULT:    -4.711      1.806      2.859
REMARK INTER + INTRA:          -7.050
REMARK INTER:                  -6.774
REMARK INTRA:                  -0.276
REMARK UNBOUND:                -0.412
REMARK SMILES C=CCCCCCCC(=O)[O-]
REMARK SMILES IDX 6 1 7 2 8 3 9 4 10 5 11 6 5 7 4 8 3 9 2 10 1 11
REMARK H PARENT
REMARK Flexibility Score: inf
ROOT
ATOM      1  C   UNL     1      43.408  45.518  43.257  1.00  0.00     0.000 C 
ENDROOT
BRANCH   1   2
ATOM      2  C   UNL     1      44.217  45.877  44.510  1.00  0.00     0.006 C 
BRANCH   2   3
ATOM      3  C   UNL     1      43.336  46.573  45.552  1.00  0.00     0.053 C 
BRANCH   3   4
ATOM      4  C   UNL     1      44.031  46.621  46.876  1.00  0.00     0.041 C 
ATOM      5  O   UNL     1      45.017  47.385  47.047  1.00  0.00    -0.550 OA
ATOM      6  O   UNL     1      43.558  45.859  47.937  1.00  0.00    -0.550 OA
ENDBRANCH   3   4
ENDBRANCH   2   3
ENDBRANCH   1   2
BRANCH   1   7
ATOM      7  C   UNL     1      44.333  45.223  42.071  1.00  0.00     0.000 C 
BRANCH   7   8
ATOM      8  C   UNL     1      43.584  45.369  40.740  1.00  0.00     0.004 C 
BRANCH   8   9
ATOM      9  C   UNL     1      42.071  45.475  40.968  1.00  0.00     0.027 C 
BRANCH   9  10
ATOM     10  C   UNL     1      41.325  45.516  39.663  1.00  0.00    -0.035 C 
ATOM     11  C   UNL     1      41.938  45.307  38.495  1.00  0.00     0.004 C 
ENDBRANCH   9  10
ENDBRANCH   8   9
ENDBRANCH   7   8
ENDBRANCH   1   7
TORSDOF 7
ENDMDL
MODEL 3
REMARK VINA RESULT:    -4.708      3.353      5.931
REMARK INTER + INTRA:          -7.046
REMARK INTER:                  -6.733
REMARK INTRA:                  -0.313
REMARK UNBOUND:                -0.412
REMARK SMILES C=CCCCCCCC(=O)[O-]
REMARK SMILES IDX 6 1 7 2 8 3 9 4 10 5 11 6 5 7 4 8 3 9 2 10 1 11
REMARK H PARENT
REMARK Flexibility Score: inf
ROOT
ATOM      1  C   UNL     1      42.738  45.425  42.498  1.00  0.00     0.000 C 
ENDROOT
BRANCH   1   2
ATOM      2  C   UNL     1      42.328  45.254  41.030  1.00  0.00     0.006 C 
BRANCH   2   3
ATOM      3  C   UNL     1      43.558  45.139  40.125  1.00  0.00     0.053 C 
BRANCH   3   4
ATOM      4  C   UNL     1      43.147  44.850  38.717  1.00  0.00     0.041 C 
ATOM      5  O   UNL     1      42.110  45.380  38.238  1.00  0.00    -0.550 OA
ATOM      6  O   UNL     1      43.935  44.033  37.916  1.00  0.00    -0.550 OA
ENDBRANCH   3   4
ENDBRANCH   2   3
ENDBRANCH   1   2
BRANCH   1   7
ATOM      7  C   UNL     1      44.232  45.139  42.689  1.00  0.00     0.000 C 
BRANCH   7   8
ATOM      8  C   UNL     1      44.679  45.475  44.117  1.00  0.00     0.004 C 
BRANCH   8   9
ATOM      9  C   UNL     1      43.564  46.194  44.887  1.00  0.00     0.027 C 
BRANCH   9  10
ATOM     10  C   UNL     1      43.887  46.285  46.353  1.00  0.00    -0.035 C 
ATOM     11  C   UNL     1      44.558  47.321  46.864  1.00  0.00     0.004 C 
ENDBRANCH   9  10
ENDBRANCH   8   9
ENDBRANCH   7   8
ENDBRANCH   1   7
TORSDOF 7
ENDMDL
MODEL 4
REMARK VINA RESULT:    -4.597      5.748      8.077
REMARK INTER + INTRA:          -6.890
REMARK INTER:                  -6.122
REMARK INTRA:                  -0.768
REMARK UNBOUND:                -0.412
REMARK SMILES C=CCCCCCCC(=O)[O-]
REMARK SMILES IDX 6 1 7 2 8 3 9 4 10 5 11 6 5 7 4 8 3 9 2 10 1 11
REMARK H PARENT
REMARK Flexibility Score: inf
ROOT
ATOM      1  C   UNL     1      45.636  47.574  48.341  1.00  0.00     0.000 C 
ENDROOT
BRANCH   1   2
ATOM      2  C   UNL     1      46.291  47.220  47.000  1.00  0.00     0.006 C 
BRANCH   2   3
ATOM      3  C   UNL     1      45.448  46.199  46.229  1.00  0.00     0.053 C 
BRANCH   3   4
ATOM      4  C   UNL     1      44.013  46.620  46.202  1.00  0.00     0.041 C 
ATOM      5  O   UNL     1      43.659  47.625  45.532  1.00  0.00    -0.550 OA
ATOM      6  O   UNL     1      43.057  45.872  46.878  1.00  0.00    -0.550 OA
ENDBRANCH   3   4
ENDBRANCH   2   3
ENDBRANCH   1   2
BRANCH   1   7
ATOM      7  C   UNL     1      46.150  46.665  49.463  1.00  0.00     0.000 C 
BRANCH   7   8
ATOM      8  C   UNL     1      45.105  45.606  49.836  1.00  0.00     0.004 C 
BRANCH   8   9
ATOM      9  C   UNL     1      45.727  44.205  49.862  1.00  0.00     0.027 C 
BRANCH   9  10
ATOM     10  C   UNL     1      46.954  44.137  48.994  1.00  0.00    -0.035 C 
ATOM     11  C   UNL     1      47.020  43.333  47.929  1.00  0.00     0.004 C 
ENDBRANCH   9  10
ENDBRANCH   8   9
ENDBRANCH   7   8
ENDBRANCH   1   7
TORSDOF 7
ENDMDL
MODEL 5
REMARK VINA RESULT:    -4.480      5.711      8.137
REMARK INTER + INTRA:          -6.725
REMARK INTER:                  -5.906
REMARK INTRA:                  -0.819
REMARK UNBOUND:                -0.412
REMARK SMILES C=CCCCCCCC(=O)[O-]
REMARK SMILES IDX 6 1 7 2 8 3 9 4 10 5 11 6 5 7 4 8 3 9 2 10 1 11
REMARK H PARENT
REMARK Flexibility Score: inf
ROOT
ATOM      1  C   UNL     1      47.147  44.407  46.575  1.00  0.00     0.000 C 
ENDROOT
BRANCH   1   2
ATOM      2  C   UNL     1      45.847  44.888  45.917  1.00  0.00     0.006 C 
BRANCH   2   3
ATOM      3  C   UNL     1      45.674  46.401  46.086  1.00  0.00     0.053 C 
BRANCH   3   4
ATOM      4  C   UNL     1      44.231  46.744  46.279  1.00  0.00     0.041 C 
ATOM      5  O   UNL     1      43.725  47.724  45.672  1.00  0.00    -0.550 OA
ATOM      6  O   UNL     1      43.430  45.950  47.091  1.00  0.00    -0.550 OA
ENDBRANCH   3   4
ENDBRANCH   2   3
ENDBRANCH   1   2
BRANCH   1   7
ATOM      7  C   UNL     1      46.857  43.391  47.686  1.00  0.00     0.000 C 
BRANCH   7   8
ATOM      8  C   UNL     1      47.003  44.033  49.071  1.00  0.00     0.004 C 
BRANCH   8   9
ATOM      9  C   UNL     1      45.637  44.185  49.753  1.00  0.00     0.027 C 
BRANCH   9  10
ATOM     10  C   UNL     1      45.330  45.629  50.039  1.00  0.00    -0.035 C 
ATOM     11  C   UNL     1      46.194  46.605  49.745  1.00  0.00     0.004 C 
ENDBRANCH   9  10
ENDBRANCH   8   9
ENDBRANCH   7   8
ENDBRANCH   1   7
TORSDOF 7
ENDMDL
MODEL 6
REMARK VINA RESULT:    -4.457      3.180      6.691
REMARK INTER + INTRA:          -6.693
REMARK INTER:                  -6.513
REMARK INTRA:                  -0.180
REMARK UNBOUND:                -0.412
REMARK SMILES C=CCCCCCCC(=O)[O-]
REMARK SMILES IDX 6 1 7 2 8 3 9 4 10 5 11 6 5 7 4 8 3 9 2 10 1 11
REMARK H PARENT
REMARK Flexibility Score: inf
ROOT
ATOM      1  C   UNL     1      44.842  45.432  43.479  1.00  0.00     0.000 C 
ENDROOT
BRANCH   1   2
ATOM      2  C   UNL     1      43.404  45.426  42.948  1.00  0.00     0.006 C 
BRANCH   2   3
ATOM      3  C   UNL     1      43.383  45.380  41.416  1.00  0.00     0.053 C 
BRANCH   3   4
ATOM      4  C   UNL     1      41.979  45.470  40.909  1.00  0.00     0.041 C 
ATOM      5  O   UNL     1      41.043  44.901  41.530  1.00  0.00    -0.550 OA
ATOM      6  O   UNL     1      41.696  46.224  39.777  1.00  0.00    -0.550 OA
ENDBRANCH   3   4
ENDBRANCH   2   3
ENDBRANCH   1   2
BRANCH   1   7
ATOM      7  C   UNL     1      44.895  45.954  44.919  1.00  0.00     0.000 C 
BRANCH   7   8
ATOM      8  C   UNL     1      46.129  46.838  45.140  1.00  0.00     0.004 C 
BRANCH   8   9
ATOM      9  C   UNL     1      46.733  46.602  46.530  1.00  0.00     0.027 C 
BRANCH   9  10
ATOM     10  C   UNL     1      45.923  47.284  47.598  1.00  0.00    -0.035 C 
ATOM     11  C   UNL     1      45.943  46.872  48.869  1.00  0.00     0.004 C 
ENDBRANCH   9  10
ENDBRANCH   8   9
ENDBRANCH   7   8
ENDBRANCH   1   7
TORSDOF 7
ENDMDL
MODEL 7
REMARK VINA RESULT:    -4.447      8.087      9.536
REMARK INTER + INTRA:          -6.678
REMARK INTER:                  -5.961
REMARK INTRA:                  -0.717
REMARK UNBOUND:                -0.412
REMARK SMILES C=CCCCCCCC(=O)[O-]
REMARK SMILES IDX 6 1 7 2 8 3 9 4 10 5 11 6 5 7 4 8 3 9 2 10 1 11
REMARK H PARENT
REMARK Flexibility Score: inf
ROOT
ATOM      1  C   UNL     1      49.119  43.995  35.495  1.00  0.00     0.000 C 
ENDROOT
BRANCH   1   2
ATOM      2  C   UNL     1      48.451  42.632  35.273  1.00  0.00     0.006 C 
BRANCH   2   3
ATOM      3  C   UNL     1      46.944  42.709  35.538  1.00  0.00     0.053 C 
BRANCH   3   4
ATOM      4  C   UNL     1      46.180  42.149  34.380  1.00  0.00     0.041 C 
ATOM      5  O   UNL     1      46.790  41.718  33.367  1.00  0.00    -0.550 OA
ATOM      6  O   UNL     1      44.795  42.058  34.440  1.00  0.00    -0.550 OA
ENDBRANCH   3   4
ENDBRANCH   2   3
ENDBRANCH   1   2
BRANCH   1   7
ATOM      7  C   UNL     1      48.326  45.115  34.813  1.00  0.00     0.000 C 
BRANCH   7   8
ATOM      8  C   UNL     1      48.757  45.284  33.351  1.00  0.00     0.004 C 
BRANCH   8   9
ATOM      9  C   UNL     1      47.590  45.002  32.397  1.00  0.00     0.027 C 
BRANCH   9  10
ATOM     10  C   UNL     1      47.974  43.993  31.350  1.00  0.00    -0.035 C 
ATOM     11  C   UNL     1      49.226  43.542  31.232  1.00  0.00     0.004 C 
ENDBRANCH   9  10
ENDBRANCH   8   9
ENDBRANCH   7   8
ENDBRANCH   1   7
TORSDOF 7
ENDMDL
MODEL 8
REMARK VINA RESULT:    -4.409      5.858      7.741
REMARK INTER + INTRA:          -6.625
REMARK INTER:                  -5.839
REMARK INTRA:                  -0.785
REMARK UNBOUND:                -0.412
REMARK SMILES C=CCCCCCCC(=O)[O-]
REMARK SMILES IDX 6 1 7 2 8 3 9 4 10 5 11 6 5 7 4 8 3 9 2 10 1 11
REMARK H PARENT
REMARK Flexibility Score: inf
ROOT
ATOM      1  C   UNL     1      44.838  45.631  49.533  1.00  0.00     0.000 C 
ENDROOT
BRANCH   1   2
ATOM      2  C   UNL     1      45.252  44.242  49.032  1.00  0.00     0.006 C 
BRANCH   2   3
ATOM      3  C   UNL     1      46.772  44.062  49.107  1.00  0.00     0.053 C 
BRANCH   3   4
ATOM      4  C   UNL     1      47.293  43.483  47.831  1.00  0.00     0.041 C 
ATOM      5  O   UNL     1      48.463  43.020  47.775  1.00  0.00    -0.550 OA
ATOM      6  O   UNL     1      46.470  43.410  46.713  1.00  0.00    -0.550 OA
ENDBRANCH   3   4
ENDBRANCH   2   3
ENDBRANCH   1   2
BRANCH   1   7
ATOM      7  C   UNL     1      45.989  46.633  49.394  1.00  0.00     0.000 C 
BRANCH   7   8
ATOM      8  C   UNL     1      45.707  47.645  48.276  1.00  0.00     0.004 C 
BRANCH   8   9
ATOM      9  C   UNL     1      46.340  47.195  46.954  1.00  0.00     0.027 C 
BRANCH   9  10
ATOM     10  C   UNL     1      45.293  46.731  45.979  1.00  0.00    -0.035 C 
ATOM     11  C   UNL     1      44.068  47.263  45.955  1.00  0.00     0.004 C 
ENDBRANCH   9  10
ENDBRANCH   8   9
ENDBRANCH   7   8
ENDBRANCH   1   7
TORSDOF 7
ENDMDL
MODEL 9
REMARK VINA RESULT:    -4.398      2.448      3.934
REMARK INTER + INTRA:          -6.609
REMARK INTER:                  -6.366
REMARK INTRA:                  -0.243
REMARK UNBOUND:                -0.412
REMARK SMILES C=CCCCCCCC(=O)[O-]
REMARK SMILES IDX 6 1 7 2 8 3 9 4 10 5 11 6 5 7 4 8 3 9 2 10 1 11
REMARK H PARENT
REMARK Flexibility Score: inf
ROOT
ATOM      1  C   UNL     1      45.160  46.527  44.912  1.00  0.00     0.000 C 
ENDROOT
BRANCH   1   2
ATOM      2  C   UNL     1      44.016  46.864  45.876  1.00  0.00     0.006 C 
BRANCH   2   3
ATOM      3  C   UNL     1      44.518  46.938  47.321  1.00  0.00     0.053 C 
BRANCH   3   4
ATOM      4  C   UNL     1      44.163  45.689  48.063  1.00  0.00     0.041 C 
ATOM      5  O   UNL     1      42.986  45.507  48.472  1.00  0.00    -0.550 OA
ATOM      6  O   UNL     1      45.121  44.702  48.260  1.00  0.00    -0.550 OA
ENDBRANCH   3   4
ENDBRANCH   2   3
ENDBRANCH   1   2
BRANCH   1   7
ATOM      7  C   UNL     1      44.837  45.274  44.090  1.00  0.00     0.000 C 
BRANCH   7   8
ATOM      8  C   UNL     1      43.615  45.505  43.192  1.00  0.00     0.004 C 
BRANCH   8   9
ATOM      9  C   UNL     1      43.983  45.343  41.712  1.00  0.00     0.027 C 
BRANCH   9  10
ATOM     10  C   UNL     1      42.777  45.513  40.829  1.00  0.00    -0.035 C 
ATOM     11  C   UNL     1      42.790  45.157  39.542  1.00  0.00     0.004 C 
ENDBRANCH   9  10
ENDBRANCH   8   9
ENDBRANCH   7   8
ENDBRANCH   1   7
TORSDOF 7
ENDMDL
