MODEL 1
REMARK VINA RESULT:    -3.002      0.000      0.000
REMARK INTER + INTRA:          -3.390
REMARK INTER:                  -3.354
REMARK INTRA:                  -0.037
REMARK UNBOUND:                -0.037
REMARK SMILES O=C([O-])c1ccc(O)c(O)c1
REMARK SMILES IDX 4 1 11 2 5 3 9 4 6 5 7 6 2 7 1 8 3 9 10 10 8 12
REMARK H PARENT 10 11 8 13
REMARK Flexibility Score: inf
ROOT
ATOM      1  C   UNL     1      -9.159  -8.735  -0.658  1.00  0.00     0.001 A 
ATOM      2  C   UNL     1      -9.915  -8.387   0.476  1.00  0.00     0.060 A 
ATOM      3  C   UNL     1      -7.805  -9.075  -0.497  1.00  0.00     0.014 A 
ATOM      4  C   UNL     1      -9.330  -8.377   1.748  1.00  0.00     0.158 A 
ATOM      5  C   UNL     1      -7.219  -9.066   0.772  1.00  0.00     0.051 A 
ATOM      6  C   UNL     1      -7.976  -8.719   1.898  1.00  0.00     0.157 A 
ENDROOT
BRANCH   1   7
ATOM      7  C   UNL     1      -9.776  -8.745  -2.003  1.00  0.00     0.072 C 
ATOM      8  O   UNL     1      -9.994  -9.832  -2.600  1.00  0.00    -0.545 OA
ATOM      9  O   UNL     1     -10.124  -7.551  -2.626  1.00  0.00    -0.545 OA
ENDBRANCH   1   7
BRANCH   4  10
ATOM     10  O   UNL     1     -10.111  -8.026   2.848  1.00  0.00    -0.504 OA
ATOM     11  H   UNL     1      -9.739  -7.490   3.624  1.00  0.00     0.293 HD
ENDBRANCH   4  10
BRANCH   6  12
ATOM     12  O   UNL     1      -7.389  -8.711   3.163  1.00  0.00    -0.504 OA
ATOM     13  H   UNL     1      -6.660  -9.369   3.413  1.00  0.00     0.293 HD
ENDBRANCH   6  12
TORSDOF 3
ENDMDL
MODEL 2
REMARK VINA RESULT:    -2.992     16.949     17.800
REMARK INTER + INTRA:          -3.378
REMARK INTER:                  -3.341
REMARK INTRA:                  -0.037
REMARK UNBOUND:                -0.037
REMARK SMILES O=C([O-])c1ccc(O)c(O)c1
REMARK SMILES IDX 4 1 11 2 5 3 9 4 6 5 7 6 2 7 1 8 3 9 10 10 8 12
REMARK H PARENT 10 11 8 13
REMARK Flexibility Score: inf
ROOT
ATOM      1  C   UNL     1      -9.133   8.718  -0.368  1.00  0.00     0.001 A 
ATOM      2  C   UNL     1      -9.900   8.294  -1.469  1.00  0.00     0.060 A 
ATOM      3  C   UNL     1      -7.788   9.071  -0.570  1.00  0.00     0.014 A 
ATOM      4  C   UNL     1      -9.334   8.220  -2.747  1.00  0.00     0.158 A 
ATOM      5  C   UNL     1      -7.221   8.999  -1.846  1.00  0.00     0.051 A 
ATOM      6  C   UNL     1      -7.988   8.575  -2.938  1.00  0.00     0.157 A 
ENDROOT
BRANCH   1   7
ATOM      7  C   UNL     1      -9.731   8.795   0.984  1.00  0.00     0.072 C 
ATOM      8  O   UNL     1      -9.917   9.909   1.540  1.00  0.00    -0.545 OA
ATOM      9  O   UNL     1     -10.096   7.635   1.658  1.00  0.00    -0.545 OA
ENDBRANCH   1   7
BRANCH   4  10
ATOM     10  O   UNL     1     -10.125   7.795  -3.813  1.00  0.00    -0.504 OA
ATOM     11  H   UNL     1      -9.962   6.913  -4.287  1.00  0.00     0.293 HD
ENDBRANCH   4  10
BRANCH   6  12
ATOM     12  O   UNL     1      -7.420   8.505  -4.209  1.00  0.00    -0.504 OA
ATOM     13  H   UNL     1      -7.339   9.325  -4.799  1.00  0.00     0.293 HD
ENDBRANCH   6  12
TORSDOF 3
ENDMDL
MODEL 3
REMARK VINA RESULT:    -2.960     10.780     12.622
REMARK INTER + INTRA:          -3.343
REMARK INTER:                  -3.307
REMARK INTRA:                  -0.036
REMARK UNBOUND:                -0.037
REMARK SMILES O=C([O-])c1ccc(O)c(O)c1
REMARK SMILES IDX 4 1 11 2 5 3 9 4 6 5 7 6 2 7 1 8 3 9 10 10 8 12
REMARK H PARENT 10 11 8 13
REMARK Flexibility Score: inf
ROOT
ATOM      1  C   UNL     1       0.587  -8.898   8.634  1.00  0.00     0.001 A 
ATOM      2  C   UNL     1      -0.489  -9.736   8.290  1.00  0.00     0.060 A 
ATOM      3  C   UNL     1       0.323  -7.576   9.030  1.00  0.00     0.014 A 
ATOM      4  C   UNL     1      -1.806  -9.263   8.339  1.00  0.00     0.158 A 
ATOM      5  C   UNL     1      -0.991  -7.101   9.079  1.00  0.00     0.051 A 
ATOM      6  C   UNL     1      -2.059  -7.939   8.736  1.00  0.00     0.157 A 
ENDROOT
BRANCH   1   7
ATOM      7  C   UNL     1       1.979  -9.398   8.581  1.00  0.00     0.072 C 
ATOM      8  O   UNL     1       2.701  -9.180   7.573  1.00  0.00    -0.545 OA
ATOM      9  O   UNL     1       2.510 -10.116   9.648  1.00  0.00    -0.545 OA
ENDBRANCH   1   7
BRANCH   4  10
ATOM     10  O   UNL     1      -2.847 -10.122   7.990  1.00  0.00    -0.504 OA
ATOM     11  H   UNL     1      -3.600 -10.343   8.632  1.00  0.00     0.293 HD
ENDBRANCH   4  10
BRANCH   6  12
ATOM     12  O   UNL     1      -3.368  -7.464   8.787  1.00  0.00    -0.504 OA
ATOM     13  H   UNL     1      -3.798  -7.008   7.990  1.00  0.00     0.293 HD
ENDBRANCH   6  12
TORSDOF 3
ENDMDL
MODEL 4
REMARK VINA RESULT:    -2.959     17.089     17.990
REMARK INTER + INTRA:          -3.342
REMARK INTER:                  -3.306
REMARK INTRA:                  -0.036
REMARK UNBOUND:                -0.037
REMARK SMILES O=C([O-])c1ccc(O)c(O)c1
REMARK SMILES IDX 4 1 11 2 5 3 9 4 6 5 7 6 2 7 1 8 3 9 10 10 8 12
REMARK H PARENT 10 11 8 13
REMARK Flexibility Score: inf
ROOT
ATOM      1  C   UNL     1      -9.097   8.690  -0.355  1.00  0.00     0.001 A 
ATOM      2  C   UNL     1      -7.824   9.000  -0.868  1.00  0.00     0.060 A 
ATOM      3  C   UNL     1     -10.125   8.340  -1.247  1.00  0.00     0.014 A 
ATOM      4  C   UNL     1      -7.582   8.965  -2.247  1.00  0.00     0.158 A 
ATOM      5  C   UNL     1      -9.886   8.305  -2.624  1.00  0.00     0.051 A 
ATOM      6  C   UNL     1      -8.618   8.614  -3.130  1.00  0.00     0.157 A 
ENDROOT
BRANCH   1   7
ATOM      7  C   UNL     1      -9.353   8.728   1.102  1.00  0.00     0.072 C 
ATOM      8  O   UNL     1      -9.864   9.747   1.636  1.00  0.00    -0.545 OA
ATOM      9  O   UNL     1      -9.030   7.637   1.901  1.00  0.00    -0.545 OA
ENDBRANCH   1   7
BRANCH   4  10
ATOM     10  O   UNL     1      -6.309   9.279  -2.719  1.00  0.00    -0.504 OA
ATOM     11  H   UNL     1      -5.912   8.833  -3.538  1.00  0.00     0.293 HD
ENDBRANCH   4  10
BRANCH   6  12
ATOM     12  O   UNL     1      -8.382   8.577  -4.503  1.00  0.00    -0.504 OA
ATOM     13  H   UNL     1      -7.741   7.907  -4.913  1.00  0.00     0.293 HD
ENDBRANCH   6  12
TORSDOF 3
ENDMDL
MODEL 5
REMARK VINA RESULT:    -2.933     10.847     12.726
REMARK INTER + INTRA:          -3.313
REMARK INTER:                  -3.275
REMARK INTRA:                  -0.037
REMARK UNBOUND:                -0.037
REMARK SMILES O=C([O-])c1ccc(O)c(O)c1
REMARK SMILES IDX 4 1 11 2 5 3 9 4 6 5 7 6 2 7 1 8 3 9 10 10 8 12
REMARK H PARENT 10 11 8 13
REMARK Flexibility Score: inf
ROOT
ATOM      1  C   UNL     1       0.702  -9.075   8.603  1.00  0.00     0.001 A 
ATOM      2  C   UNL     1       0.178  -7.811   8.935  1.00  0.00     0.060 A 
ATOM      3  C   UNL     1      -0.185 -10.122   8.300  1.00  0.00     0.014 A 
ATOM      4  C   UNL     1      -1.205  -7.597   8.965  1.00  0.00     0.158 A 
ATOM      5  C   UNL     1      -1.567  -9.910   8.329  1.00  0.00     0.051 A 
ATOM      6  C   UNL     1      -2.082  -8.651   8.659  1.00  0.00     0.157 A 
ENDROOT
BRANCH   1   7
ATOM      7  C   UNL     1       2.164  -9.302   8.573  1.00  0.00     0.072 C 
ATOM      8  O   UNL     1       2.707 -10.089   9.391  1.00  0.00    -0.545 OA
ATOM      9  O   UNL     1       2.958  -8.646   7.638  1.00  0.00    -0.545 OA
ENDBRANCH   1   7
BRANCH   4  10
ATOM     10  O   UNL     1      -1.686  -6.332   9.298  1.00  0.00    -0.504 OA
ATOM     11  H   UNL     1      -2.638  -6.047   9.095  1.00  0.00     0.293 HD
ENDBRANCH   4  10
BRANCH   6  12
ATOM     12  O   UNL     1      -3.461  -8.442   8.687  1.00  0.00    -0.504 OA
ATOM     13  H   UNL     1      -4.111  -9.214   8.778  1.00  0.00     0.293 HD
ENDBRANCH   6  12
TORSDOF 3
ENDMDL
MODEL 6
REMARK VINA RESULT:    -2.927     10.831     12.341
REMARK INTER + INTRA:          -3.306
REMARK INTER:                  -3.262
REMARK INTRA:                  -0.044
REMARK UNBOUND:                -0.037
REMARK SMILES O=C([O-])c1ccc(O)c(O)c1
REMARK SMILES IDX 4 1 11 2 5 3 9 4 6 5 7 6 2 7 1 8 3 9 10 10 8 12
REMARK H PARENT 10 11 8 13
REMARK Flexibility Score: inf
ROOT
ATOM      1  C   UNL     1      -0.719  -6.774   9.173  1.00  0.00     0.001 A 
ATOM      2  C   UNL     1      -1.051  -8.016   8.600  1.00  0.00     0.060 A 
ATOM      3  C   UNL     1      -1.689  -6.090   9.925  1.00  0.00     0.014 A 
ATOM      4  C   UNL     1      -2.328  -8.563   8.773  1.00  0.00     0.158 A 
ATOM      5  C   UNL     1      -2.965  -6.634  10.099  1.00  0.00     0.051 A 
ATOM      6  C   UNL     1      -3.290  -7.870   9.527  1.00  0.00     0.157 A 
ENDROOT
BRANCH   1   7
ATOM      7  C   UNL     1       0.630  -6.195   8.990  1.00  0.00     0.072 C 
ATOM      8  O   UNL     1       1.439  -6.702   8.169  1.00  0.00    -0.545 OA
ATOM      9  O   UNL     1       1.023  -5.082   9.725  1.00  0.00    -0.545 OA
ENDBRANCH   1   7
BRANCH   4  10
ATOM     10  O   UNL     1      -2.620  -9.796   8.190  1.00  0.00    -0.504 OA
ATOM     11  H   UNL     1      -2.382 -10.673   8.638  1.00  0.00     0.293 HD
ENDBRANCH   4  10
BRANCH   6  12
ATOM     12  O   UNL     1      -4.563  -8.412   9.702  1.00  0.00    -0.504 OA
ATOM     13  H   UNL     1      -5.344  -7.841  10.004  1.00  0.00     0.293 HD
ENDBRANCH   6  12
TORSDOF 3
ENDMDL
MODEL 7
REMARK VINA RESULT:    -2.909      0.977      2.038
REMARK INTER + INTRA:          -3.286
REMARK INTER:                  -3.249
REMARK INTRA:                  -0.037
REMARK UNBOUND:                -0.037
REMARK SMILES O=C([O-])c1ccc(O)c(O)c1
REMARK SMILES IDX 4 1 11 2 5 3 9 4 6 5 7 6 2 7 1 8 3 9 10 10 8 12
REMARK H PARENT 10 11 8 13
REMARK Flexibility Score: inf
ROOT
ATOM      1  C   UNL     1      -9.019  -8.697  -0.510  1.00  0.00     0.001 A 
ATOM      2  C   UNL     1      -7.795  -9.010   0.109  1.00  0.00     0.060 A 
ATOM      3  C   UNL     1     -10.125  -8.369   0.294  1.00  0.00     0.014 A 
ATOM      4  C   UNL     1      -7.676  -8.998   1.504  1.00  0.00     0.158 A 
ATOM      5  C   UNL     1     -10.009  -8.356   1.687  1.00  0.00     0.051 A 
ATOM      6  C   UNL     1      -8.788  -8.668   2.297  1.00  0.00     0.157 A 
ENDROOT
BRANCH   1   7
ATOM      7  C   UNL     1      -9.145  -8.710  -1.984  1.00  0.00     0.072 C 
ATOM      8  O   UNL     1      -9.883  -9.554  -2.557  1.00  0.00    -0.545 OA
ATOM      9  O   UNL     1      -8.448  -7.788  -2.758  1.00  0.00    -0.545 OA
ENDBRANCH   1   7
BRANCH   4  10
ATOM     10  O   UNL     1      -6.447  -9.314   2.081  1.00  0.00    -0.504 OA
ATOM     11  H   UNL     1      -6.171 -10.271   2.270  1.00  0.00     0.293 HD
ENDBRANCH   4  10
BRANCH   6  12
ATOM     12  O   UNL     1      -8.675  -8.655   3.687  1.00  0.00    -0.504 OA
ATOM     13  H   UNL     1      -9.426  -8.315   4.276  1.00  0.00     0.293 HD
ENDBRANCH   6  12
TORSDOF 3
ENDMDL
MODEL 8
REMARK VINA RESULT:    -2.877     11.596     12.892
REMARK INTER + INTRA:          -3.250
REMARK INTER:                  -3.213
REMARK INTRA:                  -0.037
REMARK UNBOUND:                -0.037
REMARK SMILES O=C([O-])c1ccc(O)c(O)c1
REMARK SMILES IDX 4 1 11 2 5 3 9 4 6 5 7 6 2 7 1 8 3 9 10 10 8 12
REMARK H PARENT 10 11 8 13
REMARK Flexibility Score: inf
ROOT
ATOM      1  C   UNL     1       0.352  -8.460   8.650  1.00  0.00     0.001 A 
ATOM      2  C   UNL     1       0.706  -7.160   9.055  1.00  0.00     0.060 A 
ATOM      3  C   UNL     1      -1.008  -8.804   8.573  1.00  0.00     0.014 A 
ATOM      4  C   UNL     1      -0.280  -6.221   9.381  1.00  0.00     0.158 A 
ATOM      5  C   UNL     1      -1.994  -7.868   8.898  1.00  0.00     0.051 A 
ATOM      6  C   UNL     1      -1.637  -6.575   9.301  1.00  0.00     0.157 A 
ENDROOT
BRANCH   1   7
ATOM      7  C   UNL     1       1.394  -9.453   8.306  1.00  0.00     0.072 C 
ATOM      8  O   UNL     1       1.534  -9.851   7.120  1.00  0.00    -0.545 OA
ATOM      9  O   UNL     1       2.234  -9.961   9.292  1.00  0.00    -0.545 OA
ENDBRANCH   1   7
BRANCH   4  10
ATOM     10  O   UNL     1       0.108  -4.943   9.779  1.00  0.00    -0.504 OA
ATOM     11  H   UNL     1      -0.131  -4.115   9.244  1.00  0.00     0.293 HD
ENDBRANCH   4  10
BRANCH   6  12
ATOM     12  O   UNL     1      -2.623  -5.644   9.623  1.00  0.00    -0.504 OA
ATOM     13  H   UNL     1      -3.373  -5.421   8.979  1.00  0.00     0.293 HD
ENDBRANCH   6  12
TORSDOF 3
ENDMDL
MODEL 9
REMARK VINA RESULT:    -0.224     20.960     22.407
REMARK INTER + INTRA:          -0.286
REMARK INTER:                  -0.250
REMARK INTRA:                  -0.037
REMARK UNBOUND:                -0.037
REMARK SMILES O=C([O-])c1ccc(O)c(O)c1
REMARK SMILES IDX 4 1 11 2 5 3 9 4 6 5 7 6 2 7 1 8 3 9 10 10 8 12
REMARK H PARENT 10 11 8 13
REMARK Flexibility Score: inf
ROOT
ATOM      1  C   UNL     1       8.977   0.017   9.056  1.00  0.00     0.001 A 
ATOM      2  C   UNL     1       9.371   0.602   7.839  1.00  0.00     0.060 A 
ATOM      3  C   UNL     1       8.605   0.850  10.125  1.00  0.00     0.014 A 
ATOM      4  C   UNL     1       9.396   1.994   7.692  1.00  0.00     0.158 A 
ATOM      5  C   UNL     1       8.629   2.240   9.980  1.00  0.00     0.051 A 
ATOM      6  C   UNL     1       9.021   2.818   8.767  1.00  0.00     0.157 A 
ENDROOT
BRANCH   1   7
ATOM      7  C   UNL     1       8.953  -1.455   9.213  1.00  0.00     0.072 C 
ATOM      8  O   UNL     1       9.802  -2.036   9.938  1.00  0.00    -0.545 OA
ATOM      9  O   UNL     1       7.989  -2.215   8.559  1.00  0.00    -0.545 OA
ENDBRANCH   1   7
BRANCH   4  10
ATOM     10  O   UNL     1       9.792   2.539   6.471  1.00  0.00    -0.504 OA
ATOM     11  H   UNL     1      10.734   2.426   6.112  1.00  0.00     0.293 HD
ENDBRANCH   4  10
BRANCH   6  12
ATOM     12  O   UNL     1       9.043   4.205   8.625  1.00  0.00    -0.504 OA
ATOM     13  H   UNL     1       8.221   4.769   8.807  1.00  0.00     0.293 HD
ENDBRANCH   6  12
TORSDOF 3
ENDMDL
