MODEL 1
REMARK VINA RESULT:    -4.938      0.000      0.000
REMARK INTER + INTRA:          -6.277
REMARK INTER:                  -5.948
REMARK INTRA:                  -0.329
REMARK UNBOUND:                -0.329
REMARK SMILES O=c1c(O)c(-c2ccc(O)c(O)c2)oc2cc(O)cc(O)c12
REMARK SMILES IDX 5 1 3 2 2 3 1 4 22 5 20 6 19 7 17 8 16 9 15 10 14 11 6 12
REMARK SMILES IDX 7 13 8 14 9 15 13 16 11 17 10 18 12 20 4 22 21 24 18 26
REMARK H PARENT 10 19 12 21 4 23 21 25 18 27
REMARK Flexibility Score: inf
ROOT
ATOM      1  C   UNL     1       0.253   3.501  23.602  1.00  0.00     0.180 A 
ATOM      2  C   UNL     1      -0.059   2.605  24.638  1.00  0.00     0.208 A 
ATOM      3  C   UNL     1      -0.479   1.306  24.311  1.00  0.00     0.238 A 
ATOM      4  O   UNL     1      -0.809   0.525  25.242  1.00  0.00    -0.285 OA
ATOM      5  C   UNL     1      -0.568   0.914  22.954  1.00  0.00     0.111 A 
ATOM      6  C   UNL     1      -0.944  -0.389  22.510  1.00  0.00     0.134 A 
ATOM      7  C   UNL     1      -1.124  -0.626  21.142  1.00  0.00     0.093 A 
ATOM      8  C   UNL     1      -0.879   0.375  20.198  1.00  0.00     0.123 A 
ATOM      9  C   UNL     1      -0.454   1.632  20.619  1.00  0.00     0.094 A 
ATOM     10  C   UNL     1      -0.299   1.910  21.979  1.00  0.00     0.146 A 
ATOM     11  O   UNL     1       0.097   3.125  22.338  1.00  0.00    -0.452 OA
ENDROOT
BRANCH   1  12
ATOM     12  C   UNL     1       0.727   4.878  23.867  1.00  0.00     0.025 A 
ATOM     13  C   UNL     1      -0.187   5.943  23.833  1.00  0.00     0.016 A 
ATOM     14  C   UNL     1       0.242   7.253  24.059  1.00  0.00     0.051 A 
ATOM     15  C   UNL     1       1.594   7.519  24.309  1.00  0.00     0.157 A 
ATOM     16  C   UNL     1       2.087   5.153  24.098  1.00  0.00     0.062 A 
ATOM     17  C   UNL     1       2.519   6.468  24.324  1.00  0.00     0.158 A 
BRANCH  15  18
ATOM     18  O   UNL     1       2.027   8.824  24.538  1.00  0.00    -0.504 OA
ATOM     19  H   UNL     1       2.244   9.154  25.472  1.00  0.00     0.293 HD
ENDBRANCH  15  18
BRANCH  17  20
ATOM     20  O   UNL     1       3.866   6.738  24.560  1.00  0.00    -0.504 OA
ATOM     21  H   UNL     1       4.542   5.993  24.683  1.00  0.00     0.293 HD
ENDBRANCH  17  20
ENDBRANCH   1  12
BRANCH   2  22
ATOM     22  O   UNL     1       0.015   3.019  25.971  1.00  0.00    -0.502 OA
ATOM     23  H   UNL     1      -0.691   3.608  26.398  1.00  0.00     0.293 HD
ENDBRANCH   2  22
BRANCH   6  24
ATOM     24  O   UNL     1      -1.125  -1.483  23.362  1.00  0.00    -0.507 OA
ATOM     25  H   UNL     1      -1.630  -1.453  24.235  1.00  0.00     0.293 HD
ENDBRANCH   6  24
BRANCH   8  26
ATOM     26  O   UNL     1      -1.046   0.125  18.837  1.00  0.00    -0.508 OA
ATOM     27  H   UNL     1      -1.712  -0.561  18.502  1.00  0.00     0.293 HD
ENDBRANCH   8  26
TORSDOF 6
ENDMDL
MODEL 2
REMARK VINA RESULT:    -4.728      1.552      7.227
REMARK INTER + INTRA:          -6.025
REMARK INTER:                  -6.007
REMARK INTRA:                  -0.019
REMARK UNBOUND:                -0.329
REMARK SMILES O=c1c(O)c(-c2ccc(O)c(O)c2)oc2cc(O)cc(O)c12
REMARK SMILES IDX 5 1 3 2 2 3 1 4 22 5 20 6 19 7 17 8 16 9 15 10 14 11 6 12
REMARK SMILES IDX 7 13 8 14 9 15 13 16 11 17 10 18 12 20 4 22 21 24 18 26
REMARK H PARENT 10 19 12 21 4 23 21 25 18 27
REMARK Flexibility Score: inf
ROOT
ATOM      1  C   UNL     1       0.348   3.565  22.955  1.00  0.00     0.180 A 
ATOM      2  C   UNL     1      -0.165   4.716  22.333  1.00  0.00     0.208 A 
ATOM      3  C   UNL     1       0.275   5.977  22.767  1.00  0.00     0.238 A 
ATOM      4  O   UNL     1      -0.228   7.005  22.243  1.00  0.00    -0.285 OA
ATOM      5  C   UNL     1       1.231   6.071  23.806  1.00  0.00     0.111 A 
ATOM      6  C   UNL     1       1.776   7.296  24.297  1.00  0.00     0.134 A 
ATOM      7  C   UNL     1       2.618   7.277  25.416  1.00  0.00     0.093 A 
ATOM      8  C   UNL     1       2.986   6.072  26.021  1.00  0.00     0.123 A 
ATOM      9  C   UNL     1       2.506   4.868  25.512  1.00  0.00     0.094 A 
ATOM     10  C   UNL     1       1.636   4.857  24.418  1.00  0.00     0.146 A 
ATOM     11  O   UNL     1       1.194   3.688  23.971  1.00  0.00    -0.452 OA
ENDROOT
BRANCH   1  12
ATOM     12  C   UNL     1      -0.048   2.201  22.537  1.00  0.00     0.025 A 
ATOM     13  C   UNL     1      -0.413   1.258  23.511  1.00  0.00     0.016 A 
ATOM     14  C   UNL     1      -0.770  -0.041  23.139  1.00  0.00     0.051 A 
ATOM     15  C   UNL     1      -0.751  -0.421  21.792  1.00  0.00     0.157 A 
ATOM     16  C   UNL     1      -0.010   1.810  21.186  1.00  0.00     0.062 A 
ATOM     17  C   UNL     1      -0.367   0.505  20.814  1.00  0.00     0.158 A 
BRANCH  15  18
ATOM     18  O   UNL     1      -1.108  -1.715  21.416  1.00  0.00    -0.504 OA
ATOM     19  H   UNL     1      -1.646  -2.316  22.032  1.00  0.00     0.293 HD
ENDBRANCH  15  18
BRANCH  17  20
ATOM     20  O   UNL     1      -0.336   0.121  19.474  1.00  0.00    -0.504 OA
ATOM     21  H   UNL     1      -1.178  -0.155  18.983  1.00  0.00     0.293 HD
ENDBRANCH  17  20
ENDBRANCH   1  12
BRANCH   2  22
ATOM     22  O   UNL     1      -1.125   4.601  21.324  1.00  0.00    -0.502 OA
ATOM     23  H   UNL     1      -1.552   3.716  21.077  1.00  0.00     0.293 HD
ENDBRANCH   2  22
BRANCH   6  24
ATOM     24  O   UNL     1       1.546   8.544  23.711  1.00  0.00    -0.507 OA
ATOM     25  H   UNL     1       1.273   9.374  24.216  1.00  0.00     0.293 HD
ENDBRANCH   6  24
BRANCH   8  26
ATOM     26  O   UNL     1       3.837   6.061  27.125  1.00  0.00    -0.508 OA
ATOM     27  H   UNL     1       3.507   5.794  28.044  1.00  0.00     0.293 HD
ENDBRANCH   8  26
TORSDOF 6
ENDMDL
MODEL 3
REMARK VINA RESULT:    -3.502      5.001      8.443
REMARK INTER + INTRA:          -4.548
REMARK INTER:                  -5.022
REMARK INTRA:                   0.474
REMARK UNBOUND:                -0.329
REMARK SMILES O=c1c(O)c(-c2ccc(O)c(O)c2)oc2cc(O)cc(O)c12
REMARK SMILES IDX 5 1 3 2 2 3 1 4 22 5 20 6 19 7 17 8 16 9 15 10 14 11 6 12
REMARK SMILES IDX 7 13 8 14 9 15 13 16 11 17 10 18 12 20 4 22 21 24 18 26
REMARK H PARENT 10 19 12 21 4 23 21 25 18 27
REMARK Flexibility Score: inf
ROOT
ATOM      1  C   UNL     1      -1.064   2.808  17.536  1.00  0.00     0.180 A 
ATOM      2  C   UNL     1      -1.042   2.067  16.343  1.00  0.00     0.208 A 
ATOM      3  C   UNL     1      -0.983   2.752  15.118  1.00  0.00     0.238 A 
ATOM      4  O   UNL     1      -1.017   2.085  14.051  1.00  0.00    -0.285 OA
ATOM      5  C   UNL     1      -0.932   4.166  15.103  1.00  0.00     0.111 A 
ATOM      6  C   UNL     1      -0.830   4.961  13.922  1.00  0.00     0.134 A 
ATOM      7  C   UNL     1      -0.918   6.355  14.018  1.00  0.00     0.093 A 
ATOM      8  C   UNL     1      -1.040   6.985  15.259  1.00  0.00     0.123 A 
ATOM      9  C   UNL     1      -1.080   6.221  16.422  1.00  0.00     0.094 A 
ATOM     10  C   UNL     1      -1.030   4.826  16.356  1.00  0.00     0.146 A 
ATOM     11  O   UNL     1      -1.082   4.134  17.487  1.00  0.00    -0.452 OA
ENDROOT
BRANCH   1  12
ATOM     12  C   UNL     1      -1.101   2.157  18.866  1.00  0.00     0.025 A 
ATOM     13  C   UNL     1      -1.085   2.951  20.024  1.00  0.00     0.016 A 
ATOM     14  C   UNL     1      -1.098   2.358  21.290  1.00  0.00     0.051 A 
ATOM     15  C   UNL     1      -1.110   0.963  21.415  1.00  0.00     0.157 A 
ATOM     16  C   UNL     1      -1.092   0.757  18.997  1.00  0.00     0.062 A 
ATOM     17  C   UNL     1      -1.103   0.161  20.267  1.00  0.00     0.158 A 
BRANCH  15  18
ATOM     18  O   UNL     1      -1.125   0.367  22.675  1.00  0.00    -0.504 OA
ATOM     19  H   UNL     1      -1.636   0.777  23.449  1.00  0.00     0.293 HD
ENDBRANCH  15  18
BRANCH  17  20
ATOM     20  O   UNL     1      -1.102  -1.227  20.395  1.00  0.00    -0.504 OA
ATOM     21  H   UNL     1      -1.346  -1.679  21.268  1.00  0.00     0.293 HD
ENDBRANCH  17  20
ENDBRANCH   1  12
BRANCH   2  22
ATOM     22  O   UNL     1      -1.115   0.672  16.379  1.00  0.00    -0.502 OA
ATOM     23  H   UNL     1      -0.456   0.106  16.900  1.00  0.00     0.293 HD
ENDBRANCH   2  22
BRANCH   6  24
ATOM     24  O   UNL     1      -0.616   4.436  12.644  1.00  0.00    -0.507 OA
ATOM     25  H   UNL     1      -1.241   3.801  12.172  1.00  0.00     0.293 HD
ENDBRANCH   6  24
BRANCH   8  26
ATOM     26  O   UNL     1      -1.112   8.375  15.347  1.00  0.00    -0.508 OA
ATOM     27  H   UNL     1      -0.400   8.968  14.939  1.00  0.00     0.293 HD
ENDBRANCH   8  26
TORSDOF 6
ENDMDL
MODEL 4
REMARK VINA RESULT:    -2.707      1.626      7.099
REMARK INTER + INTRA:          -3.590
REMARK INTER:                  -3.420
REMARK INTRA:                  -0.170
REMARK UNBOUND:                -0.329
REMARK SMILES O=c1c(O)c(-c2ccc(O)c(O)c2)oc2cc(O)cc(O)c12
REMARK SMILES IDX 5 1 3 2 2 3 1 4 22 5 20 6 19 7 17 8 16 9 15 10 14 11 6 12
REMARK SMILES IDX 7 13 8 14 9 15 13 16 11 17 10 18 12 20 4 22 21 24 18 26
REMARK H PARENT 10 19 12 21 4 23 21 25 18 27
REMARK Flexibility Score: inf
ROOT
ATOM      1  C   UNL     1       0.969   3.528  23.983  1.00  0.00     0.180 A 
ATOM      2  C   UNL     1       2.351   3.758  24.073  1.00  0.00     0.208 A 
ATOM      3  C   UNL     1       2.805   5.015  24.505  1.00  0.00     0.238 A 
ATOM      4  O   UNL     1       4.045   5.233  24.532  1.00  0.00    -0.285 OA
ATOM      5  C   UNL     1       1.872   6.019  24.855  1.00  0.00     0.111 A 
ATOM      6  C   UNL     1       2.220   7.314  25.344  1.00  0.00     0.134 A 
ATOM      7  C   UNL     1       1.216   8.272  25.535  1.00  0.00     0.093 A 
ATOM      8  C   UNL     1      -0.128   7.961  25.317  1.00  0.00     0.123 A 
ATOM      9  C   UNL     1      -0.482   6.682  24.898  1.00  0.00     0.094 A 
ATOM     10  C   UNL     1       0.499   5.715  24.664  1.00  0.00     0.146 A 
ATOM     11  O   UNL     1       0.119   4.511  24.255  1.00  0.00    -0.452 OA
ENDROOT
BRANCH   1  12
ATOM     12  C   UNL     1       0.414   2.221  23.560  1.00  0.00     0.025 A 
ATOM     13  C   UNL     1      -0.280   1.432  24.491  1.00  0.00     0.016 A 
ATOM     14  C   UNL     1      -0.794   0.186  24.119  1.00  0.00     0.051 A 
ATOM     15  C   UNL     1      -0.609  -0.293  22.817  1.00  0.00     0.157 A 
ATOM     16  C   UNL     1       0.615   1.727  22.259  1.00  0.00     0.062 A 
ATOM     17  C   UNL     1       0.101   0.476  21.886  1.00  0.00     0.158 A 
BRANCH  15  18
ATOM     18  O   UNL     1      -1.121  -1.534  22.441  1.00  0.00    -0.504 OA
ATOM     19  H   UNL     1      -1.403  -2.222  23.131  1.00  0.00     0.293 HD
ENDBRANCH  15  18
BRANCH  17  20
ATOM     20  O   UNL     1       0.295  -0.010  20.594  1.00  0.00    -0.504 OA
ATOM     21  H   UNL     1       1.220  -0.231  20.245  1.00  0.00     0.293 HD
ENDBRANCH  17  20
ENDBRANCH   1  12
BRANCH   2  22
ATOM     22  O   UNL     1       3.257   2.760  23.701  1.00  0.00    -0.502 OA
ATOM     23  H   UNL     1       4.091   2.554  24.238  1.00  0.00     0.293 HD
ENDBRANCH   2  22
BRANCH   6  24
ATOM     24  O   UNL     1       3.521   7.699  25.679  1.00  0.00    -0.507 OA
ATOM     25  H   UNL     1       3.758   8.528  26.203  1.00  0.00     0.293 HD
ENDBRANCH   6  24
BRANCH   8  26
ATOM     26  O   UNL     1      -1.122   8.917  25.525  1.00  0.00    -0.508 OA
ATOM     27  H   UNL     1      -1.314   9.288  26.447  1.00  0.00     0.293 HD
ENDBRANCH   8  26
TORSDOF 6
ENDMDL
MODEL 5
REMARK VINA RESULT:    -2.436      1.778      6.442
REMARK INTER + INTRA:          -3.264
REMARK INTER:                  -3.766
REMARK INTRA:                   0.502
REMARK UNBOUND:                -0.329
REMARK SMILES O=c1c(O)c(-c2ccc(O)c(O)c2)oc2cc(O)cc(O)c12
REMARK SMILES IDX 5 1 3 2 2 3 1 4 22 5 20 6 19 7 17 8 16 9 15 10 14 11 6 12
REMARK SMILES IDX 7 13 8 14 9 15 13 16 11 17 10 18 12 20 4 22 21 24 18 26
REMARK H PARENT 10 19 12 21 4 23 21 25 18 27
REMARK Flexibility Score: inf
ROOT
ATOM      1  C   UNL     1      -0.680   2.375  21.632  1.00  0.00     0.180 A 
ATOM      2  C   UNL     1      -0.813   1.428  22.661  1.00  0.00     0.208 A 
ATOM      3  C   UNL     1      -0.696   1.851  23.995  1.00  0.00     0.238 A 
ATOM      4  O   UNL     1      -0.762   0.989  24.909  1.00  0.00    -0.285 OA
ATOM      5  C   UNL     1      -0.462   3.216  24.283  1.00  0.00     0.111 A 
ATOM      6  C   UNL     1      -0.365   3.762  25.599  1.00  0.00     0.134 A 
ATOM      7  C   UNL     1      -0.002   5.104  25.765  1.00  0.00     0.093 A 
ATOM      8  C   UNL     1       0.204   5.936  24.662  1.00  0.00     0.123 A 
ATOM      9  C   UNL     1       0.054   5.428  23.374  1.00  0.00     0.094 A 
ATOM     10  C   UNL     1      -0.273   4.084  23.176  1.00  0.00     0.146 A 
ATOM     11  O   UNL     1      -0.396   3.637  21.932  1.00  0.00    -0.452 OA
ENDROOT
BRANCH   1  12
ATOM     12  C   UNL     1      -0.817   2.011  20.203  1.00  0.00     0.025 A 
ATOM     13  C   UNL     1      -0.793   0.658  19.830  1.00  0.00     0.016 A 
ATOM     14  C   UNL     1      -0.900   0.292  18.485  1.00  0.00     0.051 A 
ATOM     15  C   UNL     1      -1.016   1.274  17.494  1.00  0.00     0.157 A 
ATOM     16  C   UNL     1      -0.913   2.995  19.203  1.00  0.00     0.062 A 
ATOM     17  C   UNL     1      -1.018   2.628  17.853  1.00  0.00     0.158 A 
BRANCH  15  18
ATOM     18  O   UNL     1      -1.124   0.915  16.152  1.00  0.00    -0.504 OA
ATOM     19  H   UNL     1      -0.785   0.021  15.813  1.00  0.00     0.293 HD
ENDBRANCH  15  18
BRANCH  17  20
ATOM     20  O   UNL     1      -1.121   3.604  16.863  1.00  0.00    -0.504 OA
ATOM     21  H   UNL     1      -1.893   4.260  16.843  1.00  0.00     0.293 HD
ENDBRANCH  17  20
ENDBRANCH   1  12
BRANCH   2  22
ATOM     22  O   UNL     1      -1.022   0.081  22.353  1.00  0.00    -0.502 OA
ATOM     23  H   UNL     1      -0.658  -0.348  21.510  1.00  0.00     0.293 HD
ENDBRANCH   2  22
BRANCH   6  24
ATOM     24  O   UNL     1      -0.640   3.041  26.765  1.00  0.00    -0.507 OA
ATOM     25  H   UNL     1      -1.110   3.417  27.575  1.00  0.00     0.293 HD
ENDBRANCH   6  24
BRANCH   8  26
ATOM     26  O   UNL     1       0.550   7.275  24.836  1.00  0.00    -0.508 OA
ATOM     27  H   UNL     1       1.303   7.551  25.454  1.00  0.00     0.293 HD
ENDBRANCH   8  26
TORSDOF 6
ENDMDL
