MODEL 1
REMARK VINA RESULT:    -5.516      0.000      0.000
REMARK INTER + INTRA:          -6.068
REMARK INTER:                  -5.839
REMARK INTRA:                  -0.229
REMARK UNBOUND:                -0.229
REMARK SMILES C=C(C)[C@@H]1CC=C(C)CC1
REMARK SMILES IDX 8 1 7 2 6 3 5 4 4 5 10 6 9 7 2 8 1 9 3 10
REMARK H PARENT
REMARK Flexibility Score: inf
ROOT
ATOM      1  C   UNL     1      12.657  38.110  20.931  1.00  0.00     0.039 C 
ATOM      2  C   UNL     1      12.601  39.305  20.020  1.00  0.00    -0.077 C 
ATOM      3  C   UNL     1      11.635  39.400  19.091  1.00  0.00    -0.027 C 
ATOM      4  C   UNL     1      11.571  40.609  18.196  1.00  0.00     0.035 C 
ATOM      5  C   UNL     1      11.839  41.935  18.967  1.00  0.00     0.018 C 
ATOM      6  C   UNL     1      12.778  41.773  20.203  1.00  0.00     0.013 C 
ATOM      7  C   UNL     1      13.565  40.455  20.179  1.00  0.00     0.031 C 
ENDROOT
BRANCH   5   8
ATOM      8  C   UNL     1      10.535  42.622  19.356  1.00  0.00    -0.077 C 
ATOM      9  C   UNL     1      10.481  43.459  20.406  1.00  0.00     0.008 C 
ATOM     10  C   UNL     1       9.275  42.365  18.569  1.00  0.00     0.039 C 
ENDBRANCH   5   8
TORSDOF 1
ENDMDL
MODEL 2
REMARK VINA RESULT:    -5.469      0.237      1.120
REMARK INTER + INTRA:          -6.018
REMARK INTER:                  -5.797
REMARK INTRA:                  -0.220
REMARK UNBOUND:                -0.229
REMARK SMILES C=C(C)[C@@H]1CC=C(C)CC1
REMARK SMILES IDX 8 1 7 2 6 3 5 4 4 5 10 6 9 7 2 8 1 9 3 10
REMARK H PARENT
REMARK Flexibility Score: inf
ROOT
ATOM      1  C   UNL     1      12.743  38.124  20.880  1.00  0.00     0.039 C 
ATOM      2  C   UNL     1      12.636  39.373  20.050  1.00  0.00    -0.077 C 
ATOM      3  C   UNL     1      11.671  39.485  19.121  1.00  0.00    -0.027 C 
ATOM      4  C   UNL     1      11.555  40.747  18.308  1.00  0.00     0.035 C 
ATOM      5  C   UNL     1      11.756  42.029  19.167  1.00  0.00     0.018 C 
ATOM      6  C   UNL     1      12.695  41.829  20.398  1.00  0.00     0.013 C 
ATOM      7  C   UNL     1      13.543  40.554  20.292  1.00  0.00     0.031 C 
ENDROOT
BRANCH   5   8
ATOM      8  C   UNL     1      10.419  42.626  19.590  1.00  0.00    -0.077 C 
ATOM      9  C   UNL     1       9.313  42.438  18.850  1.00  0.00     0.008 C 
ATOM     10  C   UNL     1      10.316  43.449  20.848  1.00  0.00     0.039 C 
ENDBRANCH   5   8
TORSDOF 1
ENDMDL
MODEL 3
REMARK VINA RESULT:    -5.346      1.563      2.977
REMARK INTER + INTRA:          -5.887
REMARK INTER:                  -5.627
REMARK INTRA:                  -0.260
REMARK UNBOUND:                -0.229
REMARK SMILES C=C(C)[C@@H]1CC=C(C)CC1
REMARK SMILES IDX 8 1 7 2 6 3 5 4 4 5 10 6 9 7 2 8 1 9 3 10
REMARK H PARENT
REMARK Flexibility Score: inf
ROOT
ATOM      1  C   UNL     1      11.786  38.415  23.809  1.00  0.00     0.039 C 
ATOM      2  C   UNL     1      11.587  38.456  22.319  1.00  0.00    -0.077 C 
ATOM      3  C   UNL     1      10.564  39.152  21.795  1.00  0.00    -0.027 C 
ATOM      4  C   UNL     1      10.382  39.208  20.301  1.00  0.00     0.035 C 
ATOM      5  C   UNL     1      11.729  39.398  19.544  1.00  0.00     0.018 C 
ATOM      6  C   UNL     1      12.964  38.793  20.283  1.00  0.00     0.013 C 
ATOM      7  C   UNL     1      12.566  37.796  21.380  1.00  0.00     0.031 C 
ENDROOT
BRANCH   5   8
ATOM      8  C   UNL     1      11.964  40.862  19.192  1.00  0.00    -0.077 C 
ATOM      9  C   UNL     1      11.483  41.384  18.050  1.00  0.00     0.008 C 
ATOM     10  C   UNL     1      12.752  41.751  20.119  1.00  0.00     0.039 C 
ENDBRANCH   5   8
TORSDOF 1
ENDMDL
MODEL 4
REMARK VINA RESULT:    -5.281      1.198      4.039
REMARK INTER + INTRA:          -5.818
REMARK INTER:                  -5.564
REMARK INTRA:                  -0.254
REMARK UNBOUND:                -0.229
REMARK SMILES C=C(C)[C@@H]1CC=C(C)CC1
REMARK SMILES IDX 8 1 7 2 6 3 5 4 4 5 10 6 9 7 2 8 1 9 3 10
REMARK H PARENT
REMARK Flexibility Score: inf
ROOT
ATOM      1  C   UNL     1      11.890  43.838  20.184  1.00  0.00     0.039 C 
ATOM      2  C   UNL     1      12.303  42.436  19.834  1.00  0.00    -0.077 C 
ATOM      3  C   UNL     1      13.180  41.778  20.611  1.00  0.00    -0.027 C 
ATOM      4  C   UNL     1      13.573  40.365  20.268  1.00  0.00     0.035 C 
ATOM      5  C   UNL     1      12.359  39.503  19.815  1.00  0.00     0.018 C 
ATOM      6  C   UNL     1      11.222  40.318  19.122  1.00  0.00     0.013 C 
ATOM      7  C   UNL     1      11.688  41.708  18.665  1.00  0.00     0.031 C 
ENDROOT
BRANCH   5   8
ATOM      8  C   UNL     1      11.811  38.669  20.968  1.00  0.00    -0.077 C 
ATOM      9  C   UNL     1      12.533  37.668  21.500  1.00  0.00     0.008 C 
ATOM     10  C   UNL     1      10.441  38.951  21.527  1.00  0.00     0.039 C 
ENDBRANCH   5   8
TORSDOF 1
ENDMDL
MODEL 5
REMARK VINA RESULT:    -5.096      1.567      2.646
REMARK INTER + INTRA:          -5.623
REMARK INTER:                  -5.383
REMARK INTRA:                  -0.240
REMARK UNBOUND:                -0.229
REMARK SMILES C=C(C)[C@@H]1CC=C(C)CC1
REMARK SMILES IDX 8 1 7 2 6 3 5 4 4 5 10 6 9 7 2 8 1 9 3 10
REMARK H PARENT
REMARK Flexibility Score: inf
ROOT
ATOM      1  C   UNL     1      11.007  39.539  17.163  1.00  0.00     0.039 C 
ATOM      2  C   UNL     1      11.391  40.195  18.460  1.00  0.00    -0.077 C 
ATOM      3  C   UNL     1      11.931  41.425  18.460  1.00  0.00    -0.027 C 
ATOM      4  C   UNL     1      12.293  42.086  19.764  1.00  0.00     0.035 C 
ATOM      5  C   UNL     1      11.209  41.873  20.860  1.00  0.00     0.018 C 
ATOM      6  C   UNL     1      10.409  40.541  20.713  1.00  0.00     0.013 C 
ATOM      7  C   UNL     1      11.104  39.534  19.786  1.00  0.00     0.031 C 
ENDROOT
BRANCH   5   8
ATOM      8  C   UNL     1      10.269  43.070  20.948  1.00  0.00    -0.077 C 
ATOM      9  C   UNL     1       8.941  42.898  21.062  1.00  0.00     0.008 C 
ATOM     10  C   UNL     1      10.816  44.473  20.899  1.00  0.00     0.039 C 
ENDBRANCH   5   8
TORSDOF 1
ENDMDL
MODEL 6
REMARK VINA RESULT:    -5.014      1.738      4.170
REMARK INTER + INTRA:          -5.536
REMARK INTER:                  -5.322
REMARK INTRA:                  -0.214
REMARK UNBOUND:                -0.229
REMARK SMILES C=C(C)[C@@H]1CC=C(C)CC1
REMARK SMILES IDX 8 1 7 2 6 3 5 4 4 5 10 6 9 7 2 8 1 9 3 10
REMARK H PARENT
REMARK Flexibility Score: inf
ROOT
ATOM      1  C   UNL     1       8.882  45.067  21.277  1.00  0.00     0.039 C 
ATOM      2  C   UNL     1       9.797  43.876  21.216  1.00  0.00    -0.077 C 
ATOM      3  C   UNL     1       9.288  42.633  21.240  1.00  0.00    -0.027 C 
ATOM      4  C   UNL     1      10.209  41.444  21.155  1.00  0.00     0.035 C 
ATOM      5  C   UNL     1      11.342  41.642  20.107  1.00  0.00     0.018 C 
ATOM      6  C   UNL     1      11.767  43.130  19.903  1.00  0.00     0.013 C 
ATOM      7  C   UNL     1      11.287  44.042  21.040  1.00  0.00     0.031 C 
ENDROOT
BRANCH   5   8
ATOM      8  C   UNL     1      10.987  40.986  18.777  1.00  0.00    -0.077 C 
ATOM      9  C   UNL     1      10.181  41.603  17.896  1.00  0.00     0.008 C 
ATOM     10  C   UNL     1      11.529  39.623  18.432  1.00  0.00     0.039 C 
ENDBRANCH   5   8
TORSDOF 1
ENDMDL
MODEL 7
REMARK VINA RESULT:    -4.986      2.583      3.673
REMARK INTER + INTRA:          -5.507
REMARK INTER:                  -5.262
REMARK INTRA:                  -0.245
REMARK UNBOUND:                -0.229
REMARK SMILES C=C(C)[C@@H]1CC=C(C)CC1
REMARK SMILES IDX 8 1 7 2 6 3 5 4 4 5 10 6 9 7 2 8 1 9 3 10
REMARK H PARENT
REMARK Flexibility Score: inf
ROOT
ATOM      1  C   UNL     1      13.039  38.371  24.503  1.00  0.00     0.039 C 
ATOM      2  C   UNL     1      11.989  38.306  23.429  1.00  0.00    -0.077 C 
ATOM      3  C   UNL     1      10.774  38.840  23.640  1.00  0.00    -0.027 C 
ATOM      4  C   UNL     1       9.734  38.791  22.553  1.00  0.00     0.035 C 
ATOM      5  C   UNL     1      10.326  39.105  21.148  1.00  0.00     0.018 C 
ATOM      6  C   UNL     1      11.824  38.700  20.984  1.00  0.00     0.013 C 
ATOM      7  C   UNL     1      12.293  37.722  22.071  1.00  0.00     0.031 C 
ENDROOT
BRANCH   5   8
ATOM      8  C   UNL     1      10.109  40.566  20.770  1.00  0.00    -0.077 C 
ATOM      9  C   UNL     1       8.876  41.100  20.755  1.00  0.00     0.008 C 
ATOM     10  C   UNL     1      11.280  41.437  20.396  1.00  0.00     0.039 C 
ENDBRANCH   5   8
TORSDOF 1
ENDMDL
MODEL 8
REMARK VINA RESULT:    -4.982      3.553      5.682
REMARK INTER + INTRA:          -5.502
REMARK INTER:                  -5.269
REMARK INTRA:                  -0.233
REMARK UNBOUND:                -0.229
REMARK SMILES C=C(C)[C@@H]1CC=C(C)CC1
REMARK SMILES IDX 8 1 7 2 6 3 5 4 4 5 10 6 9 7 2 8 1 9 3 10
REMARK H PARENT
REMARK Flexibility Score: inf
ROOT
ATOM      1  C   UNL     1       9.920  41.112  20.819  1.00  0.00     0.039 C 
ATOM      2  C   UNL     1      10.329  39.851  21.527  1.00  0.00    -0.077 C 
ATOM      3  C   UNL     1      11.628  39.603  21.768  1.00  0.00    -0.027 C 
ATOM      4  C   UNL     1      12.030  38.349  22.498  1.00  0.00     0.035 C 
ATOM      5  C   UNL     1      11.094  38.034  23.701  1.00  0.00     0.018 C 
ATOM      6  C   UNL     1       9.630  38.545  23.518  1.00  0.00     0.013 C 
ATOM      7  C   UNL     1       9.300  38.882  22.057  1.00  0.00     0.031 C 
ENDROOT
BRANCH   5   8
ATOM      8  C   UNL     1      11.689  38.537  25.011  1.00  0.00    -0.077 C 
ATOM      9  C   UNL     1      13.005  38.420  25.262  1.00  0.00     0.008 C 
ATOM     10  C   UNL     1      10.806  39.168  26.056  1.00  0.00     0.039 C 
ENDBRANCH   5   8
TORSDOF 1
ENDMDL
MODEL 9
REMARK VINA RESULT:    -4.893      1.792      4.251
REMARK INTER + INTRA:          -5.408
REMARK INTER:                  -5.194
REMARK INTRA:                  -0.214
REMARK UNBOUND:                -0.229
REMARK SMILES C=C(C)[C@@H]1CC=C(C)CC1
REMARK SMILES IDX 8 1 7 2 6 3 5 4 4 5 10 6 9 7 2 8 1 9 3 10
REMARK H PARENT
REMARK Flexibility Score: inf
ROOT
ATOM      1  C   UNL     1      12.209  43.422  20.293  1.00  0.00     0.039 C 
ATOM      2  C   UNL     1      11.573  42.069  20.135  1.00  0.00    -0.077 C 
ATOM      3  C   UNL     1      12.312  41.018  19.740  1.00  0.00    -0.027 C 
ATOM      4  C   UNL     1      11.674  39.661  19.605  1.00  0.00     0.035 C 
ATOM      5  C   UNL     1      10.699  39.342  20.776  1.00  0.00     0.018 C 
ATOM      6  C   UNL     1      10.021  40.602  21.399  1.00  0.00     0.013 C 
ATOM      7  C   UNL     1      10.126  41.838  20.494  1.00  0.00     0.031 C 
ENDROOT
BRANCH   5   8
ATOM      8  C   UNL     1      11.380  38.499  21.848  1.00  0.00    -0.077 C 
ATOM      9  C   UNL     1      12.451  37.742  21.556  1.00  0.00     0.008 C 
ATOM     10  C   UNL     1      10.854  38.495  23.260  1.00  0.00     0.039 C 
ENDBRANCH   5   8
TORSDOF 1
ENDMDL
