MODEL 1
REMARK VINA RESULT:    -4.250      0.000      0.000
REMARK INTER + INTRA:          -5.210
REMARK INTER:                  -4.871
REMARK INTRA:                  -0.339
REMARK UNBOUND:                -0.339
REMARK SMILES COc1ccc(C(C)=O)c(O)c1
REMARK SMILES IDX 6 1 10 2 12 3 3 4 4 5 5 6 7 7 8 8 9 9 11 10 2 12 1 13
REMARK H PARENT 11 11
REMARK Flexibility Score: inf
ROOT
ATOM      1  C   UNL     1      49.766 -28.548 -31.494  1.00  0.00     0.059 A 
ATOM      2  C   UNL     1      48.616 -28.282 -32.277  1.00  0.00     0.130 A 
ATOM      3  C   UNL     1      47.359 -28.705 -31.831  1.00  0.00     0.093 A 
ATOM      4  C   UNL     1      47.211 -29.359 -30.605  1.00  0.00     0.122 A 
ATOM      5  C   UNL     1      48.346 -29.597 -29.814  1.00  0.00     0.047 A 
ATOM      6  C   UNL     1      49.608 -29.196 -30.255  1.00  0.00     0.019 A 
ENDROOT
BRANCH   1   7
ATOM      7  C   UNL     1      51.130 -28.199 -31.957  1.00  0.00     0.163 C 
ATOM      8  C   UNL     1      52.195 -29.245 -32.084  1.00  0.00     0.093 C 
ATOM      9  O   UNL     1      51.386 -27.023 -32.330  1.00  0.00    -0.294 OA
ENDBRANCH   1   7
BRANCH   2  10
ATOM     10  O   UNL     1      48.678 -27.579 -33.482  1.00  0.00    -0.507 OA
ATOM     11  H   UNL     1      49.505 -27.090 -33.799  1.00  0.00     0.293 HD
ENDBRANCH   2  10
BRANCH   4  12
ATOM     12  O   UNL     1      45.922 -29.751 -30.210  1.00  0.00    -0.497 OA
ATOM     13  C   UNL     1      44.862 -28.847 -29.919  1.00  0.00     0.278 C 
ENDBRANCH   4  12
TORSDOF 3
ENDMDL
MODEL 2
REMARK VINA RESULT:    -4.220      1.251      4.577
REMARK INTER + INTRA:          -5.176
REMARK INTER:                  -4.869
REMARK INTRA:                  -0.307
REMARK UNBOUND:                -0.339
REMARK SMILES COc1ccc(C(C)=O)c(O)c1
REMARK SMILES IDX 6 1 10 2 12 3 3 4 4 5 5 6 7 7 8 8 9 9 11 10 2 12 1 13
REMARK H PARENT 11 11
REMARK Flexibility Score: inf
ROOT
ATOM      1  C   UNL     1      48.534 -28.767 -31.342  1.00  0.00     0.059 A 
ATOM      2  C   UNL     1      48.965 -27.991 -32.447  1.00  0.00     0.130 A 
ATOM      3  C   UNL     1      50.331 -27.763 -32.645  1.00  0.00     0.093 A 
ATOM      4  C   UNL     1      51.287 -28.315 -31.788  1.00  0.00     0.122 A 
ATOM      5  C   UNL     1      50.863 -29.109 -30.710  1.00  0.00     0.047 A 
ATOM      6  C   UNL     1      49.502 -29.330 -30.491  1.00  0.00     0.019 A 
ENDROOT
BRANCH   1   7
ATOM      7  C   UNL     1      47.099 -28.970 -31.036  1.00  0.00     0.163 C 
ATOM      8  C   UNL     1      46.654 -30.039 -30.086  1.00  0.00     0.093 C 
ATOM      9  O   UNL     1      46.236 -28.184 -31.513  1.00  0.00    -0.294 OA
ENDBRANCH   1   7
BRANCH   2  10
ATOM     10  O   UNL     1      48.072 -27.460 -33.380  1.00  0.00    -0.507 OA
ATOM     11  H   UNL     1      47.082 -27.665 -33.383  1.00  0.00     0.293 HD
ENDBRANCH   2  10
BRANCH   4  12
ATOM     12  O   UNL     1      52.642 -28.055 -32.045  1.00  0.00    -0.497 OA
ATOM     13  C   UNL     1      53.645 -27.951 -31.040  1.00  0.00     0.278 C 
ENDBRANCH   4  12
TORSDOF 3
ENDMDL
MODEL 3
REMARK VINA RESULT:    -4.200      1.366      4.693
REMARK INTER + INTRA:          -5.153
REMARK INTER:                  -4.815
REMARK INTRA:                  -0.338
REMARK UNBOUND:                -0.339
REMARK SMILES COc1ccc(C(C)=O)c(O)c1
REMARK SMILES IDX 6 1 10 2 12 3 3 4 4 5 5 6 7 7 8 8 9 9 11 10 2 12 1 13
REMARK H PARENT 11 11
REMARK Flexibility Score: inf
ROOT
ATOM      1  C   UNL     1      46.758 -29.088 -30.645  1.00  0.00     0.059 A 
ATOM      2  C   UNL     1      46.729 -28.363 -31.862  1.00  0.00     0.130 A 
ATOM      3  C   UNL     1      47.930 -27.989 -32.476  1.00  0.00     0.093 A 
ATOM      4  C   UNL     1      49.164 -28.348 -31.926  1.00  0.00     0.122 A 
ATOM      5  C   UNL     1      49.193 -29.092 -30.735  1.00  0.00     0.047 A 
ATOM      6  C   UNL     1      48.003 -29.456 -30.103  1.00  0.00     0.019 A 
ENDROOT
BRANCH   1   7
ATOM      7  C   UNL     1      45.520 -29.436 -29.908  1.00  0.00     0.163 C 
ATOM      8  C   UNL     1      45.396 -30.734 -29.171  1.00  0.00     0.093 C 
ATOM      9  O   UNL     1      44.580 -28.599 -29.827  1.00  0.00    -0.294 OA
ENDBRANCH   1   7
BRANCH   2  10
ATOM     10  O   UNL     1      45.536 -28.025 -32.503  1.00  0.00    -0.507 OA
ATOM     11  H   UNL     1      45.366 -27.119 -32.921  1.00  0.00     0.293 HD
ENDBRANCH   2  10
BRANCH   4  12
ATOM     12  O   UNL     1      50.332 -27.949 -32.594  1.00  0.00    -0.497 OA
ATOM     13  C   UNL     1      51.386 -27.203 -31.994  1.00  0.00     0.278 C 
ENDBRANCH   4  12
TORSDOF 3
ENDMDL
MODEL 4
REMARK VINA RESULT:    -3.994      2.546      5.268
REMARK INTER + INTRA:          -4.917
REMARK INTER:                  -4.574
REMARK INTRA:                  -0.342
REMARK UNBOUND:                -0.339
REMARK SMILES COc1ccc(C(C)=O)c(O)c1
REMARK SMILES IDX 6 1 10 2 12 3 3 4 4 5 5 6 7 7 8 8 9 9 11 10 2 12 1 13
REMARK H PARENT 11 11
REMARK Flexibility Score: inf
ROOT
ATOM      1  C   UNL     1      50.726 -27.997 -31.894  1.00  0.00     0.059 A 
ATOM      2  C   UNL     1      51.929 -28.649 -32.261  1.00  0.00     0.130 A 
ATOM      3  C   UNL     1      53.057 -28.540 -31.439  1.00  0.00     0.093 A 
ATOM      4  C   UNL     1      53.009 -27.824 -30.239  1.00  0.00     0.122 A 
ATOM      5  C   UNL     1      51.808 -27.202 -29.860  1.00  0.00     0.047 A 
ATOM      6  C   UNL     1      50.681 -27.289 -30.680  1.00  0.00     0.019 A 
ENDROOT
BRANCH   1   7
ATOM      7  C   UNL     1      49.529 -28.008 -32.767  1.00  0.00     0.163 C 
ATOM      8  C   UNL     1      48.149 -28.083 -32.188  1.00  0.00     0.093 C 
ATOM      9  O   UNL     1      49.658 -27.871 -34.014  1.00  0.00    -0.294 OA
ENDBRANCH   1   7
BRANCH   2  10
ATOM     10  O   UNL     1      52.034 -29.434 -33.411  1.00  0.00    -0.507 OA
ATOM     11  H   UNL     1      52.794 -30.081 -33.575  1.00  0.00     0.293 HD
ENDBRANCH   2  10
BRANCH   4  12
ATOM     12  O   UNL     1      54.171 -27.759 -29.455  1.00  0.00    -0.497 OA
ATOM     13  C   UNL     1      55.495 -27.776 -29.979  1.00  0.00     0.278 C 
ENDBRANCH   4  12
TORSDOF 3
ENDMDL
MODEL 5
REMARK VINA RESULT:    -3.791      2.083      5.383
REMARK INTER + INTRA:          -4.685
REMARK INTER:                  -4.363
REMARK INTRA:                  -0.322
REMARK UNBOUND:                -0.339
REMARK SMILES COc1ccc(C(C)=O)c(O)c1
REMARK SMILES IDX 6 1 10 2 12 3 3 4 4 5 5 6 7 7 8 8 9 9 11 10 2 12 1 13
REMARK H PARENT 11 11
REMARK Flexibility Score: inf
ROOT
ATOM      1  C   UNL     1      49.824 -28.597 -31.142  1.00  0.00     0.059 A 
ATOM      2  C   UNL     1      50.848 -29.321 -30.484  1.00  0.00     0.130 A 
ATOM      3  C   UNL     1      52.189 -29.024 -30.748  1.00  0.00     0.093 A 
ATOM      4  C   UNL     1      52.541 -27.999 -31.631  1.00  0.00     0.122 A 
ATOM      5  C   UNL     1      51.527 -27.261 -32.262  1.00  0.00     0.047 A 
ATOM      6  C   UNL     1      50.184 -27.559 -32.020  1.00  0.00     0.019 A 
ENDROOT
BRANCH   1   7
ATOM      7  C   UNL     1      48.390 -28.926 -30.965  1.00  0.00     0.163 C 
ATOM      8  C   UNL     1      47.423 -28.813 -32.103  1.00  0.00     0.093 C 
ATOM      9  O   UNL     1      47.981 -29.387 -29.865  1.00  0.00    -0.294 OA
ENDBRANCH   1   7
BRANCH   2  10
ATOM     10  O   UNL     1      50.573 -30.315 -29.542  1.00  0.00    -0.507 OA
ATOM     11  H   UNL     1      49.692 -30.389 -29.051  1.00  0.00     0.293 HD
ENDBRANCH   2  10
BRANCH   4  12
ATOM     12  O   UNL     1      53.904 -27.744 -31.848  1.00  0.00    -0.497 OA
ATOM     13  C   UNL     1      54.867 -27.587 -30.811  1.00  0.00     0.278 C 
ENDBRANCH   4  12
TORSDOF 3
ENDMDL
MODEL 6
REMARK VINA RESULT:    -3.769     13.259     14.078
REMARK INTER + INTRA:          -4.659
REMARK INTER:                  -4.331
REMARK INTRA:                  -0.328
REMARK UNBOUND:                -0.339
REMARK SMILES COc1ccc(C(C)=O)c(O)c1
REMARK SMILES IDX 6 1 10 2 12 3 3 4 4 5 5 6 7 7 8 8 9 9 11 10 2 12 1 13
REMARK H PARENT 11 11
REMARK Flexibility Score: inf
ROOT
ATOM      1  C   UNL     1      54.212 -41.198 -31.721  1.00  0.00     0.059 A 
ATOM      2  C   UNL     1      54.815 -41.990 -30.713  1.00  0.00     0.130 A 
ATOM      3  C   UNL     1      54.015 -42.618 -29.751  1.00  0.00     0.093 A 
ATOM      4  C   UNL     1      52.622 -42.504 -29.785  1.00  0.00     0.122 A 
ATOM      5  C   UNL     1      52.022 -41.743 -30.801  1.00  0.00     0.047 A 
ATOM      6  C   UNL     1      52.809 -41.098 -31.756  1.00  0.00     0.019 A 
ENDROOT
BRANCH   1   7
ATOM      7  C   UNL     1      55.014 -40.443 -32.712  1.00  0.00     0.163 C 
ATOM      8  C   UNL     1      54.724 -40.540 -34.178  1.00  0.00     0.093 C 
ATOM      9  O   UNL     1      55.905 -39.641 -32.321  1.00  0.00    -0.294 OA
ENDBRANCH   1   7
BRANCH   2  10
ATOM     10  O   UNL     1      56.194 -42.202 -30.652  1.00  0.00    -0.507 OA
ATOM     11  H   UNL     1      56.820 -41.633 -30.097  1.00  0.00     0.293 HD
ENDBRANCH   2  10
BRANCH   4  12
ATOM     12  O   UNL     1      51.875 -43.164 -28.797  1.00  0.00    -0.497 OA
ATOM     13  C   UNL     1      50.558 -42.793 -28.404  1.00  0.00     0.278 C 
ENDBRANCH   4  12
TORSDOF 3
ENDMDL
MODEL 7
REMARK VINA RESULT:    -3.738     14.952     16.092
REMARK INTER + INTRA:          -4.624
REMARK INTER:                  -4.291
REMARK INTRA:                  -0.332
REMARK UNBOUND:                -0.339
REMARK SMILES COc1ccc(C(C)=O)c(O)c1
REMARK SMILES IDX 6 1 10 2 12 3 3 4 4 5 5 6 7 7 8 8 9 9 11 10 2 12 1 13
REMARK H PARENT 11 11
REMARK Flexibility Score: inf
ROOT
ATOM      1  C   UNL     1      55.089 -40.938 -24.633  1.00  0.00     0.059 A 
ATOM      2  C   UNL     1      55.990 -42.026 -24.739  1.00  0.00     0.130 A 
ATOM      3  C   UNL     1      55.912 -42.889 -25.837  1.00  0.00     0.093 A 
ATOM      4  C   UNL     1      54.978 -42.678 -26.855  1.00  0.00     0.122 A 
ATOM      5  C   UNL     1      54.103 -41.583 -26.766  1.00  0.00     0.047 A 
ATOM      6  C   UNL     1      54.159 -40.725 -25.667  1.00  0.00     0.019 A 
ENDROOT
BRANCH   1   7
ATOM      7  C   UNL     1      55.071 -40.044 -23.451  1.00  0.00     0.163 C 
ATOM      8  C   UNL     1      53.869 -39.962 -22.561  1.00  0.00     0.093 C 
ATOM      9  O   UNL     1      56.107 -39.400 -23.134  1.00  0.00    -0.294 OA
ENDBRANCH   1   7
BRANCH   2  10
ATOM     10  O   UNL     1      56.991 -42.262 -23.794  1.00  0.00    -0.507 OA
ATOM     11  H   UNL     1      57.170 -43.172 -23.389  1.00  0.00     0.293 HD
ENDBRANCH   2  10
BRANCH   4  12
ATOM     12  O   UNL     1      54.955 -43.575 -27.935  1.00  0.00    -0.497 OA
ATOM     13  C   UNL     1      54.652 -43.209 -29.277  1.00  0.00     0.278 C 
ENDBRANCH   4  12
TORSDOF 3
ENDMDL
MODEL 8
REMARK VINA RESULT:    -3.720      1.566      2.285
REMARK INTER + INTRA:          -4.603
REMARK INTER:                  -4.255
REMARK INTRA:                  -0.348
REMARK UNBOUND:                -0.339
REMARK SMILES COc1ccc(C(C)=O)c(O)c1
REMARK SMILES IDX 6 1 10 2 12 3 3 4 4 5 5 6 7 7 8 8 9 9 11 10 2 12 1 13
REMARK H PARENT 11 11
REMARK Flexibility Score: inf
ROOT
ATOM      1  C   UNL     1      49.581 -28.747 -31.436  1.00  0.00     0.059 A 
ATOM      2  C   UNL     1      49.163 -29.342 -30.221  1.00  0.00     0.130 A 
ATOM      3  C   UNL     1      47.798 -29.456 -29.936  1.00  0.00     0.093 A 
ATOM      4  C   UNL     1      46.832 -29.020 -30.847  1.00  0.00     0.122 A 
ATOM      5  C   UNL     1      47.244 -28.457 -32.066  1.00  0.00     0.047 A 
ATOM      6  C   UNL     1      48.604 -28.322 -32.354  1.00  0.00     0.019 A 
ENDROOT
BRANCH   1   7
ATOM      7  C   UNL     1      51.012 -28.524 -31.751  1.00  0.00     0.163 C 
ATOM      8  C   UNL     1      51.518 -27.167 -32.133  1.00  0.00     0.093 C 
ATOM      9  O   UNL     1      51.839 -29.466 -31.620  1.00  0.00    -0.294 OA
ENDBRANCH   1   7
BRANCH   2  10
ATOM     10  O   UNL     1      50.068 -29.857 -29.290  1.00  0.00    -0.507 OA
ATOM     11  H   UNL     1      50.062 -30.821 -28.983  1.00  0.00     0.293 HD
ENDBRANCH   2  10
BRANCH   4  12
ATOM     12  O   UNL     1      45.478 -29.169 -30.506  1.00  0.00    -0.497 OA
ATOM     13  C   UNL     1      45.001 -30.013 -29.464  1.00  0.00     0.278 C 
ENDBRANCH   4  12
TORSDOF 3
ENDMDL
MODEL 9
REMARK VINA RESULT:    -3.711     14.778     15.378
REMARK INTER + INTRA:          -4.593
REMARK INTER:                  -4.248
REMARK INTRA:                  -0.345
REMARK UNBOUND:                -0.339
REMARK SMILES COc1ccc(C(C)=O)c(O)c1
REMARK SMILES IDX 6 1 10 2 12 3 3 4 4 5 5 6 7 7 8 8 9 9 11 10 2 12 1 13
REMARK H PARENT 11 11
REMARK Flexibility Score: inf
ROOT
ATOM      1  C   UNL     1      55.058 -40.503 -23.850  1.00  0.00     0.059 A 
ATOM      2  C   UNL     1      56.069 -39.571 -23.508  1.00  0.00     0.130 A 
ATOM      3  C   UNL     1      55.781 -38.527 -22.622  1.00  0.00     0.093 A 
ATOM      4  C   UNL     1      54.516 -38.404 -22.039  1.00  0.00     0.122 A 
ATOM      5  C   UNL     1      53.522 -39.344 -22.355  1.00  0.00     0.047 A 
ATOM      6  C   UNL     1      53.792 -40.380 -23.250  1.00  0.00     0.019 A 
ENDROOT
BRANCH   1   7
ATOM      7  C   UNL     1      55.283 -41.576 -24.847  1.00  0.00     0.163 C 
ATOM      8  C   UNL     1      54.385 -41.729 -26.036  1.00  0.00     0.093 C 
ATOM      9  O   UNL     1      56.290 -42.328 -24.746  1.00  0.00    -0.294 OA
ENDBRANCH   1   7
BRANCH   2  10
ATOM     10  O   UNL     1      57.372 -39.667 -24.001  1.00  0.00    -0.507 OA
ATOM     11  H   UNL     1      58.025 -40.384 -23.712  1.00  0.00     0.293 HD
ENDBRANCH   2  10
BRANCH   4  12
ATOM     12  O   UNL     1      54.292 -37.339 -21.152  1.00  0.00    -0.497 OA
ATOM     13  C   UNL     1      53.267 -37.318 -20.165  1.00  0.00     0.278 C 
ENDBRANCH   4  12
TORSDOF 3
ENDMDL
