MODEL 1
REMARK VINA RESULT:    -6.702      0.000      0.000
REMARK INTER + INTRA:         -14.082
REMARK INTER:                 -11.011
REMARK INTRA:                  -3.071
REMARK UNBOUND:                -3.071
REMARK SMILES C[C@@H]1O[C@@H](OC[C@H]2O[C@H](Oc3c(-c4ccc(O)c(O)c4)oc4cc(O)cc(O)c4c3=O)[C@H](O)[C@H](O)[C@H]2O)[C@@H](O)[C@H](O)[C@H]1O
REMARK SMILES IDX 7 1 36 2 34 3 32 4 9 5 8 6 6 7 5 8 4 9 1 10 2 11 42 12 3 13
REMARK SMILES IDX 40 14 38 15 43 16 41 18 39 20 37 22 35 24 10 26 11 27 12 28
REMARK SMILES IDX 30 29 21 30 29 31 31 32 22 33 27 34 23 35 26 36 24 37 13 38
REMARK SMILES IDX 20 39 14 40 18 41 15 42 16 43 19 44 17 46 28 48 25 50 33 52
REMARK H PARENT 43 17 41 19 39 21 37 23 35 25 19 45 17 47 28 49 25 51 33 53
REMARK Flexibility Score: inf
ROOT
ATOM      1  C   UNL     1       3.897  15.160  30.343  1.00  0.00     0.180 C 
ATOM      2  C   UNL     1       4.342  13.676  30.308  1.00  0.00     0.177 C 
ATOM      3  C   UNL     1       5.741  13.544  29.667  1.00  0.00     0.180 C 
ATOM      4  C   UNL     1       6.722  14.587  30.246  1.00  0.00     0.214 C 
ATOM      5  C   UNL     1       6.089  15.991  30.352  1.00  0.00     0.339 C 
ATOM      6  O   UNL     1       4.847  15.949  31.040  1.00  0.00    -0.332 OA
ENDROOT
BRANCH   1   7
ATOM      7  C   UNL     1       2.527  15.309  31.018  1.00  0.00     0.198 C 
BRANCH   7   8
ATOM      8  O   UNL     1       1.783  14.128  30.809  1.00  0.00    -0.347 OA
BRANCH   8   9
ATOM      9  C   UNL     1       0.655  14.344  29.969  1.00  0.00     0.281 C 
ATOM     10  C   UNL     1      -1.884  12.752  32.113  1.00  0.00     0.041 C 
ATOM     11  C   UNL     1      -0.631  12.829  31.233  1.00  0.00     0.150 C 
ATOM     12  C   UNL     1      -0.694  11.786  30.091  1.00  0.00     0.174 C 
ATOM     13  O   UNL     1      -0.544  14.149  30.706  1.00  0.00    -0.344 OA
ATOM     14  C   UNL     1       0.541  11.929  29.190  1.00  0.00     0.179 C 
ATOM     15  C   UNL     1       0.689  13.399  28.749  1.00  0.00     0.202 C 
BRANCH  12  16
ATOM     16  O   UNL     1      -0.720  10.484  30.619  1.00  0.00    -0.388 OA
ATOM     17  H   UNL     1      -0.916   9.866  29.866  1.00  0.00     0.211 HD
ENDBRANCH  12  16
BRANCH  14  18
ATOM     18  O   UNL     1       0.392  11.098  28.065  1.00  0.00    -0.387 OA
ATOM     19  H   UNL     1       0.798  10.224  28.300  1.00  0.00     0.211 HD
ENDBRANCH  14  18
BRANCH  15  20
ATOM     20  O   UNL     1       1.856  13.598  27.984  1.00  0.00    -0.385 OA
ATOM     21  H   UNL     1       1.579  13.913  27.083  1.00  0.00     0.211 HD
ENDBRANCH  15  20
ENDBRANCH   8   9
ENDBRANCH   7   8
ENDBRANCH   1   7
BRANCH   2  22
ATOM     22  O   UNL     1       4.379  13.169  31.618  1.00  0.00    -0.387 OA
ATOM     23  H   UNL     1       5.327  12.954  31.815  1.00  0.00     0.211 HD
ENDBRANCH   2  22
BRANCH   3  24
ATOM     24  O   UNL     1       5.686  13.606  28.260  1.00  0.00    -0.387 OA
ATOM     25  H   UNL     1       6.610  13.615  27.906  1.00  0.00     0.211 HD
ENDBRANCH   3  24
BRANCH   5  26
ATOM     26  O   UNL     1       5.937  16.614  29.069  1.00  0.00    -0.454 OA
BRANCH  26  27
ATOM     27  C   UNL     1       6.139  17.984  28.838  1.00  0.00     0.214 A 
ATOM     28  C   UNL     1       5.069  18.886  28.650  1.00  0.00     0.180 A 
ATOM     29  C   UNL     1       7.450  18.476  28.780  1.00  0.00     0.239 A 
ATOM     30  O   UNL     1       5.317  20.184  28.493  1.00  0.00    -0.452 OA
ATOM     31  C   UNL     1       7.673  19.856  28.596  1.00  0.00     0.111 A 
ATOM     32  O   UNL     1       8.413  17.673  28.904  1.00  0.00    -0.285 OA
ATOM     33  C   UNL     1       6.544  20.695  28.459  1.00  0.00     0.146 A 
ATOM     34  C   UNL     1       8.967  20.431  28.548  1.00  0.00     0.134 A 
ATOM     35  C   UNL     1       6.704  22.071  28.275  1.00  0.00     0.094 A 
ATOM     36  C   UNL     1       9.108  21.813  28.355  1.00  0.00     0.093 A 
ATOM     37  C   UNL     1       7.981  22.631  28.215  1.00  0.00     0.123 A 
BRANCH  28  38
ATOM     38  C   UNL     1       3.661  18.444  28.586  1.00  0.00     0.025 A 
ATOM     39  C   UNL     1       3.247  17.481  27.650  1.00  0.00     0.062 A 
ATOM     40  C   UNL     1       2.711  19.034  29.430  1.00  0.00     0.016 A 
ATOM     41  C   UNL     1       1.904  17.091  27.579  1.00  0.00     0.158 A 
ATOM     42  C   UNL     1       1.369  18.646  29.363  1.00  0.00     0.051 A 
ATOM     43  C   UNL     1       0.959  17.673  28.442  1.00  0.00     0.157 A 
BRANCH  41  44
ATOM     44  O   UNL     1       1.526  16.133  26.639  1.00  0.00    -0.504 OA
ATOM     45  H   UNL     1       1.362  15.165  26.891  1.00  0.00     0.293 HD
ENDBRANCH  41  44
BRANCH  43  46
ATOM     46  O   UNL     1      -0.381  17.289  28.377  1.00  0.00    -0.504 OA
ATOM     47  H   UNL     1      -0.670  16.439  27.905  1.00  0.00     0.293 HD
ENDBRANCH  43  46
ENDBRANCH  28  38
BRANCH  34  48
ATOM     48  O   UNL     1      10.111  19.643  28.698  1.00  0.00    -0.507 OA
ATOM     49  H   UNL     1      10.928  19.773  28.112  1.00  0.00     0.293 HD
ENDBRANCH  34  48
BRANCH  37  50
ATOM     50  O   UNL     1       8.121  24.003  28.019  1.00  0.00    -0.508 OA
ATOM     51  H   UNL     1       8.916  24.387  27.524  1.00  0.00     0.293 HD
ENDBRANCH  37  50
ENDBRANCH  26  27
ENDBRANCH   5  26
BRANCH   4  52
ATOM     52  O   UNL     1       7.900  14.645  29.478  1.00  0.00    -0.384 OA
ATOM     53  H   UNL     1       7.617  14.671  28.527  1.00  0.00     0.211 HD
ENDBRANCH   4  52
TORSDOF 16
ENDMDL
MODEL 2
REMARK VINA RESULT:    -6.649      3.039      8.493
REMARK INTER + INTRA:         -13.995
REMARK INTER:                 -10.801
REMARK INTRA:                  -3.193
REMARK UNBOUND:                -3.071
REMARK SMILES C[C@@H]1O[C@@H](OC[C@H]2O[C@H](Oc3c(-c4ccc(O)c(O)c4)oc4cc(O)cc(O)c4c3=O)[C@H](O)[C@H](O)[C@H]2O)[C@@H](O)[C@H](O)[C@H]1O
REMARK SMILES IDX 7 1 36 2 34 3 32 4 9 5 8 6 6 7 5 8 4 9 1 10 2 11 42 12 3 13
REMARK SMILES IDX 40 14 38 15 43 16 41 18 39 20 37 22 35 24 10 26 11 27 12 28
REMARK SMILES IDX 30 29 21 30 29 31 31 32 22 33 27 34 23 35 26 36 24 37 13 38
REMARK SMILES IDX 20 39 14 40 18 41 15 42 16 43 19 44 17 46 28 48 25 50 33 52
REMARK H PARENT 43 17 41 19 39 21 37 23 35 25 19 45 17 47 28 49 25 51 33 53
REMARK Flexibility Score: inf
ROOT
ATOM      1  C   UNL     1       6.147  16.780  29.010  1.00  0.00     0.180 C 
ATOM      2  C   UNL     1       6.316  15.480  28.186  1.00  0.00     0.177 C 
ATOM      3  C   UNL     1       4.949  14.991  27.657  1.00  0.00     0.180 C 
ATOM      4  C   UNL     1       4.144  16.151  27.031  1.00  0.00     0.214 C 
ATOM      5  C   UNL     1       4.185  17.427  27.901  1.00  0.00     0.339 C 
ATOM      6  O   UNL     1       5.519  17.786  28.231  1.00  0.00    -0.332 OA
ENDROOT
BRANCH   1   7
ATOM      7  C   UNL     1       7.504  17.301  29.503  1.00  0.00     0.198 C 
BRANCH   7   8
ATOM      8  O   UNL     1       7.921  18.355  28.664  1.00  0.00    -0.347 OA
BRANCH   8   9
ATOM      9  C   UNL     1       9.295  18.248  28.307  1.00  0.00     0.281 C 
ATOM     10  C   UNL     1      10.551  21.104  30.266  1.00  0.00     0.041 C 
ATOM     11  C   UNL     1       9.735  20.389  29.183  1.00  0.00     0.150 C 
ATOM     12  C   UNL     1      10.007  21.005  27.790  1.00  0.00     0.174 C 
ATOM     13  O   UNL     1      10.091  19.011  29.204  1.00  0.00    -0.344 OA
ATOM     14  C   UNL     1       9.228  20.229  26.719  1.00  0.00     0.179 C 
ATOM     15  C   UNL     1       9.525  18.722  26.856  1.00  0.00     0.202 C 
BRANCH  12  16
ATOM     16  O   UNL     1       9.599  22.350  27.761  1.00  0.00    -0.388 OA
ATOM     17  H   UNL     1      10.230  22.835  27.168  1.00  0.00     0.211 HD
ENDBRANCH  12  16
BRANCH  14  18
ATOM     18  O   UNL     1       9.612  20.685  25.445  1.00  0.00    -0.387 OA
ATOM     19  H   UNL     1       9.129  20.128  24.783  1.00  0.00     0.211 HD
ENDBRANCH  14  18
BRANCH  15  20
ATOM     20  O   UNL     1       8.770  17.958  25.945  1.00  0.00    -0.385 OA
ATOM     21  H   UNL     1       8.962  18.297  25.031  1.00  0.00     0.211 HD
ENDBRANCH  15  20
ENDBRANCH   8   9
ENDBRANCH   7   8
ENDBRANCH   1   7
BRANCH   2  22
ATOM     22  O   UNL     1       7.176  15.722  27.101  1.00  0.00    -0.387 OA
ATOM     23  H   UNL     1       6.693  16.328  26.482  1.00  0.00     0.211 HD
ENDBRANCH   2  22
BRANCH   3  24
ATOM     24  O   UNL     1       4.209  14.317  28.649  1.00  0.00    -0.387 OA
ATOM     25  H   UNL     1       3.349  14.022  28.257  1.00  0.00     0.211 HD
ENDBRANCH   3  24
BRANCH   5  26
ATOM     26  O   UNL     1       3.385  17.301  29.085  1.00  0.00    -0.454 OA
BRANCH  26  27
ATOM     27  C   UNL     1       2.326  18.164  29.406  1.00  0.00     0.214 A 
ATOM     28  C   UNL     1       2.531  19.421  30.017  1.00  0.00     0.180 A 
ATOM     29  C   UNL     1       1.014  17.763  29.121  1.00  0.00     0.239 A 
ATOM     30  O   UNL     1       1.494  20.223  30.246  1.00  0.00    -0.452 OA
ATOM     31  C   UNL     1      -0.061  18.633  29.394  1.00  0.00     0.111 A 
ATOM     32  O   UNL     1       0.816  16.625  28.615  1.00  0.00    -0.285 OA
ATOM     33  C   UNL     1       0.238  19.891  29.966  1.00  0.00     0.146 A 
ATOM     34  C   UNL     1      -1.411  18.308  29.114  1.00  0.00     0.134 A 
ATOM     35  C   UNL     1      -0.787  20.796  30.256  1.00  0.00     0.094 A 
ATOM     36  C   UNL     1      -2.426  19.226  29.420  1.00  0.00     0.093 A 
ATOM     37  C   UNL     1      -2.117  20.465  29.992  1.00  0.00     0.123 A 
BRANCH  28  38
ATOM     38  C   UNL     1       3.865  19.882  30.453  1.00  0.00     0.025 A 
ATOM     39  C   UNL     1       4.662  20.682  29.615  1.00  0.00     0.062 A 
ATOM     40  C   UNL     1       4.370  19.471  31.693  1.00  0.00     0.016 A 
ATOM     41  C   UNL     1       5.938  21.089  30.027  1.00  0.00     0.158 A 
ATOM     42  C   UNL     1       5.642  19.878  32.107  1.00  0.00     0.051 A 
ATOM     43  C   UNL     1       6.431  20.689  31.281  1.00  0.00     0.157 A 
BRANCH  41  44
ATOM     44  O   UNL     1       6.703  21.882  29.172  1.00  0.00    -0.504 OA
ATOM     45  H   UNL     1       6.342  22.735  28.760  1.00  0.00     0.293 HD
ENDBRANCH  41  44
BRANCH  43  46
ATOM     46  O   UNL     1       7.700  21.091  31.697  1.00  0.00    -0.504 OA
ATOM     47  H   UNL     1       8.534  20.575  31.439  1.00  0.00     0.293 HD
ENDBRANCH  43  46
ENDBRANCH  28  38
BRANCH  34  48
ATOM     48  O   UNL     1      -1.750  17.085  28.531  1.00  0.00    -0.507 OA
ATOM     49  H   UNL     1      -1.458  16.843  27.590  1.00  0.00     0.293 HD
ENDBRANCH  34  48
BRANCH  37  50
ATOM     50  O   UNL     1      -3.125  21.375  30.300  1.00  0.00    -0.508 OA
ATOM     51  H   UNL     1      -3.842  21.159  30.980  1.00  0.00     0.293 HD
ENDBRANCH  37  50
ENDBRANCH  26  27
ENDBRANCH   5  26
BRANCH   4  52
ATOM     52  O   UNL     1       2.810  15.766  26.802  1.00  0.00    -0.384 OA
ATOM     53  H   UNL     1       2.274  16.602  26.782  1.00  0.00     0.211 HD
ENDBRANCH   4  52
TORSDOF 16
ENDMDL
MODEL 3
REMARK VINA RESULT:    -6.460      1.814      9.454
REMARK INTER + INTRA:         -13.686
REMARK INTER:                 -10.465
REMARK INTRA:                  -3.221
REMARK UNBOUND:                -3.071
REMARK SMILES C[C@@H]1O[C@@H](OC[C@H]2O[C@H](Oc3c(-c4ccc(O)c(O)c4)oc4cc(O)cc(O)c4c3=O)[C@H](O)[C@H](O)[C@H]2O)[C@@H](O)[C@H](O)[C@H]1O
REMARK SMILES IDX 7 1 36 2 34 3 32 4 9 5 8 6 6 7 5 8 4 9 1 10 2 11 42 12 3 13
REMARK SMILES IDX 40 14 38 15 43 16 41 18 39 20 37 22 35 24 10 26 11 27 12 28
REMARK SMILES IDX 30 29 21 30 29 31 31 32 22 33 27 34 23 35 26 36 24 37 13 38
REMARK SMILES IDX 20 39 14 40 18 41 15 42 16 43 19 44 17 46 28 48 25 50 33 52
REMARK H PARENT 43 17 41 19 39 21 37 23 35 25 19 45 17 47 28 49 25 51 33 53
REMARK Flexibility Score: inf
ROOT
ATOM      1  C   UNL     1       4.825  18.157  29.559  1.00  0.00     0.180 C 
ATOM      2  C   UNL     1       4.414  19.476  28.859  1.00  0.00     0.177 C 
ATOM      3  C   UNL     1       2.929  19.426  28.437  1.00  0.00     0.180 C 
ATOM      4  C   UNL     1       2.038  18.902  29.585  1.00  0.00     0.214 C 
ATOM      5  C   UNL     1       2.649  17.666  30.281  1.00  0.00     0.339 C 
ATOM      6  O   UNL     1       3.991  17.906  30.679  1.00  0.00    -0.332 OA
ENDROOT
BRANCH   1   7
ATOM      7  C   UNL     1       6.287  18.211  30.023  1.00  0.00     0.198 C 
BRANCH   7   8
ATOM      8  O   UNL     1       7.053  18.875  29.042  1.00  0.00    -0.347 OA
BRANCH   8   9
ATOM      9  C   UNL     1       8.398  19.083  29.458  1.00  0.00     0.281 C 
ATOM     10  C   UNL     1       8.864  22.437  28.007  1.00  0.00     0.041 C 
ATOM     11  C   UNL     1       8.609  20.926  28.007  1.00  0.00     0.150 C 
ATOM     12  C   UNL     1       9.608  20.197  27.076  1.00  0.00     0.174 C 
ATOM     13  O   UNL     1       8.734  20.459  29.346  1.00  0.00    -0.344 OA
ATOM     14  C   UNL     1       9.370  18.681  27.146  1.00  0.00     0.179 C 
ATOM     15  C   UNL     1       9.372  18.227  28.619  1.00  0.00     0.202 C 
BRANCH  12  16
ATOM     16  O   UNL     1       9.437  20.621  25.747  1.00  0.00    -0.388 OA
ATOM     17  H   UNL     1       8.506  20.395  25.485  1.00  0.00     0.211 HD
ENDBRANCH  12  16
BRANCH  14  18
ATOM     18  O   UNL     1      10.386  18.021  26.433  1.00  0.00    -0.387 OA
ATOM     19  H   UNL     1      10.371  18.383  25.510  1.00  0.00     0.211 HD
ENDBRANCH  14  18
BRANCH  15  20
ATOM     20  O   UNL     1       9.077  16.855  28.741  1.00  0.00    -0.385 OA
ATOM     21  H   UNL     1       9.073  16.462  27.827  1.00  0.00     0.211 HD
ENDBRANCH  15  20
ENDBRANCH   8   9
ENDBRANCH   7   8
ENDBRANCH   1   7
BRANCH   2  22
ATOM     22  O   UNL     1       4.614  20.554  29.738  1.00  0.00    -0.387 OA
ATOM     23  H   UNL     1       5.593  20.633  29.876  1.00  0.00     0.211 HD
ENDBRANCH   2  22
BRANCH   3  24
ATOM     24  O   UNL     1       2.740  18.688  27.251  1.00  0.00    -0.387 OA
ATOM     25  H   UNL     1       2.291  19.266  26.585  1.00  0.00     0.211 HD
ENDBRANCH   3  24
BRANCH   5  26
ATOM     26  O   UNL     1       2.564  16.489  29.466  1.00  0.00    -0.454 OA
BRANCH  26  27
ATOM     27  C   UNL     1       2.077  15.256  29.925  1.00  0.00     0.214 A 
ATOM     28  C   UNL     1       2.908  14.296  30.545  1.00  0.00     0.180 A 
ATOM     29  C   UNL     1       0.718  14.957  29.755  1.00  0.00     0.239 A 
ATOM     30  O   UNL     1       2.380  13.168  31.014  1.00  0.00    -0.452 OA
ATOM     31  C   UNL     1       0.199  13.743  30.251  1.00  0.00     0.111 A 
ATOM     32  O   UNL     1      -0.023  15.787  29.165  1.00  0.00    -0.285 OA
ATOM     33  C   UNL     1       1.093  12.858  30.896  1.00  0.00     0.146 A 
ATOM     34  C   UNL     1      -1.165  13.380  30.136  1.00  0.00     0.134 A 
ATOM     35  C   UNL     1       0.635  11.641  31.409  1.00  0.00     0.094 A 
ATOM     36  C   UNL     1      -1.604  12.151  30.650  1.00  0.00     0.093 A 
ATOM     37  C   UNL     1      -0.708  11.282  31.281  1.00  0.00     0.123 A 
BRANCH  28  38
ATOM     38  C   UNL     1       4.369  14.475  30.671  1.00  0.00     0.025 A 
ATOM     39  C   UNL     1       5.211  14.348  29.554  1.00  0.00     0.062 A 
ATOM     40  C   UNL     1       4.930  14.717  31.931  1.00  0.00     0.016 A 
ATOM     41  C   UNL     1       6.598  14.491  29.691  1.00  0.00     0.158 A 
ATOM     42  C   UNL     1       6.314  14.862  32.071  1.00  0.00     0.051 A 
ATOM     43  C   UNL     1       7.154  14.753  30.955  1.00  0.00     0.157 A 
BRANCH  41  44
ATOM     44  O   UNL     1       7.406  14.359  28.563  1.00  0.00    -0.504 OA
ATOM     45  H   UNL     1       7.857  15.155  28.126  1.00  0.00     0.293 HD
ENDBRANCH  41  44
BRANCH  43  46
ATOM     46  O   UNL     1       8.534  14.897  31.099  1.00  0.00    -0.504 OA
ATOM     47  H   UNL     1       9.056  14.370  31.791  1.00  0.00     0.293 HD
ENDBRANCH  43  46
ENDBRANCH  28  38
BRANCH  34  48
ATOM     48  O   UNL     1      -2.087  14.232  29.523  1.00  0.00    -0.507 OA
ATOM     49  H   UNL     1      -1.983  15.240  29.552  1.00  0.00     0.293 HD
ENDBRANCH  34  48
BRANCH  37  50
ATOM     50  O   UNL     1      -1.143  10.060  31.788  1.00  0.00    -0.508 OA
ATOM     51  H   UNL     1      -1.642   9.396  31.209  1.00  0.00     0.293 HD
ENDBRANCH  37  50
ENDBRANCH  26  27
ENDBRANCH   5  26
BRANCH   4  52
ATOM     52  O   UNL     1       0.745  18.603  29.117  1.00  0.00    -0.384 OA
ATOM     53  H   UNL     1       0.763  18.732  28.133  1.00  0.00     0.211 HD
ENDBRANCH   4  52
TORSDOF 16
ENDMDL
MODEL 4
REMARK VINA RESULT:    -6.457      1.823      8.750
REMARK INTER + INTRA:         -13.679
REMARK INTER:                 -10.244
REMARK INTRA:                  -3.435
REMARK UNBOUND:                -3.071
REMARK SMILES C[C@@H]1O[C@@H](OC[C@H]2O[C@H](Oc3c(-c4ccc(O)c(O)c4)oc4cc(O)cc(O)c4c3=O)[C@H](O)[C@H](O)[C@H]2O)[C@@H](O)[C@H](O)[C@H]1O
REMARK SMILES IDX 7 1 36 2 34 3 32 4 9 5 8 6 6 7 5 8 4 9 1 10 2 11 42 12 3 13
REMARK SMILES IDX 40 14 38 15 43 16 41 18 39 20 37 22 35 24 10 26 11 27 12 28
REMARK SMILES IDX 30 29 21 30 29 31 31 32 22 33 27 34 23 35 26 36 24 37 13 38
REMARK SMILES IDX 20 39 14 40 18 41 15 42 16 43 19 44 17 46 28 48 25 50 33 52
REMARK H PARENT 43 17 41 19 39 21 37 23 35 25 19 45 17 47 28 49 25 51 33 53
REMARK Flexibility Score: inf
ROOT
ATOM      1  C   UNL     1       6.080  15.355  29.013  1.00  0.00     0.180 C 
ATOM      2  C   UNL     1       7.493  14.773  29.267  1.00  0.00     0.177 C 
ATOM      3  C   UNL     1       7.399  13.438  30.039  1.00  0.00     0.180 C 
ATOM      4  C   UNL     1       6.327  12.511  29.425  1.00  0.00     0.214 C 
ATOM      5  C   UNL     1       5.020  13.266  29.095  1.00  0.00     0.339 C 
ATOM      6  O   UNL     1       5.274  14.422  28.311  1.00  0.00    -0.332 OA
ENDROOT
BRANCH   1   7
ATOM      7  C   UNL     1       6.158  16.659  28.207  1.00  0.00     0.198 C 
BRANCH   7   8
ATOM      8  O   UNL     1       7.170  17.475  28.756  1.00  0.00    -0.347 OA
BRANCH   8   9
ATOM      9  C   UNL     1       6.689  18.290  29.818  1.00  0.00     0.281 C 
ATOM     10  C   UNL     1       6.263  21.413  27.910  1.00  0.00     0.041 C 
ATOM     11  C   UNL     1       7.022  20.237  28.536  1.00  0.00     0.150 C 
ATOM     12  C   UNL     1       8.179  20.741  29.431  1.00  0.00     0.174 C 
ATOM     13  O   UNL     1       6.094  19.469  29.296  1.00  0.00    -0.344 OA
ATOM     14  C   UNL     1       8.879  19.546  30.095  1.00  0.00     0.179 C 
ATOM     15  C   UNL     1       7.830  18.656  30.791  1.00  0.00     0.202 C 
BRANCH  12  16
ATOM     16  O   UNL     1       9.120  21.447  28.663  1.00  0.00    -0.388 OA
ATOM     17  H   UNL     1       9.977  21.436  29.166  1.00  0.00     0.211 HD
ENDBRANCH  12  16
BRANCH  14  18
ATOM     18  O   UNL     1       9.814  20.020  31.033  1.00  0.00    -0.387 OA
ATOM     19  H   UNL     1       9.783  21.010  30.993  1.00  0.00     0.211 HD
ENDBRANCH  14  18
BRANCH  15  20
ATOM     20  O   UNL     1       8.415  17.501  31.348  1.00  0.00    -0.385 OA
ATOM     21  H   UNL     1       8.033  17.375  32.257  1.00  0.00     0.211 HD
ENDBRANCH  15  20
ENDBRANCH   8   9
ENDBRANCH   7   8
ENDBRANCH   1   7
BRANCH   2  22
ATOM     22  O   UNL     1       8.136  14.555  28.036  1.00  0.00    -0.387 OA
ATOM     23  H   UNL     1       7.758  15.212  27.395  1.00  0.00     0.211 HD
ENDBRANCH   2  22
BRANCH   3  24
ATOM     24  O   UNL     1       7.187  13.639  31.418  1.00  0.00    -0.387 OA
ATOM     25  H   UNL     1       6.319  14.099  31.542  1.00  0.00     0.211 HD
ENDBRANCH   3  24
BRANCH   5  26
ATOM     26  O   UNL     1       4.278  13.605  30.275  1.00  0.00    -0.454 OA
BRANCH  26  27
ATOM     27  C   UNL     1       2.902  13.372  30.424  1.00  0.00     0.214 A 
ATOM     28  C   UNL     1       1.927  14.313  30.024  1.00  0.00     0.180 A 
ATOM     29  C   UNL     1       2.477  12.169  31.001  1.00  0.00     0.239 A 
ATOM     30  O   UNL     1       0.635  14.015  30.137  1.00  0.00    -0.452 OA
ATOM     31  C   UNL     1       1.098  11.896  31.119  1.00  0.00     0.111 A 
ATOM     32  O   UNL     1       3.339  11.341  31.401  1.00  0.00    -0.285 OA
ATOM     33  C   UNL     1       0.190  12.874  30.653  1.00  0.00     0.146 A 
ATOM     34  C   UNL     1       0.592  10.693  31.670  1.00  0.00     0.134 A 
ATOM     35  C   UNL     1      -1.188  12.657  30.742  1.00  0.00     0.094 A 
ATOM     36  C   UNL     1      -0.794  10.498  31.759  1.00  0.00     0.093 A 
ATOM     37  C   UNL     1      -1.683  11.477  31.300  1.00  0.00     0.123 A 
BRANCH  28  38
ATOM     38  C   UNL     1       2.280  15.651  29.507  1.00  0.00     0.025 A 
ATOM     39  C   UNL     1       2.682  16.679  30.377  1.00  0.00     0.062 A 
ATOM     40  C   UNL     1       2.158  15.918  28.138  1.00  0.00     0.016 A 
ATOM     41  C   UNL     1       2.986  17.952  29.878  1.00  0.00     0.158 A 
ATOM     42  C   UNL     1       2.462  17.187  27.637  1.00  0.00     0.051 A 
ATOM     43  C   UNL     1       2.880  18.209  28.500  1.00  0.00     0.157 A 
BRANCH  41  44
ATOM     44  O   UNL     1       3.382  18.950  30.767  1.00  0.00    -0.504 OA
ATOM     45  H   UNL     1       4.292  18.944  31.214  1.00  0.00     0.293 HD
ENDBRANCH  41  44
BRANCH  43  46
ATOM     46  O   UNL     1       3.182  19.474  27.996  1.00  0.00    -0.504 OA
ATOM     47  H   UNL     1       2.563  20.266  28.137  1.00  0.00     0.293 HD
ENDBRANCH  43  46
ENDBRANCH  28  38
BRANCH  34  48
ATOM     48  O   UNL     1       1.452   9.691  32.125  1.00  0.00    -0.507 OA
ATOM     49  H   UNL     1       1.843   8.999  31.496  1.00  0.00     0.293 HD
ENDBRANCH  34  48
BRANCH  37  50
ATOM     50  O   UNL     1      -3.059  11.285  31.391  1.00  0.00    -0.508 OA
ATOM     51  H   UNL     1      -3.523  11.209  32.288  1.00  0.00     0.293 HD
ENDBRANCH  37  50
ENDBRANCH  26  27
ENDBRANCH   5  26
BRANCH   4  52
ATOM     52  O   UNL     1       6.054  11.427  30.281  1.00  0.00    -0.384 OA
ATOM     53  H   UNL     1       6.879  10.876  30.310  1.00  0.00     0.211 HD
ENDBRANCH   4  52
TORSDOF 16
ENDMDL
MODEL 5
REMARK VINA RESULT:    -6.415      3.098      8.317
REMARK INTER + INTRA:         -13.610
REMARK INTER:                 -10.445
REMARK INTRA:                  -3.166
REMARK UNBOUND:                -3.071
REMARK SMILES C[C@@H]1O[C@@H](OC[C@H]2O[C@H](Oc3c(-c4ccc(O)c(O)c4)oc4cc(O)cc(O)c4c3=O)[C@H](O)[C@H](O)[C@H]2O)[C@@H](O)[C@H](O)[C@H]1O
REMARK SMILES IDX 7 1 36 2 34 3 32 4 9 5 8 6 6 7 5 8 4 9 1 10 2 11 42 12 3 13
REMARK SMILES IDX 40 14 38 15 43 16 41 18 39 20 37 22 35 24 10 26 11 27 12 28
REMARK SMILES IDX 30 29 21 30 29 31 31 32 22 33 27 34 23 35 26 36 24 37 13 38
REMARK SMILES IDX 20 39 14 40 18 41 15 42 16 43 19 44 17 46 28 48 25 50 33 52
REMARK H PARENT 43 17 41 19 39 21 37 23 35 25 19 45 17 47 28 49 25 51 33 53
REMARK Flexibility Score: inf
ROOT
ATOM      1  C   UNL     1       5.277  17.404  29.379  1.00  0.00     0.180 C 
ATOM      2  C   UNL     1       4.861  16.115  28.628  1.00  0.00     0.177 C 
ATOM      3  C   UNL     1       3.357  16.151  28.278  1.00  0.00     0.180 C 
ATOM      4  C   UNL     1       2.958  17.513  27.667  1.00  0.00     0.214 C 
ATOM      5  C   UNL     1       3.565  18.702  28.443  1.00  0.00     0.339 C 
ATOM      6  O   UNL     1       4.967  18.553  28.608  1.00  0.00    -0.332 OA
ENDROOT
BRANCH   1   7
ATOM      7  C   UNL     1       6.780  17.399  29.694  1.00  0.00     0.198 C 
BRANCH   7   8
ATOM      8  O   UNL     1       7.450  18.181  28.729  1.00  0.00    -0.347 OA
BRANCH   8   9
ATOM      9  C   UNL     1       8.834  17.864  28.647  1.00  0.00     0.281 C 
ATOM     10  C   UNL     1      10.109  21.286  28.154  1.00  0.00     0.041 C 
ATOM     11  C   UNL     1       9.323  20.014  27.818  1.00  0.00     0.150 C 
ATOM     12  C   UNL     1       9.699  19.488  26.412  1.00  0.00     0.174 C 
ATOM     13  O   UNL     1       9.614  19.041  28.816  1.00  0.00    -0.344 OA
ATOM     14  C   UNL     1       8.946  18.180  26.129  1.00  0.00     0.179 C 
ATOM     15  C   UNL     1       9.166  17.196  27.295  1.00  0.00     0.202 C 
BRANCH  12  16
ATOM     16  O   UNL     1       9.355  20.430  25.428  1.00  0.00    -0.388 OA
ATOM     17  H   UNL     1      10.196  20.705  24.978  1.00  0.00     0.211 HD
ENDBRANCH  12  16
BRANCH  14  18
ATOM     18  O   UNL     1       9.421  17.623  24.928  1.00  0.00    -0.387 OA
ATOM     19  H   UNL     1       9.832  16.751  25.159  1.00  0.00     0.211 HD
ENDBRANCH  14  18
BRANCH  15  20
ATOM     20  O   UNL     1       8.429  16.008  27.121  1.00  0.00    -0.385 OA
ATOM     21  H   UNL     1       7.910  15.847  27.953  1.00  0.00     0.211 HD
ENDBRANCH  15  20
ENDBRANCH   8   9
ENDBRANCH   7   8
ENDBRANCH   1   7
BRANCH   2  22
ATOM     22  O   UNL     1       5.613  16.000  27.446  1.00  0.00    -0.387 OA
ATOM     23  H   UNL     1       5.526  15.060  27.141  1.00  0.00     0.211 HD
ENDBRANCH   2  22
BRANCH   3  24
ATOM     24  O   UNL     1       2.549  15.819  29.384  1.00  0.00    -0.387 OA
ATOM     25  H   UNL     1       2.737  14.882  29.644  1.00  0.00     0.211 HD
ENDBRANCH   3  24
BRANCH   5  26
ATOM     26  O   UNL     1       2.923  18.905  29.710  1.00  0.00    -0.454 OA
BRANCH  26  27
ATOM     27  C   UNL     1       2.277  20.096  30.075  1.00  0.00     0.214 A 
ATOM     28  C   UNL     1       2.985  21.247  30.488  1.00  0.00     0.180 A 
ATOM     29  C   UNL     1       0.877  20.146  30.041  1.00  0.00     0.239 A 
ATOM     30  O   UNL     1       2.322  22.367  30.767  1.00  0.00    -0.452 OA
ATOM     31  C   UNL     1       0.210  21.346  30.360  1.00  0.00     0.111 A 
ATOM     32  O   UNL     1       0.234  19.112  29.716  1.00  0.00    -0.285 OA
ATOM     33  C   UNL     1       0.997  22.463  30.721  1.00  0.00     0.146 A 
ATOM     34  C   UNL     1      -1.200  21.480  30.327  1.00  0.00     0.134 A 
ATOM     35  C   UNL     1       0.390  23.680  31.045  1.00  0.00     0.094 A 
ATOM     36  C   UNL     1      -1.791  22.707  30.664  1.00  0.00     0.093 A 
ATOM     37  C   UNL     1      -1.000  23.803  31.025  1.00  0.00     0.123 A 
BRANCH  28  38
ATOM     38  C   UNL     1       4.452  21.256  30.660  1.00  0.00     0.025 A 
ATOM     39  C   UNL     1       5.267  22.074  29.859  1.00  0.00     0.062 A 
ATOM     40  C   UNL     1       5.046  20.396  31.591  1.00  0.00     0.016 A 
ATOM     41  C   UNL     1       6.660  22.053  30.010  1.00  0.00     0.158 A 
ATOM     42  C   UNL     1       6.435  20.374  31.746  1.00  0.00     0.051 A 
ATOM     43  C   UNL     1       7.249  21.201  30.961  1.00  0.00     0.157 A 
BRANCH  41  44
ATOM     44  O   UNL     1       7.440  22.877  29.201  1.00  0.00    -0.504 OA
ATOM     45  H   UNL     1       7.435  22.802  28.190  1.00  0.00     0.293 HD
ENDBRANCH  41  44
BRANCH  43  46
ATOM     46  O   UNL     1       8.635  21.175  31.117  1.00  0.00    -0.504 OA
ATOM     47  H   UNL     1       9.218  20.527  30.599  1.00  0.00     0.293 HD
ENDBRANCH  43  46
ENDBRANCH  28  38
BRANCH  34  48
ATOM     48  O   UNL     1      -2.017  20.409  29.957  1.00  0.00    -0.507 OA
ATOM     49  H   UNL     1      -3.009  20.529  29.787  1.00  0.00     0.293 HD
ENDBRANCH  34  48
BRANCH  37  50
ATOM     50  O   UNL     1      -1.586  25.020  31.364  1.00  0.00    -0.508 OA
ATOM     51  H   UNL     1      -1.082  25.893  31.271  1.00  0.00     0.293 HD
ENDBRANCH  37  50
ENDBRANCH  26  27
ENDBRANCH   5  26
BRANCH   4  52
ATOM     52  O   UNL     1       1.558  17.641  27.604  1.00  0.00    -0.384 OA
ATOM     53  H   UNL     1       1.316  17.623  26.641  1.00  0.00     0.211 HD
ENDBRANCH   4  52
TORSDOF 16
ENDMDL
MODEL 6
REMARK VINA RESULT:    -6.414      1.963      8.953
REMARK INTER + INTRA:         -13.609
REMARK INTER:                 -10.742
REMARK INTRA:                  -2.867
REMARK UNBOUND:                -3.071
REMARK SMILES C[C@@H]1O[C@@H](OC[C@H]2O[C@H](Oc3c(-c4ccc(O)c(O)c4)oc4cc(O)cc(O)c4c3=O)[C@H](O)[C@H](O)[C@H]2O)[C@@H](O)[C@H](O)[C@H]1O
REMARK SMILES IDX 7 1 36 2 34 3 32 4 9 5 8 6 6 7 5 8 4 9 1 10 2 11 42 12 3 13
REMARK SMILES IDX 40 14 38 15 43 16 41 18 39 20 37 22 35 24 10 26 11 27 12 28
REMARK SMILES IDX 30 29 21 30 29 31 31 32 22 33 27 34 23 35 26 36 24 37 13 38
REMARK SMILES IDX 20 39 14 40 18 41 15 42 16 43 19 44 17 46 28 48 25 50 33 52
REMARK H PARENT 43 17 41 19 39 21 37 23 35 25 19 45 17 47 28 49 25 51 33 53
REMARK Flexibility Score: inf
ROOT
ATOM      1  C   UNL     1       4.789  17.028  29.409  1.00  0.00     0.180 C 
ATOM      2  C   UNL     1       6.304  16.703  29.419  1.00  0.00     0.177 C 
ATOM      3  C   UNL     1       6.547  15.267  29.934  1.00  0.00     0.180 C 
ATOM      4  C   UNL     1       5.590  14.261  29.259  1.00  0.00     0.214 C 
ATOM      5  C   UNL     1       4.139  14.786  29.196  1.00  0.00     0.339 C 
ATOM      6  O   UNL     1       4.082  16.083  28.622  1.00  0.00    -0.332 OA
ENDROOT
BRANCH   1   7
ATOM      7  C   UNL     1       4.531  18.437  28.857  1.00  0.00     0.198 C 
BRANCH   7   8
ATOM      8  O   UNL     1       5.728  19.181  28.926  1.00  0.00    -0.347 OA
BRANCH   8   9
ATOM      9  C   UNL     1       5.519  20.564  28.664  1.00  0.00     0.281 C 
ATOM     10  C   UNL     1       8.870  21.344  27.349  1.00  0.00     0.041 C 
ATOM     11  C   UNL     1       7.832  20.908  28.388  1.00  0.00     0.150 C 
ATOM     12  C   UNL     1       7.955  21.752  29.679  1.00  0.00     0.174 C 
ATOM     13  O   UNL     1       6.540  21.057  27.808  1.00  0.00    -0.344 OA
ATOM     14  C   UNL     1       6.863  21.338  30.676  1.00  0.00     0.179 C 
ATOM     15  C   UNL     1       5.488  21.374  29.978  1.00  0.00     0.202 C 
BRANCH  12  16
ATOM     16  O   UNL     1       9.212  21.553  30.276  1.00  0.00    -0.388 OA
ATOM     17  H   UNL     1       9.049  21.220  31.197  1.00  0.00     0.211 HD
ENDBRANCH  12  16
BRANCH  14  18
ATOM     18  O   UNL     1       6.876  22.221  31.770  1.00  0.00    -0.387 OA
ATOM     19  H   UNL     1       6.799  21.666  32.587  1.00  0.00     0.211 HD
ENDBRANCH  14  18
BRANCH  15  20
ATOM     20  O   UNL     1       4.461  20.923  30.830  1.00  0.00    -0.385 OA
ATOM     21  H   UNL     1       3.620  20.890  30.301  1.00  0.00     0.211 HD
ENDBRANCH  15  20
ENDBRANCH   8   9
ENDBRANCH   7   8
ENDBRANCH   1   7
BRANCH   2  22
ATOM     22  O   UNL     1       6.817  16.825  28.116  1.00  0.00    -0.387 OA
ATOM     23  H   UNL     1       6.397  17.631  27.718  1.00  0.00     0.211 HD
ENDBRANCH   2  22
BRANCH   3  24
ATOM     24  O   UNL     1       6.477  15.191  31.340  1.00  0.00    -0.387 OA
ATOM     25  H   UNL     1       5.882  15.911  31.668  1.00  0.00     0.211 HD
ENDBRANCH   3  24
BRANCH   5  26
ATOM     26  O   UNL     1       3.502  14.771  30.480  1.00  0.00    -0.454 OA
BRANCH  26  27
ATOM     27  C   UNL     1       2.223  14.240  30.711  1.00  0.00     0.214 A 
ATOM     28  C   UNL     1       1.052  15.026  30.638  1.00  0.00     0.180 A 
ATOM     29  C   UNL     1       2.101  12.882  31.036  1.00  0.00     0.239 A 
ATOM     30  O   UNL     1      -0.139  14.457  30.808  1.00  0.00    -0.452 OA
ATOM     31  C   UNL     1       0.822  12.319  31.226  1.00  0.00     0.111 A 
ATOM     32  O   UNL     1       3.142  12.182  31.147  1.00  0.00    -0.285 OA
ATOM     33  C   UNL     1      -0.300  13.168  31.092  1.00  0.00     0.146 A 
ATOM     34  C   UNL     1       0.617  10.952  31.536  1.00  0.00     0.134 A 
ATOM     35  C   UNL     1      -1.592  12.664  31.267  1.00  0.00     0.094 A 
ATOM     36  C   UNL     1      -0.686  10.467  31.716  1.00  0.00     0.093 A 
ATOM     37  C   UNL     1      -1.788  11.320  31.586  1.00  0.00     0.123 A 
BRANCH  28  38
ATOM     38  C   UNL     1       1.089  16.485  30.408  1.00  0.00     0.025 A 
ATOM     39  C   UNL     1       1.634  17.354  31.368  1.00  0.00     0.062 A 
ATOM     40  C   UNL     1       0.521  17.017  29.244  1.00  0.00     0.016 A 
ATOM     41  C   UNL     1       1.636  18.738  31.153  1.00  0.00     0.158 A 
ATOM     42  C   UNL     1       0.523  18.398  29.024  1.00  0.00     0.051 A 
ATOM     43  C   UNL     1       1.082  19.264  29.973  1.00  0.00     0.157 A 
BRANCH  41  44
ATOM     44  O   UNL     1       2.185  19.573  32.125  1.00  0.00    -0.504 OA
ATOM     45  H   UNL     1       2.999  19.307  32.667  1.00  0.00     0.293 HD
ENDBRANCH  41  44
BRANCH  43  46
ATOM     46  O   UNL     1       1.082  20.642  29.751  1.00  0.00    -0.504 OA
ATOM     47  H   UNL     1       1.094  21.306  30.518  1.00  0.00     0.293 HD
ENDBRANCH  43  46
ENDBRANCH  28  38
BRANCH  34  48
ATOM     48  O   UNL     1       1.695  10.072  31.660  1.00  0.00    -0.507 OA
ATOM     49  H   UNL     1       1.634   9.107  31.355  1.00  0.00     0.293 HD
ENDBRANCH  34  48
BRANCH  37  50
ATOM     50  O   UNL     1      -3.082  10.840  31.769  1.00  0.00    -0.508 OA
ATOM     51  H   UNL     1      -3.671  10.596  30.983  1.00  0.00     0.293 HD
ENDBRANCH  37  50
ENDBRANCH  26  27
ENDBRANCH   5  26
BRANCH   4  52
ATOM     52  O   UNL     1       5.625  13.018  29.918  1.00  0.00    -0.384 OA
ATOM     53  H   UNL     1       5.355  12.335  29.249  1.00  0.00     0.211 HD
ENDBRANCH   4  52
TORSDOF 16
ENDMDL
MODEL 7
REMARK VINA RESULT:    -6.329     13.253     17.061
REMARK INTER + INTRA:         -13.470
REMARK INTER:                  -9.995
REMARK INTRA:                  -3.475
REMARK UNBOUND:                -3.071
REMARK SMILES C[C@@H]1O[C@@H](OC[C@H]2O[C@H](Oc3c(-c4ccc(O)c(O)c4)oc4cc(O)cc(O)c4c3=O)[C@H](O)[C@H](O)[C@H]2O)[C@@H](O)[C@H](O)[C@H]1O
REMARK SMILES IDX 7 1 36 2 34 3 32 4 9 5 8 6 6 7 5 8 4 9 1 10 2 11 42 12 3 13
REMARK SMILES IDX 40 14 38 15 43 16 41 18 39 20 37 22 35 24 10 26 11 27 12 28
REMARK SMILES IDX 30 29 21 30 29 31 31 32 22 33 27 34 23 35 26 36 24 37 13 38
REMARK SMILES IDX 20 39 14 40 18 41 15 42 16 43 19 44 17 46 28 48 25 50 33 52
REMARK H PARENT 43 17 41 19 39 21 37 23 35 25 19 45 17 47 28 49 25 51 33 53
REMARK Flexibility Score: inf
ROOT
ATOM      1  C   UNL     1      12.016  15.415  14.930  1.00  0.00     0.180 C 
ATOM      2  C   UNL     1      10.670  15.020  14.274  1.00  0.00     0.177 C 
ATOM      3  C   UNL     1       9.608  14.718  15.355  1.00  0.00     0.180 C 
ATOM      4  C   UNL     1       9.594  15.811  16.446  1.00  0.00     0.214 C 
ATOM      5  C   UNL     1      11.018  16.202  16.900  1.00  0.00     0.339 C 
ATOM      6  O   UNL     1      11.843  16.529  15.792  1.00  0.00    -0.332 OA
ENDROOT
BRANCH   1   7
ATOM      7  C   UNL     1      13.068  15.761  13.867  1.00  0.00     0.198 C 
BRANCH   7   8
ATOM      8  O   UNL     1      13.283  17.155  13.874  1.00  0.00    -0.347 OA
BRANCH   8   9
ATOM      9  C   UNL     1      13.121  17.732  12.583  1.00  0.00     0.281 C 
ATOM     10  C   UNL     1      16.521  19.100  12.208  1.00  0.00     0.041 C 
ATOM     11  C   UNL     1      15.126  18.944  12.823  1.00  0.00     0.150 C 
ATOM     12  C   UNL     1      14.401  20.308  12.901  1.00  0.00     0.174 C 
ATOM     13  O   UNL     1      14.391  18.027  12.019  1.00  0.00    -0.344 OA
ATOM     14  C   UNL     1      12.985  20.112  13.461  1.00  0.00     0.179 C 
ATOM     15  C   UNL     1      12.262  19.013  12.657  1.00  0.00     0.202 C 
BRANCH  12  16
ATOM     16  O   UNL     1      15.103  21.188  13.744  1.00  0.00    -0.388 OA
ATOM     17  H   UNL     1      15.427  21.938  13.180  1.00  0.00     0.211 HD
ENDBRANCH  12  16
BRANCH  14  18
ATOM     18  O   UNL     1      12.279  21.325  13.369  1.00  0.00    -0.387 OA
ATOM     19  H   UNL     1      11.815  21.320  12.492  1.00  0.00     0.211 HD
ENDBRANCH  14  18
BRANCH  15  20
ATOM     20  O   UNL     1      10.984  18.738  13.184  1.00  0.00    -0.385 OA
ATOM     21  H   UNL     1      10.309  19.068  12.533  1.00  0.00     0.211 HD
ENDBRANCH  15  20
ENDBRANCH   8   9
ENDBRANCH   7   8
ENDBRANCH   1   7
BRANCH   2  22
ATOM     22  O   UNL     1      10.220  16.073  13.459  1.00  0.00    -0.387 OA
ATOM     23  H   UNL     1      10.548  15.884  12.541  1.00  0.00     0.211 HD
ENDBRANCH   2  22
BRANCH   3  24
ATOM     24  O   UNL     1       9.766  13.431  15.907  1.00  0.00    -0.387 OA
ATOM     25  H   UNL     1      10.189  13.518  16.798  1.00  0.00     0.211 HD
ENDBRANCH   3  24
BRANCH   5  26
ATOM     26  O   UNL     1      11.628  15.184  17.705  1.00  0.00    -0.454 OA
BRANCH  26  27
ATOM     27  C   UNL     1      12.063  15.388  19.023  1.00  0.00     0.214 A 
ATOM     28  C   UNL     1      13.310  15.979  19.327  1.00  0.00     0.180 A 
ATOM     29  C   UNL     1      11.237  14.982  20.081  1.00  0.00     0.239 A 
ATOM     30  O   UNL     1      13.645  16.201  20.596  1.00  0.00    -0.452 OA
ATOM     31  C   UNL     1      11.635  15.220  21.412  1.00  0.00     0.111 A 
ATOM     32  O   UNL     1      10.142  14.415  19.821  1.00  0.00    -0.285 OA
ATOM     33  C   UNL     1      12.879  15.856  21.626  1.00  0.00     0.146 A 
ATOM     34  C   UNL     1      10.845  14.859  22.532  1.00  0.00     0.134 A 
ATOM     35  C   UNL     1      13.324  16.119  22.925  1.00  0.00     0.094 A 
ATOM     36  C   UNL     1      11.313  15.123  23.827  1.00  0.00     0.093 A 
ATOM     37  C   UNL     1      12.549  15.748  24.025  1.00  0.00     0.123 A 
BRANCH  28  38
ATOM     38  C   UNL     1      14.292  16.339  18.284  1.00  0.00     0.025 A 
ATOM     39  C   UNL     1      14.335  17.638  17.751  1.00  0.00     0.062 A 
ATOM     40  C   UNL     1      15.154  15.359  17.777  1.00  0.00     0.016 A 
ATOM     41  C   UNL     1      15.251  17.960  16.741  1.00  0.00     0.158 A 
ATOM     42  C   UNL     1      16.070  15.678  16.770  1.00  0.00     0.051 A 
ATOM     43  C   UNL     1      16.127  16.977  16.249  1.00  0.00     0.157 A 
BRANCH  41  44
ATOM     44  O   UNL     1      15.269  19.259  16.233  1.00  0.00    -0.504 OA
ATOM     45  H   UNL     1      14.550  19.937  16.460  1.00  0.00     0.293 HD
ENDBRANCH  41  44
BRANCH  43  46
ATOM     46  O   UNL     1      17.042  17.291  15.244  1.00  0.00    -0.504 OA
ATOM     47  H   UNL     1      16.745  17.483  14.293  1.00  0.00     0.293 HD
ENDBRANCH  43  46
ENDBRANCH  28  38
BRANCH  34  48
ATOM     48  O   UNL     1       9.601  14.246  22.367  1.00  0.00    -0.507 OA
ATOM     49  H   UNL     1       9.107  14.271  21.482  1.00  0.00     0.293 HD
ENDBRANCH  34  48
BRANCH  37  50
ATOM     50  O   UNL     1      13.015  16.007  25.311  1.00  0.00    -0.508 OA
ATOM     51  H   UNL     1      13.232  16.948  25.615  1.00  0.00     0.293 HD
ENDBRANCH  37  50
ENDBRANCH  26  27
ENDBRANCH   5  26
BRANCH   4  52
ATOM     52  O   UNL     1       8.830  15.401  17.555  1.00  0.00    -0.384 OA
ATOM     53  H   UNL     1       9.301  14.621  17.950  1.00  0.00     0.211 HD
ENDBRANCH   4  52
TORSDOF 16
ENDMDL
MODEL 8
REMARK VINA RESULT:    -6.328      6.683     10.661
REMARK INTER + INTRA:         -13.468
REMARK INTER:                 -10.303
REMARK INTRA:                  -3.165
REMARK UNBOUND:                -3.071
REMARK SMILES C[C@@H]1O[C@@H](OC[C@H]2O[C@H](Oc3c(-c4ccc(O)c(O)c4)oc4cc(O)cc(O)c4c3=O)[C@H](O)[C@H](O)[C@H]2O)[C@@H](O)[C@H](O)[C@H]1O
REMARK SMILES IDX 7 1 36 2 34 3 32 4 9 5 8 6 6 7 5 8 4 9 1 10 2 11 42 12 3 13
REMARK SMILES IDX 40 14 38 15 43 16 41 18 39 20 37 22 35 24 10 26 11 27 12 28
REMARK SMILES IDX 30 29 21 30 29 31 31 32 22 33 27 34 23 35 26 36 24 37 13 38
REMARK SMILES IDX 20 39 14 40 18 41 15 42 16 43 19 44 17 46 28 48 25 50 33 52
REMARK H PARENT 43 17 41 19 39 21 37 23 35 25 19 45 17 47 28 49 25 51 33 53
REMARK Flexibility Score: inf
ROOT
ATOM      1  C   UNL     1      12.375  17.383  28.609  1.00  0.00     0.180 C 
ATOM      2  C   UNL     1      12.751  18.075  29.942  1.00  0.00     0.177 C 
ATOM      3  C   UNL     1      13.158  17.028  31.003  1.00  0.00     0.180 C 
ATOM      4  C   UNL     1      14.142  15.992  30.416  1.00  0.00     0.214 C 
ATOM      5  C   UNL     1      13.706  15.497  29.019  1.00  0.00     0.339 C 
ATOM      6  O   UNL     1      13.450  16.583  28.142  1.00  0.00    -0.332 OA
ENDROOT
BRANCH   1   7
ATOM      7  C   UNL     1      12.012  18.416  27.534  1.00  0.00     0.198 C 
BRANCH   7   8
ATOM      8  O   UNL     1      10.713  18.904  27.790  1.00  0.00    -0.347 OA
BRANCH   8   9
ATOM      9  C   UNL     1      10.646  20.323  27.716  1.00  0.00     0.281 C 
ATOM     10  C   UNL     1       9.996  20.985  31.282  1.00  0.00     0.041 C 
ATOM     11  C   UNL     1       9.718  20.436  29.878  1.00  0.00     0.150 C 
ATOM     12  C   UNL     1       8.339  20.911  29.362  1.00  0.00     0.174 C 
ATOM     13  O   UNL     1      10.761  20.883  29.017  1.00  0.00    -0.344 OA
ATOM     14  C   UNL     1       8.116  20.400  27.932  1.00  0.00     0.179 C 
ATOM     15  C   UNL     1       9.327  20.779  27.056  1.00  0.00     0.202 C 
BRANCH  12  16
ATOM     16  O   UNL     1       7.312  20.416  30.185  1.00  0.00    -0.388 OA
ATOM     17  H   UNL     1       7.071  19.516  29.842  1.00  0.00     0.211 HD
ENDBRANCH  12  16
BRANCH  14  18
ATOM     18  O   UNL     1       6.943  20.976  27.413  1.00  0.00    -0.387 OA
ATOM     19  H   UNL     1       7.088  21.956  27.396  1.00  0.00     0.211 HD
ENDBRANCH  14  18
BRANCH  15  20
ATOM     20  O   UNL     1       9.207  20.261  25.751  1.00  0.00    -0.385 OA
ATOM     21  H   UNL     1       8.330  19.798  25.687  1.00  0.00     0.211 HD
ENDBRANCH  15  20
ENDBRANCH   8   9
ENDBRANCH   7   8
ENDBRANCH   1   7
BRANCH   2  22
ATOM     22  O   UNL     1      13.822  18.959  29.724  1.00  0.00    -0.387 OA
ATOM     23  H   UNL     1      13.492  19.663  29.108  1.00  0.00     0.211 HD
ENDBRANCH   2  22
BRANCH   3  24
ATOM     24  O   UNL     1      12.037  16.408  31.591  1.00  0.00    -0.387 OA
ATOM     25  H   UNL     1      11.469  16.032  30.872  1.00  0.00     0.211 HD
ENDBRANCH   3  24
BRANCH   5  26
ATOM     26  O   UNL     1      12.574  14.619  29.085  1.00  0.00    -0.454 OA
BRANCH  26  27
ATOM     27  C   UNL     1      12.478  13.416  28.369  1.00  0.00     0.214 A 
ATOM     28  C   UNL     1      11.859  13.337  27.101  1.00  0.00     0.180 A 
ATOM     29  C   UNL     1      13.004  12.246  28.933  1.00  0.00     0.239 A 
ATOM     30  O   UNL     1      11.848  12.181  26.442  1.00  0.00    -0.452 OA
ATOM     31  C   UNL     1      12.958  11.037  28.210  1.00  0.00     0.111 A 
ATOM     32  O   UNL     1      13.519  12.297  30.082  1.00  0.00    -0.285 OA
ATOM     33  C   UNL     1      12.359  11.055  26.930  1.00  0.00     0.146 A 
ATOM     34  C   UNL     1      13.487   9.819  28.705  1.00  0.00     0.134 A 
ATOM     35  C   UNL     1      12.287   9.886  26.167  1.00  0.00     0.094 A 
ATOM     36  C   UNL     1      13.398   8.655  27.927  1.00  0.00     0.093 A 
ATOM     37  C   UNL     1      12.797   8.686  26.664  1.00  0.00     0.123 A 
BRANCH  28  38
ATOM     38  C   UNL     1      11.182  14.491  26.475  1.00  0.00     0.025 A 
ATOM     39  C   UNL     1      10.003  15.022  27.024  1.00  0.00     0.062 A 
ATOM     40  C   UNL     1      11.689  15.029  25.286  1.00  0.00     0.016 A 
ATOM     41  C   UNL     1       9.353  16.097  26.405  1.00  0.00     0.158 A 
ATOM     42  C   UNL     1      11.044  16.104  24.666  1.00  0.00     0.051 A 
ATOM     43  C   UNL     1       9.878  16.645  25.221  1.00  0.00     0.157 A 
BRANCH  41  44
ATOM     44  O   UNL     1       8.185  16.601  26.975  1.00  0.00    -0.504 OA
ATOM     45  H   UNL     1       8.134  16.871  27.951  1.00  0.00     0.293 HD
ENDBRANCH  41  44
BRANCH  43  46
ATOM     46  O   UNL     1       9.237  17.717  24.600  1.00  0.00    -0.504 OA
ATOM     47  H   UNL     1       8.245  17.695  24.387  1.00  0.00     0.293 HD
ENDBRANCH  43  46
ENDBRANCH  28  38
BRANCH  34  48
ATOM     48  O   UNL     1      14.105   9.758  29.956  1.00  0.00    -0.507 OA
ATOM     49  H   UNL     1      15.047   9.399  30.069  1.00  0.00     0.293 HD
ENDBRANCH  34  48
BRANCH  37  50
ATOM     50  O   UNL     1      12.705   7.529  25.894  1.00  0.00    -0.508 OA
ATOM     51  H   UNL     1      13.320   6.741  26.050  1.00  0.00     0.293 HD
ENDBRANCH  37  50
ENDBRANCH  26  27
ENDBRANCH   5  26
BRANCH   4  52
ATOM     52  O   UNL     1      14.296  14.899  31.289  1.00  0.00    -0.384 OA
ATOM     53  H   UNL     1      15.272  14.748  31.384  1.00  0.00     0.211 HD
ENDBRANCH   4  52
TORSDOF 16
ENDMDL
MODEL 9
REMARK VINA RESULT:    -6.268      7.916     10.410
REMARK INTER + INTRA:         -13.369
REMARK INTER:                 -10.078
REMARK INTRA:                  -3.291
REMARK UNBOUND:                -3.071
REMARK SMILES C[C@@H]1O[C@@H](OC[C@H]2O[C@H](Oc3c(-c4ccc(O)c(O)c4)oc4cc(O)cc(O)c4c3=O)[C@H](O)[C@H](O)[C@H]2O)[C@@H](O)[C@H](O)[C@H]1O
REMARK SMILES IDX 7 1 36 2 34 3 32 4 9 5 8 6 6 7 5 8 4 9 1 10 2 11 42 12 3 13
REMARK SMILES IDX 40 14 38 15 43 16 41 18 39 20 37 22 35 24 10 26 11 27 12 28
REMARK SMILES IDX 30 29 21 30 29 31 31 32 22 33 27 34 23 35 26 36 24 37 13 38
REMARK SMILES IDX 20 39 14 40 18 41 15 42 16 43 19 44 17 46 28 48 25 50 33 52
REMARK H PARENT 43 17 41 19 39 21 37 23 35 25 19 45 17 47 28 49 25 51 33 53
REMARK Flexibility Score: inf
ROOT
ATOM      1  C   UNL     1      15.038  14.871  29.076  1.00  0.00     0.180 C 
ATOM      2  C   UNL     1      15.924  14.791  30.343  1.00  0.00     0.177 C 
ATOM      3  C   UNL     1      15.614  15.964  31.299  1.00  0.00     0.180 C 
ATOM      4  C   UNL     1      14.091  16.147  31.484  1.00  0.00     0.214 C 
ATOM      5  C   UNL     1      13.325  16.062  30.145  1.00  0.00     0.339 C 
ATOM      6  O   UNL     1      13.664  14.885  29.428  1.00  0.00    -0.332 OA
ENDROOT
BRANCH   1   7
ATOM      7  C   UNL     1      15.306  13.685  28.139  1.00  0.00     0.198 C 
BRANCH   7   8
ATOM      8  O   UNL     1      14.449  12.621  28.493  1.00  0.00    -0.347 OA
BRANCH   8   9
ATOM      9  C   UNL     1      14.916  11.368  28.007  1.00  0.00     0.281 C 
ATOM     10  C   UNL     1      12.211  10.721  25.591  1.00  0.00     0.041 C 
ATOM     11  C   UNL     1      12.845  10.948  26.968  1.00  0.00     0.150 C 
ATOM     12  C   UNL     1      12.487   9.796  27.937  1.00  0.00     0.174 C 
ATOM     13  O   UNL     1      14.255  11.040  26.793  1.00  0.00    -0.344 OA
ATOM     14  C   UNL     1      13.187  10.017  29.286  1.00  0.00     0.179 C 
ATOM     15  C   UNL     1      14.692  10.254  29.053  1.00  0.00     0.202 C 
BRANCH  12  16
ATOM     16  O   UNL     1      11.099   9.750  28.150  1.00  0.00    -0.388 OA
ATOM     17  H   UNL     1      10.941   9.144  28.921  1.00  0.00     0.211 HD
ENDBRANCH  12  16
BRANCH  14  18
ATOM     18  O   UNL     1      12.994   8.886  30.098  1.00  0.00    -0.387 OA
ATOM     19  H   UNL     1      12.573   9.204  30.938  1.00  0.00     0.211 HD
ENDBRANCH  14  18
BRANCH  15  20
ATOM     20  O   UNL     1      15.366  10.543  30.256  1.00  0.00    -0.385 OA
ATOM     21  H   UNL     1      14.788  10.245  31.008  1.00  0.00     0.211 HD
ENDBRANCH  15  20
ENDBRANCH   8   9
ENDBRANCH   7   8
ENDBRANCH   1   7
BRANCH   2  22
ATOM     22  O   UNL     1      15.684  13.574  31.005  1.00  0.00    -0.387 OA
ATOM     23  H   UNL     1      16.002  12.853  30.403  1.00  0.00     0.211 HD
ENDBRANCH   2  22
BRANCH   3  24
ATOM     24  O   UNL     1      16.236  17.160  30.887  1.00  0.00    -0.387 OA
ATOM     25  H   UNL     1      17.097  17.252  31.368  1.00  0.00     0.211 HD
ENDBRANCH   3  24
BRANCH   5  26
ATOM     26  O   UNL     1      13.525  17.227  29.332  1.00  0.00    -0.454 OA
BRANCH  26  27
ATOM     27  C   UNL     1      12.479  17.991  28.794  1.00  0.00     0.214 A 
ATOM     28  C   UNL     1      11.879  17.686  27.552  1.00  0.00     0.180 A 
ATOM     29  C   UNL     1      12.017  19.106  29.506  1.00  0.00     0.239 A 
ATOM     30  O   UNL     1      10.851  18.411  27.117  1.00  0.00    -0.452 OA
ATOM     31  C   UNL     1      10.936  19.860  29.004  1.00  0.00     0.111 A 
ATOM     32  O   UNL     1      12.574  19.413  30.593  1.00  0.00    -0.285 OA
ATOM     33  C   UNL     1      10.366  19.459  27.775  1.00  0.00     0.146 A 
ATOM     34  C   UNL     1      10.400  20.986  29.677  1.00  0.00     0.134 A 
ATOM     35  C   UNL     1       9.291  20.168  27.230  1.00  0.00     0.094 A 
ATOM     36  C   UNL     1       9.327  21.689  29.110  1.00  0.00     0.093 A 
ATOM     37  C   UNL     1       8.776  21.285  27.889  1.00  0.00     0.123 A 
BRANCH  28  38
ATOM     38  C   UNL     1      12.368  16.598  26.681  1.00  0.00     0.025 A 
ATOM     39  C   UNL     1      13.625  16.681  26.058  1.00  0.00     0.062 A 
ATOM     40  C   UNL     1      11.546  15.494  26.423  1.00  0.00     0.016 A 
ATOM     41  C   UNL     1      14.067  15.656  25.211  1.00  0.00     0.158 A 
ATOM     42  C   UNL     1      11.984  14.469  25.579  1.00  0.00     0.051 A 
ATOM     43  C   UNL     1      13.244  14.541  24.972  1.00  0.00     0.157 A 
BRANCH  41  44
ATOM     44  O   UNL     1      15.319  15.769  24.609  1.00  0.00    -0.504 OA
ATOM     45  H   UNL     1      16.169  15.881  25.150  1.00  0.00     0.293 HD
ENDBRANCH  41  44
BRANCH  43  46
ATOM     46  O   UNL     1      13.678  13.517  24.129  1.00  0.00    -0.504 OA
ATOM     47  H   UNL     1      13.189  13.291  23.270  1.00  0.00     0.293 HD
ENDBRANCH  43  46
ENDBRANCH  28  38
BRANCH  34  48
ATOM     48  O   UNL     1      10.920  21.407  30.903  1.00  0.00    -0.507 OA
ATOM     49  H   UNL     1      10.575  21.039  31.783  1.00  0.00     0.293 HD
ENDBRANCH  34  48
BRANCH  37  50
ATOM     50  O   UNL     1       7.713  21.985  27.324  1.00  0.00    -0.508 OA
ATOM     51  H   UNL     1       7.262  22.747  27.815  1.00  0.00     0.293 HD
ENDBRANCH  37  50
ENDBRANCH  26  27
ENDBRANCH   5  26
BRANCH   4  52
ATOM     52  O   UNL     1      13.809  17.368  32.125  1.00  0.00    -0.384 OA
ATOM     53  H   UNL     1      13.221  17.153  32.896  1.00  0.00     0.211 HD
ENDBRANCH   4  52
TORSDOF 16
ENDMDL
