MODEL 1
REMARK VINA RESULT:    -7.383      0.000      0.000
REMARK INTER + INTRA:          -8.333
REMARK INTER:                  -8.246
REMARK INTRA:                  -0.086
REMARK UNBOUND:                -0.086
REMARK SMILES CC1(C)CC[C@]2(CO)CC=C3[C@](C)(CC[C@@H]4[C@@]5(C)CC[C@@H](O)C(C)(C)[C@@H]5CC[C@@]34C)[C@@H]2C1
REMARK SMILES IDX 1 1 2 2 4 3 5 4 6 5 9 6 10 7 11 8 29 9 28 10 27 11 26 12
REMARK SMILES IDX 23 13 21 14 20 15 19 16 17 17 16 18 15 19 14 20 12 21 31 22
REMARK SMILES IDX 32 23 13 24 18 25 24 26 25 27 30 28 3 29 7 30 8 31 22 33
REMARK H PARENT 8 32 22 34
REMARK Flexibility Score: inf
ROOT
ATOM      1  C   UNL     1     127.247 123.758 120.005  1.00  0.00     0.011 C 
ATOM      2  C   UNL     1     126.899 122.255 120.105  1.00  0.00    -0.035 C 
ATOM      3  C   UNL     1     125.911 121.906 118.974  1.00  0.00     0.007 C 
ATOM      4  C   UNL     1     125.374 120.478 119.090  1.00  0.00     0.010 C 
ATOM      5  C   UNL     1     124.731 120.120 120.470  1.00  0.00     0.001 C 
ATOM      6  C   UNL     1     123.390 120.851 120.630  1.00  0.00     0.037 C 
ATOM      7  C   UNL     1     122.746 120.536 121.947  1.00  0.00    -0.026 C 
ATOM      8  C   UNL     1     123.424 120.384 123.121  1.00  0.00    -0.062 C 
ATOM      9  C   UNL     1     122.633 120.311 124.481  1.00  0.00    -0.008 C 
ATOM     10  C   UNL     1     121.119 120.667 124.307  1.00  0.00     0.012 C 
ATOM     11  C   UNL     1     120.353 120.873 125.619  1.00  0.00     0.006 C 
ATOM     12  C   UNL     1     121.000 121.977 126.482  1.00  0.00     0.003 C 
ATOM     13  C   UNL     1     120.106 122.479 127.684  1.00  0.00    -0.006 C 
ATOM     14  C   UNL     1     120.825 123.675 128.392  1.00  0.00     0.120 C 
ATOM     15  C   UNL     1     122.280 123.366 128.754  1.00  0.00     0.033 C 
ATOM     16  C   UNL     1     123.105 122.884 127.547  1.00  0.00     0.010 C 
ATOM     17  C   UNL     1     122.504 121.636 126.824  1.00  0.00    -0.025 C 
ATOM     18  C   UNL     1     123.265 121.395 125.446  1.00  0.00     0.005 C 
ATOM     19  C   UNL     1     124.803 121.229 125.562  1.00  0.00     0.006 C 
ATOM     20  C   UNL     1     125.490 121.332 124.187  1.00  0.00     0.012 C 
ATOM     21  C   UNL     1     124.987 120.300 123.126  1.00  0.00    -0.008 C 
ATOM     22  C   UNL     1     125.657 120.547 121.672  1.00  0.00     0.008 C 
ATOM     23  C   UNL     1     126.223 121.993 121.476  1.00  0.00     0.011 C 
ATOM     24  C   UNL     1     125.495 118.899 123.596  1.00  0.00     0.016 C 
ATOM     25  C   UNL     1     122.681 120.406 127.765  1.00  0.00     0.012 C 
ATOM     26  C   UNL     1     118.745 123.018 127.152  1.00  0.00     0.014 C 
ATOM     27  C   UNL     1     119.775 121.349 128.717  1.00  0.00     0.014 C 
ATOM     28  C   UNL     1     122.704 118.841 125.007  1.00  0.00     0.016 C 
ATOM     29  C   UNL     1     128.223 121.458 119.960  1.00  0.00     0.011 C 
ENDROOT
BRANCH   5  30
ATOM     30  C   UNL     1     124.470 118.579 120.452  1.00  0.00     0.163 C 
BRANCH  30  31
ATOM     31  O   UNL     1     125.398 117.912 119.632  1.00  0.00    -0.396 OA
ATOM     32  H   UNL     1     124.965 117.773 118.747  1.00  0.00     0.210 HD
ENDBRANCH  30  31
ENDBRANCH   5  30
BRANCH  14  33
ATOM     33  O   UNL     1     120.806 124.825 127.580  1.00  0.00    -0.393 OA
ATOM     34  H   UNL     1     121.494 124.706 126.878  1.00  0.00     0.210 HD
ENDBRANCH  14  33
TORSDOF 3
ENDMDL
MODEL 2
REMARK VINA RESULT:    -7.194      4.045     10.905
REMARK INTER + INTRA:          -8.121
REMARK INTER:                  -8.060
REMARK INTRA:                  -0.061
REMARK UNBOUND:                -0.086
REMARK SMILES CC1(C)CC[C@]2(CO)CC=C3[C@](C)(CC[C@@H]4[C@@]5(C)CC[C@@H](O)C(C)(C)[C@@H]5CC[C@@]34C)[C@@H]2C1
REMARK SMILES IDX 1 1 2 2 4 3 5 4 6 5 9 6 10 7 11 8 29 9 28 10 27 11 26 12
REMARK SMILES IDX 23 13 21 14 20 15 19 16 17 17 16 18 15 19 14 20 12 21 31 22
REMARK SMILES IDX 32 23 13 24 18 25 24 26 25 27 30 28 3 29 7 30 8 31 22 33
REMARK H PARENT 8 32 22 34
REMARK Flexibility Score: inf
ROOT
ATOM      1  C   UNL     1     113.720 119.624 132.324  1.00  0.00     0.011 C 
ATOM      2  C   UNL     1     114.365 121.022 132.471  1.00  0.00    -0.035 C 
ATOM      3  C   UNL     1     113.479 122.049 131.740  1.00  0.00     0.007 C 
ATOM      4  C   UNL     1     114.122 123.437 131.684  1.00  0.00     0.010 C 
ATOM      5  C   UNL     1     115.566 123.477 131.085  1.00  0.00     0.001 C 
ATOM      6  C   UNL     1     115.514 123.220 129.572  1.00  0.00     0.037 C 
ATOM      7  C   UNL     1     116.883 123.245 128.962  1.00  0.00    -0.026 C 
ATOM      8  C   UNL     1     118.003 122.743 129.559  1.00  0.00    -0.062 C 
ATOM      9  C   UNL     1     119.332 122.589 128.731  1.00  0.00    -0.008 C 
ATOM     10  C   UNL     1     119.111 122.835 127.201  1.00  0.00     0.012 C 
ATOM     11  C   UNL     1     120.296 122.445 126.309  1.00  0.00     0.006 C 
ATOM     12  C   UNL     1     120.677 120.962 126.497  1.00  0.00     0.003 C 
ATOM     13  C   UNL     1     121.660 120.392 125.398  1.00  0.00    -0.006 C 
ATOM     14  C   UNL     1     121.861 118.859 125.636  1.00  0.00     0.120 C 
ATOM     15  C   UNL     1     122.244 118.525 127.080  1.00  0.00     0.033 C 
ATOM     16  C   UNL     1     121.254 119.101 128.108  1.00  0.00     0.010 C 
ATOM     17  C   UNL     1     121.052 120.647 127.999  1.00  0.00    -0.025 C 
ATOM     18  C   UNL     1     119.818 121.092 128.903  1.00  0.00     0.005 C 
ATOM     19  C   UNL     1     119.917 120.692 130.398  1.00  0.00     0.006 C 
ATOM     20  C   UNL     1     118.566 120.859 131.121  1.00  0.00     0.012 C 
ATOM     21  C   UNL     1     117.968 122.302 131.061  1.00  0.00    -0.008 C 
ATOM     22  C   UNL     1     116.493 122.376 131.727  1.00  0.00     0.008 C 
ATOM     23  C   UNL     1     115.768 120.991 131.811  1.00  0.00     0.011 C 
ATOM     24  C   UNL     1     118.883 123.199 131.954  1.00  0.00     0.016 C 
ATOM     25  C   UNL     1     122.361 121.337 128.488  1.00  0.00     0.012 C 
ATOM     26  C   UNL     1     121.032 120.554 123.982  1.00  0.00     0.014 C 
ATOM     27  C   UNL     1     123.042 121.129 125.369  1.00  0.00     0.014 C 
ATOM     28  C   UNL     1     120.345 123.670 129.230  1.00  0.00     0.016 C 
ATOM     29  C   UNL     1     114.456 121.337 133.988  1.00  0.00     0.011 C 
ENDROOT
BRANCH   5  30
ATOM     30  C   UNL     1     116.110 124.920 131.336  1.00  0.00     0.163 C 
BRANCH  30  31
ATOM     31  O   UNL     1     115.434 125.868 130.545  1.00  0.00    -0.396 OA
ATOM     32  H   UNL     1     116.023 126.667 130.473  1.00  0.00     0.210 HD
ENDBRANCH  30  31
ENDBRANCH   5  30
BRANCH  14  33
ATOM     33  O   UNL     1     120.694 118.142 125.311  1.00  0.00    -0.393 OA
ATOM     34  H   UNL     1     120.242 117.907 126.161  1.00  0.00     0.210 HD
ENDBRANCH  14  33
TORSDOF 3
ENDMDL
MODEL 3
REMARK VINA RESULT:    -6.914      2.356      3.336
REMARK INTER + INTRA:          -7.809
REMARK INTER:                  -7.718
REMARK INTRA:                  -0.091
REMARK UNBOUND:                -0.086
REMARK SMILES CC1(C)CC[C@]2(CO)CC=C3[C@](C)(CC[C@@H]4[C@@]5(C)CC[C@@H](O)C(C)(C)[C@@H]5CC[C@@]34C)[C@@H]2C1
REMARK SMILES IDX 1 1 2 2 4 3 5 4 6 5 9 6 10 7 11 8 29 9 28 10 27 11 26 12
REMARK SMILES IDX 23 13 21 14 20 15 19 16 17 17 16 18 15 19 14 20 12 21 31 22
REMARK SMILES IDX 32 23 13 24 18 25 24 26 25 27 30 28 3 29 7 30 8 31 22 33
REMARK H PARENT 8 32 22 34
REMARK Flexibility Score: inf
ROOT
ATOM      1  C   UNL     1     126.500 123.238 119.232  1.00  0.00     0.011 C 
ATOM      2  C   UNL     1     125.928 121.834 119.542  1.00  0.00    -0.035 C 
ATOM      3  C   UNL     1     124.416 121.846 119.244  1.00  0.00     0.007 C 
ATOM      4  C   UNL     1     123.727 120.550 119.680  1.00  0.00     0.010 C 
ATOM      5  C   UNL     1     123.959 120.144 121.172  1.00  0.00     0.001 C 
ATOM      6  C   UNL     1     123.195 121.099 122.101  1.00  0.00     0.037 C 
ATOM      7  C   UNL     1     123.399 120.743 123.543  1.00  0.00    -0.026 C 
ATOM      8  C   UNL     1     124.578 120.302 124.070  1.00  0.00    -0.062 C 
ATOM      9  C   UNL     1     124.753 120.205 125.631  1.00  0.00    -0.008 C 
ATOM     10  C   UNL     1     123.569 120.875 126.405  1.00  0.00     0.012 C 
ATOM     11  C   UNL     1     123.801 121.050 127.910  1.00  0.00     0.006 C 
ATOM     12  C   UNL     1     125.075 121.876 128.190  1.00  0.00     0.003 C 
ATOM     13  C   UNL     1     125.215 122.378 129.683  1.00  0.00    -0.006 C 
ATOM     14  C   UNL     1     126.474 123.300 129.795  1.00  0.00     0.120 C 
ATOM     15  C   UNL     1     127.736 122.661 129.208  1.00  0.00     0.033 C 
ATOM     16  C   UNL     1     127.544 122.192 127.754  1.00  0.00     0.010 C 
ATOM     17  C   UNL     1     126.354 121.199 127.558  1.00  0.00    -0.025 C 
ATOM     18  C   UNL     1     126.070 121.000 126.003  1.00  0.00     0.005 C 
ATOM     19  C   UNL     1     127.284 120.517 125.168  1.00  0.00     0.006 C 
ATOM     20  C   UNL     1     127.028 120.666 123.656  1.00  0.00     0.012 C 
ATOM     21  C   UNL     1     125.766 119.909 123.129  1.00  0.00    -0.008 C 
ATOM     22  C   UNL     1     125.484 120.212 121.563  1.00  0.00     0.008 C 
ATOM     23  C   UNL     1     126.153 121.529 121.045  1.00  0.00     0.011 C 
ATOM     24  C   UNL     1     126.098 118.384 123.214  1.00  0.00     0.016 C 
ATOM     25  C   UNL     1     126.749 119.842 128.216  1.00  0.00     0.012 C 
ATOM     26  C   UNL     1     123.982 123.244 130.075  1.00  0.00     0.014 C 
ATOM     27  C   UNL     1     125.298 121.208 130.720  1.00  0.00     0.014 C 
ATOM     28  C   UNL     1     124.764 118.692 126.027  1.00  0.00     0.016 C 
ATOM     29  C   UNL     1     126.672 120.817 118.636  1.00  0.00     0.011 C 
ENDROOT
BRANCH   5  30
ATOM     30  C   UNL     1     123.376 118.703 121.335  1.00  0.00     0.163 C 
BRANCH  30  31
ATOM     31  O   UNL     1     123.521 117.955 120.153  1.00  0.00    -0.396 OA
ATOM     32  H   UNL     1     122.868 117.206 120.195  1.00  0.00     0.210 HD
ENDBRANCH  30  31
ENDBRANCH   5  30
BRANCH  14  33
ATOM     33  O   UNL     1     126.258 124.530 129.146  1.00  0.00    -0.393 OA
ATOM     34  H   UNL     1     126.535 124.422 128.201  1.00  0.00     0.210 HD
ENDBRANCH  14  33
TORSDOF 3
ENDMDL
MODEL 4
REMARK VINA RESULT:    -6.816      1.707      7.993
REMARK INTER + INTRA:          -7.699
REMARK INTER:                  -7.575
REMARK INTRA:                  -0.124
REMARK UNBOUND:                -0.086
REMARK SMILES CC1(C)CC[C@]2(CO)CC=C3[C@](C)(CC[C@@H]4[C@@]5(C)CC[C@@H](O)C(C)(C)[C@@H]5CC[C@@]34C)[C@@H]2C1
REMARK SMILES IDX 1 1 2 2 4 3 5 4 6 5 9 6 10 7 11 8 29 9 28 10 27 11 26 12
REMARK SMILES IDX 23 13 21 14 20 15 19 16 17 17 16 18 15 19 14 20 12 21 31 22
REMARK SMILES IDX 32 23 13 24 18 25 24 26 25 27 30 28 3 29 7 30 8 31 22 33
REMARK H PARENT 8 32 22 34
REMARK Flexibility Score: inf
ROOT
ATOM      1  C   UNL     1     119.075 124.222 126.719  1.00  0.00     0.011 C 
ATOM      2  C   UNL     1     119.759 122.934 127.233  1.00  0.00    -0.035 C 
ATOM      3  C   UNL     1     120.712 123.311 128.384  1.00  0.00     0.007 C 
ATOM      4  C   UNL     1     121.562 122.126 128.847  1.00  0.00     0.010 C 
ATOM      5  C   UNL     1     122.371 121.407 127.718  1.00  0.00     0.001 C 
ATOM      6  C   UNL     1     123.522 122.305 127.243  1.00  0.00     0.037 C 
ATOM      7  C   UNL     1     124.317 121.650 126.154  1.00  0.00    -0.026 C 
ATOM      8  C   UNL     1     123.780 120.885 125.160  1.00  0.00    -0.062 C 
ATOM      9  C   UNL     1     124.667 120.461 123.930  1.00  0.00    -0.008 C 
ATOM     10  C   UNL     1     126.046 121.202 123.907  1.00  0.00     0.012 C 
ATOM     11  C   UNL     1     126.843 121.038 122.608  1.00  0.00     0.006 C 
ATOM     12  C   UNL     1     126.030 121.517 121.386  1.00  0.00     0.003 C 
ATOM     13  C   UNL     1     126.877 121.690 120.062  1.00  0.00    -0.006 C 
ATOM     14  C   UNL     1     125.963 122.295 118.946  1.00  0.00     0.120 C 
ATOM     15  C   UNL     1     124.646 121.535 118.775  1.00  0.00     0.033 C 
ATOM     16  C   UNL     1     123.861 121.397 120.093  1.00  0.00     0.010 C 
ATOM     17  C   UNL     1     124.671 120.724 121.247  1.00  0.00    -0.025 C 
ATOM     18  C   UNL     1     123.882 120.885 122.622  1.00  0.00     0.005 C 
ATOM     19  C   UNL     1     122.434 120.329 122.620  1.00  0.00     0.006 C 
ATOM     20  C   UNL     1     121.640 120.810 123.849  1.00  0.00     0.012 C 
ATOM     21  C   UNL     1     122.281 120.441 125.226  1.00  0.00    -0.008 C 
ATOM     22  C   UNL     1     121.466 121.085 126.468  1.00  0.00     0.008 C 
ATOM     23  C   UNL     1     120.576 122.311 126.072  1.00  0.00     0.011 C 
ATOM     24  C   UNL     1     122.137 118.893 125.380  1.00  0.00     0.016 C 
ATOM     25  C   UNL     1     124.846 119.216 120.894  1.00  0.00     0.012 C 
ATOM     26  C   UNL     1     128.038 122.701 120.297  1.00  0.00     0.014 C 
ATOM     27  C   UNL     1     127.529 120.353 119.572  1.00  0.00     0.014 C 
ATOM     28  C   UNL     1     124.968 118.931 124.050  1.00  0.00     0.016 C 
ATOM     29  C   UNL     1     118.640 121.975 127.721  1.00  0.00     0.011 C 
ENDROOT
BRANCH   5  30
ATOM     30  C   UNL     1     122.969 120.112 128.357  1.00  0.00     0.163 C 
BRANCH  30  31
ATOM     31  O   UNL     1     121.963 119.310 128.928  1.00  0.00    -0.396 OA
ATOM     32  H   UNL     1     122.227 119.131 129.870  1.00  0.00     0.210 HD
ENDBRANCH  30  31
ENDBRANCH   5  30
BRANCH  14  33
ATOM     33  O   UNL     1     125.663 123.644 119.218  1.00  0.00    -0.393 OA
ATOM     34  H   UNL     1     125.505 124.096 118.351  1.00  0.00     0.210 HD
ENDBRANCH  14  33
TORSDOF 3
ENDMDL
MODEL 5
REMARK VINA RESULT:    -6.737      1.623      8.208
REMARK INTER + INTRA:          -7.612
REMARK INTER:                  -7.491
REMARK INTRA:                  -0.120
REMARK UNBOUND:                -0.086
REMARK SMILES CC1(C)CC[C@]2(CO)CC=C3[C@](C)(CC[C@@H]4[C@@]5(C)CC[C@@H](O)C(C)(C)[C@@H]5CC[C@@]34C)[C@@H]2C1
REMARK SMILES IDX 1 1 2 2 4 3 5 4 6 5 9 6 10 7 11 8 29 9 28 10 27 11 26 12
REMARK SMILES IDX 23 13 21 14 20 15 19 16 17 17 16 18 15 19 14 20 12 21 31 22
REMARK SMILES IDX 32 23 13 24 18 25 24 26 25 27 30 28 3 29 7 30 8 31 22 33
REMARK H PARENT 8 32 22 34
REMARK Flexibility Score: inf
ROOT
ATOM      1  C   UNL     1     117.923 125.039 127.138  1.00  0.00     0.011 C 
ATOM      2  C   UNL     1     118.721 124.029 127.996  1.00  0.00    -0.035 C 
ATOM      3  C   UNL     1     119.764 124.806 128.822  1.00  0.00     0.007 C 
ATOM      4  C   UNL     1     120.717 123.877 129.578  1.00  0.00     0.010 C 
ATOM      5  C   UNL     1     121.444 122.811 128.695  1.00  0.00     0.001 C 
ATOM      6  C   UNL     1     122.494 123.494 127.805  1.00  0.00     0.037 C 
ATOM      7  C   UNL     1     123.209 122.501 126.938  1.00  0.00    -0.026 C 
ATOM      8  C   UNL     1     122.615 121.423 126.348  1.00  0.00    -0.062 C 
ATOM      9  C   UNL     1     123.394 120.597 125.257  1.00  0.00    -0.008 C 
ATOM     10  C   UNL     1     124.724 121.298 124.818  1.00  0.00     0.012 C 
ATOM     11  C   UNL     1     125.393 120.688 123.581  1.00  0.00     0.006 C 
ATOM     12  C   UNL     1     124.438 120.687 122.368  1.00  0.00     0.003 C 
ATOM     13  C   UNL     1     125.138 120.383 120.983  1.00  0.00    -0.006 C 
ATOM     14  C   UNL     1     124.086 120.536 119.835  1.00  0.00     0.120 C 
ATOM     15  C   UNL     1     122.800 119.748 120.095  1.00  0.00     0.033 C 
ATOM     16  C   UNL     1     122.160 120.083 121.455  1.00  0.00     0.010 C 
ATOM     17  C   UNL     1     123.116 119.880 122.674  1.00  0.00    -0.025 C 
ATOM     18  C   UNL     1     122.461 120.513 123.981  1.00  0.00     0.005 C 
ATOM     19  C   UNL     1     121.051 119.976 124.340  1.00  0.00     0.006 C 
ATOM     20  C   UNL     1     120.361 120.856 125.399  1.00  0.00     0.012 C 
ATOM     21  C   UNL     1     121.155 121.014 126.735  1.00  0.00    -0.008 C 
ATOM     22  C   UNL     1     120.436 122.051 127.751  1.00  0.00     0.008 C 
ATOM     23  C   UNL     1     119.449 123.041 127.047  1.00  0.00     0.011 C 
ATOM     24  C   UNL     1     121.108 119.623 127.445  1.00  0.00     0.016 C 
ATOM     25  C   UNL     1     123.332 118.348 122.863  1.00  0.00     0.012 C 
ATOM     26  C   UNL     1     126.263 121.425 120.711  1.00  0.00     0.014 C 
ATOM     27  C   UNL     1     125.806 118.968 120.930  1.00  0.00     0.014 C 
ATOM     28  C   UNL     1     123.785 119.217 125.879  1.00  0.00     0.016 C 
ATOM     29  C   UNL     1     117.708 123.295 128.915  1.00  0.00     0.011 C 
ENDROOT
BRANCH   5  30
ATOM     30  C   UNL     1     122.170 121.839 129.680  1.00  0.00     0.163 C 
BRANCH  30  31
ATOM     31  O   UNL     1     121.261 121.239 130.570  1.00  0.00    -0.396 OA
ATOM     32  H   UNL     1     120.487 121.858 130.665  1.00  0.00     0.210 HD
ENDBRANCH  30  31
ENDBRANCH   5  30
BRANCH  14  33
ATOM     33  O   UNL     1     123.745 121.888 119.642  1.00  0.00    -0.393 OA
ATOM     34  H   UNL     1     123.659 122.306 120.536  1.00  0.00     0.210 HD
ENDBRANCH  14  33
TORSDOF 3
ENDMDL
MODEL 6
REMARK VINA RESULT:    -6.660      4.438     10.051
REMARK INTER + INTRA:          -7.525
REMARK INTER:                  -7.403
REMARK INTRA:                  -0.122
REMARK UNBOUND:                -0.086
REMARK SMILES CC1(C)CC[C@]2(CO)CC=C3[C@](C)(CC[C@@H]4[C@@]5(C)CC[C@@H](O)C(C)(C)[C@@H]5CC[C@@]34C)[C@@H]2C1
REMARK SMILES IDX 1 1 2 2 4 3 5 4 6 5 9 6 10 7 11 8 29 9 28 10 27 11 26 12
REMARK SMILES IDX 23 13 21 14 20 15 19 16 17 17 16 18 15 19 14 20 12 21 31 22
REMARK SMILES IDX 32 23 13 24 18 25 24 26 25 27 30 28 3 29 7 30 8 31 22 33
REMARK H PARENT 8 32 22 34
REMARK Flexibility Score: inf
ROOT
ATOM      1  C   UNL     1     114.065 120.123 128.405  1.00  0.00     0.011 C 
ATOM      2  C   UNL     1     114.442 121.428 129.143  1.00  0.00    -0.035 C 
ATOM      3  C   UNL     1     114.086 122.623 128.237  1.00  0.00     0.007 C 
ATOM      4  C   UNL     1     114.577 123.955 128.809  1.00  0.00     0.010 C 
ATOM      5  C   UNL     1     116.100 124.005 129.159  1.00  0.00     0.001 C 
ATOM      6  C   UNL     1     116.935 124.021 127.870  1.00  0.00     0.037 C 
ATOM      7  C   UNL     1     118.404 124.064 128.167  1.00  0.00    -0.026 C 
ATOM      8  C   UNL     1     119.004 123.394 129.193  1.00  0.00    -0.062 C 
ATOM      9  C   UNL     1     120.574 123.301 129.259  1.00  0.00    -0.008 C 
ATOM     10  C   UNL     1     121.256 123.825 127.951  1.00  0.00     0.012 C 
ATOM     11  C   UNL     1     122.755 123.522 127.841  1.00  0.00     0.006 C 
ATOM     12  C   UNL     1     123.030 122.006 127.941  1.00  0.00     0.003 C 
ATOM     13  C   UNL     1     124.491 121.576 127.517  1.00  0.00    -0.006 C 
ATOM     14  C   UNL     1     124.593 120.015 127.546  1.00  0.00     0.120 C 
ATOM     15  C   UNL     1     124.098 119.409 128.861  1.00  0.00     0.033 C 
ATOM     16  C   UNL     1     122.671 119.859 129.225  1.00  0.00     0.010 C 
ATOM     17  C   UNL     1     122.494 121.409 129.302  1.00  0.00    -0.025 C 
ATOM     18  C   UNL     1     120.945 121.769 129.403  1.00  0.00     0.005 C 
ATOM     19  C   UNL     1     120.190 121.108 130.586  1.00  0.00     0.006 C 
ATOM     20  C   UNL     1     118.663 121.233 130.425  1.00  0.00     0.012 C 
ATOM     21  C   UNL     1     118.138 122.699 130.297  1.00  0.00    -0.008 C 
ATOM     22  C   UNL     1     116.546 122.751 130.004  1.00  0.00     0.008 C 
ATOM     23  C   UNL     1     115.970 121.423 129.408  1.00  0.00     0.011 C 
ATOM     24  C   UNL     1     118.334 123.364 131.697  1.00  0.00     0.016 C 
ATOM     25  C   UNL     1     123.253 121.917 130.565  1.00  0.00     0.012 C 
ATOM     26  C   UNL     1     124.778 122.024 126.053  1.00  0.00     0.014 C 
ATOM     27  C   UNL     1     125.604 122.215 128.415  1.00  0.00     0.014 C 
ATOM     28  C   UNL     1     121.067 124.210 130.431  1.00  0.00     0.016 C 
ATOM     29  C   UNL     1     113.634 121.466 130.467  1.00  0.00     0.011 C 
ENDROOT
BRANCH   5  30
ATOM     30  C   UNL     1     116.334 125.344 129.931  1.00  0.00     0.163 C 
BRANCH  30  31
ATOM     31  O   UNL     1     115.452 125.468 131.021  1.00  0.00    -0.396 OA
ATOM     32  H   UNL     1     114.787 126.169 130.784  1.00  0.00     0.210 HD
ENDBRANCH  30  31
ENDBRANCH   5  30
BRANCH  14  33
ATOM     33  O   UNL     1     123.857 119.443 126.491  1.00  0.00    -0.393 OA
ATOM     34  H   UNL     1     123.647 120.166 125.847  1.00  0.00     0.210 HD
ENDBRANCH  14  33
TORSDOF 3
ENDMDL
MODEL 7
REMARK VINA RESULT:    -6.653      5.898      9.392
REMARK INTER + INTRA:          -7.518
REMARK INTER:                  -7.443
REMARK INTRA:                  -0.074
REMARK UNBOUND:                -0.086
REMARK SMILES CC1(C)CC[C@]2(CO)CC=C3[C@](C)(CC[C@@H]4[C@@]5(C)CC[C@@H](O)C(C)(C)[C@@H]5CC[C@@]34C)[C@@H]2C1
REMARK SMILES IDX 1 1 2 2 4 3 5 4 6 5 9 6 10 7 11 8 29 9 28 10 27 11 26 12
REMARK SMILES IDX 23 13 21 14 20 15 19 16 17 17 16 18 15 19 14 20 12 21 31 22
REMARK SMILES IDX 32 23 13 24 18 25 24 26 25 27 30 28 3 29 7 30 8 31 22 33
REMARK H PARENT 8 32 22 34
REMARK Flexibility Score: inf
ROOT
ATOM      1  C   UNL     1     124.153 121.047 127.829  1.00  0.00     0.011 C 
ATOM      2  C   UNL     1     123.913 122.316 128.680  1.00  0.00    -0.035 C 
ATOM      3  C   UNL     1     124.481 122.072 130.092  1.00  0.00     0.007 C 
ATOM      4  C   UNL     1     124.141 123.208 131.060  1.00  0.00     0.010 C 
ATOM      5  C   UNL     1     122.621 123.559 131.165  1.00  0.00     0.001 C 
ATOM      6  C   UNL     1     121.872 122.439 131.902  1.00  0.00     0.037 C 
ATOM      7  C   UNL     1     120.408 122.739 132.016  1.00  0.00    -0.026 C 
ATOM      8  C   UNL     1     119.664 123.338 131.041  1.00  0.00    -0.062 C 
ATOM      9  C   UNL     1     118.095 123.372 131.160  1.00  0.00    -0.008 C 
ATOM     10  C   UNL     1     117.568 122.471 132.327  1.00  0.00     0.012 C 
ATOM     11  C   UNL     1     116.050 122.250 132.333  1.00  0.00     0.006 C 
ATOM     12  C   UNL     1     115.567 121.631 131.004  1.00  0.00     0.003 C 
ATOM     13  C   UNL     1     114.089 121.072 131.040  1.00  0.00    -0.006 C 
ATOM     14  C   UNL     1     113.775 120.367 129.679  1.00  0.00     0.120 C 
ATOM     15  C   UNL     1     114.107 121.238 128.465  1.00  0.00     0.033 C 
ATOM     16  C   UNL     1     115.558 121.753 128.479  1.00  0.00     0.010 C 
ATOM     17  C   UNL     1     115.938 122.546 129.770  1.00  0.00    -0.025 C 
ATOM     18  C   UNL     1     117.512 122.785 129.810  1.00  0.00     0.005 C 
ATOM     19  C   UNL     1     118.101 123.510 128.572  1.00  0.00     0.006 C 
ATOM     20  C   UNL     1     119.638 123.408 128.531  1.00  0.00     0.012 C 
ATOM     21  C   UNL     1     120.363 123.976 129.794  1.00  0.00    -0.008 C 
ATOM     22  C   UNL     1     121.961 123.723 129.743  1.00  0.00     0.008 C 
ATOM     23  C   UNL     1     122.386 122.566 128.776  1.00  0.00     0.011 C 
ATOM     24  C   UNL     1     120.177 125.527 129.751  1.00  0.00     0.016 C 
ATOM     25  C   UNL     1     115.182 123.908 129.737  1.00  0.00     0.012 C 
ATOM     26  C   UNL     1     113.950 119.993 132.154  1.00  0.00     0.014 C 
ATOM     27  C   UNL     1     113.022 122.178 131.343  1.00  0.00     0.014 C 
ATOM     28  C   UNL     1     117.662 124.840 131.480  1.00  0.00     0.016 C 
ATOM     29  C   UNL     1     124.641 123.493 127.978  1.00  0.00     0.011 C 
ENDROOT
BRANCH   5  30
ATOM     30  C   UNL     1     122.526 124.872 132.008  1.00  0.00     0.163 C 
BRANCH  30  31
ATOM     31  O   UNL     1     123.794 125.287 132.454  1.00  0.00    -0.396 OA
ATOM     32  H   UNL     1     123.819 125.155 133.440  1.00  0.00     0.210 HD
ENDBRANCH  30  31
ENDBRANCH   5  30
BRANCH  14  33
ATOM     33  O   UNL     1     114.487 119.158 129.563  1.00  0.00    -0.393 OA
ATOM     34  H   UNL     1     114.317 118.797 128.657  1.00  0.00     0.210 HD
ENDBRANCH  14  33
TORSDOF 3
ENDMDL
MODEL 8
REMARK VINA RESULT:    -6.510      3.147      6.445
REMARK INTER + INTRA:          -7.358
REMARK INTER:                  -7.236
REMARK INTRA:                  -0.122
REMARK UNBOUND:                -0.086
REMARK SMILES CC1(C)CC[C@]2(CO)CC=C3[C@](C)(CC[C@@H]4[C@@]5(C)CC[C@@H](O)C(C)(C)[C@@H]5CC[C@@]34C)[C@@H]2C1
REMARK SMILES IDX 1 1 2 2 4 3 5 4 6 5 9 6 10 7 11 8 29 9 28 10 27 11 26 12
REMARK SMILES IDX 23 13 21 14 20 15 19 16 17 17 16 18 15 19 14 20 12 21 31 22
REMARK SMILES IDX 32 23 13 24 18 25 24 26 25 27 30 28 3 29 7 30 8 31 22 33
REMARK H PARENT 8 32 22 34
REMARK Flexibility Score: inf
ROOT
ATOM      1  C   UNL     1     121.538 120.123 122.231  1.00  0.00     0.011 C 
ATOM      2  C   UNL     1     122.371 120.296 123.523  1.00  0.00    -0.035 C 
ATOM      3  C   UNL     1     122.792 118.901 124.024  1.00  0.00     0.007 C 
ATOM      4  C   UNL     1     123.478 118.956 125.391  1.00  0.00     0.010 C 
ATOM      5  C   UNL     1     122.668 119.687 126.511  1.00  0.00     0.001 C 
ATOM      6  C   UNL     1     121.460 118.835 126.928  1.00  0.00     0.037 C 
ATOM      7  C   UNL     1     120.656 119.508 127.999  1.00  0.00    -0.026 C 
ATOM      8  C   UNL     1     120.418 120.851 128.056  1.00  0.00    -0.062 C 
ATOM      9  C   UNL     1     119.354 121.417 129.069  1.00  0.00    -0.008 C 
ATOM     10  C   UNL     1     118.513 120.282 129.745  1.00  0.00     0.012 C 
ATOM     11  C   UNL     1     117.293 120.770 130.535  1.00  0.00     0.006 C 
ATOM     12  C   UNL     1     116.340 121.596 129.645  1.00  0.00     0.003 C 
ATOM     13  C   UNL     1     114.916 121.860 130.278  1.00  0.00    -0.006 C 
ATOM     14  C   UNL     1     114.018 122.593 129.227  1.00  0.00     0.120 C 
ATOM     15  C   UNL     1     114.693 123.825 128.621  1.00  0.00     0.033 C 
ATOM     16  C   UNL     1     116.075 123.512 128.017  1.00  0.00     0.010 C 
ATOM     17  C   UNL     1     117.072 122.850 129.023  1.00  0.00    -0.025 C 
ATOM     18  C   UNL     1     118.351 122.316 128.238  1.00  0.00     0.005 C 
ATOM     19  C   UNL     1     119.102 123.382 127.398  1.00  0.00     0.006 C 
ATOM     20  C   UNL     1     120.106 122.734 126.426  1.00  0.00     0.012 C 
ATOM     21  C   UNL     1     121.184 121.831 127.106  1.00  0.00    -0.008 C 
ATOM     22  C   UNL     1     122.125 121.083 126.021  1.00  0.00     0.008 C 
ATOM     23  C   UNL     1     121.484 120.981 124.595  1.00  0.00     0.011 C 
ATOM     24  C   UNL     1     122.130 122.790 127.898  1.00  0.00     0.016 C 
ATOM     25  C   UNL     1     117.486 123.930 130.067  1.00  0.00     0.012 C 
ATOM     26  C   UNL     1     114.217 120.508 130.608  1.00  0.00     0.014 C 
ATOM     27  C   UNL     1     114.979 122.678 131.611  1.00  0.00     0.014 C 
ATOM     28  C   UNL     1     120.118 122.166 130.210  1.00  0.00     0.016 C 
ATOM     29  C   UNL     1     123.608 121.163 123.168  1.00  0.00     0.011 C 
ENDROOT
BRANCH   5  30
ATOM     30  C   UNL     1     123.632 119.831 127.733  1.00  0.00     0.163 C 
BRANCH  30  31
ATOM     31  O   UNL     1     124.841 120.449 127.362  1.00  0.00    -0.396 OA
ATOM     32  H   UNL     1     125.227 120.858 128.182  1.00  0.00     0.210 HD
ENDBRANCH  30  31
ENDBRANCH   5  30
BRANCH  14  33
ATOM     33  O   UNL     1     113.659 121.725 128.178  1.00  0.00    -0.393 OA
ATOM     34  H   UNL     1     114.095 120.852 128.350  1.00  0.00     0.210 HD
ENDBRANCH  14  33
TORSDOF 3
ENDMDL
MODEL 9
REMARK VINA RESULT:    -6.496      8.136     11.110
REMARK INTER + INTRA:          -7.342
REMARK INTER:                  -7.243
REMARK INTRA:                  -0.099
REMARK UNBOUND:                -0.086
REMARK SMILES CC1(C)CC[C@]2(CO)CC=C3[C@](C)(CC[C@@H]4[C@@]5(C)CC[C@@H](O)C(C)(C)[C@@H]5CC[C@@]34C)[C@@H]2C1
REMARK SMILES IDX 1 1 2 2 4 3 5 4 6 5 9 6 10 7 11 8 29 9 28 10 27 11 26 12
REMARK SMILES IDX 23 13 21 14 20 15 19 16 17 17 16 18 15 19 14 20 12 21 31 22
REMARK SMILES IDX 32 23 13 24 18 25 24 26 25 27 30 28 3 29 7 30 8 31 22 33
REMARK H PARENT 8 32 22 34
REMARK Flexibility Score: inf
ROOT
ATOM      1  C   UNL     1     118.929 117.291 135.355  1.00  0.00     0.011 C 
ATOM      2  C   UNL     1     120.246 117.986 134.936  1.00  0.00    -0.035 C 
ATOM      3  C   UNL     1     120.756 118.825 136.124  1.00  0.00     0.007 C 
ATOM      4  C   UNL     1     121.966 119.685 135.752  1.00  0.00     0.010 C 
ATOM      5  C   UNL     1     121.763 120.614 134.510  1.00  0.00     0.001 C 
ATOM      6  C   UNL     1     120.803 121.760 134.862  1.00  0.00     0.037 C 
ATOM      7  C   UNL     1     120.580 122.669 133.691  1.00  0.00    -0.026 C 
ATOM      8  C   UNL     1     120.472 122.250 132.397  1.00  0.00    -0.062 C 
ATOM      9  C   UNL     1     119.984 123.251 131.285  1.00  0.00    -0.008 C 
ATOM     10  C   UNL     1     119.450 124.594 131.887  1.00  0.00     0.012 C 
ATOM     11  C   UNL     1     118.720 125.500 130.888  1.00  0.00     0.006 C 
ATOM     12  C   UNL     1     117.529 124.770 130.232  1.00  0.00     0.003 C 
ATOM     13  C   UNL     1     116.535 125.714 129.445  1.00  0.00    -0.006 C 
ATOM     14  C   UNL     1     115.318 124.869 128.942  1.00  0.00     0.120 C 
ATOM     15  C   UNL     1     115.740 123.604 128.190  1.00  0.00     0.033 C 
ATOM     16  C   UNL     1     116.705 122.722 129.002  1.00  0.00     0.010 C 
ATOM     17  C   UNL     1     117.996 123.463 129.478  1.00  0.00    -0.025 C 
ATOM     18  C   UNL     1     118.778 122.558 130.530  1.00  0.00     0.005 C 
ATOM     19  C   UNL     1     119.157 121.141 130.028  1.00  0.00     0.006 C 
ATOM     20  C   UNL     1     119.604 120.229 131.187  1.00  0.00     0.012 C 
ATOM     21  C   UNL     1     120.813 120.770 132.015  1.00  0.00    -0.008 C 
ATOM     22  C   UNL     1     121.147 119.829 133.290  1.00  0.00     0.008 C 
ATOM     23  C   UNL     1     119.950 118.922 133.735  1.00  0.00     0.011 C 
ATOM     24  C   UNL     1     122.063 120.682 131.083  1.00  0.00     0.016 C 
ATOM     25  C   UNL     1     118.884 123.732 128.226  1.00  0.00     0.012 C 
ATOM     26  C   UNL     1     115.966 126.807 130.398  1.00  0.00     0.014 C 
ATOM     27  C   UNL     1     117.215 126.462 128.249  1.00  0.00     0.014 C 
ATOM     28  C   UNL     1     121.209 123.607 130.380  1.00  0.00     0.016 C 
ATOM     29  C   UNL     1     121.260 116.874 134.556  1.00  0.00     0.011 C 
ENDROOT
BRANCH   5  30
ATOM     30  C   UNL     1     123.166 121.214 134.171  1.00  0.00     0.163 C 
BRANCH  30  31
ATOM     31  O   UNL     1     123.700 121.919 135.266  1.00  0.00    -0.396 OA
ATOM     32  H   UNL     1     124.122 122.745 134.907  1.00  0.00     0.210 HD
ENDBRANCH  30  31
ENDBRANCH   5  30
BRANCH  14  33
ATOM     33  O   UNL     1     114.491 124.489 130.016  1.00  0.00    -0.393 OA
ATOM     34  H   UNL     1     114.111 125.315 130.409  1.00  0.00     0.210 HD
ENDBRANCH  14  33
TORSDOF 3
ENDMDL
