MODEL 1
REMARK VINA RESULT:    24.952      0.000      0.000
REMARK INTER + INTRA:          39.795
REMARK INTER:                  36.621
REMARK INTRA:                   3.174
REMARK UNBOUND:                 3.174
REMARK SMILES Cc1cc2c(C(C)C)c(O)c(O)c(C=O)c2c(O)c1-c1c(C)cc2c(C(C)C)c(O)c(O)c(C=O)c2c1O
REMARK SMILES IDX 1 1 2 2 3 3 4 4 16 5 13 6 11 7 9 8 5 9 17 10 19 11 20 12
REMARK SMILES IDX 37 13 21 14 36 15 23 16 22 17 24 18 33 19 25 20 31 21 29 22
REMARK SMILES IDX 38 23 34 25 35 26 26 27 27 28 28 29 32 30 30 32 18 34 6 36
REMARK SMILES IDX 7 37 8 38 14 39 15 40 10 41 12 43
REMARK H PARENT 38 24 32 31 30 33 18 35 10 42 12 44
REMARK Flexibility Score: inf
ROOT
ATOM      1  C   UNL     1      74.680  36.125  52.680  1.00  0.00     0.045 C 
ATOM      2  C   UNL     1      75.548  34.904  52.497  1.00  0.00    -0.039 A 
ATOM      3  C   UNL     1      76.747  35.019  51.792  1.00  0.00     0.013 A 
ATOM      4  C   UNL     1      77.594  33.909  51.571  1.00  0.00    -0.006 A 
ATOM      5  C   UNL     1      77.247  32.655  52.159  1.00  0.00     0.039 A 
ATOM      6  C   UNL     1      78.112  31.539  51.959  1.00  0.00     0.072 A 
ATOM      7  C   UNL     1      79.369  31.725  51.357  1.00  0.00     0.169 A 
ATOM      8  C   UNL     1      79.743  32.988  50.867  1.00  0.00     0.162 A 
ATOM      9  C   UNL     1      78.802  34.040  50.819  1.00  0.00     0.008 A 
ATOM     10  C   UNL     1      76.072  32.568  52.963  1.00  0.00     0.132 A 
ATOM     11  C   UNL     1      75.210  33.678  53.091  1.00  0.00     0.031 A 
ENDROOT
BRANCH  11  12
ATOM     12  C   UNL     1      73.961  33.566  53.890  1.00  0.00     0.031 A 
ATOM     13  C   UNL     1      74.003  33.075  55.213  1.00  0.00     0.132 A 
ATOM     14  C   UNL     1      72.736  33.946  53.321  1.00  0.00    -0.039 A 
ATOM     15  C   UNL     1      72.801  32.950  55.976  1.00  0.00     0.039 A 
ATOM     16  C   UNL     1      71.575  33.899  54.093  1.00  0.00     0.013 A 
ATOM     17  C   UNL     1      72.660  34.424  51.891  1.00  0.00     0.045 C 
ATOM     18  C   UNL     1      71.581  33.464  55.433  1.00  0.00    -0.006 A 
ATOM     19  C   UNL     1      72.781  32.346  57.269  1.00  0.00     0.072 A 
ATOM     20  C   UNL     1      70.401  33.518  56.240  1.00  0.00     0.008 A 
ATOM     21  C   UNL     1      71.577  32.290  57.999  1.00  0.00     0.169 A 
ATOM     22  C   UNL     1      70.414  32.885  57.501  1.00  0.00     0.162 A 
BRANCH  13  23
ATOM     23  O   UNL     1      75.238  32.735  55.775  1.00  0.00    -0.507 OA
ATOM     24  H   UNL     1      76.125  33.116  55.465  1.00  0.00     0.293 HD
ENDBRANCH  13  23
BRANCH  19  25
ATOM     25  C   UNL     1      73.977  31.697  57.846  1.00  0.00     0.264 C 
ATOM     26  O   UNL     1      74.630  32.258  58.766  1.00  0.00    -0.298 OA
ENDBRANCH  19  25
BRANCH  20  27
ATOM     27  C   UNL     1      69.102  34.238  55.821  1.00  0.00     0.017 C 
ATOM     28  C   UNL     1      68.802  35.453  56.708  1.00  0.00     0.012 C 
ATOM     29  C   UNL     1      67.886  33.306  55.637  1.00  0.00     0.012 C 
ENDBRANCH  20  27
BRANCH  21  30
ATOM     30  O   UNL     1      71.496  31.623  59.229  1.00  0.00    -0.504 OA
ATOM     31  H   UNL     1      72.296  31.291  59.749  1.00  0.00     0.293 HD
ENDBRANCH  21  30
BRANCH  22  32
ATOM     32  O   UNL     1      69.242  32.831  58.264  1.00  0.00    -0.504 OA
ATOM     33  H   UNL     1      68.329  32.653  57.864  1.00  0.00     0.293 HD
ENDBRANCH  22  32
ENDBRANCH  11  12
BRANCH  10  34
ATOM     34  O   UNL     1      75.785  31.397  53.673  1.00  0.00    -0.507 OA
ATOM     35  H   UNL     1      75.833  31.319  54.680  1.00  0.00     0.293 HD
ENDBRANCH  10  34
BRANCH   9  36
ATOM     36  C   UNL     1      79.120  35.309  50.008  1.00  0.00     0.017 C 
ATOM     37  C   UNL     1      79.991  34.978  48.791  1.00  0.00     0.012 C 
ATOM     38  C   UNL     1      77.872  36.116  49.599  1.00  0.00     0.012 C 
ENDBRANCH   9  36
BRANCH   6  39
ATOM     39  C   UNL     1      77.699  30.153  52.290  1.00  0.00     0.264 C 
ATOM     40  O   UNL     1      76.576  29.706  51.937  1.00  0.00    -0.298 OA
ENDBRANCH   6  39
BRANCH   8  41
ATOM     41  O   UNL     1      81.050  33.224  50.434  1.00  0.00    -0.504 OA
ATOM     42  H   UNL     1      81.315  33.334  49.465  1.00  0.00     0.293 HD
ENDBRANCH   8  41
BRANCH   7  43
ATOM     43  O   UNL     1      80.214  30.619  51.207  1.00  0.00    -0.504 OA
ATOM     44  H   UNL     1      80.330  29.896  51.903  1.00  0.00     0.293 HD
ENDBRANCH   7  43
TORSDOF 11
ENDMDL
MODEL 2
REMARK VINA RESULT:    27.794      1.569      9.145
REMARK INTER + INTRA:          43.966
REMARK INTER:                  37.514
REMARK INTRA:                   6.452
REMARK UNBOUND:                 3.174
REMARK SMILES Cc1cc2c(C(C)C)c(O)c(O)c(C=O)c2c(O)c1-c1c(C)cc2c(C(C)C)c(O)c(O)c(C=O)c2c1O
REMARK SMILES IDX 1 1 2 2 3 3 4 4 16 5 13 6 11 7 9 8 5 9 17 10 19 11 20 12
REMARK SMILES IDX 37 13 21 14 36 15 23 16 22 17 24 18 33 19 25 20 31 21 29 22
REMARK SMILES IDX 38 23 34 25 35 26 26 27 27 28 28 29 32 30 30 32 18 34 6 36
REMARK SMILES IDX 7 37 8 38 14 39 15 40 10 41 12 43
REMARK H PARENT 38 24 32 31 30 33 18 35 10 42 12 44
REMARK Flexibility Score: inf
ROOT
ATOM      1  C   UNL     1      72.853  34.307  52.091  1.00  0.00     0.045 C 
ATOM      2  C   UNL     1      72.828  33.855  53.531  1.00  0.00    -0.039 A 
ATOM      3  C   UNL     1      71.641  33.954  54.258  1.00  0.00     0.013 A 
ATOM      4  C   UNL     1      71.560  33.565  55.614  1.00  0.00    -0.006 A 
ATOM      5  C   UNL     1      72.708  32.980  56.229  1.00  0.00     0.039 A 
ATOM      6  C   UNL     1      72.623  32.564  57.590  1.00  0.00     0.072 A 
ATOM      7  C   UNL     1      71.378  32.559  58.245  1.00  0.00     0.169 A 
ATOM      8  C   UNL     1      70.231  33.048  57.597  1.00  0.00     0.162 A 
ATOM      9  C   UNL     1      70.343  33.704  56.350  1.00  0.00     0.008 A 
ATOM     10  C   UNL     1      73.889  32.790  55.451  1.00  0.00     0.132 A 
ATOM     11  C   UNL     1      73.956  33.266  54.125  1.00  0.00     0.031 A 
ENDROOT
BRANCH  11  12
ATOM     12  C   UNL     1      75.206  33.109  53.336  1.00  0.00     0.031 A 
ATOM     13  C   UNL     1      75.648  34.145  52.485  1.00  0.00     0.132 A 
ATOM     14  C   UNL     1      75.944  31.920  53.434  1.00  0.00    -0.039 A 
ATOM     15  C   UNL     1      76.839  33.988  51.712  1.00  0.00     0.039 A 
ATOM     16  C   UNL     1      77.149  31.798  52.741  1.00  0.00     0.013 A 
ATOM     17  C   UNL     1      75.464  30.777  54.296  1.00  0.00     0.045 C 
ATOM     18  C   UNL     1      77.651  32.829  51.922  1.00  0.00    -0.006 A 
ATOM     19  C   UNL     1      77.255  34.957  50.751  1.00  0.00     0.072 A 
ATOM     20  C   UNL     1      78.935  32.728  51.300  1.00  0.00     0.008 A 
ATOM     21  C   UNL     1      78.463  34.777  50.048  1.00  0.00     0.169 A 
ATOM     22  C   UNL     1      79.297  33.692  50.335  1.00  0.00     0.162 A 
BRANCH  13  23
ATOM     23  O   UNL     1      74.917  35.337  52.427  1.00  0.00    -0.507 OA
ATOM     24  H   UNL     1      73.910  35.389  52.526  1.00  0.00     0.293 HD
ENDBRANCH  13  23
BRANCH  19  25
ATOM     25  C   UNL     1      76.414  36.122  50.402  1.00  0.00     0.264 C 
ATOM     26  O   UNL     1      75.245  35.960  49.961  1.00  0.00    -0.298 OA
ENDBRANCH  19  25
BRANCH  20  27
ATOM     27  C   UNL     1      79.966  31.627  51.623  1.00  0.00     0.017 C 
ATOM     28  C   UNL     1      79.861  31.143  53.075  1.00  0.00     0.012 C 
ATOM     29  C   UNL     1      81.411  31.961  51.199  1.00  0.00     0.012 C 
ENDBRANCH  20  27
BRANCH  21  30
ATOM     30  O   UNL     1      78.858  35.655  49.031  1.00  0.00    -0.504 OA
ATOM     31  H   UNL     1      78.999  36.648  49.160  1.00  0.00     0.293 HD
ENDBRANCH  21  30
BRANCH  22  32
ATOM     32  O   UNL     1      80.501  33.557  49.634  1.00  0.00    -0.504 OA
ATOM     33  H   UNL     1      80.635  32.886  48.887  1.00  0.00     0.293 HD
ENDBRANCH  22  32
ENDBRANCH  11  12
BRANCH  10  34
ATOM     34  O   UNL     1      74.978  32.086  55.978  1.00  0.00    -0.507 OA
ATOM     35  H   UNL     1      75.891  32.047  55.544  1.00  0.00     0.293 HD
ENDBRANCH  10  34
BRANCH   9  36
ATOM     36  C   UNL     1      69.147  34.500  55.800  1.00  0.00     0.017 C 
ATOM     37  C   UNL     1      67.972  33.571  55.476  1.00  0.00     0.012 C 
ATOM     38  C   UNL     1      68.705  35.666  56.704  1.00  0.00     0.012 C 
ENDBRANCH   9  36
BRANCH   6  39
ATOM     39  C   UNL     1      73.826  32.210  58.383  1.00  0.00     0.264 C 
ATOM     40  O   UNL     1      74.158  32.877  59.397  1.00  0.00    -0.298 OA
ENDBRANCH   6  39
BRANCH   8  41
ATOM     41  O   UNL     1      68.967  32.881  58.167  1.00  0.00    -0.504 OA
ATOM     42  H   UNL     1      68.722  33.182  59.100  1.00  0.00     0.293 HD
ENDBRANCH   8  41
BRANCH   7  43
ATOM     43  O   UNL     1      71.316  32.110  59.570  1.00  0.00    -0.504 OA
ATOM     44  H   UNL     1      71.455  32.703  60.376  1.00  0.00     0.293 HD
ENDBRANCH   7  43
TORSDOF 11
ENDMDL
