MODEL 1
REMARK VINA RESULT:    -6.970      0.000      0.000
REMARK INTER + INTRA:          -8.610
REMARK INTER:                  -8.396
REMARK INTRA:                  -0.214
REMARK UNBOUND:                -0.214
REMARK SMILES O=c1c(O)c(-c2ccc(O)c(O)c2)oc2cc(O)cc(O)c12
REMARK SMILES IDX 5 1 3 2 2 3 1 4 22 5 20 6 19 7 17 8 16 9 15 10 14 11 6 12
REMARK SMILES IDX 7 13 8 14 9 15 13 16 11 17 10 18 12 20 4 22 21 24 18 26
REMARK H PARENT 10 19 12 21 4 23 21 25 18 27
REMARK Flexibility Score: inf
ROOT
ATOM      1  C   UNL     1       9.270  25.248  40.252  1.00  0.00     0.180 A 
ATOM      2  C   UNL     1       9.900  25.611  41.455  1.00  0.00     0.208 A 
ATOM      3  C   UNL     1      11.043  26.426  41.406  1.00  0.00     0.238 A 
ATOM      4  O   UNL     1      11.635  26.702  42.481  1.00  0.00    -0.285 OA
ATOM      5  C   UNL     1      11.530  26.881  40.157  1.00  0.00     0.111 A 
ATOM      6  C   UNL     1      12.655  27.744  39.992  1.00  0.00     0.134 A 
ATOM      7  C   UNL     1      13.127  28.024  38.704  1.00  0.00     0.093 A 
ATOM      8  C   UNL     1      12.474  27.526  37.573  1.00  0.00     0.123 A 
ATOM      9  C   UNL     1      11.341  26.733  37.723  1.00  0.00     0.094 A 
ATOM     10  C   UNL     1      10.867  26.405  38.996  1.00  0.00     0.146 A 
ATOM     11  O   UNL     1       9.790  25.637  39.094  1.00  0.00    -0.452 OA
ENDROOT
BRANCH   1  12
ATOM     12  C   UNL     1       8.047  24.412  40.225  1.00  0.00     0.025 A 
ATOM     13  C   UNL     1       6.840  24.938  40.710  1.00  0.00     0.016 A 
ATOM     14  C   UNL     1       5.680  24.160  40.712  1.00  0.00     0.051 A 
ATOM     15  C   UNL     1       5.710  22.842  40.246  1.00  0.00     0.157 A 
ATOM     16  C   UNL     1       8.082  23.079  39.775  1.00  0.00     0.062 A 
ATOM     17  C   UNL     1       6.918  22.297  39.779  1.00  0.00     0.158 A 
BRANCH  15  18
ATOM     18  O   UNL     1       4.536  22.091  40.258  1.00  0.00    -0.504 OA
ATOM     19  H   UNL     1       3.634  22.504  40.462  1.00  0.00     0.293 HD
ENDBRANCH  15  18
BRANCH  17  20
ATOM     20  O   UNL     1       6.959  20.979  39.326  1.00  0.00    -0.504 OA
ATOM     21  H   UNL     1       7.829  20.462  39.272  1.00  0.00     0.293 HD
ENDBRANCH  17  20
ENDBRANCH   1  12
BRANCH   2  22
ATOM     22  O   UNL     1       9.416  25.132  42.675  1.00  0.00    -0.502 OA
ATOM     23  H   UNL     1       9.096  24.178  42.798  1.00  0.00     0.293 HD
ENDBRANCH   2  22
BRANCH   6  24
ATOM     24  O   UNL     1      13.322  28.368  41.051  1.00  0.00    -0.507 OA
ATOM     25  H   UNL     1      13.055  28.296  42.020  1.00  0.00     0.293 HD
ENDBRANCH   6  24
BRANCH   8  26
ATOM     26  O   UNL     1      12.942  27.823  36.295  1.00  0.00    -0.508 OA
ATOM     27  H   UNL     1      12.930  28.770  35.933  1.00  0.00     0.293 HD
ENDBRANCH   8  26
TORSDOF 6
ENDMDL
MODEL 2
REMARK VINA RESULT:    -6.825      3.029      4.857
REMARK INTER + INTRA:          -8.435
REMARK INTER:                  -8.427
REMARK INTRA:                  -0.009
REMARK UNBOUND:                -0.214
REMARK SMILES O=c1c(O)c(-c2ccc(O)c(O)c2)oc2cc(O)cc(O)c12
REMARK SMILES IDX 5 1 3 2 2 3 1 4 22 5 20 6 19 7 17 8 16 9 15 10 14 11 6 12
REMARK SMILES IDX 7 13 8 14 9 15 13 16 11 17 10 18 12 20 4 22 21 24 18 26
REMARK H PARENT 10 19 12 21 4 23 21 25 18 27
REMARK Flexibility Score: inf
ROOT
ATOM      1  C   UNL     1      10.884  25.659  40.343  1.00  0.00     0.180 A 
ATOM      2  C   UNL     1      10.608  24.873  41.475  1.00  0.00     0.208 A 
ATOM      3  C   UNL     1      10.609  25.479  42.742  1.00  0.00     0.238 A 
ATOM      4  O   UNL     1      10.416  24.761  43.756  1.00  0.00    -0.285 OA
ATOM      5  C   UNL     1      10.869  26.867  42.858  1.00  0.00     0.111 A 
ATOM      6  C   UNL     1      10.855  27.593  44.087  1.00  0.00     0.134 A 
ATOM      7  C   UNL     1      11.256  28.934  44.100  1.00  0.00     0.093 A 
ATOM      8  C   UNL     1      11.605  29.594  42.918  1.00  0.00     0.123 A 
ATOM      9  C   UNL     1      11.563  28.909  41.707  1.00  0.00     0.094 A 
ATOM     10  C   UNL     1      11.204  27.560  41.666  1.00  0.00     0.146 A 
ATOM     11  O   UNL     1      11.188  26.943  40.491  1.00  0.00    -0.452 OA
ENDROOT
BRANCH   1  12
ATOM     12  C   UNL     1      10.876  25.096  38.972  1.00  0.00     0.025 A 
ATOM     13  C   UNL     1       9.766  24.358  38.535  1.00  0.00     0.016 A 
ATOM     14  C   UNL     1       9.747  23.801  37.254  1.00  0.00     0.051 A 
ATOM     15  C   UNL     1      10.840  23.959  36.397  1.00  0.00     0.157 A 
ATOM     16  C   UNL     1      11.984  25.237  38.117  1.00  0.00     0.062 A 
ATOM     17  C   UNL     1      11.967  24.677  36.832  1.00  0.00     0.158 A 
BRANCH  15  18
ATOM     18  O   UNL     1      10.791  23.394  35.123  1.00  0.00    -0.504 OA
ATOM     19  H   UNL     1      11.581  22.906  34.720  1.00  0.00     0.293 HD
ENDBRANCH  15  18
BRANCH  17  20
ATOM     20  O   UNL     1      13.066  24.827  35.988  1.00  0.00    -0.504 OA
ATOM     21  H   UNL     1      12.966  24.837  34.980  1.00  0.00     0.293 HD
ENDBRANCH  17  20
ENDBRANCH   1  12
BRANCH   2  22
ATOM     22  O   UNL     1      10.376  23.501  41.339  1.00  0.00    -0.502 OA
ATOM     23  H   UNL     1      10.828  22.940  40.627  1.00  0.00     0.293 HD
ENDBRANCH   2  22
BRANCH   6  24
ATOM     24  O   UNL     1      10.435  27.054  45.307  1.00  0.00    -0.507 OA
ATOM     25  H   UNL     1      10.030  27.587  46.061  1.00  0.00     0.293 HD
ENDBRANCH   6  24
BRANCH   8  26
ATOM     26  O   UNL     1      11.987  30.933  42.939  1.00  0.00    -0.508 OA
ATOM     27  H   UNL     1      11.346  31.663  43.229  1.00  0.00     0.293 HD
ENDBRANCH   8  26
TORSDOF 6
ENDMDL
MODEL 3
REMARK VINA RESULT:    -6.798      1.483      6.793
REMARK INTER + INTRA:          -8.403
REMARK INTER:                  -8.240
REMARK INTRA:                  -0.163
REMARK UNBOUND:                -0.214
REMARK SMILES O=c1c(O)c(-c2ccc(O)c(O)c2)oc2cc(O)cc(O)c12
REMARK SMILES IDX 5 1 3 2 2 3 1 4 22 5 20 6 19 7 17 8 16 9 15 10 14 11 6 12
REMARK SMILES IDX 7 13 8 14 9 15 13 16 11 17 10 18 12 20 4 22 21 24 18 26
REMARK H PARENT 10 19 12 21 4 23 21 25 18 27
REMARK Flexibility Score: inf
ROOT
ATOM      1  C   UNL     1      10.233  25.843  39.775  1.00  0.00     0.180 A 
ATOM      2  C   UNL     1       9.283  26.356  40.674  1.00  0.00     0.208 A 
ATOM      3  C   UNL     1       8.149  25.586  40.980  1.00  0.00     0.238 A 
ATOM      4  O   UNL     1       7.275  26.073  41.742  1.00  0.00    -0.285 OA
ATOM      5  C   UNL     1       7.989  24.305  40.396  1.00  0.00     0.111 A 
ATOM      6  C   UNL     1       6.901  23.422  40.666  1.00  0.00     0.134 A 
ATOM      7  C   UNL     1       6.778  22.236  39.932  1.00  0.00     0.093 A 
ATOM      8  C   UNL     1       7.738  21.870  38.986  1.00  0.00     0.123 A 
ATOM      9  C   UNL     1       8.835  22.697  38.759  1.00  0.00     0.094 A 
ATOM     10  C   UNL     1       8.967  23.905  39.449  1.00  0.00     0.146 A 
ATOM     11  O   UNL     1      10.022  24.668  39.194  1.00  0.00    -0.452 OA
ENDROOT
BRANCH   1  12
ATOM     12  C   UNL     1      11.466  26.586  39.423  1.00  0.00     0.025 A 
ATOM     13  C   UNL     1      12.421  26.850  40.416  1.00  0.00     0.016 A 
ATOM     14  C   UNL     1      13.581  27.567  40.111  1.00  0.00     0.051 A 
ATOM     15  C   UNL     1      13.796  28.044  38.815  1.00  0.00     0.157 A 
ATOM     16  C   UNL     1      11.674  27.085  38.124  1.00  0.00     0.062 A 
ATOM     17  C   UNL     1      12.837  27.807  37.816  1.00  0.00     0.158 A 
BRANCH  15  18
ATOM     18  O   UNL     1      14.964  28.754  38.538  1.00  0.00    -0.504 OA
ATOM     19  H   UNL     1      15.134  29.182  37.636  1.00  0.00     0.293 HD
ENDBRANCH  15  18
BRANCH  17  20
ATOM     20  O   UNL     1      13.038  28.292  36.525  1.00  0.00    -0.504 OA
ATOM     21  H   UNL     1      12.840  27.726  35.708  1.00  0.00     0.293 HD
ENDBRANCH  17  20
ENDBRANCH   1  12
BRANCH   2  22
ATOM     22  O   UNL     1       9.449  27.632  41.222  1.00  0.00    -0.502 OA
ATOM     23  H   UNL     1       9.034  27.903  42.105  1.00  0.00     0.293 HD
ENDBRANCH   2  22
BRANCH   6  24
ATOM     24  O   UNL     1       5.939  23.649  41.654  1.00  0.00    -0.507 OA
ATOM     25  H   UNL     1       5.447  24.519  41.788  1.00  0.00     0.293 HD
ENDBRANCH   6  24
BRANCH   8  26
ATOM     26  O   UNL     1       7.615  20.680  38.272  1.00  0.00    -0.508 OA
ATOM     27  H   UNL     1       6.708  20.267  38.083  1.00  0.00     0.293 HD
ENDBRANCH   8  26
TORSDOF 6
ENDMDL
MODEL 4
REMARK VINA RESULT:    -6.755      9.664     10.274
REMARK INTER + INTRA:          -8.352
REMARK INTER:                  -8.148
REMARK INTRA:                  -0.204
REMARK UNBOUND:                -0.214
REMARK SMILES O=c1c(O)c(-c2ccc(O)c(O)c2)oc2cc(O)cc(O)c12
REMARK SMILES IDX 5 1 3 2 2 3 1 4 22 5 20 6 19 7 17 8 16 9 15 10 14 11 6 12
REMARK SMILES IDX 7 13 8 14 9 15 13 16 11 17 10 18 12 20 4 22 21 24 18 26
REMARK H PARENT 10 19 12 21 4 23 21 25 18 27
REMARK Flexibility Score: inf
ROOT
ATOM      1  C   UNL     1      16.925  18.494  40.233  1.00  0.00     0.180 A 
ATOM      2  C   UNL     1      16.617  19.272  41.362  1.00  0.00     0.208 A 
ATOM      3  C   UNL     1      17.455  20.347  41.699  1.00  0.00     0.238 A 
ATOM      4  O   UNL     1      17.206  21.006  42.741  1.00  0.00    -0.285 OA
ATOM      5  C   UNL     1      18.582  20.641  40.892  1.00  0.00     0.111 A 
ATOM      6  C   UNL     1      19.476  21.731  41.115  1.00  0.00     0.134 A 
ATOM      7  C   UNL     1      20.630  21.848  40.331  1.00  0.00     0.093 A 
ATOM      8  C   UNL     1      20.888  20.953  39.289  1.00  0.00     0.123 A 
ATOM      9  C   UNL     1      19.990  19.923  39.026  1.00  0.00     0.094 A 
ATOM     10  C   UNL     1      18.848  19.757  39.814  1.00  0.00     0.146 A 
ATOM     11  O   UNL     1      18.025  18.754  39.535  1.00  0.00    -0.452 OA
ENDROOT
BRANCH   1  12
ATOM     12  C   UNL     1      16.076  17.360  39.802  1.00  0.00     0.025 A 
ATOM     13  C   UNL     1      16.605  16.061  39.803  1.00  0.00     0.016 A 
ATOM     14  C   UNL     1      15.828  14.979  39.381  1.00  0.00     0.051 A 
ATOM     15  C   UNL     1      14.518  15.180  38.936  1.00  0.00     0.157 A 
ATOM     16  C   UNL     1      14.765  17.564  39.334  1.00  0.00     0.062 A 
ATOM     17  C   UNL     1      13.984  16.480  38.908  1.00  0.00     0.158 A 
BRANCH  15  18
ATOM     18  O   UNL     1      13.766  14.082  38.523  1.00  0.00    -0.504 OA
ATOM     19  H   UNL     1      13.909  13.156  38.907  1.00  0.00     0.293 HD
ENDBRANCH  15  18
BRANCH  17  20
ATOM     20  O   UNL     1      12.684  16.690  38.452  1.00  0.00    -0.504 OA
ATOM     21  H   UNL     1      12.462  17.433  37.800  1.00  0.00     0.293 HD
ENDBRANCH  17  20
ENDBRANCH   1  12
BRANCH   2  22
ATOM     22  O   UNL     1      15.514  18.951  42.158  1.00  0.00    -0.502 OA
ATOM     23  H   UNL     1      14.692  19.542  42.214  1.00  0.00     0.293 HD
ENDBRANCH   2  22
BRANCH   6  24
ATOM     24  O   UNL     1      19.264  22.732  42.068  1.00  0.00    -0.507 OA
ATOM     25  H   UNL     1      19.866  23.529  42.208  1.00  0.00     0.293 HD
ENDBRANCH   6  24
BRANCH   8  26
ATOM     26  O   UNL     1      22.031  21.087  38.504  1.00  0.00    -0.508 OA
ATOM     27  H   UNL     1      22.842  20.494  38.643  1.00  0.00     0.293 HD
ENDBRANCH   8  26
TORSDOF 6
ENDMDL
MODEL 5
REMARK VINA RESULT:    -6.737      2.538      6.922
REMARK INTER + INTRA:          -8.330
REMARK INTER:                  -8.007
REMARK INTRA:                  -0.322
REMARK UNBOUND:                -0.214
REMARK SMILES O=c1c(O)c(-c2ccc(O)c(O)c2)oc2cc(O)cc(O)c12
REMARK SMILES IDX 5 1 3 2 2 3 1 4 22 5 20 6 19 7 17 8 16 9 15 10 14 11 6 12
REMARK SMILES IDX 7 13 8 14 9 15 13 16 11 17 10 18 12 20 4 22 21 24 18 26
REMARK H PARENT 10 19 12 21 4 23 21 25 18 27
REMARK Flexibility Score: inf
ROOT
ATOM      1  C   UNL     1      10.550  26.166  40.761  1.00  0.00     0.180 A 
ATOM      2  C   UNL     1      10.511  24.763  40.818  1.00  0.00     0.208 A 
ATOM      3  C   UNL     1       9.716  24.142  41.795  1.00  0.00     0.238 A 
ATOM      4  O   UNL     1       9.728  22.887  41.877  1.00  0.00    -0.285 OA
ATOM      5  C   UNL     1       8.957  24.934  42.692  1.00  0.00     0.111 A 
ATOM      6  C   UNL     1       8.086  24.411  43.695  1.00  0.00     0.134 A 
ATOM      7  C   UNL     1       7.486  25.285  44.610  1.00  0.00     0.093 A 
ATOM      8  C   UNL     1       7.674  26.666  44.517  1.00  0.00     0.123 A 
ATOM      9  C   UNL     1       8.474  27.188  43.506  1.00  0.00     0.094 A 
ATOM     10  C   UNL     1       9.116  26.341  42.599  1.00  0.00     0.146 A 
ATOM     11  O   UNL     1       9.879  26.880  41.657  1.00  0.00    -0.452 OA
ENDROOT
BRANCH   1  12
ATOM     12  C   UNL     1      11.345  26.891  39.743  1.00  0.00     0.025 A 
ATOM     13  C   UNL     1      10.765  27.199  38.503  1.00  0.00     0.016 A 
ATOM     14  C   UNL     1      11.503  27.864  37.521  1.00  0.00     0.051 A 
ATOM     15  C   UNL     1      12.835  28.218  37.756  1.00  0.00     0.157 A 
ATOM     16  C   UNL     1      12.692  27.229  39.970  1.00  0.00     0.062 A 
ATOM     17  C   UNL     1      13.435  27.895  38.984  1.00  0.00     0.158 A 
BRANCH  15  18
ATOM     18  O   UNL     1      13.546  28.883  36.758  1.00  0.00    -0.504 OA
ATOM     19  H   UNL     1      13.485  28.616  35.783  1.00  0.00     0.293 HD
ENDBRANCH  15  18
BRANCH  17  20
ATOM     20  O   UNL     1      14.767  28.232  39.220  1.00  0.00    -0.504 OA
ATOM     21  H   UNL     1      15.488  27.525  39.302  1.00  0.00     0.293 HD
ENDBRANCH  17  20
ENDBRANCH   1  12
BRANCH   2  22
ATOM     22  O   UNL     1      11.286  24.001  39.938  1.00  0.00    -0.502 OA
ATOM     23  H   UNL     1      11.196  24.073  38.931  1.00  0.00     0.293 HD
ENDBRANCH   2  22
BRANCH   6  24
ATOM     24  O   UNL     1       7.758  23.058  43.816  1.00  0.00    -0.507 OA
ATOM     25  H   UNL     1       7.562  22.590  44.687  1.00  0.00     0.293 HD
ENDBRANCH   6  24
BRANCH   8  26
ATOM     26  O   UNL     1       7.061  27.529  45.424  1.00  0.00    -0.508 OA
ATOM     27  H   UNL     1       6.951  28.516  45.225  1.00  0.00     0.293 HD
ENDBRANCH   8  26
TORSDOF 6
ENDMDL
MODEL 6
REMARK VINA RESULT:    -6.691      2.366      6.935
REMARK INTER + INTRA:          -8.275
REMARK INTER:                  -7.979
REMARK INTRA:                  -0.296
REMARK UNBOUND:                -0.214
REMARK SMILES O=c1c(O)c(-c2ccc(O)c(O)c2)oc2cc(O)cc(O)c12
REMARK SMILES IDX 5 1 3 2 2 3 1 4 22 5 20 6 19 7 17 8 16 9 15 10 14 11 6 12
REMARK SMILES IDX 7 13 8 14 9 15 13 16 11 17 10 18 12 20 4 22 21 24 18 26
REMARK H PARENT 10 19 12 21 4 23 21 25 18 27
REMARK Flexibility Score: inf
ROOT
ATOM      1  C   UNL     1       9.746  25.720  41.341  1.00  0.00     0.180 A 
ATOM      2  C   UNL     1      10.564  24.855  40.595  1.00  0.00     0.208 A 
ATOM      3  C   UNL     1       9.992  23.714  40.008  1.00  0.00     0.238 A 
ATOM      4  O   UNL     1      10.738  22.914  39.387  1.00  0.00    -0.285 OA
ATOM      5  C   UNL     1       8.606  23.463  40.162  1.00  0.00     0.111 A 
ATOM      6  C   UNL     1       7.913  22.360  39.577  1.00  0.00     0.134 A 
ATOM      7  C   UNL     1       6.570  22.139  39.903  1.00  0.00     0.093 A 
ATOM      8  C   UNL     1       5.877  23.017  40.740  1.00  0.00     0.123 A 
ATOM      9  C   UNL     1       6.529  24.128  41.267  1.00  0.00     0.094 A 
ATOM     10  C   UNL     1       7.879  24.357  40.990  1.00  0.00     0.146 A 
ATOM     11  O   UNL     1       8.464  25.422  41.522  1.00  0.00    -0.452 OA
ENDROOT
BRANCH   1  12
ATOM     12  C   UNL     1      10.271  26.955  41.969  1.00  0.00     0.025 A 
ATOM     13  C   UNL     1      10.471  28.099  41.181  1.00  0.00     0.016 A 
ATOM     14  C   UNL     1      10.985  29.268  41.747  1.00  0.00     0.051 A 
ATOM     15  C   UNL     1      11.322  29.308  43.103  1.00  0.00     0.157 A 
ATOM     16  C   UNL     1      10.631  26.990  43.328  1.00  0.00     0.062 A 
ATOM     17  C   UNL     1      11.149  28.162  43.898  1.00  0.00     0.158 A 
BRANCH  15  18
ATOM     18  O   UNL     1      11.831  30.489  43.642  1.00  0.00    -0.504 OA
ATOM     19  H   UNL     1      11.231  31.255  43.922  1.00  0.00     0.293 HD
ENDBRANCH  15  18
BRANCH  17  20
ATOM     20  O   UNL     1      11.496  28.190  45.248  1.00  0.00    -0.504 OA
ATOM     21  H   UNL     1      12.006  27.429  45.681  1.00  0.00     0.293 HD
ENDBRANCH  17  20
ENDBRANCH   1  12
BRANCH   2  22
ATOM     22  O   UNL     1      11.933  25.109  40.475  1.00  0.00    -0.502 OA
ATOM     23  H   UNL     1      12.635  24.534  40.925  1.00  0.00     0.293 HD
ENDBRANCH   2  22
BRANCH   6  24
ATOM     24  O   UNL     1       8.487  21.477  38.657  1.00  0.00    -0.507 OA
ATOM     25  H   UNL     1       8.329  21.503  37.662  1.00  0.00     0.293 HD
ENDBRANCH   6  24
BRANCH   8  26
ATOM     26  O   UNL     1       4.536  22.797  41.047  1.00  0.00    -0.508 OA
ATOM     27  H   UNL     1       3.796  23.324  40.598  1.00  0.00     0.293 HD
ENDBRANCH   8  26
TORSDOF 6
ENDMDL
MODEL 7
REMARK VINA RESULT:    -6.600      2.009      6.904
REMARK INTER + INTRA:          -8.165
REMARK INTER:                  -8.234
REMARK INTRA:                   0.069
REMARK UNBOUND:                -0.214
REMARK SMILES O=c1c(O)c(-c2ccc(O)c(O)c2)oc2cc(O)cc(O)c12
REMARK SMILES IDX 5 1 3 2 2 3 1 4 22 5 20 6 19 7 17 8 16 9 15 10 14 11 6 12
REMARK SMILES IDX 7 13 8 14 9 15 13 16 11 17 10 18 12 20 4 22 21 24 18 26
REMARK H PARENT 10 19 12 21 4 23 21 25 18 27
REMARK Flexibility Score: inf
ROOT
ATOM      1  C   UNL     1      10.668  26.791  41.590  1.00  0.00     0.180 A 
ATOM      2  C   UNL     1      10.379  27.403  42.822  1.00  0.00     0.208 A 
ATOM      3  C   UNL     1       9.326  26.898  43.603  1.00  0.00     0.238 A 
ATOM      4  O   UNL     1       9.035  27.484  44.678  1.00  0.00    -0.285 OA
ATOM      5  C   UNL     1       8.588  25.777  43.150  1.00  0.00     0.111 A 
ATOM      6  C   UNL     1       7.529  25.157  43.878  1.00  0.00     0.134 A 
ATOM      7  C   UNL     1       6.783  24.136  43.275  1.00  0.00     0.093 A 
ATOM      8  C   UNL     1       7.101  23.669  41.997  1.00  0.00     0.123 A 
ATOM      9  C   UNL     1       8.171  24.227  41.304  1.00  0.00     0.094 A 
ATOM     10  C   UNL     1       8.912  25.273  41.863  1.00  0.00     0.146 A 
ATOM     11  O   UNL     1       9.916  25.783  41.163  1.00  0.00    -0.452 OA
ENDROOT
BRANCH   1  12
ATOM     12  C   UNL     1      11.778  27.251  40.724  1.00  0.00     0.025 A 
ATOM     13  C   UNL     1      13.035  27.510  41.291  1.00  0.00     0.016 A 
ATOM     14  C   UNL     1      14.090  27.965  40.496  1.00  0.00     0.051 A 
ATOM     15  C   UNL     1      13.902  28.182  39.128  1.00  0.00     0.157 A 
ATOM     16  C   UNL     1      11.584  27.491  39.351  1.00  0.00     0.062 A 
ATOM     17  C   UNL     1      12.642  27.949  38.552  1.00  0.00     0.158 A 
BRANCH  15  18
ATOM     18  O   UNL     1      14.974  28.634  38.359  1.00  0.00    -0.504 OA
ATOM     19  H   UNL     1      15.093  29.611  38.122  1.00  0.00     0.293 HD
ENDBRANCH  15  18
BRANCH  17  20
ATOM     20  O   UNL     1      12.443  28.178  37.192  1.00  0.00    -0.504 OA
ATOM     21  H   UNL     1      11.542  28.462  36.826  1.00  0.00     0.293 HD
ENDBRANCH  17  20
ENDBRANCH   1  12
BRANCH   2  22
ATOM     22  O   UNL     1      11.104  28.522  43.239  1.00  0.00    -0.502 OA
ATOM     23  H   UNL     1      11.416  29.240  42.596  1.00  0.00     0.293 HD
ENDBRANCH   2  22
BRANCH   6  24
ATOM     24  O   UNL     1       7.189  25.486  45.193  1.00  0.00    -0.507 OA
ATOM     25  H   UNL     1       7.795  25.966  45.840  1.00  0.00     0.293 HD
ENDBRANCH   6  24
BRANCH   8  26
ATOM     26  O   UNL     1       6.363  22.642  41.413  1.00  0.00    -0.508 OA
ATOM     27  H   UNL     1       5.350  22.663  41.393  1.00  0.00     0.293 HD
ENDBRANCH   8  26
TORSDOF 6
ENDMDL
MODEL 8
REMARK VINA RESULT:    -6.555      1.850      3.212
REMARK INTER + INTRA:          -8.110
REMARK INTER:                  -7.800
REMARK INTRA:                  -0.311
REMARK UNBOUND:                -0.214
REMARK SMILES O=c1c(O)c(-c2ccc(O)c(O)c2)oc2cc(O)cc(O)c12
REMARK SMILES IDX 5 1 3 2 2 3 1 4 22 5 20 6 19 7 17 8 16 9 15 10 14 11 6 12
REMARK SMILES IDX 7 13 8 14 9 15 13 16 11 17 10 18 12 20 4 22 21 24 18 26
REMARK H PARENT 10 19 12 21 4 23 21 25 18 27
REMARK Flexibility Score: inf
ROOT
ATOM      1  C   UNL     1      10.055  24.553  39.630  1.00  0.00     0.180 A 
ATOM      2  C   UNL     1      10.065  25.672  38.781  1.00  0.00     0.208 A 
ATOM      3  C   UNL     1      11.171  26.537  38.805  1.00  0.00     0.238 A 
ATOM      4  O   UNL     1      11.151  27.567  38.083  1.00  0.00    -0.285 OA
ATOM      5  C   UNL     1      12.261  26.262  39.668  1.00  0.00     0.111 A 
ATOM      6  C   UNL     1      13.451  27.047  39.745  1.00  0.00     0.134 A 
ATOM      7  C   UNL     1      14.406  26.756  40.726  1.00  0.00     0.093 A 
ATOM      8  C   UNL     1      14.245  25.668  41.589  1.00  0.00     0.123 A 
ATOM      9  C   UNL     1      13.117  24.861  41.480  1.00  0.00     0.094 A 
ATOM     10  C   UNL     1      12.127  25.147  40.536  1.00  0.00     0.146 A 
ATOM     11  O   UNL     1      11.062  24.359  40.474  1.00  0.00    -0.452 OA
ENDROOT
BRANCH   1  12
ATOM     12  C   UNL     1       8.935  23.583  39.643  1.00  0.00     0.025 A 
ATOM     13  C   UNL     1       8.891  22.567  38.676  1.00  0.00     0.016 A 
ATOM     14  C   UNL     1       7.834  21.654  38.657  1.00  0.00     0.051 A 
ATOM     15  C   UNL     1       6.798  21.751  39.591  1.00  0.00     0.157 A 
ATOM     16  C   UNL     1       7.882  23.693  40.569  1.00  0.00     0.062 A 
ATOM     17  C   UNL     1       6.819  22.779  40.549  1.00  0.00     0.158 A 
BRANCH  15  18
ATOM     18  O   UNL     1       5.757  20.825  39.549  1.00  0.00    -0.504 OA
ATOM     19  H   UNL     1       4.929  20.919  40.124  1.00  0.00     0.293 HD
ENDBRANCH  15  18
BRANCH  17  20
ATOM     20  O   UNL     1       5.782  22.891  41.474  1.00  0.00    -0.504 OA
ATOM     21  H   UNL     1       4.921  23.377  41.252  1.00  0.00     0.293 HD
ENDBRANCH  17  20
ENDBRANCH   1  12
BRANCH   2  22
ATOM     22  O   UNL     1       8.969  25.938  37.954  1.00  0.00    -0.502 OA
ATOM     23  H   UNL     1       9.072  26.197  36.980  1.00  0.00     0.293 HD
ENDBRANCH   2  22
BRANCH   6  24
ATOM     24  O   UNL     1      13.751  28.097  38.872  1.00  0.00    -0.507 OA
ATOM     25  H   UNL     1      13.220  28.950  38.796  1.00  0.00     0.293 HD
ENDBRANCH   6  24
BRANCH   8  26
ATOM     26  O   UNL     1      15.209  25.377  42.552  1.00  0.00    -0.508 OA
ATOM     27  H   UNL     1      16.195  25.544  42.383  1.00  0.00     0.293 HD
ENDBRANCH   8  26
TORSDOF 6
ENDMDL
MODEL 9
REMARK VINA RESULT:    -6.429      3.015      5.460
REMARK INTER + INTRA:          -7.959
REMARK INTER:                  -8.301
REMARK INTRA:                   0.343
REMARK UNBOUND:                -0.214
REMARK SMILES O=c1c(O)c(-c2ccc(O)c(O)c2)oc2cc(O)cc(O)c12
REMARK SMILES IDX 5 1 3 2 2 3 1 4 22 5 20 6 19 7 17 8 16 9 15 10 14 11 6 12
REMARK SMILES IDX 7 13 8 14 9 15 13 16 11 17 10 18 12 20 4 22 21 24 18 26
REMARK H PARENT 10 19 12 21 4 23 21 25 18 27
REMARK Flexibility Score: inf
ROOT
ATOM      1  C   UNL     1      10.755  26.171  40.138  1.00  0.00     0.180 A 
ATOM      2  C   UNL     1      11.633  27.223  40.450  1.00  0.00     0.208 A 
ATOM      3  C   UNL     1      11.562  27.816  41.721  1.00  0.00     0.238 A 
ATOM      4  O   UNL     1      12.313  28.793  41.976  1.00  0.00    -0.285 OA
ATOM      5  C   UNL     1      10.626  27.337  42.670  1.00  0.00     0.111 A 
ATOM      6  C   UNL     1      10.495  27.836  44.001  1.00  0.00     0.134 A 
ATOM      7  C   UNL     1       9.448  27.377  44.810  1.00  0.00     0.093 A 
ATOM      8  C   UNL     1       8.568  26.390  44.358  1.00  0.00     0.123 A 
ATOM      9  C   UNL     1       8.725  25.855  43.083  1.00  0.00     0.094 A 
ATOM     10  C   UNL     1       9.738  26.318  42.238  1.00  0.00     0.146 A 
ATOM     11  O   UNL     1       9.845  25.788  41.026  1.00  0.00    -0.452 OA
ENDROOT
BRANCH   1  12
ATOM     12  C   UNL     1      10.787  25.480  38.828  1.00  0.00     0.025 A 
ATOM     13  C   UNL     1       9.672  24.736  38.413  1.00  0.00     0.016 A 
ATOM     14  C   UNL     1       9.688  24.060  37.191  1.00  0.00     0.051 A 
ATOM     15  C   UNL     1      10.821  24.103  36.373  1.00  0.00     0.157 A 
ATOM     16  C   UNL     1      11.934  25.505  38.015  1.00  0.00     0.062 A 
ATOM     17  C   UNL     1      11.952  24.825  36.788  1.00  0.00     0.158 A 
BRANCH  15  18
ATOM     18  O   UNL     1      10.807  23.420  35.157  1.00  0.00    -0.504 OA
ATOM     19  H   UNL     1      11.397  22.615  34.985  1.00  0.00     0.293 HD
ENDBRANCH  15  18
BRANCH  17  20
ATOM     20  O   UNL     1      13.091  24.861  35.985  1.00  0.00    -0.504 OA
ATOM     21  H   UNL     1      13.909  25.398  36.246  1.00  0.00     0.293 HD
ENDBRANCH  17  20
ENDBRANCH   1  12
BRANCH   2  22
ATOM     22  O   UNL     1      12.534  27.695  39.491  1.00  0.00    -0.502 OA
ATOM     23  H   UNL     1      13.500  27.909  39.710  1.00  0.00     0.293 HD
ENDBRANCH   2  22
BRANCH   6  24
ATOM     24  O   UNL     1      11.376  28.754  44.581  1.00  0.00    -0.507 OA
ATOM     25  H   UNL     1      11.303  29.102  45.524  1.00  0.00     0.293 HD
ENDBRANCH   6  24
BRANCH   8  26
ATOM     26  O   UNL     1       7.538  25.928  45.176  1.00  0.00    -0.508 OA
ATOM     27  H   UNL     1       7.244  24.958  45.161  1.00  0.00     0.293 HD
ENDBRANCH   8  26
TORSDOF 6
ENDMDL
