MODEL 1
REMARK VINA RESULT:    -3.866      0.000      0.000
REMARK INTER + INTRA:          -4.988
REMARK INTER:                  -4.770
REMARK INTRA:                  -0.218
REMARK UNBOUND:                -0.218
REMARK SMILES C=CC[C@@H](C)C(=O)CC
REMARK SMILES IDX 4 1 5 2 6 3 7 4 8 5 9 6 3 7 2 8 1 9
REMARK H PARENT
REMARK Flexibility Score: inf
ROOT
ATOM      1  C   UNL     1      -2.590  12.198   0.555  1.00  0.00     0.057 C 
ATOM      2  C   UNL     1      -2.520  10.669   0.614  1.00  0.00     0.016 C 
ENDROOT
BRANCH   1   3
ATOM      3  C   UNL     1      -1.797  12.797   1.700  1.00  0.00     0.135 C 
ATOM      4  O   UNL     1      -0.612  12.523   1.825  1.00  0.00    -0.299 OA
BRANCH   3   5
ATOM      5  C   UNL     1      -2.448  13.715   2.703  1.00  0.00     0.072 C 
ATOM      6  C   UNL     1      -2.491  13.071   4.085  1.00  0.00     0.012 C 
ENDBRANCH   3   5
ENDBRANCH   1   3
BRANCH   1   7
ATOM      7  C   UNL     1      -2.077  12.711  -0.808  1.00  0.00     0.038 C 
BRANCH   7   8
ATOM      8  C   UNL     1      -2.211  14.205  -0.941  1.00  0.00    -0.034 C 
ATOM      9  C   UNL     1      -2.126  14.817  -2.125  1.00  0.00     0.004 C 
ENDBRANCH   7   8
ENDBRANCH   1   7
TORSDOF 4
ENDMDL
MODEL 2
REMARK VINA RESULT:    -3.576      1.077      1.330
REMARK INTER + INTRA:          -4.631
REMARK INTER:                  -4.434
REMARK INTRA:                  -0.197
REMARK UNBOUND:                -0.218
REMARK SMILES C=CC[C@@H](C)C(=O)CC
REMARK SMILES IDX 4 1 5 2 6 3 7 4 8 5 9 6 3 7 2 8 1 9
REMARK H PARENT
REMARK Flexibility Score: inf
ROOT
ATOM      1  C   UNL     1      -2.361  13.392   0.263  1.00  0.00     0.057 C 
ATOM      2  C   UNL     1      -2.020  12.177  -0.605  1.00  0.00     0.016 C 
ENDROOT
BRANCH   1   3
ATOM      3  C   UNL     1      -1.769  13.221   1.648  1.00  0.00     0.135 C 
ATOM      4  O   UNL     1      -1.308  12.138   1.980  1.00  0.00    -0.299 OA
BRANCH   3   5
ATOM      5  C   UNL     1      -1.753  14.359   2.636  1.00  0.00     0.072 C 
ATOM      6  C   UNL     1      -2.978  14.311   3.545  1.00  0.00     0.012 C 
ENDBRANCH   3   5
ENDBRANCH   1   3
BRANCH   1   7
ATOM      7  C   UNL     1      -1.858  14.691  -0.402  1.00  0.00     0.038 C 
BRANCH   7   8
ATOM      8  C   UNL     1      -2.156  14.726  -1.878  1.00  0.00    -0.034 C 
ATOM      9  C   UNL     1      -1.610  15.640  -2.685  1.00  0.00     0.004 C 
ENDBRANCH   7   8
ENDBRANCH   1   7
TORSDOF 4
ENDMDL
MODEL 3
REMARK VINA RESULT:    -3.487      1.179      4.319
REMARK INTER + INTRA:          -4.521
REMARK INTER:                  -4.237
REMARK INTRA:                  -0.283
REMARK UNBOUND:                -0.218
REMARK SMILES C=CC[C@@H](C)C(=O)CC
REMARK SMILES IDX 4 1 5 2 6 3 7 4 8 5 9 6 3 7 2 8 1 9
REMARK H PARENT
REMARK Flexibility Score: inf
ROOT
ATOM      1  C   UNL     1      -1.437  13.504   2.138  1.00  0.00     0.057 C 
ATOM      2  C   UNL     1      -0.143  13.139   2.873  1.00  0.00     0.016 C 
ENDROOT
BRANCH   1   3
ATOM      3  C   UNL     1      -1.750  12.454   1.090  1.00  0.00     0.135 C 
ATOM      4  O   UNL     1      -1.881  11.285   1.424  1.00  0.00    -0.299 OA
BRANCH   3   5
ATOM      5  C   UNL     1      -1.887  12.822  -0.365  1.00  0.00     0.072 C 
ATOM      6  C   UNL     1      -2.174  14.311  -0.528  1.00  0.00     0.012 C 
ENDBRANCH   3   5
ENDBRANCH   1   3
BRANCH   1   7
ATOM      7  C   UNL     1      -2.602  13.659   3.138  1.00  0.00     0.038 C 
BRANCH   7   8
ATOM      8  C   UNL     1      -2.284  13.053   4.480  1.00  0.00    -0.034 C 
ATOM      9  C   UNL     1      -3.222  12.462   5.226  1.00  0.00     0.004 C 
ENDBRANCH   7   8
ENDBRANCH   1   7
TORSDOF 4
ENDMDL
MODEL 4
REMARK VINA RESULT:    -3.460      1.809      4.309
REMARK INTER + INTRA:          -4.487
REMARK INTER:                  -4.320
REMARK INTRA:                  -0.167
REMARK UNBOUND:                -0.218
REMARK SMILES C=CC[C@@H](C)C(=O)CC
REMARK SMILES IDX 4 1 5 2 6 3 7 4 8 5 9 6 3 7 2 8 1 9
REMARK H PARENT
REMARK Flexibility Score: inf
ROOT
ATOM      1  C   UNL     1      -2.386  13.920   0.174  1.00  0.00     0.057 C 
ATOM      2  C   UNL     1      -2.034  14.196   1.640  1.00  0.00     0.016 C 
ENDROOT
BRANCH   1   3
ATOM      3  C   UNL     1      -1.874  15.047  -0.701  1.00  0.00     0.135 C 
ATOM      4  O   UNL     1      -1.136  15.898  -0.223  1.00  0.00    -0.299 OA
BRANCH   3   5
ATOM      5  C   UNL     1      -2.271  15.151  -2.151  1.00  0.00     0.072 C 
ATOM      6  C   UNL     1      -1.407  16.173  -2.883  1.00  0.00     0.012 C 
ENDBRANCH   3   5
ENDBRANCH   1   3
BRANCH   1   7
ATOM      7  C   UNL     1      -1.809  12.560  -0.273  1.00  0.00     0.038 C 
BRANCH   7   8
ATOM      8  C   UNL     1      -1.820  11.544   0.839  1.00  0.00    -0.034 C 
ATOM      9  C   UNL     1      -2.589  10.454   0.790  1.00  0.00     0.004 C 
ENDBRANCH   7   8
ENDBRANCH   1   7
TORSDOF 4
ENDMDL
MODEL 5
REMARK VINA RESULT:    -3.449      9.796     10.934
REMARK INTER + INTRA:          -4.473
REMARK INTER:                  -4.188
REMARK INTRA:                  -0.286
REMARK UNBOUND:                -0.218
REMARK SMILES C=CC[C@@H](C)C(=O)CC
REMARK SMILES IDX 4 1 5 2 6 3 7 4 8 5 9 6 3 7 2 8 1 9
REMARK H PARENT
REMARK Flexibility Score: inf
ROOT
ATOM      1  C   UNL     1      -9.050   7.680   5.995  1.00  0.00     0.057 C 
ATOM      2  C   UNL     1      -8.919   9.186   5.742  1.00  0.00     0.016 C 
ENDROOT
BRANCH   1   3
ATOM      3  C   UNL     1      -8.985   7.399   7.484  1.00  0.00     0.135 C 
ATOM      4  O   UNL     1      -9.926   7.707   8.201  1.00  0.00    -0.299 OA
BRANCH   3   5
ATOM      5  C   UNL     1      -7.768   6.760   8.103  1.00  0.00     0.072 C 
ATOM      6  C   UNL     1      -6.636   7.772   8.252  1.00  0.00     0.012 C 
ENDBRANCH   3   5
ENDBRANCH   1   3
BRANCH   1   7
ATOM      7  C   UNL     1     -10.360   7.141   5.383  1.00  0.00     0.038 C 
BRANCH   7   8
ATOM      8  C   UNL     1     -10.197   5.753   4.822  1.00  0.00    -0.034 C 
ATOM      9  C   UNL     1      -9.209   5.447   3.977  1.00  0.00     0.004 C 
ENDBRANCH   7   8
ENDBRANCH   1   7
TORSDOF 4
ENDMDL
MODEL 6
REMARK VINA RESULT:    -3.421      1.648      4.400
REMARK INTER + INTRA:          -4.440
REMARK INTER:                  -4.294
REMARK INTRA:                  -0.146
REMARK UNBOUND:                -0.218
REMARK SMILES C=CC[C@@H](C)C(=O)CC
REMARK SMILES IDX 4 1 5 2 6 3 7 4 8 5 9 6 3 7 2 8 1 9
REMARK H PARENT
REMARK Flexibility Score: inf
ROOT
ATOM      1  C   UNL     1      -1.627  13.562   0.238  1.00  0.00     0.057 C 
ATOM      2  C   UNL     1      -2.125  12.361  -0.574  1.00  0.00     0.016 C 
ENDROOT
BRANCH   1   3
ATOM      3  C   UNL     1      -1.665  14.815  -0.616  1.00  0.00     0.135 C 
ATOM      4  O   UNL     1      -1.282  15.878  -0.151  1.00  0.00    -0.299 OA
BRANCH   3   5
ATOM      5  C   UNL     1      -2.187  14.778  -2.030  1.00  0.00     0.072 C 
ATOM      6  C   UNL     1      -1.507  15.838  -2.891  1.00  0.00     0.012 C 
ENDBRANCH   3   5
ENDBRANCH   1   3
BRANCH   1   7
ATOM      7  C   UNL     1      -2.468  13.735   1.520  1.00  0.00     0.038 C 
BRANCH   7   8
ATOM      8  C   UNL     1      -1.843  13.050   2.707  1.00  0.00    -0.034 C 
ATOM      9  C   UNL     1      -2.424  13.054   3.909  1.00  0.00     0.004 C 
ENDBRANCH   7   8
ENDBRANCH   1   7
TORSDOF 4
ENDMDL
MODEL 7
REMARK VINA RESULT:    -3.347      1.756      4.472
REMARK INTER + INTRA:          -4.348
REMARK INTER:                  -4.169
REMARK INTRA:                  -0.179
REMARK UNBOUND:                -0.218
REMARK SMILES C=CC[C@@H](C)C(=O)CC
REMARK SMILES IDX 4 1 5 2 6 3 7 4 8 5 9 6 3 7 2 8 1 9
REMARK H PARENT
REMARK Flexibility Score: inf
ROOT
ATOM      1  C   UNL     1      -1.752  12.942   2.696  1.00  0.00     0.057 C 
ATOM      2  C   UNL     1      -2.710  14.044   3.161  1.00  0.00     0.016 C 
ENDROOT
BRANCH   1   3
ATOM      3  C   UNL     1      -1.739  12.874   1.181  1.00  0.00     0.135 C 
ATOM      4  O   UNL     1      -0.996  12.084   0.616  1.00  0.00    -0.299 OA
BRANCH   3   5
ATOM      5  C   UNL     1      -2.615  13.779   0.353  1.00  0.00     0.072 C 
ATOM      6  C   UNL     1      -2.050  13.949  -1.053  1.00  0.00     0.012 C 
ENDBRANCH   3   5
ENDBRANCH   1   3
BRANCH   1   7
ATOM      7  C   UNL     1      -0.335  13.185   3.256  1.00  0.00     0.038 C 
BRANCH   7   8
ATOM      8  C   UNL     1      -0.332  13.327   4.756  1.00  0.00    -0.034 C 
ATOM      9  C   UNL     1       0.612  14.021   5.396  1.00  0.00     0.004 C 
ENDBRANCH   7   8
ENDBRANCH   1   7
TORSDOF 4
ENDMDL
MODEL 8
REMARK VINA RESULT:    -3.283      9.985     11.254
REMARK INTER + INTRA:          -4.269
REMARK INTER:                  -3.918
REMARK INTRA:                  -0.351
REMARK UNBOUND:                -0.218
REMARK SMILES C=CC[C@@H](C)C(=O)CC
REMARK SMILES IDX 4 1 5 2 6 3 7 4 8 5 9 6 3 7 2 8 1 9
REMARK H PARENT
REMARK Flexibility Score: inf
ROOT
ATOM      1  C   UNL     1      -9.387   7.770   6.619  1.00  0.00     0.057 C 
ATOM      2  C   UNL     1     -10.298   8.723   5.838  1.00  0.00     0.016 C 
ENDROOT
BRANCH   1   3
ATOM      3  C   UNL     1      -9.669   6.336   6.213  1.00  0.00     0.135 C 
ATOM      4  O   UNL     1      -9.419   5.426   6.991  1.00  0.00    -0.299 OA
BRANCH   3   5
ATOM      5  C   UNL     1     -10.237   6.008   4.856  1.00  0.00     0.072 C 
ATOM      6  C   UNL     1      -9.157   5.458   3.930  1.00  0.00     0.012 C 
ENDBRANCH   3   5
ENDBRANCH   1   3
BRANCH   1   7
ATOM      7  C   UNL     1      -7.904   8.133   6.392  1.00  0.00     0.038 C 
BRANCH   7   8
ATOM      8  C   UNL     1      -7.082   7.975   7.644  1.00  0.00    -0.034 C 
ATOM      9  C   UNL     1      -7.632   8.036   8.860  1.00  0.00     0.004 C 
ENDBRANCH   7   8
ENDBRANCH   1   7
TORSDOF 4
ENDMDL
MODEL 9
REMARK VINA RESULT:    -3.175      1.622      2.839
REMARK INTER + INTRA:          -4.136
REMARK INTER:                  -3.897
REMARK INTRA:                  -0.239
REMARK UNBOUND:                -0.218
REMARK SMILES C=CC[C@@H](C)C(=O)CC
REMARK SMILES IDX 4 1 5 2 6 3 7 4 8 5 9 6 3 7 2 8 1 9
REMARK H PARENT
REMARK Flexibility Score: inf
ROOT
ATOM      1  C   UNL     1      -1.649  13.980   1.976  1.00  0.00     0.057 C 
ATOM      2  C   UNL     1      -1.119  15.411   2.124  1.00  0.00     0.016 C 
ENDROOT
BRANCH   1   3
ATOM      3  C   UNL     1      -2.418  13.583   3.221  1.00  0.00     0.135 C 
ATOM      4  O   UNL     1      -2.303  12.451   3.669  1.00  0.00    -0.299 OA
BRANCH   3   5
ATOM      5  C   UNL     1      -3.341  14.555   3.910  1.00  0.00     0.072 C 
ATOM      6  C   UNL     1      -3.911  13.953   5.191  1.00  0.00     0.012 C 
ENDBRANCH   3   5
ENDBRANCH   1   3
BRANCH   1   7
ATOM      7  C   UNL     1      -2.528  13.857   0.714  1.00  0.00     0.038 C 
BRANCH   7   8
ATOM      8  C   UNL     1      -2.067  12.745  -0.193  1.00  0.00    -0.034 C 
ATOM      9  C   UNL     1      -2.076  11.468   0.197  1.00  0.00     0.004 C 
ENDBRANCH   7   8
ENDBRANCH   1   7
TORSDOF 4
ENDMDL
