MODEL 1
REMARK VINA RESULT:    -2.929      0.000      0.000
REMARK INTER + INTRA:          -7.801
REMARK INTER:                  -5.669
REMARK INTRA:                  -2.132
REMARK UNBOUND:                -2.132
REMARK SMILES CCCCCCCCCCCCCCCCCC(=O)[O-]
REMARK SMILES IDX 10 1 11 2 12 3 13 4 14 5 15 6 16 7 17 8 18 9 19 10 20 11
REMARK SMILES IDX 9 12 8 13 7 14 6 15 5 16 4 17 3 18 2 19 1 20
REMARK H PARENT
REMARK Flexibility Score: inf
ROOT
ATOM      1  C   UNL     1      -8.892   5.932   2.156  1.00  0.00     0.000 C 
ENDROOT
BRANCH   1   2
ATOM      2  C   UNL     1      -8.100   5.132   1.105  1.00  0.00     0.000 C 
BRANCH   2   3
ATOM      3  C   UNL     1      -7.364   6.042   0.105  1.00  0.00     0.000 C 
BRANCH   3   4
ATOM      4  C   UNL     1      -5.849   5.782   0.075  1.00  0.00     0.000 C 
BRANCH   4   5
ATOM      5  C   UNL     1      -5.322   5.154   1.378  1.00  0.00     0.000 C 
BRANCH   5   6
ATOM      6  C   UNL     1      -3.789   5.113   1.511  1.00  0.00     0.000 C 
BRANCH   6   7
ATOM      7  C   UNL     1      -3.317   4.422   2.799  1.00  0.00     0.006 C 
BRANCH   7   8
ATOM      8  C   UNL     1      -3.599   2.918   2.749  1.00  0.00     0.053 C 
BRANCH   8   9
ATOM      9  C   UNL     1      -3.329   2.289   4.080  1.00  0.00     0.041 C 
ATOM     10  O   UNL     1      -3.923   2.706   5.109  1.00  0.00    -0.550 OA
ATOM     11  O   UNL     1      -2.460   1.211   4.176  1.00  0.00    -0.550 OA
ENDBRANCH   8   9
ENDBRANCH   7   8
ENDBRANCH   6   7
ENDBRANCH   5   6
ENDBRANCH   4   5
ENDBRANCH   3   4
ENDBRANCH   2   3
ENDBRANCH   1   2
BRANCH   1  12
ATOM     12  C   UNL     1      -8.923   7.439   1.852  1.00  0.00     0.000 C 
BRANCH  12  13
ATOM     13  C   UNL     1      -8.351   8.287   3.003  1.00  0.00    -0.000 C 
BRANCH  13  14
ATOM     14  C   UNL     1      -6.813   8.312   3.012  1.00  0.00    -0.000 C 
BRANCH  14  15
ATOM     15  C   UNL     1      -6.229   9.157   1.867  1.00  0.00    -0.000 C 
BRANCH  15  16
ATOM     16  C   UNL     1      -4.725   9.430   2.041  1.00  0.00    -0.000 C 
BRANCH  16  17
ATOM     17  C   UNL     1      -4.005   8.303   2.801  1.00  0.00    -0.000 C 
BRANCH  17  18
ATOM     18  C   UNL     1      -3.270   8.811   4.052  1.00  0.00    -0.000 C 
BRANCH  18  19
ATOM     19  C   UNL     1      -3.779   8.159   5.346  1.00  0.00    -0.003 C 
ATOM     20  C   UNL     1      -3.138   8.800   6.574  1.00  0.00     0.004 C 
ENDBRANCH  18  19
ENDBRANCH  17  18
ENDBRANCH  16  17
ENDBRANCH  15  16
ENDBRANCH  14  15
ENDBRANCH  13  14
ENDBRANCH  12  13
ENDBRANCH   1  12
TORSDOF 16
ENDMDL
MODEL 2
REMARK VINA RESULT:    -2.677      7.395     10.330
REMARK INTER + INTRA:          -7.312
REMARK INTER:                  -4.723
REMARK INTRA:                  -2.589
REMARK UNBOUND:                -2.132
REMARK SMILES CCCCCCCCCCCCCCCCCC(=O)[O-]
REMARK SMILES IDX 10 1 11 2 12 3 13 4 14 5 15 6 16 7 17 8 18 9 19 10 20 11
REMARK SMILES IDX 9 12 8 13 7 14 6 15 5 16 4 17 3 18 2 19 1 20
REMARK H PARENT
REMARK Flexibility Score: inf
ROOT
ATOM      1  C   UNL     1       1.299   6.960   9.233  1.00  0.00     0.000 C 
ENDROOT
BRANCH   1   2
ATOM      2  C   UNL     1       2.543   6.097   9.513  1.00  0.00     0.000 C 
BRANCH   2   3
ATOM      3  C   UNL     1       2.192   4.766  10.200  1.00  0.00     0.000 C 
BRANCH   3   4
ATOM      4  C   UNL     1       2.924   3.567   9.574  1.00  0.00     0.000 C 
BRANCH   4   5
ATOM      5  C   UNL     1       2.003   2.355   9.343  1.00  0.00     0.000 C 
BRANCH   5   6
ATOM      6  C   UNL     1       0.705   2.355  10.170  1.00  0.00     0.000 C 
BRANCH   6   7
ATOM      7  C   UNL     1       0.858   1.650  11.526  1.00  0.00     0.006 C 
BRANCH   7   8
ATOM      8  C   UNL     1      -0.123   0.480  11.649  1.00  0.00     0.053 C 
BRANCH   8   9
ATOM      9  C   UNL     1       0.563  -0.815  11.342  1.00  0.00     0.041 C 
ATOM     10  O   UNL     1       0.743  -1.667  12.252  1.00  0.00    -0.550 OA
ATOM     11  O   UNL     1       0.960  -1.101  10.043  1.00  0.00    -0.550 OA
ENDBRANCH   8   9
ENDBRANCH   7   8
ENDBRANCH   6   7
ENDBRANCH   5   6
ENDBRANCH   4   5
ENDBRANCH   3   4
ENDBRANCH   2   3
ENDBRANCH   1   2
BRANCH   1  12
ATOM     12  C   UNL     1      -0.008   6.153   9.297  1.00  0.00     0.000 C 
BRANCH  12  13
ATOM     13  C   UNL     1      -1.166   6.841   8.552  1.00  0.00    -0.000 C 
BRANCH  13  14
ATOM     14  C   UNL     1      -2.357   5.897   8.311  1.00  0.00    -0.000 C 
BRANCH  14  15
ATOM     15  C   UNL     1      -2.184   4.537   9.009  1.00  0.00    -0.000 C 
BRANCH  15  16
ATOM     16  C   UNL     1      -3.078   4.393  10.253  1.00  0.00    -0.000 C 
BRANCH  16  17
ATOM     17  C   UNL     1      -2.324   3.805  11.458  1.00  0.00    -0.000 C 
BRANCH  17  18
ATOM     18  C   UNL     1      -1.957   4.873  12.502  1.00  0.00    -0.000 C 
BRANCH  18  19
ATOM     19  C   UNL     1      -0.459   4.885  12.837  1.00  0.00    -0.003 C 
ATOM     20  C   UNL     1       0.077   6.313  12.905  1.00  0.00     0.004 C 
ENDBRANCH  18  19
ENDBRANCH  17  18
ENDBRANCH  16  17
ENDBRANCH  15  16
ENDBRANCH  14  15
ENDBRANCH  13  14
ENDBRANCH  12  13
ENDBRANCH   1  12
TORSDOF 16
ENDMDL
MODEL 3
REMARK VINA RESULT:    -2.669      7.101     11.271
REMARK INTER + INTRA:          -7.297
REMARK INTER:                  -4.591
REMARK INTRA:                  -2.707
REMARK UNBOUND:                -2.132
REMARK SMILES CCCCCCCCCCCCCCCCCC(=O)[O-]
REMARK SMILES IDX 10 1 11 2 12 3 13 4 14 5 15 6 16 7 17 8 18 9 19 10 20 11
REMARK SMILES IDX 9 12 8 13 7 14 6 15 5 16 4 17 3 18 2 19 1 20
REMARK H PARENT
REMARK Flexibility Score: inf
ROOT
ATOM      1  C   UNL     1       1.110   3.926  12.374  1.00  0.00     0.000 C 
ENDROOT
BRANCH   1   2
ATOM      2  C   UNL     1      -0.041   4.806  11.855  1.00  0.00     0.000 C 
BRANCH   2   3
ATOM      3  C   UNL     1      -1.025   4.025  10.966  1.00  0.00     0.000 C 
BRANCH   3   4
ATOM      4  C   UNL     1      -0.946   4.444   9.489  1.00  0.00     0.000 C 
BRANCH   4   5
ATOM      5  C   UNL     1      -0.258   5.807   9.288  1.00  0.00     0.000 C 
BRANCH   5   6
ATOM      6  C   UNL     1      -1.116   6.874   8.585  1.00  0.00     0.000 C 
BRANCH   6   7
ATOM      7  C   UNL     1      -2.495   6.350   8.159  1.00  0.00     0.006 C 
BRANCH   7   8
ATOM      8  C   UNL     1      -3.616   7.105   8.879  1.00  0.00     0.053 C 
BRANCH   8   9
ATOM      9  C   UNL     1      -4.166   6.281  10.002  1.00  0.00     0.041 C 
ATOM     10  O   UNL     1      -3.670   6.372  11.156  1.00  0.00    -0.550 OA
ATOM     11  O   UNL     1      -5.257   5.451   9.786  1.00  0.00    -0.550 OA
ENDBRANCH   8   9
ENDBRANCH   7   8
ENDBRANCH   6   7
ENDBRANCH   5   6
ENDBRANCH   4   5
ENDBRANCH   3   4
ENDBRANCH   2   3
ENDBRANCH   1   2
BRANCH   1  12
ATOM     12  C   UNL     1       2.488   4.579  12.180  1.00  0.00     0.000 C 
BRANCH  12  13
ATOM     13  C   UNL     1       3.356   3.839  11.147  1.00  0.00    -0.000 C 
BRANCH  13  14
ATOM     14  C   UNL     1       2.923   4.125   9.698  1.00  0.00    -0.000 C 
BRANCH  14  15
ATOM     15  C   UNL     1       2.704   2.838   8.882  1.00  0.00    -0.000 C 
BRANCH  15  16
ATOM     16  C   UNL     1       2.581   1.589   9.771  1.00  0.00    -0.000 C 
BRANCH  16  17
ATOM     17  C   UNL     1       1.122   1.141   9.963  1.00  0.00    -0.000 C 
BRANCH  17  18
ATOM     18  C   UNL     1       0.928   0.291  11.229  1.00  0.00    -0.000 C 
BRANCH  18  19
ATOM     19  C   UNL     1      -0.421   0.552  11.918  1.00  0.00    -0.003 C 
ATOM     20  C   UNL     1      -1.153  -0.756  12.203  1.00  0.00     0.004 C 
ENDBRANCH  18  19
ENDBRANCH  17  18
ENDBRANCH  16  17
ENDBRANCH  15  16
ENDBRANCH  14  15
ENDBRANCH  13  14
ENDBRANCH  12  13
ENDBRANCH   1  12
TORSDOF 16
ENDMDL
MODEL 4
REMARK VINA RESULT:    -2.626      7.695     10.270
REMARK INTER + INTRA:          -7.214
REMARK INTER:                  -4.927
REMARK INTRA:                  -2.287
REMARK UNBOUND:                -2.132
REMARK SMILES CCCCCCCCCCCCCCCCCC(=O)[O-]
REMARK SMILES IDX 10 1 11 2 12 3 13 4 14 5 15 6 16 7 17 8 18 9 19 10 20 11
REMARK SMILES IDX 9 12 8 13 7 14 6 15 5 16 4 17 3 18 2 19 1 20
REMARK H PARENT
REMARK Flexibility Score: inf
ROOT
ATOM      1  C   UNL     1      -1.721   4.649   9.138  1.00  0.00     0.000 C 
ENDROOT
BRANCH   1   2
ATOM      2  C   UNL     1      -3.050   4.721   9.912  1.00  0.00     0.000 C 
BRANCH   2   3
ATOM      3  C   UNL     1      -3.151   5.978  10.793  1.00  0.00     0.000 C 
BRANCH   3   4
ATOM      4  C   UNL     1      -4.109   5.791  11.982  1.00  0.00     0.000 C 
BRANCH   4   5
ATOM      5  C   UNL     1      -3.993   4.400  12.632  1.00  0.00     0.000 C 
BRANCH   5   6
ATOM      6  C   UNL     1      -5.321   3.637  12.782  1.00  0.00     0.000 C 
BRANCH   6   7
ATOM      7  C   UNL     1      -5.553   2.610  11.663  1.00  0.00     0.006 C 
BRANCH   7   8
ATOM      8  C   UNL     1      -6.978   2.711  11.114  1.00  0.00     0.053 C 
BRANCH   8   9
ATOM      9  C   UNL     1      -6.979   3.385   9.777  1.00  0.00     0.041 C 
ATOM     10  O   UNL     1      -6.626   4.589   9.675  1.00  0.00    -0.550 OA
ATOM     11  O   UNL     1      -7.323   2.670   8.638  1.00  0.00    -0.550 OA
ENDBRANCH   8   9
ENDBRANCH   7   8
ENDBRANCH   6   7
ENDBRANCH   5   6
ENDBRANCH   4   5
ENDBRANCH   3   4
ENDBRANCH   2   3
ENDBRANCH   1   2
BRANCH   1  12
ATOM     12  C   UNL     1      -1.122   6.038   8.862  1.00  0.00     0.000 C 
BRANCH  12  13
ATOM     13  C   UNL     1       0.325   6.171   9.368  1.00  0.00    -0.000 C 
BRANCH  13  14
ATOM     14  C   UNL     1       0.752   4.988  10.255  1.00  0.00    -0.000 C 
BRANCH  14  15
ATOM     15  C   UNL     1       1.967   4.233   9.688  1.00  0.00    -0.000 C 
BRANCH  15  16
ATOM     16  C   UNL     1       1.982   2.749  10.093  1.00  0.00    -0.000 C 
BRANCH  16  17
ATOM     17  C   UNL     1       0.580   2.115  10.063  1.00  0.00    -0.000 C 
BRANCH  17  18
ATOM     18  C   UNL     1       0.164   1.540  11.427  1.00  0.00    -0.000 C 
BRANCH  18  19
ATOM     19  C   UNL     1      -1.036   2.277  12.040  1.00  0.00    -0.003 C 
ATOM     20  C   UNL     1      -1.942   1.313  12.800  1.00  0.00     0.004 C 
ENDBRANCH  18  19
ENDBRANCH  17  18
ENDBRANCH  16  17
ENDBRANCH  15  16
ENDBRANCH  14  15
ENDBRANCH  13  14
ENDBRANCH  12  13
ENDBRANCH   1  12
TORSDOF 16
ENDMDL
MODEL 5
REMARK VINA RESULT:    -2.625      7.566     10.697
REMARK INTER + INTRA:          -7.213
REMARK INTER:                  -4.722
REMARK INTRA:                  -2.491
REMARK UNBOUND:                -2.132
REMARK SMILES CCCCCCCCCCCCCCCCCC(=O)[O-]
REMARK SMILES IDX 10 1 11 2 12 3 13 4 14 5 15 6 16 7 17 8 18 9 19 10 20 11
REMARK SMILES IDX 9 12 8 13 7 14 6 15 5 16 4 17 3 18 2 19 1 20
REMARK H PARENT
REMARK Flexibility Score: inf
ROOT
ATOM      1  C   UNL     1       2.841   6.178   9.337  1.00  0.00     0.000 C 
ENDROOT
BRANCH   1   2
ATOM      2  C   UNL     1       1.360   6.261   9.748  1.00  0.00     0.000 C 
BRANCH   2   3
ATOM      3  C   UNL     1       0.598   7.360   8.988  1.00  0.00     0.000 C 
BRANCH   3   4
ATOM      4  C   UNL     1      -0.811   6.916   8.561  1.00  0.00     0.000 C 
BRANCH   4   5
ATOM      5  C   UNL     1      -1.139   5.473   8.987  1.00  0.00     0.000 C 
BRANCH   5   6
ATOM      6  C   UNL     1      -2.606   5.051   8.788  1.00  0.00     0.000 C 
BRANCH   6   7
ATOM      7  C   UNL     1      -3.238   4.463  10.059  1.00  0.00     0.006 C 
BRANCH   7   8
ATOM      8  C   UNL     1      -4.572   5.144  10.373  1.00  0.00     0.053 C 
BRANCH   8   9
ATOM      9  C   UNL     1      -5.659   4.125  10.525  1.00  0.00     0.041 C 
ATOM     10  O   UNL     1      -6.342   3.774   9.528  1.00  0.00    -0.550 OA
ATOM     11  O   UNL     1      -5.884   3.528  11.758  1.00  0.00    -0.550 OA
ENDBRANCH   8   9
ENDBRANCH   7   8
ENDBRANCH   6   7
ENDBRANCH   5   6
ENDBRANCH   4   5
ENDBRANCH   3   4
ENDBRANCH   2   3
ENDBRANCH   1   2
BRANCH   1  12
ATOM     12  C   UNL     1       3.511   4.873   9.797  1.00  0.00     0.000 C 
BRANCH  12  13
ATOM     13  C   UNL     1       3.713   3.872   8.645  1.00  0.00    -0.000 C 
BRANCH  13  14
ATOM     14  C   UNL     1       2.903   2.579   8.836  1.00  0.00    -0.000 C 
BRANCH  14  15
ATOM     15  C   UNL     1       2.223   2.505  10.215  1.00  0.00    -0.000 C 
BRANCH  15  16
ATOM     16  C   UNL     1       0.690   2.425  10.113  1.00  0.00    -0.000 C 
BRANCH  16  17
ATOM     17  C   UNL     1      -0.015   2.976  11.365  1.00  0.00    -0.000 C 
BRANCH  17  18
ATOM     18  C   UNL     1       0.975   3.389  12.465  1.00  0.00    -0.000 C 
BRANCH  18  19
ATOM     19  C   UNL     1       0.711   4.804  13.001  1.00  0.00    -0.003 C 
ATOM     20  C   UNL     1      -0.721   5.244  12.705  1.00  0.00     0.004 C 
ENDBRANCH  18  19
ENDBRANCH  17  18
ENDBRANCH  16  17
ENDBRANCH  15  16
ENDBRANCH  14  15
ENDBRANCH  13  14
ENDBRANCH  12  13
ENDBRANCH   1  12
TORSDOF 16
ENDMDL
MODEL 6
REMARK VINA RESULT:    -2.621      8.245     12.377
REMARK INTER + INTRA:          -7.204
REMARK INTER:                  -4.991
REMARK INTRA:                  -2.213
REMARK UNBOUND:                -2.132
REMARK SMILES CCCCCCCCCCCCCCCCCC(=O)[O-]
REMARK SMILES IDX 10 1 11 2 12 3 13 4 14 5 15 6 16 7 17 8 18 9 19 10 20 11
REMARK SMILES IDX 9 12 8 13 7 14 6 15 5 16 4 17 3 18 2 19 1 20
REMARK H PARENT
REMARK Flexibility Score: inf
ROOT
ATOM      1  C   UNL     1      -6.254  -3.467  10.628  1.00  0.00     0.000 C 
ENDROOT
BRANCH   1   2
ATOM      2  C   UNL     1      -7.006  -3.890   9.353  1.00  0.00     0.000 C 
BRANCH   2   3
ATOM      3  C   UNL     1      -6.846  -2.872   8.211  1.00  0.00     0.000 C 
BRANCH   3   4
ATOM      4  C   UNL     1      -8.183  -2.230   7.801  1.00  0.00     0.000 C 
BRANCH   4   5
ATOM      5  C   UNL     1      -8.260  -0.733   8.151  1.00  0.00     0.000 C 
BRANCH   5   6
ATOM      6  C   UNL     1      -8.704  -0.420   9.591  1.00  0.00     0.000 C 
BRANCH   6   7
ATOM      7  C   UNL     1      -8.174   0.927  10.103  1.00  0.00     0.006 C 
BRANCH   7   8
ATOM      8  C   UNL     1      -9.079   2.079   9.655  1.00  0.00     0.053 C 
BRANCH   8   9
ATOM      9  C   UNL     1      -8.288   3.108   8.909  1.00  0.00     0.041 C 
ATOM     10  O   UNL     1      -7.033   3.021   8.849  1.00  0.00    -0.550 OA
ATOM     11  O   UNL     1      -8.940   4.136   8.240  1.00  0.00    -0.550 OA
ENDBRANCH   8   9
ENDBRANCH   7   8
ENDBRANCH   6   7
ENDBRANCH   5   6
ENDBRANCH   4   5
ENDBRANCH   3   4
ENDBRANCH   2   3
ENDBRANCH   1   2
BRANCH   1  12
ATOM     12  C   UNL     1      -5.373  -2.226  10.410  1.00  0.00     0.000 C 
BRANCH  12  13
ATOM     13  C   UNL     1      -3.898  -2.475  10.774  1.00  0.00    -0.000 C 
BRANCH  13  14
ATOM     14  C   UNL     1      -3.503  -3.957  10.661  1.00  0.00    -0.000 C 
BRANCH  14  15
ATOM     15  C   UNL     1      -2.264  -4.173   9.775  1.00  0.00    -0.000 C 
BRANCH  15  16
ATOM     16  C   UNL     1      -2.482  -5.262   8.710  1.00  0.00    -0.000 C 
BRANCH  16  17
ATOM     17  C   UNL     1      -3.879  -5.901   8.795  1.00  0.00    -0.000 C 
BRANCH  17  18
ATOM     18  C   UNL     1      -4.556  -6.024   7.420  1.00  0.00    -0.000 C 
BRANCH  18  19
ATOM     19  C   UNL     1      -4.319  -4.795   6.530  1.00  0.00    -0.003 C 
ATOM     20  C   UNL     1      -3.755  -5.201   5.171  1.00  0.00     0.004 C 
ENDBRANCH  18  19
ENDBRANCH  17  18
ENDBRANCH  16  17
ENDBRANCH  15  16
ENDBRANCH  14  15
ENDBRANCH  13  14
ENDBRANCH  12  13
ENDBRANCH   1  12
TORSDOF 16
ENDMDL
MODEL 7
REMARK VINA RESULT:    -2.607      7.114     11.033
REMARK INTER + INTRA:          -7.178
REMARK INTER:                  -4.824
REMARK INTRA:                  -2.354
REMARK UNBOUND:                -2.132
REMARK SMILES CCCCCCCCCCCCCCCCCC(=O)[O-]
REMARK SMILES IDX 10 1 11 2 12 3 13 4 14 5 15 6 16 7 17 8 18 9 19 10 20 11
REMARK SMILES IDX 9 12 8 13 7 14 6 15 5 16 4 17 3 18 2 19 1 20
REMARK H PARENT
REMARK Flexibility Score: inf
ROOT
ATOM      1  C   UNL     1      -0.068   1.485  13.141  1.00  0.00     0.000 C 
ENDROOT
BRANCH   1   2
ATOM      2  C   UNL     1      -0.626   2.912  12.987  1.00  0.00     0.000 C 
BRANCH   2   3
ATOM      3  C   UNL     1      -1.937   2.946  12.182  1.00  0.00     0.000 C 
BRANCH   3   4
ATOM      4  C   UNL     1      -2.037   4.181  11.270  1.00  0.00     0.000 C 
BRANCH   4   5
ATOM      5  C   UNL     1      -1.312   3.994   9.926  1.00  0.00     0.000 C 
BRANCH   5   6
ATOM      6  C   UNL     1      -1.048   5.291   9.140  1.00  0.00     0.000 C 
BRANCH   6   7
ATOM      7  C   UNL     1      -2.299   5.823   8.424  1.00  0.00     0.006 C 
BRANCH   7   8
ATOM      8  C   UNL     1      -2.091   7.267   7.958  1.00  0.00     0.053 C 
BRANCH   8   9
ATOM      9  C   UNL     1      -3.282   7.745   7.187  1.00  0.00     0.041 C 
ATOM     10  O   UNL     1      -3.845   6.986   6.356  1.00  0.00    -0.550 OA
ATOM     11  O   UNL     1      -3.799   9.012   7.422  1.00  0.00    -0.550 OA
ENDBRANCH   8   9
ENDBRANCH   7   8
ENDBRANCH   6   7
ENDBRANCH   5   6
ENDBRANCH   4   5
ENDBRANCH   3   4
ENDBRANCH   2   3
ENDBRANCH   1   2
BRANCH   1  12
ATOM     12  C   UNL     1      -0.482   0.560  11.985  1.00  0.00     0.000 C 
BRANCH  12  13
ATOM     13  C   UNL     1       0.624  -0.441  11.601  1.00  0.00    -0.000 C 
BRANCH  13  14
ATOM     14  C   UNL     1       1.687   0.179  10.678  1.00  0.00    -0.000 C 
BRANCH  14  15
ATOM     15  C   UNL     1       1.099   1.233   9.724  1.00  0.00    -0.000 C 
BRANCH  15  16
ATOM     16  C   UNL     1       2.034   2.439   9.529  1.00  0.00    -0.000 C 
BRANCH  16  17
ATOM     17  C   UNL     1       2.416   3.112  10.859  1.00  0.00    -0.000 C 
BRANCH  17  18
ATOM     18  C   UNL     1       2.189   4.632  10.837  1.00  0.00    -0.000 C 
BRANCH  18  19
ATOM     19  C   UNL     1       2.796   5.306   9.598  1.00  0.00    -0.003 C 
ATOM     20  C   UNL     1       2.250   6.720   9.418  1.00  0.00     0.004 C 
ENDBRANCH  18  19
ENDBRANCH  17  18
ENDBRANCH  16  17
ENDBRANCH  15  16
ENDBRANCH  14  15
ENDBRANCH  13  14
ENDBRANCH  12  13
ENDBRANCH   1  12
TORSDOF 16
ENDMDL
MODEL 8
REMARK VINA RESULT:    -2.586      6.271     10.240
REMARK INTER + INTRA:          -7.136
REMARK INTER:                  -5.080
REMARK INTRA:                  -2.056
REMARK UNBOUND:                -2.132
REMARK SMILES CCCCCCCCCCCCCCCCCC(=O)[O-]
REMARK SMILES IDX 10 1 11 2 12 3 13 4 14 5 15 6 16 7 17 8 18 9 19 10 20 11
REMARK SMILES IDX 9 12 8 13 7 14 6 15 5 16 4 17 3 18 2 19 1 20
REMARK H PARENT
REMARK Flexibility Score: inf
ROOT
ATOM      1  C   UNL     1       0.029   2.169  11.077  1.00  0.00     0.000 C 
ENDROOT
BRANCH   1   2
ATOM      2  C   UNL     1      -0.254   3.682  11.063  1.00  0.00     0.000 C 
BRANCH   2   3
ATOM      3  C   UNL     1      -0.861   4.155   9.730  1.00  0.00     0.000 C 
BRANCH   3   4
ATOM      4  C   UNL     1      -2.392   4.286   9.792  1.00  0.00     0.000 C 
BRANCH   4   5
ATOM      5  C   UNL     1      -2.895   5.666   9.331  1.00  0.00     0.000 C 
BRANCH   5   6
ATOM      6  C   UNL     1      -2.160   6.256   8.115  1.00  0.00     0.000 C 
BRANCH   6   7
ATOM      7  C   UNL     1      -2.009   7.783   8.188  1.00  0.00     0.006 C 
BRANCH   7   8
ATOM      8  C   UNL     1      -2.508   8.445   6.900  1.00  0.00     0.053 C 
BRANCH   8   9
ATOM      9  C   UNL     1      -3.883   7.962   6.560  1.00  0.00     0.041 C 
ATOM     10  O   UNL     1      -4.073   7.270   5.525  1.00  0.00    -0.550 OA
ATOM     11  O   UNL     1      -4.946   8.233   7.411  1.00  0.00    -0.550 OA
ENDBRANCH   8   9
ENDBRANCH   7   8
ENDBRANCH   6   7
ENDBRANCH   5   6
ENDBRANCH   4   5
ENDBRANCH   3   4
ENDBRANCH   2   3
ENDBRANCH   1   2
BRANCH   1  12
ATOM     12  C   UNL     1       0.895   1.718   9.890  1.00  0.00     0.000 C 
BRANCH  12  13
ATOM     13  C   UNL     1       2.206   1.045  10.335  1.00  0.00    -0.000 C 
BRANCH  13  14
ATOM     14  C   UNL     1       3.433   1.583   9.579  1.00  0.00    -0.000 C 
BRANCH  14  15
ATOM     15  C   UNL     1       3.068   2.681   8.564  1.00  0.00    -0.000 C 
BRANCH  15  16
ATOM     16  C   UNL     1       3.725   4.032   8.894  1.00  0.00    -0.000 C 
BRANCH  16  17
ATOM     17  C   UNL     1       2.804   4.953   9.713  1.00  0.00    -0.000 C 
BRANCH  17  18
ATOM     18  C   UNL     1       2.842   6.410   9.224  1.00  0.00    -0.000 C 
BRANCH  18  19
ATOM     19  C   UNL     1       1.458   7.077   9.236  1.00  0.00    -0.003 C 
ATOM     20  C   UNL     1       0.930   7.221  10.660  1.00  0.00     0.004 C 
ENDBRANCH  18  19
ENDBRANCH  17  18
ENDBRANCH  16  17
ENDBRANCH  15  16
ENDBRANCH  14  15
ENDBRANCH  13  14
ENDBRANCH  12  13
ENDBRANCH   1  12
TORSDOF 16
ENDMDL
MODEL 9
REMARK VINA RESULT:    -2.552      7.510      9.993
REMARK INTER + INTRA:          -7.071
REMARK INTER:                  -4.015
REMARK INTRA:                  -3.056
REMARK UNBOUND:                -2.132
REMARK SMILES CCCCCCCCCCCCCCCCCC(=O)[O-]
REMARK SMILES IDX 10 1 11 2 12 3 13 4 14 5 15 6 16 7 17 8 18 9 19 10 20 11
REMARK SMILES IDX 9 12 8 13 7 14 6 15 5 16 4 17 3 18 2 19 1 20
REMARK H PARENT
REMARK Flexibility Score: inf
ROOT
ATOM      1  C   UNL     1      -2.336   4.748  13.249  1.00  0.00     0.000 C 
ENDROOT
BRANCH   1   2
ATOM      2  C   UNL     1      -1.601   3.497  12.733  1.00  0.00     0.000 C 
BRANCH   2   3
ATOM      3  C   UNL     1      -2.538   2.286  12.582  1.00  0.00     0.000 C 
BRANCH   3   4
ATOM      4  C   UNL     1      -4.020   2.661  12.750  1.00  0.00     0.000 C 
BRANCH   4   5
ATOM      5  C   UNL     1      -4.977   1.580  12.214  1.00  0.00     0.000 C 
BRANCH   5   6
ATOM      6  C   UNL     1      -6.442   2.023  12.058  1.00  0.00     0.000 C 
BRANCH   6   7
ATOM      7  C   UNL     1      -6.583   3.417  11.428  1.00  0.00     0.006 C 
BRANCH   7   8
ATOM      8  C   UNL     1      -6.770   3.317   9.912  1.00  0.00     0.053 C 
BRANCH   8   9
ATOM      9  C   UNL     1      -8.132   3.797   9.519  1.00  0.00     0.041 C 
ATOM     10  O   UNL     1      -8.296   4.419   8.436  1.00  0.00    -0.550 OA
ATOM     11  O   UNL     1      -9.228   3.515  10.324  1.00  0.00    -0.550 OA
ENDBRANCH   8   9
ENDBRANCH   7   8
ENDBRANCH   6   7
ENDBRANCH   5   6
ENDBRANCH   4   5
ENDBRANCH   3   4
ENDBRANCH   2   3
ENDBRANCH   1   2
BRANCH   1  12
ATOM     12  C   UNL     1      -1.712   6.055  12.732  1.00  0.00     0.000 C 
BRANCH  12  13
ATOM     13  C   UNL     1      -2.744   6.982  12.066  1.00  0.00    -0.000 C 
BRANCH  13  14
ATOM     14  C   UNL     1      -3.950   6.213  11.499  1.00  0.00    -0.000 C 
BRANCH  14  15
ATOM     15  C   UNL     1      -3.848   5.993   9.979  1.00  0.00    -0.000 C 
BRANCH  15  16
ATOM     16  C   UNL     1      -3.355   4.581   9.619  1.00  0.00    -0.000 C 
BRANCH  16  17
ATOM     17  C   UNL     1      -1.906   4.574   9.102  1.00  0.00    -0.000 C 
BRANCH  17  18
ATOM     18  C   UNL     1      -1.409   5.979   8.723  1.00  0.00    -0.000 C 
BRANCH  18  19
ATOM     19  C   UNL     1       0.001   6.273   9.254  1.00  0.00    -0.003 C 
ATOM     20  C   UNL     1       0.636   5.019   9.851  1.00  0.00     0.004 C 
ENDBRANCH  18  19
ENDBRANCH  17  18
ENDBRANCH  16  17
ENDBRANCH  15  16
ENDBRANCH  14  15
ENDBRANCH  13  14
ENDBRANCH  12  13
ENDBRANCH   1  12
TORSDOF 16
ENDMDL
