MODEL 1
REMARK VINA RESULT:    -3.305      0.000      0.000
REMARK INTER + INTRA:          -5.943
REMARK INTER:                  -5.237
REMARK INTRA:                  -0.706
REMARK UNBOUND:                -0.706
REMARK SMILES CCCCCCCCCCCC(=O)[O-]
REMARK SMILES IDX 7 1 8 2 9 3 10 4 11 5 12 6 13 7 14 8 6 9 5 10 4 11 3 12 2 13
REMARK SMILES IDX 1 14
REMARK H PARENT
REMARK Flexibility Score: inf
ROOT
ATOM      1  C   UNL     1      15.830  -7.423   6.519  1.00  0.00     0.000 C 
ENDROOT
BRANCH   1   2
ATOM      2  C   UNL     1      16.149  -6.267   5.553  1.00  0.00     0.000 C 
BRANCH   2   3
ATOM      3  C   UNL     1      17.375  -6.548   4.666  1.00  0.00     0.000 C 
BRANCH   3   4
ATOM      4  C   UNL     1      18.382  -7.502   5.341  1.00  0.00     0.006 C 
BRANCH   4   5
ATOM      5  C   UNL     1      19.429  -6.779   6.204  1.00  0.00     0.053 C 
BRANCH   5   6
ATOM      6  C   UNL     1      19.320  -7.141   7.652  1.00  0.00     0.041 C 
ATOM      7  O   UNL     1      18.710  -6.383   8.451  1.00  0.00    -0.550 OA
ATOM      8  O   UNL     1      19.869  -8.331   8.115  1.00  0.00    -0.550 OA
ENDBRANCH   5   6
ENDBRANCH   4   5
ENDBRANCH   3   4
ENDBRANCH   2   3
ENDBRANCH   1   2
BRANCH   1   9
ATOM      9  C   UNL     1      14.365  -7.898   6.506  1.00  0.00     0.000 C 
BRANCH   9  10
ATOM     10  C   UNL     1      13.889  -8.331   5.112  1.00  0.00    -0.000 C 
BRANCH  10  11
ATOM     11  C   UNL     1      12.688  -7.489   4.657  1.00  0.00    -0.000 C 
BRANCH  11  12
ATOM     12  C   UNL     1      11.698  -7.203   5.798  1.00  0.00    -0.000 C 
BRANCH  12  13
ATOM     13  C   UNL     1      10.239  -7.462   5.394  1.00  0.00    -0.003 C 
ATOM     14  C   UNL     1       9.564  -6.177   4.921  1.00  0.00     0.004 C 
ENDBRANCH  12  13
ENDBRANCH  11  12
ENDBRANCH  10  11
ENDBRANCH   9  10
ENDBRANCH   1   9
TORSDOF 10
ENDMDL
MODEL 2
REMARK VINA RESULT:    -3.223      3.935      7.285
REMARK INTER + INTRA:          -5.813
REMARK INTER:                  -5.064
REMARK INTRA:                  -0.749
REMARK UNBOUND:                -0.706
REMARK SMILES CCCCCCCCCCCC(=O)[O-]
REMARK SMILES IDX 7 1 8 2 9 3 10 4 11 5 12 6 13 7 14 8 6 9 5 10 4 11 3 12 2 13
REMARK SMILES IDX 1 14
REMARK H PARENT
REMARK Flexibility Score: inf
ROOT
ATOM      1  C   UNL     1      15.756  -7.476   6.368  1.00  0.00     0.000 C 
ENDROOT
BRANCH   1   2
ATOM      2  C   UNL     1      14.303  -7.809   5.983  1.00  0.00     0.000 C 
BRANCH   2   3
ATOM      3  C   UNL     1      13.889  -7.208   4.628  1.00  0.00     0.000 C 
BRANCH   3   4
ATOM      4  C   UNL     1      12.358  -7.116   4.470  1.00  0.00     0.006 C 
BRANCH   4   5
ATOM      5  C   UNL     1      11.598  -7.162   5.806  1.00  0.00     0.053 C 
BRANCH   5   6
ATOM      6  C   UNL     1      10.114  -7.109   5.619  1.00  0.00     0.041 C 
ATOM      7  O   UNL     1       9.399  -8.093   5.942  1.00  0.00    -0.550 OA
ATOM      8  O   UNL     1       9.517  -5.960   5.114  1.00  0.00    -0.550 OA
ENDBRANCH   5   6
ENDBRANCH   4   5
ENDBRANCH   3   4
ENDBRANCH   2   3
ENDBRANCH   1   2
BRANCH   1   9
ATOM      9  C   UNL     1      16.422  -6.382   5.513  1.00  0.00     0.000 C 
BRANCH   9  10
ATOM     10  C   UNL     1      17.606  -6.906   4.687  1.00  0.00    -0.000 C 
BRANCH  10  11
ATOM     11  C   UNL     1      18.942  -6.553   5.360  1.00  0.00    -0.000 C 
BRANCH  11  12
ATOM     12  C   UNL     1      19.674  -7.790   5.907  1.00  0.00    -0.000 C 
BRANCH  12  13
ATOM     13  C   UNL     1      19.453  -7.991   7.413  1.00  0.00    -0.003 C 
ATOM     14  C   UNL     1      19.122  -6.670   8.101  1.00  0.00     0.004 C 
ENDBRANCH  12  13
ENDBRANCH  11  12
ENDBRANCH  10  11
ENDBRANCH   9  10
ENDBRANCH   1   9
TORSDOF 10
ENDMDL
MODEL 3
REMARK VINA RESULT:    -3.073      2.676      4.905
REMARK INTER + INTRA:          -5.576
REMARK INTER:                  -5.132
REMARK INTRA:                  -0.445
REMARK UNBOUND:                -0.706
REMARK SMILES CCCCCCCCCCCC(=O)[O-]
REMARK SMILES IDX 7 1 8 2 9 3 10 4 11 5 12 6 13 7 14 8 6 9 5 10 4 11 3 12 2 13
REMARK SMILES IDX 1 14
REMARK H PARENT
REMARK Flexibility Score: inf
ROOT
ATOM      1  C   UNL     1      10.464  -6.340   4.994  1.00  0.00     0.000 C 
ENDROOT
BRANCH   1   2
ATOM      2  C   UNL     1      11.303  -7.287   5.871  1.00  0.00     0.000 C 
BRANCH   2   3
ATOM      3  C   UNL     1      12.725  -7.506   5.326  1.00  0.00     0.000 C 
BRANCH   3   4
ATOM      4  C   UNL     1      13.748  -7.784   6.447  1.00  0.00     0.006 C 
BRANCH   4   5
ATOM      5  C   UNL     1      15.183  -7.985   5.935  1.00  0.00     0.053 C 
BRANCH   5   6
ATOM      6  C   UNL     1      16.045  -6.785   6.173  1.00  0.00     0.041 C 
ATOM      7  O   UNL     1      16.389  -6.050   5.211  1.00  0.00    -0.550 OA
ATOM      8  O   UNL     1      16.446  -6.462   7.464  1.00  0.00    -0.550 OA
ENDBRANCH   5   6
ENDBRANCH   4   5
ENDBRANCH   3   4
ENDBRANCH   2   3
ENDBRANCH   1   2
BRANCH   1   9
ATOM      9  C   UNL     1       9.082  -6.885   4.585  1.00  0.00     0.000 C 
BRANCH   9  10
ATOM     10  C   UNL     1       8.806  -8.291   5.137  1.00  0.00    -0.000 C 
BRANCH  10  11
ATOM     11  C   UNL     1       7.340  -8.429   5.575  1.00  0.00    -0.000 C 
BRANCH  11  12
ATOM     12  C   UNL     1       7.119  -9.600   6.547  1.00  0.00    -0.000 C 
BRANCH  12  13
ATOM     13  C   UNL     1       7.810  -9.382   7.901  1.00  0.00    -0.003 C 
ATOM     14  C   UNL     1       6.977  -9.959   9.042  1.00  0.00     0.004 C 
ENDBRANCH  12  13
ENDBRANCH  11  12
ENDBRANCH  10  11
ENDBRANCH   9  10
ENDBRANCH   1   9
TORSDOF 10
ENDMDL
MODEL 4
REMARK VINA RESULT:    -3.027      1.436      2.503
REMARK INTER + INTRA:          -5.503
REMARK INTER:                  -5.144
REMARK INTRA:                  -0.358
REMARK UNBOUND:                -0.706
REMARK SMILES CCCCCCCCCCCC(=O)[O-]
REMARK SMILES IDX 7 1 8 2 9 3 10 4 11 5 12 6 13 7 14 8 6 9 5 10 4 11 3 12 2 13
REMARK SMILES IDX 1 14
REMARK H PARENT
REMARK Flexibility Score: inf
ROOT
ATOM      1  C   UNL     1      13.698  -7.520   5.478  1.00  0.00     0.000 C 
ENDROOT
BRANCH   1   2
ATOM      2  C   UNL     1      14.681  -7.889   6.604  1.00  0.00     0.000 C 
BRANCH   2   3
ATOM      3  C   UNL     1      16.121  -8.088   6.101  1.00  0.00     0.000 C 
BRANCH   3   4
ATOM      4  C   UNL     1      16.898  -6.758   6.004  1.00  0.00     0.006 C 
BRANCH   4   5
ATOM      5  C   UNL     1      18.422  -6.940   5.934  1.00  0.00     0.053 C 
BRANCH   5   6
ATOM      6  C   UNL     1      19.020  -7.250   7.271  1.00  0.00     0.041 C 
ATOM      7  O   UNL     1      19.671  -8.314   7.444  1.00  0.00    -0.550 OA
ATOM      8  O   UNL     1      18.882  -6.349   8.320  1.00  0.00    -0.550 OA
ENDBRANCH   5   6
ENDBRANCH   4   5
ENDBRANCH   3   4
ENDBRANCH   2   3
ENDBRANCH   1   2
BRANCH   1   9
ATOM      9  C   UNL     1      12.221  -7.431   5.905  1.00  0.00     0.000 C 
BRANCH   9  10
ATOM     10  C   UNL     1      11.286  -7.044   4.750  1.00  0.00    -0.000 C 
BRANCH  10  11
ATOM     11  C   UNL     1       9.814  -7.209   5.158  1.00  0.00    -0.000 C 
BRANCH  11  12
ATOM     12  C   UNL     1       9.642  -8.071   6.419  1.00  0.00    -0.000 C 
BRANCH  12  13
ATOM     13  C   UNL     1       8.409  -8.984   6.349  1.00  0.00    -0.003 C 
ATOM     14  C   UNL     1       7.914  -9.348   7.746  1.00  0.00     0.004 C 
ENDBRANCH  12  13
ENDBRANCH  11  12
ENDBRANCH  10  11
ENDBRANCH   9  10
ENDBRANCH   1   9
TORSDOF 10
ENDMDL
MODEL 5
REMARK VINA RESULT:    -3.010      3.957      7.584
REMARK INTER + INTRA:          -5.476
REMARK INTER:                  -5.083
REMARK INTRA:                  -0.393
REMARK UNBOUND:                -0.706
REMARK SMILES CCCCCCCCCCCC(=O)[O-]
REMARK SMILES IDX 7 1 8 2 9 3 10 4 11 5 12 6 13 7 14 8 6 9 5 10 4 11 3 12 2 13
REMARK SMILES IDX 1 14
REMARK H PARENT
REMARK Flexibility Score: inf
ROOT
ATOM      1  C   UNL     1      15.683  -7.233   6.659  1.00  0.00     0.000 C 
ENDROOT
BRANCH   1   2
ATOM      2  C   UNL     1      14.277  -7.791   6.371  1.00  0.00     0.000 C 
BRANCH   2   3
ATOM      3  C   UNL     1      13.932  -7.801   4.871  1.00  0.00     0.000 C 
BRANCH   3   4
ATOM      4  C   UNL     1      12.415  -7.680   4.617  1.00  0.00     0.006 C 
BRANCH   4   5
ATOM      5  C   UNL     1      11.633  -7.125   5.818  1.00  0.00     0.053 C 
BRANCH   5   6
ATOM      6  C   UNL     1      10.155  -7.124   5.583  1.00  0.00     0.041 C 
ATOM      7  O   UNL     1       9.608  -6.156   4.992  1.00  0.00    -0.550 OA
ATOM      8  O   UNL     1       9.385  -8.207   5.991  1.00  0.00    -0.550 OA
ENDBRANCH   5   6
ENDBRANCH   4   5
ENDBRANCH   3   4
ENDBRANCH   2   3
ENDBRANCH   1   2
BRANCH   1   9
ATOM      9  C   UNL     1      16.368  -6.544   5.464  1.00  0.00     0.000 C 
BRANCH   9  10
ATOM     10  C   UNL     1      17.583  -7.324   4.940  1.00  0.00    -0.000 C 
BRANCH  10  11
ATOM     11  C   UNL     1      18.890  -6.737   5.492  1.00  0.00    -0.000 C 
BRANCH  11  12
ATOM     12  C   UNL     1      19.746  -6.069   4.404  1.00  0.00    -0.000 C 
BRANCH  12  13
ATOM     13  C   UNL     1      20.937  -5.291   4.982  1.00  0.00    -0.003 C 
ATOM     14  C   UNL     1      21.249  -4.059   4.138  1.00  0.00     0.004 C 
ENDBRANCH  12  13
ENDBRANCH  11  12
ENDBRANCH  10  11
ENDBRANCH   9  10
ENDBRANCH   1   9
TORSDOF 10
ENDMDL
MODEL 6
REMARK VINA RESULT:    -2.920      2.176      3.561
REMARK INTER + INTRA:          -5.334
REMARK INTER:                  -4.833
REMARK INTRA:                  -0.501
REMARK UNBOUND:                -0.706
REMARK SMILES CCCCCCCCCCCC(=O)[O-]
REMARK SMILES IDX 7 1 8 2 9 3 10 4 11 5 12 6 13 7 14 8 6 9 5 10 4 11 3 12 2 13
REMARK SMILES IDX 1 14
REMARK H PARENT
REMARK Flexibility Score: inf
ROOT
ATOM      1  C   UNL     1      12.008  -7.802   4.577  1.00  0.00     0.000 C 
ENDROOT
BRANCH   1   2
ATOM      2  C   UNL     1      13.441  -8.348   4.721  1.00  0.00     0.000 C 
BRANCH   2   3
ATOM      3  C   UNL     1      14.458  -7.264   5.118  1.00  0.00     0.000 C 
BRANCH   3   4
ATOM      4  C   UNL     1      15.251  -7.640   6.387  1.00  0.00     0.006 C 
BRANCH   4   5
ATOM      5  C   UNL     1      16.325  -6.609   6.768  1.00  0.00     0.053 C 
BRANCH   5   6
ATOM      6  C   UNL     1      17.713  -7.132   6.570  1.00  0.00     0.041 C 
ATOM      7  O   UNL     1      18.614  -6.873   7.410  1.00  0.00    -0.550 OA
ATOM      8  O   UNL     1      18.005  -7.931   5.471  1.00  0.00    -0.550 OA
ENDBRANCH   5   6
ENDBRANCH   4   5
ENDBRANCH   3   4
ENDBRANCH   2   3
ENDBRANCH   1   2
BRANCH   1   9
ATOM      9  C   UNL     1      11.318  -7.426   5.902  1.00  0.00     0.000 C 
BRANCH   9  10
ATOM     10  C   UNL     1       9.802  -7.668   5.877  1.00  0.00    -0.000 C 
BRANCH  10  11
ATOM     11  C   UNL     1       9.480  -9.065   5.324  1.00  0.00    -0.000 C 
BRANCH  11  12
ATOM     12  C   UNL     1       8.574  -9.879   6.262  1.00  0.00    -0.000 C 
BRANCH  12  13
ATOM     13  C   UNL     1       8.481  -9.272   7.669  1.00  0.00    -0.003 C 
ATOM     14  C   UNL     1       7.335  -9.895   8.462  1.00  0.00     0.004 C 
ENDBRANCH  12  13
ENDBRANCH  11  12
ENDBRANCH  10  11
ENDBRANCH   9  10
ENDBRANCH   1   9
TORSDOF 10
ENDMDL
MODEL 7
REMARK VINA RESULT:    -2.886      4.381      7.797
REMARK INTER + INTRA:          -5.280
REMARK INTER:                  -4.815
REMARK INTRA:                  -0.465
REMARK UNBOUND:                -0.706
REMARK SMILES CCCCCCCCCCCC(=O)[O-]
REMARK SMILES IDX 7 1 8 2 9 3 10 4 11 5 12 6 13 7 14 8 6 9 5 10 4 11 3 12 2 13
REMARK SMILES IDX 1 14
REMARK H PARENT
REMARK Flexibility Score: inf
ROOT
ATOM      1  C   UNL     1      13.871  -8.342   4.365  1.00  0.00     0.000 C 
ENDROOT
BRANCH   1   2
ATOM      2  C   UNL     1      12.337  -8.336   4.499  1.00  0.00     0.000 C 
BRANCH   2   3
ATOM      3  C   UNL     1      11.808  -7.120   5.281  1.00  0.00     0.000 C 
BRANCH   3   4
ATOM      4  C   UNL     1      10.556  -7.460   6.117  1.00  0.00     0.006 C 
BRANCH   4   5
ATOM      5  C   UNL     1       9.661  -8.531   5.475  1.00  0.00     0.053 C 
BRANCH   5   6
ATOM      6  C   UNL     1       8.470  -8.858   6.321  1.00  0.00     0.041 C 
ATOM      7  O   UNL     1       7.307  -8.714   5.861  1.00  0.00    -0.550 OA
ATOM      8  O   UNL     1       8.645  -9.350   7.609  1.00  0.00    -0.550 OA
ENDBRANCH   5   6
ENDBRANCH   4   5
ENDBRANCH   3   4
ENDBRANCH   2   3
ENDBRANCH   1   2
BRANCH   1   9
ATOM      9  C   UNL     1      14.594  -7.206   5.112  1.00  0.00     0.000 C 
BRANCH   9  10
ATOM     10  C   UNL     1      15.330  -7.691   6.371  1.00  0.00    -0.000 C 
BRANCH  10  11
ATOM     11  C   UNL     1      16.443  -6.709   6.766  1.00  0.00    -0.000 C 
BRANCH  11  12
ATOM     12  C   UNL     1      17.778  -7.014   6.067  1.00  0.00    -0.000 C 
BRANCH  12  13
ATOM     13  C   UNL     1      18.918  -7.285   7.060  1.00  0.00    -0.003 C 
ATOM     14  C   UNL     1      18.789  -6.403   8.299  1.00  0.00     0.004 C 
ENDBRANCH  12  13
ENDBRANCH  11  12
ENDBRANCH  10  11
ENDBRANCH   9  10
ENDBRANCH   1   9
TORSDOF 10
ENDMDL
MODEL 8
REMARK VINA RESULT:    -2.706      4.834      8.584
REMARK INTER + INTRA:          -4.994
REMARK INTER:                  -4.546
REMARK INTRA:                  -0.448
REMARK UNBOUND:                -0.706
REMARK SMILES CCCCCCCCCCCC(=O)[O-]
REMARK SMILES IDX 7 1 8 2 9 3 10 4 11 5 12 6 13 7 14 8 6 9 5 10 4 11 3 12 2 13
REMARK SMILES IDX 1 14
REMARK H PARENT
REMARK Flexibility Score: inf
ROOT
ATOM      1  C   UNL     1       9.886  -6.890   5.366  1.00  0.00     0.000 C 
ENDROOT
BRANCH   1   2
ATOM      2  C   UNL     1       9.148  -8.091   4.746  1.00  0.00     0.000 C 
BRANCH   2   3
ATOM      3  C   UNL     1       7.635  -7.855   4.600  1.00  0.00     0.000 C 
BRANCH   3   4
ATOM      4  C   UNL     1       6.840  -8.381   5.813  1.00  0.00     0.006 C 
BRANCH   4   5
ATOM      5  C   UNL     1       7.239  -9.803   6.240  1.00  0.00     0.053 C 
BRANCH   5   6
ATOM      6  C   UNL     1       7.643  -9.872   7.680  1.00  0.00     0.041 C 
ATOM      7  O   UNL     1       8.848  -9.713   8.008  1.00  0.00    -0.550 OA
ATOM      8  O   UNL     1       6.683 -10.084   8.662  1.00  0.00    -0.550 OA
ENDBRANCH   5   6
ENDBRANCH   4   5
ENDBRANCH   3   4
ENDBRANCH   2   3
ENDBRANCH   1   2
BRANCH   1   9
ATOM      9  C   UNL     1      11.220  -7.230   6.056  1.00  0.00     0.000 C 
BRANCH   9  10
ATOM     10  C   UNL     1      12.396  -7.320   5.073  1.00  0.00    -0.000 C 
BRANCH  10  11
ATOM     11  C   UNL     1      13.660  -7.838   5.777  1.00  0.00    -0.000 C 
BRANCH  11  12
ATOM     12  C   UNL     1      14.944  -7.172   5.255  1.00  0.00    -0.000 C 
BRANCH  12  13
ATOM     13  C   UNL     1      15.932  -6.830   6.380  1.00  0.00    -0.003 C 
ATOM     14  C   UNL     1      17.369  -7.117   5.954  1.00  0.00     0.004 C 
ENDBRANCH  12  13
ENDBRANCH  11  12
ENDBRANCH  10  11
ENDBRANCH   9  10
ENDBRANCH   1   9
TORSDOF 10
ENDMDL
MODEL 9
REMARK VINA RESULT:    -2.692      5.646      9.447
REMARK INTER + INTRA:          -4.972
REMARK INTER:                  -4.052
REMARK INTRA:                  -0.921
REMARK UNBOUND:                -0.706
REMARK SMILES CCCCCCCCCCCC(=O)[O-]
REMARK SMILES IDX 7 1 8 2 9 3 10 4 11 5 12 6 13 7 14 8 6 9 5 10 4 11 3 12 2 13
REMARK SMILES IDX 1 14
REMARK H PARENT
REMARK Flexibility Score: inf
ROOT
ATOM      1  C   UNL     1       8.598  -9.406   7.331  1.00  0.00     0.000 C 
ENDROOT
BRANCH   1   2
ATOM      2  C   UNL     1       7.067  -9.255   7.394  1.00  0.00     0.000 C 
BRANCH   2   3
ATOM      3  C   UNL     1       6.348  -9.927   6.211  1.00  0.00     0.000 C 
BRANCH   3   4
ATOM      4  C   UNL     1       5.415  -8.954   5.461  1.00  0.00     0.006 C 
BRANCH   4   5
ATOM      5  C   UNL     1       6.121  -8.159   4.351  1.00  0.00     0.053 C 
BRANCH   5   6
ATOM      6  C   UNL     1       6.436  -6.757   4.768  1.00  0.00     0.041 C 
ATOM      7  O   UNL     1       7.475  -6.187   4.344  1.00  0.00    -0.550 OA
ATOM      8  O   UNL     1       5.565  -6.067   5.604  1.00  0.00    -0.550 OA
ENDBRANCH   5   6
ENDBRANCH   4   5
ENDBRANCH   3   4
ENDBRANCH   2   3
ENDBRANCH   1   2
BRANCH   1   9
ATOM      9  C   UNL     1       9.315  -8.397   6.415  1.00  0.00     0.000 C 
BRANCH   9  10
ATOM     10  C   UNL     1       9.665  -8.982   5.038  1.00  0.00    -0.000 C 
BRANCH  10  11
ATOM     11  C   UNL     1      10.947  -8.344   4.482  1.00  0.00    -0.000 C 
BRANCH  11  12
ATOM     12  C   UNL     1      11.551  -7.299   5.435  1.00  0.00    -0.000 C 
BRANCH  12  13
ATOM     13  C   UNL     1      13.022  -7.583   5.769  1.00  0.00    -0.003 C 
ATOM     14  C   UNL     1      13.933  -7.208   4.604  1.00  0.00     0.004 C 
ENDBRANCH  12  13
ENDBRANCH  11  12
ENDBRANCH  10  11
ENDBRANCH   9  10
ENDBRANCH   1   9
TORSDOF 10
ENDMDL
