MODEL 1
REMARK VINA RESULT:    -1.660      0.000      0.000
REMARK INTER + INTRA:          -5.410
REMARK INTER:                  -2.921
REMARK INTRA:                  -2.489
REMARK UNBOUND:                -2.489
REMARK SMILES CCCCCCCCCCCCCCC(=O)[O-]
REMARK SMILES IDX 9 1 10 2 11 3 12 4 13 5 14 6 15 7 16 8 17 9 8 10 7 11 6 12
REMARK SMILES IDX 5 13 4 14 3 15 2 16 1 17
REMARK H PARENT
REMARK Flexibility Score: inf
ROOT
ATOM      1  C   UNL     1     -30.855 -33.634  12.993  1.00  0.00     0.000 C 
ENDROOT
BRANCH   1   2
ATOM      2  C   UNL     1     -30.592 -34.295  14.359  1.00  0.00     0.000 C 
BRANCH   2   3
ATOM      3  C   UNL     1     -31.059 -33.411  15.535  1.00  0.00     0.000 C 
BRANCH   3   4
ATOM      4  C   UNL     1     -32.002 -32.267  15.113  1.00  0.00     0.000 C 
BRANCH   4   5
ATOM      5  C   UNL     1     -32.920 -31.742  16.229  1.00  0.00     0.006 C 
BRANCH   5   6
ATOM      6  C   UNL     1     -33.506 -32.867  17.093  1.00  0.00     0.053 C 
BRANCH   6   7
ATOM      7  C   UNL     1     -33.153 -32.656  18.532  1.00  0.00     0.041 C 
ATOM      8  O   UNL     1     -32.105 -32.031  18.841  1.00  0.00    -0.550 OA
ATOM      9  O   UNL     1     -33.954 -33.193  19.530  1.00  0.00    -0.550 OA
ENDBRANCH   6   7
ENDBRANCH   5   6
ENDBRANCH   4   5
ENDBRANCH   3   4
ENDBRANCH   2   3
ENDBRANCH   1   2
BRANCH   1  10
ATOM     10  C   UNL     1     -31.409 -34.623  11.956  1.00  0.00     0.000 C 
BRANCH  10  11
ATOM     11  C   UNL     1     -31.891 -35.938  12.595  1.00  0.00    -0.000 C 
BRANCH  11  12
ATOM     12  C   UNL     1     -33.423 -36.058  12.618  1.00  0.00    -0.000 C 
BRANCH  12  13
ATOM     13  C   UNL     1     -34.010 -35.855  14.022  1.00  0.00    -0.000 C 
BRANCH  13  14
ATOM     14  C   UNL     1     -34.760 -34.518  14.116  1.00  0.00    -0.000 C 
BRANCH  14  15
ATOM     15  C   UNL     1     -34.907 -33.814  12.755  1.00  0.00    -0.000 C 
BRANCH  15  16
ATOM     16  C   UNL     1     -34.851 -32.276  12.813  1.00  0.00    -0.003 C 
ATOM     17  C   UNL     1     -33.804 -31.679  11.875  1.00  0.00     0.004 C 
ENDBRANCH  15  16
ENDBRANCH  14  15
ENDBRANCH  13  14
ENDBRANCH  12  13
ENDBRANCH  11  12
ENDBRANCH  10  11
ENDBRANCH   1  10
TORSDOF 13
ENDMDL
MODEL 2
REMARK VINA RESULT:    -1.642      1.770      2.510
REMARK INTER + INTRA:          -5.379
REMARK INTER:                  -3.099
REMARK INTRA:                  -2.279
REMARK UNBOUND:                -2.489
REMARK SMILES CCCCCCCCCCCCCCC(=O)[O-]
REMARK SMILES IDX 9 1 10 2 11 3 12 4 13 5 14 6 15 7 16 8 17 9 8 10 7 11 6 12
REMARK SMILES IDX 5 13 4 14 3 15 2 16 1 17
REMARK H PARENT
REMARK Flexibility Score: inf
ROOT
ATOM      1  C   UNL     1     -30.251 -34.195  14.105  1.00  0.00     0.000 C 
ENDROOT
BRANCH   1   2
ATOM      2  C   UNL     1     -29.005 -34.791  14.786  1.00  0.00     0.000 C 
BRANCH   2   3
ATOM      3  C   UNL     1     -29.360 -35.944  15.748  1.00  0.00     0.000 C 
BRANCH   3   4
ATOM      4  C   UNL     1     -30.875 -36.118  15.974  1.00  0.00     0.000 C 
BRANCH   4   5
ATOM      5  C   UNL     1     -31.366 -35.741  17.381  1.00  0.00     0.006 C 
BRANCH   5   6
ATOM      6  C   UNL     1     -32.090 -34.388  17.413  1.00  0.00     0.053 C 
BRANCH   6   7
ATOM      7  C   UNL     1     -31.105 -33.275  17.591  1.00  0.00     0.041 C 
ATOM      8  O   UNL     1     -31.313 -32.154  17.057  1.00  0.00    -0.550 OA
ATOM      9  O   UNL     1     -29.933 -33.492  18.303  1.00  0.00    -0.550 OA
ENDBRANCH   6   7
ENDBRANCH   5   6
ENDBRANCH   4   5
ENDBRANCH   3   4
ENDBRANCH   2   3
ENDBRANCH   1   2
BRANCH   1  10
ATOM     10  C   UNL     1     -30.265 -34.434  12.587  1.00  0.00     0.000 C 
BRANCH  10  11
ATOM     11  C   UNL     1     -31.668 -34.783  12.059  1.00  0.00    -0.000 C 
BRANCH  11  12
ATOM     12  C   UNL     1     -32.189 -36.123  12.602  1.00  0.00    -0.000 C 
BRANCH  12  13
ATOM     13  C   UNL     1     -33.711 -36.124  12.808  1.00  0.00    -0.000 C 
BRANCH  13  14
ATOM     14  C   UNL     1     -34.063 -36.094  14.303  1.00  0.00    -0.000 C 
BRANCH  14  15
ATOM     15  C   UNL     1     -34.946 -34.894  14.688  1.00  0.00    -0.000 C 
BRANCH  15  16
ATOM     16  C   UNL     1     -34.728 -33.630  13.835  1.00  0.00    -0.003 C 
ATOM     17  C   UNL     1     -33.653 -32.704  14.401  1.00  0.00     0.004 C 
ENDBRANCH  15  16
ENDBRANCH  14  15
ENDBRANCH  13  14
ENDBRANCH  12  13
ENDBRANCH  11  12
ENDBRANCH  10  11
ENDBRANCH   1  10
TORSDOF 13
ENDMDL
MODEL 3
REMARK VINA RESULT:    -1.639     22.758     24.661
REMARK INTER + INTRA:          -5.375
REMARK INTER:                  -3.042
REMARK INTRA:                  -2.333
REMARK UNBOUND:                -2.489
REMARK SMILES CCCCCCCCCCCCCCC(=O)[O-]
REMARK SMILES IDX 9 1 10 2 11 3 12 4 13 5 14 6 15 7 16 8 17 9 8 10 7 11 6 12
REMARK SMILES IDX 5 13 4 14 3 15 2 16 1 17
REMARK H PARENT
REMARK Flexibility Score: inf
ROOT
ATOM      1  C   UNL     1     -17.460 -25.247  29.778  1.00  0.00     0.000 C 
ENDROOT
BRANCH   1   2
ATOM      2  C   UNL     1     -18.400 -25.356  30.993  1.00  0.00     0.000 C 
BRANCH   2   3
ATOM      3  C   UNL     1     -19.319 -24.123  31.131  1.00  0.00     0.000 C 
BRANCH   3   4
ATOM      4  C   UNL     1     -19.617 -23.419  29.793  1.00  0.00     0.000 C 
BRANCH   4   5
ATOM      5  C   UNL     1     -19.532 -21.884  29.837  1.00  0.00     0.006 C 
BRANCH   5   6
ATOM      6  C   UNL     1     -19.589 -21.328  31.266  1.00  0.00     0.053 C 
BRANCH   6   7
ATOM      7  C   UNL     1     -20.769 -20.422  31.424  1.00  0.00     0.041 C 
ATOM      8  O   UNL     1     -20.622 -19.268  31.905  1.00  0.00    -0.550 OA
ATOM      9  O   UNL     1     -22.040 -20.870  31.088  1.00  0.00    -0.550 OA
ENDBRANCH   6   7
ENDBRANCH   5   6
ENDBRANCH   4   5
ENDBRANCH   3   4
ENDBRANCH   2   3
ENDBRANCH   1   2
BRANCH   1  10
ATOM     10  C   UNL     1     -15.995 -25.540  30.138  1.00  0.00     0.000 C 
BRANCH  10  11
ATOM     11  C   UNL     1     -15.650 -25.128  31.580  1.00  0.00    -0.000 C 
BRANCH  11  12
ATOM     12  C   UNL     1     -15.028 -23.725  31.662  1.00  0.00    -0.000 C 
BRANCH  12  13
ATOM     13  C   UNL     1     -16.064 -22.639  31.988  1.00  0.00    -0.000 C 
BRANCH  13  14
ATOM     14  C   UNL     1     -16.053 -21.532  30.923  1.00  0.00    -0.000 C 
BRANCH  14  15
ATOM     15  C   UNL     1     -15.274 -21.926  29.654  1.00  0.00    -0.000 C 
BRANCH  15  16
ATOM     16  C   UNL     1     -16.149 -22.195  28.416  1.00  0.00    -0.003 C 
ATOM     17  C   UNL     1     -16.527 -20.921  27.662  1.00  0.00     0.004 C 
ENDBRANCH  15  16
ENDBRANCH  14  15
ENDBRANCH  13  14
ENDBRANCH  12  13
ENDBRANCH  11  12
ENDBRANCH  10  11
ENDBRANCH   1  10
TORSDOF 13
ENDMDL
MODEL 4
REMARK VINA RESULT:    -1.633      1.739      3.130
REMARK INTER + INTRA:          -5.363
REMARK INTER:                  -3.174
REMARK INTRA:                  -2.189
REMARK UNBOUND:                -2.489
REMARK SMILES CCCCCCCCCCCCCCC(=O)[O-]
REMARK SMILES IDX 9 1 10 2 11 3 12 4 13 5 14 6 15 7 16 8 17 9 8 10 7 11 6 12
REMARK SMILES IDX 5 13 4 14 3 15 2 16 1 17
REMARK H PARENT
REMARK Flexibility Score: inf
ROOT
ATOM      1  C   UNL     1     -31.425 -34.659  12.067  1.00  0.00     0.000 C 
ENDROOT
BRANCH   1   2
ATOM      2  C   UNL     1     -30.573 -34.337  13.309  1.00  0.00     0.000 C 
BRANCH   2   3
ATOM      3  C   UNL     1     -29.866 -35.589  13.872  1.00  0.00     0.000 C 
BRANCH   3   4
ATOM      4  C   UNL     1     -30.418 -36.052  15.234  1.00  0.00     0.000 C 
BRANCH   4   5
ATOM      5  C   UNL     1     -30.633 -34.928  16.261  1.00  0.00     0.006 C 
BRANCH   5   6
ATOM      6  C   UNL     1     -30.633 -35.438  17.708  1.00  0.00     0.053 C 
BRANCH   6   7
ATOM      7  C   UNL     1     -31.822 -34.908  18.446  1.00  0.00     0.041 C 
ATOM      8  O   UNL     1     -32.676 -35.700  18.923  1.00  0.00    -0.550 OA
ATOM      9  O   UNL     1     -32.012 -33.538  18.564  1.00  0.00    -0.550 OA
ENDBRANCH   6   7
ENDBRANCH   5   6
ENDBRANCH   4   5
ENDBRANCH   3   4
ENDBRANCH   2   3
ENDBRANCH   1   2
BRANCH   1  10
ATOM     10  C   UNL     1     -32.367 -35.852  12.291  1.00  0.00     0.000 C 
BRANCH  10  11
ATOM     11  C   UNL     1     -33.840 -35.497  12.022  1.00  0.00    -0.000 C 
BRANCH  11  12
ATOM     12  C   UNL     1     -34.071 -33.983  11.899  1.00  0.00    -0.000 C 
BRANCH  12  13
ATOM     13  C   UNL     1     -34.848 -33.406  13.091  1.00  0.00    -0.000 C 
BRANCH  13  14
ATOM     14  C   UNL     1     -33.892 -32.798  14.128  1.00  0.00    -0.000 C 
BRANCH  14  15
ATOM     15  C   UNL     1     -33.781 -33.641  15.411  1.00  0.00    -0.000 C 
BRANCH  15  16
ATOM     16  C   UNL     1     -34.806 -34.785  15.523  1.00  0.00    -0.003 C 
ATOM     17  C   UNL     1     -34.170 -36.125  15.889  1.00  0.00     0.004 C 
ENDBRANCH  15  16
ENDBRANCH  14  15
ENDBRANCH  13  14
ENDBRANCH  12  13
ENDBRANCH  11  12
ENDBRANCH  10  11
ENDBRANCH   1  10
TORSDOF 13
ENDMDL
MODEL 5
REMARK VINA RESULT:    -1.521      2.801      4.915
REMARK INTER + INTRA:          -5.166
REMARK INTER:                  -3.057
REMARK INTRA:                  -2.109
REMARK UNBOUND:                -2.489
REMARK SMILES CCCCCCCCCCCCCCC(=O)[O-]
REMARK SMILES IDX 9 1 10 2 11 3 12 4 13 5 14 6 15 7 16 8 17 9 8 10 7 11 6 12
REMARK SMILES IDX 5 13 4 14 3 15 2 16 1 17
REMARK H PARENT
REMARK Flexibility Score: inf
ROOT
ATOM      1  C   UNL     1     -33.464 -33.929  14.833  1.00  0.00     0.000 C 
ENDROOT
BRANCH   1   2
ATOM      2  C   UNL     1     -34.900 -33.984  14.281  1.00  0.00     0.000 C 
BRANCH   2   3
ATOM      3  C   UNL     1     -35.077 -33.104  13.026  1.00  0.00     0.000 C 
BRANCH   3   4
ATOM      4  C   UNL     1     -34.380 -31.733  13.126  1.00  0.00     0.000 C 
BRANCH   4   5
ATOM      5  C   UNL     1     -33.417 -31.412  11.972  1.00  0.00     0.006 C 
BRANCH   5   6
ATOM      6  C   UNL     1     -32.256 -30.505  12.403  1.00  0.00     0.053 C 
BRANCH   6   7
ATOM      7  C   UNL     1     -32.762 -29.136  12.734  1.00  0.00     0.041 C 
ATOM      8  O   UNL     1     -33.396 -28.470  11.875  1.00  0.00    -0.550 OA
ATOM      9  O   UNL     1     -32.488 -28.576  13.975  1.00  0.00    -0.550 OA
ENDBRANCH   6   7
ENDBRANCH   5   6
ENDBRANCH   4   5
ENDBRANCH   3   4
ENDBRANCH   2   3
ENDBRANCH   1   2
BRANCH   1  10
ATOM     10  C   UNL     1     -32.796 -35.312  14.878  1.00  0.00     0.000 C 
BRANCH  10  11
ATOM     11  C   UNL     1     -32.978 -36.097  13.567  1.00  0.00    -0.000 C 
BRANCH  11  12
ATOM     12  C   UNL     1     -31.782 -35.942  12.614  1.00  0.00    -0.000 C 
BRANCH  12  13
ATOM     13  C   UNL     1     -31.784 -34.595  11.877  1.00  0.00    -0.000 C 
BRANCH  13  14
ATOM     14  C   UNL     1     -30.382 -33.967  11.875  1.00  0.00    -0.000 C 
BRANCH  14  15
ATOM     15  C   UNL     1     -29.672 -34.078  13.236  1.00  0.00    -0.000 C 
BRANCH  15  16
ATOM     16  C   UNL     1     -29.942 -32.910  14.203  1.00  0.00    -0.003 C 
ATOM     17  C   UNL     1     -29.851 -33.317  15.673  1.00  0.00     0.004 C 
ENDBRANCH  15  16
ENDBRANCH  14  15
ENDBRANCH  13  14
ENDBRANCH  12  13
ENDBRANCH  11  12
ENDBRANCH  10  11
ENDBRANCH   1  10
TORSDOF 13
ENDMDL
MODEL 6
REMARK VINA RESULT:    -1.418      2.388      4.571
REMARK INTER + INTRA:          -4.985
REMARK INTER:                  -2.930
REMARK INTRA:                  -2.054
REMARK UNBOUND:                -2.489
REMARK SMILES CCCCCCCCCCCCCCC(=O)[O-]
REMARK SMILES IDX 9 1 10 2 11 3 12 4 13 5 14 6 15 7 16 8 17 9 8 10 7 11 6 12
REMARK SMILES IDX 5 13 4 14 3 15 2 16 1 17
REMARK H PARENT
REMARK Flexibility Score: inf
ROOT
ATOM      1  C   UNL     1     -31.906 -35.754  12.661  1.00  0.00     0.000 C 
ENDROOT
BRANCH   1   2
ATOM      2  C   UNL     1     -33.421 -36.013  12.743  1.00  0.00     0.000 C 
BRANCH   2   3
ATOM      3  C   UNL     1     -34.025 -35.526  14.078  1.00  0.00     0.000 C 
BRANCH   3   4
ATOM      4  C   UNL     1     -34.984 -34.330  13.925  1.00  0.00     0.000 C 
BRANCH   4   5
ATOM      5  C   UNL     1     -34.536 -33.045  14.640  1.00  0.00     0.006 C 
BRANCH   5   6
ATOM      6  C   UNL     1     -33.637 -32.162  13.764  1.00  0.00     0.053 C 
BRANCH   6   7
ATOM      7  C   UNL     1     -34.019 -30.723  13.912  1.00  0.00     0.041 C 
ATOM      8  O   UNL     1     -34.504 -30.305  14.996  1.00  0.00    -0.550 OA
ATOM      9  O   UNL     1     -33.885 -29.855  12.837  1.00  0.00    -0.550 OA
ENDBRANCH   6   7
ENDBRANCH   5   6
ENDBRANCH   4   5
ENDBRANCH   3   4
ENDBRANCH   2   3
ENDBRANCH   1   2
BRANCH   1  10
ATOM     10  C   UNL     1     -31.568 -34.477  11.875  1.00  0.00     0.000 C 
BRANCH  10  11
ATOM     11  C   UNL     1     -30.335 -33.748  12.439  1.00  0.00    -0.000 C 
BRANCH  11  12
ATOM     12  C   UNL     1     -29.673 -34.514  13.596  1.00  0.00    -0.000 C 
BRANCH  12  13
ATOM     13  C   UNL     1     -29.428 -33.627  14.826  1.00  0.00    -0.000 C 
BRANCH  13  14
ATOM     14  C   UNL     1     -30.699 -33.509  15.680  1.00  0.00    -0.000 C 
BRANCH  14  15
ATOM     15  C   UNL     1     -31.167 -34.860  16.251  1.00  0.00    -0.000 C 
BRANCH  15  16
ATOM     16  C   UNL     1     -31.939 -34.767  17.580  1.00  0.00    -0.003 C 
ATOM     17  C   UNL     1     -33.314 -35.431  17.522  1.00  0.00     0.004 C 
ENDBRANCH  15  16
ENDBRANCH  14  15
ENDBRANCH  13  14
ENDBRANCH  12  13
ENDBRANCH  11  12
ENDBRANCH  10  11
ENDBRANCH   1  10
TORSDOF 13
ENDMDL
MODEL 7
REMARK VINA RESULT:    -1.387      2.800      3.264
REMARK INTER + INTRA:          -4.930
REMARK INTER:                  -2.613
REMARK INTRA:                  -2.317
REMARK UNBOUND:                -2.489
REMARK SMILES CCCCCCCCCCCCCCC(=O)[O-]
REMARK SMILES IDX 9 1 10 2 11 3 12 4 13 5 14 6 15 7 16 8 17 9 8 10 7 11 6 12
REMARK SMILES IDX 5 13 4 14 3 15 2 16 1 17
REMARK H PARENT
REMARK Flexibility Score: inf
ROOT
ATOM      1  C   UNL     1     -30.309 -33.204  12.963  1.00  0.00     0.000 C 
ENDROOT
BRANCH   1   2
ATOM      2  C   UNL     1     -30.329 -33.920  14.326  1.00  0.00     0.000 C 
BRANCH   2   3
ATOM      3  C   UNL     1     -30.652 -32.955  15.487  1.00  0.00     0.000 C 
BRANCH   3   4
ATOM      4  C   UNL     1     -32.013 -32.247  15.344  1.00  0.00     0.000 C 
BRANCH   4   5
ATOM      5  C   UNL     1     -31.935 -30.717  15.204  1.00  0.00     0.006 C 
BRANCH   5   6
ATOM      6  C   UNL     1     -30.504 -30.181  15.345  1.00  0.00     0.053 C 
BRANCH   6   7
ATOM      7  C   UNL     1     -30.165 -29.295  14.189  1.00  0.00     0.041 C 
ATOM      8  O   UNL     1     -30.505 -29.618  13.021  1.00  0.00    -0.550 OA
ATOM      9  O   UNL     1     -29.428 -28.136  14.395  1.00  0.00    -0.550 OA
ENDBRANCH   6   7
ENDBRANCH   5   6
ENDBRANCH   4   5
ENDBRANCH   3   4
ENDBRANCH   2   3
ENDBRANCH   1   2
BRANCH   1  10
ATOM     10  C   UNL     1     -31.062 -33.986  11.875  1.00  0.00     0.000 C 
BRANCH  10  11
ATOM     11  C   UNL     1     -31.647 -35.309  12.400  1.00  0.00    -0.000 C 
BRANCH  11  12
ATOM     12  C   UNL     1     -33.183 -35.340  12.346  1.00  0.00    -0.000 C 
BRANCH  12  13
ATOM     13  C   UNL     1     -33.826 -35.155  13.728  1.00  0.00    -0.000 C 
BRANCH  13  14
ATOM     14  C   UNL     1     -34.830 -33.993  13.715  1.00  0.00    -0.000 C 
BRANCH  14  15
ATOM     15  C   UNL     1     -34.964 -33.329  12.332  1.00  0.00    -0.000 C 
BRANCH  15  16
ATOM     16  C   UNL     1     -34.821 -31.796  12.334  1.00  0.00    -0.003 C 
ATOM     17  C   UNL     1     -33.438 -31.324  11.892  1.00  0.00     0.004 C 
ENDBRANCH  15  16
ENDBRANCH  14  15
ENDBRANCH  13  14
ENDBRANCH  12  13
ENDBRANCH  11  12
ENDBRANCH  10  11
ENDBRANCH   1  10
TORSDOF 13
ENDMDL
MODEL 8
REMARK VINA RESULT:    -1.356     21.950     24.457
REMARK INTER + INTRA:          -4.876
REMARK INTER:                  -2.380
REMARK INTRA:                  -2.496
REMARK UNBOUND:                -2.489
REMARK SMILES CCCCCCCCCCCCCCC(=O)[O-]
REMARK SMILES IDX 9 1 10 2 11 3 12 4 13 5 14 6 15 7 16 8 17 9 8 10 7 11 6 12
REMARK SMILES IDX 5 13 4 14 3 15 2 16 1 17
REMARK H PARENT
REMARK Flexibility Score: inf
ROOT
ATOM      1  C   UNL     1     -20.226 -22.775  30.147  1.00  0.00     0.000 C 
ENDROOT
BRANCH   1   2
ATOM      2  C   UNL     1     -19.542 -22.133  28.926  1.00  0.00     0.000 C 
BRANCH   2   3
ATOM      3  C   UNL     1     -18.652 -23.135  28.162  1.00  0.00     0.000 C 
BRANCH   3   4
ATOM      4  C   UNL     1     -18.956 -24.610  28.490  1.00  0.00     0.000 C 
BRANCH   4   5
ATOM      5  C   UNL     1     -17.746 -25.430  28.966  1.00  0.00     0.006 C 
BRANCH   5   6
ATOM      6  C   UNL     1     -17.892 -25.916  30.415  1.00  0.00     0.053 C 
BRANCH   6   7
ATOM      7  C   UNL     1     -16.753 -26.815  30.779  1.00  0.00     0.041 C 
ATOM      8  O   UNL     1     -16.976 -27.969  31.230  1.00  0.00    -0.550 OA
ATOM      9  O   UNL     1     -15.446 -26.361  30.668  1.00  0.00    -0.550 OA
ENDBRANCH   6   7
ENDBRANCH   5   6
ENDBRANCH   4   5
ENDBRANCH   3   4
ENDBRANCH   2   3
ENDBRANCH   1   2
BRANCH   1  10
ATOM     10  C   UNL     1     -19.510 -22.444  31.466  1.00  0.00     0.000 C 
BRANCH  10  11
ATOM     11  C   UNL     1     -18.806 -21.075  31.426  1.00  0.00    -0.000 C 
BRANCH  11  12
ATOM     12  C   UNL     1     -17.315 -21.165  31.789  1.00  0.00    -0.000 C 
BRANCH  12  13
ATOM     13  C   UNL     1     -16.794 -22.609  31.784  1.00  0.00    -0.000 C 
BRANCH  13  14
ATOM     14  C   UNL     1     -15.769 -22.820  30.659  1.00  0.00    -0.000 C 
BRANCH  14  15
ATOM     15  C   UNL     1     -15.530 -21.552  29.819  1.00  0.00    -0.000 C 
BRANCH  15  16
ATOM     16  C   UNL     1     -15.233 -21.810  28.330  1.00  0.00    -0.003 C 
ATOM     17  C   UNL     1     -14.875 -23.266  28.035  1.00  0.00     0.004 C 
ENDBRANCH  15  16
ENDBRANCH  14  15
ENDBRANCH  13  14
ENDBRANCH  12  13
ENDBRANCH  11  12
ENDBRANCH  10  11
ENDBRANCH   1  10
TORSDOF 13
ENDMDL
