MODEL 1
REMARK VINA RESULT:    -3.709      0.000      0.000
REMARK INTER + INTRA:          -4.080
REMARK INTER:                  -4.034
REMARK INTRA:                  -0.046
REMARK UNBOUND:                -0.046
REMARK SMILES COc1ccccc1O
REMARK SMILES IDX 3 1 4 2 5 3 6 4 7 5 8 6 2 7 1 8 9 9
REMARK H PARENT 9 10
REMARK Flexibility Score: inf
ROOT
ATOM      1  C   UNL     1     103.447 115.563  93.735  1.00  0.00     0.160 A 
ATOM      2  C   UNL     1     103.363 116.118  95.028  1.00  0.00     0.050 A 
ATOM      3  C   UNL     1     103.198 117.496  95.194  1.00  0.00     0.004 A 
ATOM      4  C   UNL     1     103.114 118.331  94.078  1.00  0.00     0.004 A 
ATOM      5  C   UNL     1     103.196 117.790  92.793  1.00  0.00     0.050 A 
ATOM      6  C   UNL     1     103.363 116.409  92.619  1.00  0.00     0.157 A 
ENDROOT
BRANCH   1   7
ATOM      7  O   UNL     1     103.614 114.186  93.522  1.00  0.00    -0.493 OA
ATOM      8  C   UNL     1     102.586 113.214  93.691  1.00  0.00     0.278 C 
ENDBRANCH   1   7
BRANCH   6   9
ATOM      9  O   UNL     1     103.445 115.868  91.336  1.00  0.00    -0.504 OA
ATOM     10  H   UNL     1     102.645 115.857  90.713  1.00  0.00     0.293 HD
ENDBRANCH   6   9
TORSDOF 2
ENDMDL
MODEL 2
REMARK VINA RESULT:    -3.650      2.180      2.857
REMARK INTER + INTRA:          -4.016
REMARK INTER:                  -3.981
REMARK INTRA:                  -0.035
REMARK UNBOUND:                -0.046
REMARK SMILES COc1ccccc1O
REMARK SMILES IDX 3 1 4 2 5 3 6 4 7 5 8 6 2 7 1 8 9 9
REMARK H PARENT 9 10
REMARK Flexibility Score: inf
ROOT
ATOM      1  C   UNL     1     102.957 118.026  94.530  1.00  0.00     0.160 A 
ATOM      2  C   UNL     1     103.372 118.900  95.554  1.00  0.00     0.050 A 
ATOM      3  C   UNL     1     102.553 119.961  95.950  1.00  0.00     0.004 A 
ATOM      4  C   UNL     1     101.317 120.161  95.332  1.00  0.00     0.004 A 
ATOM      5  C   UNL     1     100.897 119.300  94.315  1.00  0.00     0.050 A 
ATOM      6  C   UNL     1     101.713 118.234  93.913  1.00  0.00     0.157 A 
ENDROOT
BRANCH   1   7
ATOM      7  O   UNL     1     103.746 116.948  94.101  1.00  0.00    -0.493 OA
ATOM      8  C   UNL     1     103.747 115.658  94.705  1.00  0.00     0.278 C 
ENDBRANCH   1   7
BRANCH   6   9
ATOM      9  O   UNL     1     101.295 117.374  92.899  1.00  0.00    -0.504 OA
ATOM     10  H   UNL     1     100.986 116.429  93.098  1.00  0.00     0.293 HD
ENDBRANCH   6   9
TORSDOF 2
ENDMDL
MODEL 3
REMARK VINA RESULT:    -3.564      7.981      8.970
REMARK INTER + INTRA:          -3.922
REMARK INTER:                  -3.895
REMARK INTRA:                  -0.027
REMARK UNBOUND:                -0.046
REMARK SMILES COc1ccccc1O
REMARK SMILES IDX 3 1 4 2 5 3 6 4 7 5 8 6 2 7 1 8 9 9
REMARK H PARENT 9 10
REMARK Flexibility Score: inf
ROOT
ATOM      1  C   UNL     1      99.848 124.171  94.497  1.00  0.00     0.160 A 
ATOM      2  C   UNL     1      99.881 122.938  95.180  1.00  0.00     0.050 A 
ATOM      3  C   UNL     1     101.096 122.420  95.640  1.00  0.00     0.004 A 
ATOM      4  C   UNL     1     102.283 123.123  95.426  1.00  0.00     0.004 A 
ATOM      5  C   UNL     1     102.260 124.345  94.750  1.00  0.00     0.050 A 
ATOM      6  C   UNL     1     101.046 124.870  94.285  1.00  0.00     0.157 A 
ENDROOT
BRANCH   1   7
ATOM      7  O   UNL     1      98.652 124.727  94.018  1.00  0.00    -0.493 OA
ATOM      8  C   UNL     1      97.397 124.054  94.006  1.00  0.00     0.278 C 
ENDBRANCH   1   7
BRANCH   6   9
ATOM      9  O   UNL     1     101.022 126.090  93.611  1.00  0.00    -0.504 OA
ATOM     10  H   UNL     1     100.376 126.262  92.849  1.00  0.00     0.293 HD
ENDBRANCH   6   9
TORSDOF 2
ENDMDL
MODEL 4
REMARK VINA RESULT:    -3.506      3.680      5.040
REMARK INTER + INTRA:          -3.859
REMARK INTER:                  -3.831
REMARK INTRA:                  -0.028
REMARK UNBOUND:                -0.046
REMARK SMILES COc1ccccc1O
REMARK SMILES IDX 3 1 4 2 5 3 6 4 7 5 8 6 2 7 1 8 9 9
REMARK H PARENT 9 10
REMARK Flexibility Score: inf
ROOT
ATOM      1  C   UNL     1     100.741 119.815  94.859  1.00  0.00     0.160 A 
ATOM      2  C   UNL     1     101.251 120.602  95.911  1.00  0.00     0.050 A 
ATOM      3  C   UNL     1     102.545 120.380  96.392  1.00  0.00     0.004 A 
ATOM      4  C   UNL     1     103.339 119.377  95.832  1.00  0.00     0.004 A 
ATOM      5  C   UNL     1     102.841 118.593  94.789  1.00  0.00     0.050 A 
ATOM      6  C   UNL     1     101.545 118.809  94.301  1.00  0.00     0.157 A 
ENDROOT
BRANCH   1   7
ATOM      7  O   UNL     1      99.448 120.003  94.345  1.00  0.00    -0.493 OA
ATOM      8  C   UNL     1      98.687 121.197  94.494  1.00  0.00     0.278 C 
ENDBRANCH   1   7
BRANCH   6   9
ATOM      9  O   UNL     1     101.047 118.027  93.260  1.00  0.00    -0.504 OA
ATOM     10  H   UNL     1     101.636 117.369  92.762  1.00  0.00     0.293 HD
ENDBRANCH   6   9
TORSDOF 2
ENDMDL
MODEL 5
REMARK VINA RESULT:    -3.465      1.902      2.226
REMARK INTER + INTRA:          -3.815
REMARK INTER:                  -3.786
REMARK INTRA:                  -0.029
REMARK UNBOUND:                -0.046
REMARK SMILES COc1ccccc1O
REMARK SMILES IDX 3 1 4 2 5 3 6 4 7 5 8 6 2 7 1 8 9 9
REMARK H PARENT 9 10
REMARK Flexibility Score: inf
ROOT
ATOM      1  C   UNL     1     102.146 116.708  93.286  1.00  0.00     0.160 A 
ATOM      2  C   UNL     1     101.257 116.358  94.321  1.00  0.00     0.050 A 
ATOM      3  C   UNL     1     100.951 117.278  95.328  1.00  0.00     0.004 A 
ATOM      4  C   UNL     1     101.524 118.551  95.312  1.00  0.00     0.004 A 
ATOM      5  C   UNL     1     102.407 118.907  94.290  1.00  0.00     0.050 A 
ATOM      6  C   UNL     1     102.719 117.989  93.278  1.00  0.00     0.157 A 
ENDROOT
BRANCH   1   7
ATOM      7  O   UNL     1     102.483 115.816  92.256  1.00  0.00    -0.493 OA
ATOM      8  C   UNL     1     101.622 114.796  91.760  1.00  0.00     0.278 C 
ENDBRANCH   1   7
BRANCH   6   9
ATOM      9  O   UNL     1     103.600 118.344  92.256  1.00  0.00    -0.504 OA
ATOM     10  H   UNL     1     103.935 119.295  92.150  1.00  0.00     0.293 HD
ENDBRANCH   6   9
TORSDOF 2
ENDMDL
MODEL 6
REMARK VINA RESULT:    -3.447      4.499      6.105
REMARK INTER + INTRA:          -3.796
REMARK INTER:                  -3.764
REMARK INTRA:                  -0.031
REMARK UNBOUND:                -0.046
REMARK SMILES COc1ccccc1O
REMARK SMILES IDX 3 1 4 2 5 3 6 4 7 5 8 6 2 7 1 8 9 9
REMARK H PARENT 9 10
REMARK Flexibility Score: inf
ROOT
ATOM      1  C   UNL     1     100.931 121.138  95.132  1.00  0.00     0.160 A 
ATOM      2  C   UNL     1     101.970 121.747  95.863  1.00  0.00     0.050 A 
ATOM      3  C   UNL     1     103.074 120.996  96.276  1.00  0.00     0.004 A 
ATOM      4  C   UNL     1     103.154 119.637  95.965  1.00  0.00     0.004 A 
ATOM      5  C   UNL     1     102.129 119.025  95.241  1.00  0.00     0.050 A 
ATOM      6  C   UNL     1     101.018 119.771  94.824  1.00  0.00     0.157 A 
ENDROOT
BRANCH   1   7
ATOM      7  O   UNL     1      99.804 121.853  94.697  1.00  0.00    -0.493 OA
ATOM      8  C   UNL     1      99.833 123.200  94.237  1.00  0.00     0.278 C 
ENDBRANCH   1   7
BRANCH   6   9
ATOM      9  O   UNL     1      99.994 119.161  94.100  1.00  0.00    -0.504 OA
ATOM     10  H   UNL     1      99.259 119.704  93.660  1.00  0.00     0.293 HD
ENDBRANCH   6   9
TORSDOF 2
ENDMDL
MODEL 7
REMARK VINA RESULT:    -3.426      3.402      4.273
REMARK INTER + INTRA:          -3.772
REMARK INTER:                  -3.745
REMARK INTRA:                  -0.027
REMARK UNBOUND:                -0.046
REMARK SMILES COc1ccccc1O
REMARK SMILES IDX 3 1 4 2 5 3 6 4 7 5 8 6 2 7 1 8 9 9
REMARK H PARENT 9 10
REMARK Flexibility Score: inf
ROOT
ATOM      1  C   UNL     1     102.098 119.028  95.206  1.00  0.00     0.160 A 
ATOM      2  C   UNL     1     103.130 119.622  95.959  1.00  0.00     0.050 A 
ATOM      3  C   UNL     1     103.071 120.980  96.286  1.00  0.00     0.004 A 
ATOM      4  C   UNL     1     101.988 121.755  95.868  1.00  0.00     0.004 A 
ATOM      5  C   UNL     1     100.960 121.174  95.121  1.00  0.00     0.050 A 
ATOM      6  C   UNL     1     101.012 119.814  94.789  1.00  0.00     0.157 A 
ENDROOT
BRANCH   1   7
ATOM      7  O   UNL     1     102.116 117.669  94.854  1.00  0.00    -0.493 OA
ATOM      8  C   UNL     1     103.247 116.815  94.998  1.00  0.00     0.278 C 
ENDBRANCH   1   7
BRANCH   6   9
ATOM      9  O   UNL     1      99.987 119.233  94.044  1.00  0.00    -0.504 OA
ATOM     10  H   UNL     1      99.119 119.724  93.864  1.00  0.00     0.293 HD
ENDBRANCH   6   9
TORSDOF 2
ENDMDL
MODEL 8
REMARK VINA RESULT:    -3.294      4.228      5.754
REMARK INTER + INTRA:          -3.630
REMARK INTER:                  -3.587
REMARK INTRA:                  -0.043
REMARK UNBOUND:                -0.046
REMARK SMILES COc1ccccc1O
REMARK SMILES IDX 3 1 4 2 5 3 6 4 7 5 8 6 2 7 1 8 9 9
REMARK H PARENT 9 10
REMARK Flexibility Score: inf
ROOT
ATOM      1  C   UNL     1     101.508 120.318  95.307  1.00  0.00     0.160 A 
ATOM      2  C   UNL     1     100.869 119.402  94.449  1.00  0.00     0.050 A 
ATOM      3  C   UNL     1     101.471 118.175  94.153  1.00  0.00     0.004 A 
ATOM      4  C   UNL     1     102.711 117.852  94.708  1.00  0.00     0.004 A 
ATOM      5  C   UNL     1     103.352 118.754  95.560  1.00  0.00     0.050 A 
ATOM      6  C   UNL     1     102.754 119.986  95.860  1.00  0.00     0.157 A 
ENDROOT
BRANCH   1   7
ATOM      7  O   UNL     1     100.940 121.560  95.630  1.00  0.00    -0.493 OA
ATOM      8  C   UNL     1     101.032 122.725  94.816  1.00  0.00     0.278 C 
ENDBRANCH   1   7
BRANCH   6   9
ATOM      9  O   UNL     1     103.392 120.887  96.711  1.00  0.00    -0.504 OA
ATOM     10  H   UNL     1     104.390 121.060  96.650  1.00  0.00     0.293 HD
ENDBRANCH   6   9
TORSDOF 2
ENDMDL
