MODEL 1
REMARK VINA RESULT:    -3.368      0.000      0.000
REMARK INTER + INTRA:          -3.411
REMARK INTER:                  -4.156
REMARK INTRA:                   0.745
REMARK UNBOUND:                 0.745
REMARK SMILES CC1=CC=CC(C)(C)CC1=O
REMARK SMILES IDX 1 1 2 2 3 3 10 4 11 5 9 6 4 8 5 9 6 10 7 11 8 12
REMARK H PARENT
REMARK Flexibility Score: 80.00
ROOT
ATOM      1  C   UNL     1      -2.142  12.469  -1.051  1.00  0.00     0.048 C 
ATOM      2  C   UNL     1      -1.639  13.293   0.111  1.00  0.00    -0.008 C 
ATOM      3  C   UNL     1      -1.532  14.626  -0.066  1.00  0.00     0.007 C 
ENDROOT
BRANCH   2   4
ATOM      4  C   UNL     1      -1.375  12.574   1.383  1.00  0.00     0.159 C 
ATOM      5  O   UNL     1      -1.753  11.375   1.495  1.00  0.00    -0.295 OA
BRANCH   4   6
ATOM      6  C   UNL     1      -0.666  13.191   2.549  1.00  0.00     0.091 CG0
ATOM      7  G   UNL     1      -1.374  14.450   3.096  1.00  0.00     0.000 G0
ENDBRANCH   4   6
ENDBRANCH   2   4
BRANCH   3   8
ATOM      8  C   UNL     1      -1.103  15.681   0.882  1.00  0.00    -0.003 C 
ATOM      9  C   UNL     1      -1.029  15.636   2.219  1.00  0.00    -0.020 C 
BRANCH   9  10
ATOM     10  C   UNL     1      -1.353  14.449   3.096  1.00  0.00    -0.010 CG0
ATOM     11  C   UNL     1      -2.886  14.295   3.230  1.00  0.00     0.016 C 
ATOM     12  C   UNL     1      -0.777  14.716   4.505  1.00  0.00     0.016 C 
ATOM     13  G   UNL     1      -0.674  13.182   2.530  1.00  0.00     0.000 G0
ENDBRANCH   9  10
ENDBRANCH   3   8
TORSDOF 0
ENDMDL
MODEL 2
REMARK VINA RESULT:    -2.895     10.635     11.701
REMARK INTER + INTRA:          -2.827
REMARK INTER:                  -3.582
REMARK INTRA:                   0.756
REMARK UNBOUND:                 0.745
REMARK SMILES CC1=CC=CC(C)(C)CC1=O
REMARK SMILES IDX 1 1 2 2 3 3 10 4 11 5 9 6 4 8 5 9 6 10 7 11 8 12
REMARK H PARENT
REMARK Flexibility Score: 80.00
ROOT
ATOM      1  C   UNL     1      -8.887   8.829   4.979  1.00  0.00     0.048 C 
ATOM      2  C   UNL     1      -8.436   7.978   6.143  1.00  0.00    -0.008 C 
ATOM      3  C   UNL     1      -7.375   8.409   6.858  1.00  0.00     0.007 C 
ENDROOT
BRANCH   2   4
ATOM      4  C   UNL     1      -9.246   6.773   6.452  1.00  0.00     0.159 C 
ATOM      5  O   UNL     1     -10.359   6.625   5.879  1.00  0.00    -0.295 OA
BRANCH   4   6
ATOM      6  C   UNL     1      -8.805   5.705   7.405  1.00  0.00     0.091 CG0
ATOM      7  G   UNL     1      -8.558   6.229   8.836  1.00  0.00     0.000 G0
ENDBRANCH   4   6
ENDBRANCH   2   4
BRANCH   3   8
ATOM      8  C   UNL     1      -6.728   7.814   8.052  1.00  0.00    -0.003 C 
ATOM      9  C   UNL     1      -7.209   6.904   8.908  1.00  0.00    -0.020 C 
BRANCH   9  10
ATOM     10  C   UNL     1      -8.561   6.232   8.837  1.00  0.00    -0.010 CG0
ATOM     11  C   UNL     1      -9.660   7.206   9.320  1.00  0.00     0.016 C 
ATOM     12  C   UNL     1      -8.547   5.017   9.793  1.00  0.00     0.016 C 
ATOM     13  G   UNL     1      -8.810   5.715   7.404  1.00  0.00     0.000 G0
ENDBRANCH   9  10
ENDBRANCH   3   8
TORSDOF 0
ENDMDL
MODEL 3
REMARK VINA RESULT:    -2.711      8.899      9.866
REMARK INTER + INTRA:          -2.600
REMARK INTER:                  -3.344
REMARK INTRA:                   0.744
REMARK UNBOUND:                 0.745
REMARK SMILES CC1=CC=CC(C)(C)CC1=O
REMARK SMILES IDX 1 1 2 2 3 3 10 4 11 5 9 6 4 8 5 9 6 10 7 11 8 12
REMARK H PARENT
REMARK Flexibility Score: 80.00
ROOT
ATOM      1  C   UNL     1      -0.940   4.127  -1.384  1.00  0.00     0.048 C 
ATOM      2  C   UNL     1      -0.419   5.259  -2.238  1.00  0.00    -0.008 C 
ATOM      3  C   UNL     1       0.915   5.464  -2.259  1.00  0.00     0.007 C 
ENDROOT
BRANCH   2   4
ATOM      4  C   UNL     1      -1.414   6.008  -3.046  1.00  0.00     0.159 C 
ATOM      5  O   UNL     1      -2.585   5.551  -3.146  1.00  0.00    -0.295 OA
BRANCH   4   6
ATOM      6  C   UNL     1      -1.108   7.297  -3.744  1.00  0.00     0.091 CG0
ATOM      7  G   UNL     1       0.030   7.173  -4.781  1.00  0.00     0.000 G0
ENDBRANCH   4   6
ENDBRANCH   2   4
BRANCH   3   8
ATOM      8  C   UNL     1       1.712   6.462  -3.010  1.00  0.00    -0.003 C 
ATOM      9  C   UNL     1       1.365   7.188  -4.081  1.00  0.00    -0.020 C 
BRANCH   9  10
ATOM     10  C   UNL     1       0.024   7.174  -4.778  1.00  0.00    -0.010 CG0
ATOM     11  C   UNL     1      -0.099   5.910  -5.660  1.00  0.00     0.016 C 
ATOM     12  C   UNL     1      -0.054   8.410  -5.703  1.00  0.00     0.016 C 
ATOM     13  G   UNL     1      -1.107   7.283  -3.732  1.00  0.00     0.000 G0
ENDBRANCH   9  10
ENDBRANCH   3   8
TORSDOF 0
ENDMDL
MODEL 4
REMARK VINA RESULT:    -2.678     10.359     11.517
REMARK INTER + INTRA:          -2.559
REMARK INTER:                  -3.315
REMARK INTRA:                   0.757
REMARK UNBOUND:                 0.745
REMARK SMILES CC1=CC=CC(C)(C)CC1=O
REMARK SMILES IDX 1 1 2 2 3 3 10 4 11 5 9 6 4 8 5 9 6 10 7 11 8 12
REMARK H PARENT
REMARK Flexibility Score: 80.00
ROOT
ATOM      1  C   UNL     1       7.253  16.830  -3.281  1.00  0.00     0.048 C 
ATOM      2  C   UNL     1       7.174  15.863  -4.440  1.00  0.00    -0.008 C 
ATOM      3  C   UNL     1       8.138  15.937  -5.383  1.00  0.00     0.007 C 
ENDROOT
BRANCH   2   4
ATOM      4  C   UNL     1       6.081  14.859  -4.408  1.00  0.00     0.159 C 
ATOM      5  O   UNL     1       5.380  14.755  -3.365  1.00  0.00    -0.295 OA
BRANCH   4   6
ATOM      6  C   UNL     1       5.750  13.962  -5.561  1.00  0.00     0.091 CG0
ATOM      7  G   UNL     1       6.939  13.086  -6.013  1.00  0.00     0.000 G0
ENDBRANCH   4   6
ENDBRANCH   2   4
BRANCH   3   8
ATOM      8  C   UNL     1       8.341  15.118  -6.601  1.00  0.00    -0.003 C 
ATOM      9  C   UNL     1       7.856  13.905  -6.894  1.00  0.00    -0.020 C 
BRANCH   9  10
ATOM     10  C   UNL     1       6.937  13.073  -6.030  1.00  0.00    -0.010 CG0
ATOM     11  C   UNL     1       7.736  12.440  -4.867  1.00  0.00     0.016 C 
ATOM     12  C   UNL     1       6.366  11.926  -6.894  1.00  0.00     0.016 C 
ATOM     13  G   UNL     1       5.757  13.940  -5.540  1.00  0.00     0.000 G0
ENDBRANCH   9  10
ENDBRANCH   3   8
TORSDOF 0
ENDMDL
MODEL 5
REMARK VINA RESULT:    -2.576      1.606      3.623
REMARK INTER + INTRA:          -2.433
REMARK INTER:                  -3.189
REMARK INTRA:                   0.756
REMARK UNBOUND:                 0.745
REMARK SMILES CC1=CC=CC(C)(C)CC1=O
REMARK SMILES IDX 1 1 2 2 3 3 10 4 11 5 9 6 4 8 5 9 6 10 7 11 8 12
REMARK H PARENT
REMARK Flexibility Score: 80.00
ROOT
ATOM      1  C   UNL     1      -0.016  13.848   6.112  1.00  0.00     0.048 C 
ATOM      2  C   UNL     1      -0.595  14.239   4.773  1.00  0.00    -0.008 C 
ATOM      3  C   UNL     1       0.054  15.186   4.063  1.00  0.00     0.007 C 
ENDROOT
BRANCH   2   4
ATOM      4  C   UNL     1      -1.793  13.493   4.311  1.00  0.00     0.159 C 
ATOM      5  O   UNL     1      -2.136  12.449   4.931  1.00  0.00    -0.295 OA
BRANCH   4   6
ATOM      6  C   UNL     1      -2.635  13.920   3.149  1.00  0.00     0.091 CG0
ATOM      7  G   UNL     1      -1.854  13.972   1.817  1.00  0.00     0.000 G0
ENDBRANCH   4   6
ENDBRANCH   2   4
BRANCH   3   8
ATOM      8  C   UNL     1      -0.251  15.749   2.727  1.00  0.00    -0.003 C 
ATOM      9  C   UNL     1      -1.038  15.256   1.762  1.00  0.00    -0.020 C 
BRANCH   9  10
ATOM     10  C   UNL     1      -1.846  13.981   1.827  1.00  0.00    -0.010 CG0
ATOM     11  C   UNL     1      -0.919  12.759   1.626  1.00  0.00     0.016 C 
ATOM     12  C   UNL     1      -2.870  13.997   0.670  1.00  0.00     0.016 C 
ATOM     13  G   UNL     1      -2.625  13.925   3.159  1.00  0.00     0.000 G0
ENDBRANCH   9  10
ENDBRANCH   3   8
TORSDOF 0
ENDMDL
MODEL 6
REMARK VINA RESULT:    -2.503      8.714      9.856
REMARK INTER + INTRA:          -2.343
REMARK INTER:                  -3.093
REMARK INTRA:                   0.750
REMARK UNBOUND:                 0.745
REMARK SMILES CC1=CC=CC(C)(C)CC1=O
REMARK SMILES IDX 1 1 2 2 3 3 10 4 11 5 9 6 4 8 5 9 6 10 7 11 8 12
REMARK H PARENT
REMARK Flexibility Score: 80.00
ROOT
ATOM      1  C   UNL     1       1.013   9.720  -6.698  1.00  0.00     0.048 C 
ATOM      2  C   UNL     1       0.308   8.511  -6.128  1.00  0.00    -0.008 C 
ATOM      3  C   UNL     1       0.464   7.334  -6.770  1.00  0.00     0.007 C 
ENDROOT
BRANCH   2   4
ATOM      4  C   UNL     1      -0.443   8.704  -4.861  1.00  0.00     0.159 C 
ATOM      5  O   UNL     1      -0.298   9.784  -4.226  1.00  0.00    -0.295 OA
BRANCH   4   6
ATOM      6  C   UNL     1      -1.382   7.684  -4.296  1.00  0.00     0.091 CG0
ATOM      7  G   UNL     1      -0.701   6.334  -3.983  1.00  0.00     0.000 G0
ENDBRANCH   4   6
ENDBRANCH   2   4
BRANCH   3   8
ATOM      8  C   UNL     1      -0.072   5.993  -6.440  1.00  0.00    -0.003 C 
ATOM      9  C   UNL     1      -0.556   5.539  -5.277  1.00  0.00    -0.020 C 
BRANCH   9  10
ATOM     10  C   UNL     1      -0.697   6.327  -3.995  1.00  0.00    -0.010 CG0
ATOM     11  C   UNL     1       0.682   6.472  -3.311  1.00  0.00     0.016 C 
ATOM     12  C   UNL     1      -1.621   5.537  -3.041  1.00  0.00     0.016 C 
ATOM     13  G   UNL     1      -1.361   7.689  -4.292  1.00  0.00     0.000 G0
ENDBRANCH   9  10
ENDBRANCH   3   8
TORSDOF 0
ENDMDL
MODEL 7
REMARK VINA RESULT:    -2.500      8.765      9.530
REMARK INTER + INTRA:          -2.340
REMARK INTER:                  -3.100
REMARK INTRA:                   0.760
REMARK UNBOUND:                 0.745
REMARK SMILES CC1=CC=CC(C)(C)CC1=O
REMARK SMILES IDX 1 1 2 2 3 3 10 4 11 5 9 6 4 8 5 9 6 10 7 11 8 12
REMARK H PARENT
REMARK Flexibility Score: 80.00
ROOT
ATOM      1  C   UNL     1      -1.436   9.375  -7.024  1.00  0.00     0.048 C 
ATOM      2  C   UNL     1      -0.780   8.709  -5.837  1.00  0.00    -0.008 C 
ATOM      3  C   UNL     1      -1.472   7.740  -5.201  1.00  0.00     0.007 C 
ENDROOT
BRANCH   2   4
ATOM      4  C   UNL     1       0.608   9.125  -5.511  1.00  0.00     0.159 C 
ATOM      5  O   UNL     1       1.226   9.869  -6.321  1.00  0.00    -0.295 OA
BRANCH   4   6
ATOM      6  C   UNL     1       1.319   8.719  -4.257  1.00  0.00     0.091 CG0
ATOM      7  G   UNL     1       1.431   7.188  -4.088  1.00  0.00     0.000 G0
ENDBRANCH   4   6
ENDBRANCH   2   4
BRANCH   3   8
ATOM      8  C   UNL     1      -1.087   6.900  -4.042  1.00  0.00    -0.003 C 
ATOM      9  C   UNL     1       0.133   6.641  -3.555  1.00  0.00    -0.020 C 
BRANCH   9  10
ATOM     10  C   UNL     1       1.442   7.184  -4.079  1.00  0.00    -0.010 CG0
ATOM     11  C   UNL     1       1.837   6.448  -5.380  1.00  0.00     0.016 C 
ATOM     12  C   UNL     1       2.538   6.907  -3.024  1.00  0.00     0.016 C 
ATOM     13  G   UNL     1       1.333   8.713  -4.268  1.00  0.00     0.000 G0
ENDBRANCH   9  10
ENDBRANCH   3   8
TORSDOF 0
ENDMDL
MODEL 8
REMARK VINA RESULT:    -2.463      8.483     10.323
REMARK INTER + INTRA:          -2.294
REMARK INTER:                  -3.055
REMARK INTRA:                   0.761
REMARK UNBOUND:                 0.745
REMARK SMILES CC1=CC=CC(C)(C)CC1=O
REMARK SMILES IDX 1 1 2 2 3 3 10 4 11 5 9 6 4 8 5 9 6 10 7 11 8 12
REMARK H PARENT
REMARK Flexibility Score: 80.00
ROOT
ATOM      1  C   UNL     1      -0.023   9.170  -4.008  1.00  0.00     0.048 C 
ATOM      2  C   UNL     1       0.218   7.679  -4.000  1.00  0.00    -0.008 C 
ATOM      3  C   UNL     1       1.435   7.243  -3.612  1.00  0.00     0.007 C 
ENDROOT
BRANCH   2   4
ATOM      4  C   UNL     1      -0.932   6.807  -4.350  1.00  0.00     0.159 C 
ATOM      5  O   UNL     1      -2.085   7.317  -4.411  1.00  0.00    -0.295 OA
BRANCH   4   6
ATOM      6  C   UNL     1      -0.800   5.346  -4.651  1.00  0.00     0.091 CG0
ATOM      7  G   UNL     1      -0.227   4.530  -3.472  1.00  0.00     0.000 G0
ENDBRANCH   4   6
ENDBRANCH   2   4
BRANCH   3   8
ATOM      8  C   UNL     1       1.953   5.861  -3.477  1.00  0.00    -0.003 C 
ATOM      9  C   UNL     1       1.274   4.709  -3.400  1.00  0.00    -0.020 C 
BRANCH   9  10
ATOM     10  C   UNL     1      -0.227   4.545  -3.461  1.00  0.00    -0.010 CG0
ATOM     11  C   UNL     1      -0.857   4.957  -2.110  1.00  0.00     0.016 C 
ATOM     12  C   UNL     1      -0.542   3.051  -3.699  1.00  0.00     0.016 C 
ATOM     13  G   UNL     1      -0.790   5.352  -4.652  1.00  0.00     0.000 G0
ENDBRANCH   9  10
ENDBRANCH   3   8
TORSDOF 0
ENDMDL
MODEL 9
REMARK VINA RESULT:    -2.257      9.399     10.701
REMARK INTER + INTRA:          -2.039
REMARK INTER:                  -2.803
REMARK INTRA:                   0.763
REMARK UNBOUND:                 0.745
REMARK SMILES CC1=CC=CC(C)(C)CC1=O
REMARK SMILES IDX 1 1 2 2 3 3 10 4 11 5 9 6 4 8 5 9 6 10 7 11 8 12
REMARK H PARENT
REMARK Flexibility Score: 80.00
ROOT
ATOM      1  C   UNL     1      -1.360   7.682  -4.724  1.00  0.00     0.048 C 
ATOM      2  C   UNL     1      -0.830   6.548  -3.879  1.00  0.00    -0.008 C 
ATOM      3  C   UNL     1      -1.731   5.741  -3.278  1.00  0.00     0.007 C 
ENDROOT
BRANCH   2   4
ATOM      4  C   UNL     1       0.643   6.367  -3.839  1.00  0.00     0.159 C 
ATOM      5  O   UNL     1       1.358   7.019  -4.648  1.00  0.00    -0.295 OA
BRANCH   4   6
ATOM      6  C   UNL     1       1.337   5.457  -2.874  1.00  0.00     0.091 CG0
ATOM      7  G   UNL     1       0.904   3.980  -3.009  1.00  0.00     0.000 G0
ENDBRANCH   4   6
ENDBRANCH   2   4
BRANCH   3   8
ATOM      8  C   UNL     1      -1.519   4.549  -2.424  1.00  0.00    -0.003 C 
ATOM      9  C   UNL     1      -0.427   3.784  -2.297  1.00  0.00    -0.020 C 
BRANCH   9  10
ATOM     10  C   UNL     1       0.895   3.982  -3.003  1.00  0.00    -0.010 CG0
ATOM     11  C   UNL     1       0.784   3.515  -4.472  1.00  0.00     0.016 C 
ATOM     12  C   UNL     1       1.955   3.102  -2.301  1.00  0.00     0.016 C 
ATOM     13  G   UNL     1       1.335   5.457  -2.878  1.00  0.00     0.000 G0
ENDBRANCH   9  10
ENDBRANCH   3   8
TORSDOF 0
ENDMDL
