MODEL 1
REMARK VINA RESULT:    -6.130      0.000      0.000
REMARK INTER + INTRA:          -9.510
REMARK INTER:                  -8.638
REMARK INTRA:                  -0.872
REMARK UNBOUND:                -0.872
REMARK SMILES C[C@H](CO)CCC(=O)[C@H](C)[C@H]1C(=O)C[C@H]2[C@@H]3CC=C4C[C@@H](O)CC[C@]4(C)[C@@H]3CC[C@@]12C
REMARK SMILES IDX 6 1 5 2 2 3 1 4 3 5 4 6 7 8 8 9 9 10 10 11 11 12 12 13 30 14
REMARK SMILES IDX 13 15 14 16 15 17 29 18 31 19 16 20 28 21 27 22 17 23 25 24
REMARK SMILES IDX 18 25 19 26 24 27 26 28 20 29 23 30 21 31 22 32
REMARK H PARENT 4 7 22 33
REMARK Flexibility Score: inf
ROOT
ATOM      1  C   UNL     1       6.462 -27.589   2.041  1.00  0.00     0.076 C 
ENDROOT
BRANCH   1   2
ATOM      2  C   UNL     1       7.590 -28.435   2.660  1.00  0.00     0.013 C 
BRANCH   2   3
ATOM      3  C   UNL     1       7.154 -29.819   3.205  1.00  0.00     0.012 C 
ATOM      4  C   UNL     1       5.637 -29.925   3.430  1.00  0.00     0.010 C 
BRANCH   3   5
ATOM      5  C   UNL     1       7.952 -30.263   4.448  1.00  0.00     0.159 C 
BRANCH   5   6
ATOM      6  O   UNL     1       7.253 -29.992   5.633  1.00  0.00    -0.396 OA
ATOM      7  H   UNL     1       7.169 -30.860   6.107  1.00  0.00     0.210 HD
ENDBRANCH   5   6
ENDBRANCH   3   5
ENDBRANCH   2   3
ENDBRANCH   1   2
BRANCH   1   8
ATOM      8  C   UNL     1       6.583 -26.127   2.413  1.00  0.00     0.136 C 
ATOM      9  O   UNL     1       7.698 -25.652   2.575  1.00  0.00    -0.299 OA
BRANCH   8  10
ATOM     10  C   UNL     1       5.366 -25.243   2.642  1.00  0.00     0.064 C 
ATOM     11  C   UNL     1       5.401 -24.065   1.648  1.00  0.00     0.017 C 
BRANCH  10  12
ATOM     12  C   UNL     1       5.254 -24.806   4.152  1.00  0.00     0.072 C 
ATOM     13  C   UNL     1       4.263 -23.710   4.421  1.00  0.00     0.137 C 
ATOM     14  C   UNL     1       4.828 -25.920   5.191  1.00  0.00    -0.019 C 
ATOM     15  O   UNL     1       4.230 -22.654   3.808  1.00  0.00    -0.299 OA
ATOM     16  C   UNL     1       3.433 -23.932   5.624  1.00  0.00     0.080 C 
ATOM     17  C   UNL     1       4.126 -25.101   6.329  1.00  0.00     0.007 C 
ATOM     18  C   UNL     1       3.828 -26.946   4.584  1.00  0.00     0.008 C 
ATOM     19  C   UNL     1       6.087 -26.659   5.706  1.00  0.00     0.012 C 
ATOM     20  C   UNL     1       3.144 -25.860   7.278  1.00  0.00     0.001 C 
ATOM     21  C   UNL     1       3.059 -27.772   5.625  1.00  0.00     0.005 C 
ATOM     22  C   UNL     1       2.213 -26.856   6.538  1.00  0.00     0.003 C 
ATOM     23  C   UNL     1       3.893 -26.531   8.444  1.00  0.00     0.031 C 
ATOM     24  C   UNL     1       1.218 -27.584   7.540  1.00  0.00    -0.008 C 
ATOM     25  C   UNL     1       3.017 -27.393   9.299  1.00  0.00    -0.027 C 
ATOM     26  C   UNL     1       1.892 -27.989   8.856  1.00  0.00    -0.065 C 
ATOM     27  C   UNL     1       0.587 -28.860   6.892  1.00  0.00     0.014 C 
ATOM     28  C   UNL     1       0.075 -26.586   7.881  1.00  0.00     0.016 C 
ATOM     29  C   UNL     1       1.132 -28.892   9.815  1.00  0.00     0.063 C 
ATOM     30  C   UNL     1      -0.283 -29.682   7.855  1.00  0.00     0.033 C 
ATOM     31  C   UNL     1       0.535 -30.107   9.087  1.00  0.00     0.118 C 
BRANCH  31  32
ATOM     32  O   UNL     1      -0.252 -30.875   9.960  1.00  0.00    -0.393 OA
ATOM     33  H   UNL     1      -0.821 -30.250  10.483  1.00  0.00     0.210 HD
ENDBRANCH  31  32
ENDBRANCH  10  12
ENDBRANCH   8  10
ENDBRANCH   1   8
TORSDOF 8
ENDMDL
MODEL 2
REMARK VINA RESULT:    -6.043      3.979      8.617
REMARK INTER + INTRA:          -9.388
REMARK INTER:                  -8.584
REMARK INTRA:                  -0.804
REMARK UNBOUND:                -0.872
REMARK SMILES C[C@H](CO)CCC(=O)[C@H](C)[C@H]1C(=O)C[C@H]2[C@@H]3CC=C4C[C@@H](O)CC[C@]4(C)[C@@H]3CC[C@@]12C
REMARK SMILES IDX 6 1 5 2 2 3 1 4 3 5 4 6 7 8 8 9 9 10 10 11 11 12 12 13 30 14
REMARK SMILES IDX 13 15 14 16 15 17 29 18 31 19 16 20 28 21 27 22 17 23 25 24
REMARK SMILES IDX 18 25 19 26 24 27 26 28 20 29 23 30 21 31 22 32
REMARK H PARENT 4 7 22 33
REMARK Flexibility Score: inf
ROOT
ATOM      1  C   UNL     1       4.803 -25.217   5.724  1.00  0.00     0.076 C 
ENDROOT
BRANCH   1   2
ATOM      2  C   UNL     1       4.136 -25.213   7.110  1.00  0.00     0.013 C 
BRANCH   2   3
ATOM      3  C   UNL     1       4.872 -24.385   8.195  1.00  0.00     0.012 C 
ATOM      4  C   UNL     1       6.004 -23.518   7.623  1.00  0.00     0.010 C 
BRANCH   3   5
ATOM      5  C   UNL     1       5.346 -25.234   9.392  1.00  0.00     0.159 C 
BRANCH   5   6
ATOM      6  O   UNL     1       5.328 -26.603   9.092  1.00  0.00    -0.396 OA
ATOM      7  H   UNL     1       4.373 -26.844   8.969  1.00  0.00     0.210 HD
ENDBRANCH   5   6
ENDBRANCH   3   5
ENDBRANCH   2   3
ENDBRANCH   1   2
BRANCH   1   8
ATOM      8  C   UNL     1       5.541 -26.511   5.455  1.00  0.00     0.136 C 
ATOM      9  O   UNL     1       6.256 -26.973   6.334  1.00  0.00    -0.299 OA
BRANCH   8  10
ATOM     10  C   UNL     1       5.465 -27.229   4.116  1.00  0.00     0.064 C 
ATOM     11  C   UNL     1       4.194 -26.776   3.369  1.00  0.00     0.017 C 
BRANCH  10  12
ATOM     12  C   UNL     1       5.581 -28.790   4.298  1.00  0.00     0.072 C 
ATOM     13  C   UNL     1       4.268 -29.520   4.343  1.00  0.00     0.137 C 
ATOM     14  C   UNL     1       6.381 -29.584   3.189  1.00  0.00    -0.019 C 
ATOM     15  O   UNL     1       3.339 -29.210   5.071  1.00  0.00    -0.299 OA
ATOM     16  C   UNL     1       4.252 -30.774   3.560  1.00  0.00     0.080 C 
ATOM     17  C   UNL     1       5.727 -31.009   3.224  1.00  0.00     0.007 C 
ATOM     18  C   UNL     1       6.211 -28.959   1.773  1.00  0.00     0.008 C 
ATOM     19  C   UNL     1       7.883 -29.630   3.563  1.00  0.00     0.012 C 
ATOM     20  C   UNL     1       5.889 -31.920   1.965  1.00  0.00     0.001 C 
ATOM     21  C   UNL     1       6.589 -29.897   0.618  1.00  0.00     0.005 C 
ATOM     22  C   UNL     1       5.702 -31.163   0.624  1.00  0.00     0.003 C 
ATOM     23  C   UNL     1       7.214 -32.703   2.002  1.00  0.00     0.031 C 
ATOM     24  C   UNL     1       5.852 -32.134  -0.624  1.00  0.00    -0.008 C 
ATOM     25  C   UNL     1       7.486 -33.478   0.750  1.00  0.00    -0.027 C 
ATOM     26  C   UNL     1       6.996 -33.141  -0.459  1.00  0.00    -0.065 C 
ATOM     27  C   UNL     1       6.083 -31.332  -1.947  1.00  0.00     0.014 C 
ATOM     28  C   UNL     1       4.528 -32.939  -0.758  1.00  0.00     0.016 C 
ATOM     29  C   UNL     1       7.406 -33.980  -1.659  1.00  0.00     0.063 C 
ATOM     30  C   UNL     1       6.367 -32.218  -3.170  1.00  0.00     0.033 C 
ATOM     31  C   UNL     1       7.592 -33.111  -2.913  1.00  0.00     0.118 C 
BRANCH  31  32
ATOM     32  O   UNL     1       7.867 -33.908  -4.036  1.00  0.00    -0.393 OA
ATOM     33  H   UNL     1       8.150 -34.802  -3.710  1.00  0.00     0.210 HD
ENDBRANCH  31  32
ENDBRANCH  10  12
ENDBRANCH   8  10
ENDBRANCH   1   8
TORSDOF 8
ENDMDL
MODEL 3
REMARK VINA RESULT:    -6.002      3.777      8.570
REMARK INTER + INTRA:          -9.329
REMARK INTER:                  -8.798
REMARK INTRA:                  -0.531
REMARK UNBOUND:                -0.872
REMARK SMILES C[C@H](CO)CCC(=O)[C@H](C)[C@H]1C(=O)C[C@H]2[C@@H]3CC=C4C[C@@H](O)CC[C@]4(C)[C@@H]3CC[C@@]12C
REMARK SMILES IDX 6 1 5 2 2 3 1 4 3 5 4 6 7 8 8 9 9 10 10 11 11 12 12 13 30 14
REMARK SMILES IDX 13 15 14 16 15 17 29 18 31 19 16 20 28 21 27 22 17 23 25 24
REMARK SMILES IDX 18 25 19 26 24 27 26 28 20 29 23 30 21 31 22 32
REMARK H PARENT 4 7 22 33
REMARK Flexibility Score: inf
ROOT
ATOM      1  C   UNL     1       4.271 -25.336   5.894  1.00  0.00     0.076 C 
ENDROOT
BRANCH   1   2
ATOM      2  C   UNL     1       4.893 -24.076   6.521  1.00  0.00     0.013 C 
BRANCH   2   3
ATOM      3  C   UNL     1       4.833 -22.802   5.640  1.00  0.00     0.012 C 
ATOM      4  C   UNL     1       4.136 -23.037   4.291  1.00  0.00     0.010 C 
BRANCH   3   5
ATOM      5  C   UNL     1       6.204 -22.116   5.467  1.00  0.00     0.159 C 
BRANCH   5   6
ATOM      6  O   UNL     1       6.066 -20.740   5.239  1.00  0.00    -0.396 OA
ATOM      7  H   UNL     1       5.481 -20.651   4.442  1.00  0.00     0.210 HD
ENDBRANCH   5   6
ENDBRANCH   3   5
ENDBRANCH   2   3
ENDBRANCH   1   2
BRANCH   1   8
ATOM      8  C   UNL     1       5.312 -26.395   5.600  1.00  0.00     0.136 C 
ATOM      9  O   UNL     1       6.166 -26.629   6.443  1.00  0.00    -0.299 OA
BRANCH   8  10
ATOM     10  C   UNL     1       5.363 -27.139   4.274  1.00  0.00     0.064 C 
ATOM     11  C   UNL     1       4.190 -26.679   3.387  1.00  0.00     0.017 C 
BRANCH  10  12
ATOM     12  C   UNL     1       5.426 -28.698   4.497  1.00  0.00     0.072 C 
ATOM     13  C   UNL     1       4.092 -29.389   4.513  1.00  0.00     0.137 C 
ATOM     14  C   UNL     1       6.240 -29.542   3.436  1.00  0.00    -0.019 C 
ATOM     15  O   UNL     1       3.148 -29.033   5.200  1.00  0.00    -0.299 OA
ATOM     16  C   UNL     1       4.065 -30.660   3.760  1.00  0.00     0.080 C 
ATOM     17  C   UNL     1       5.544 -30.946   3.483  1.00  0.00     0.007 C 
ATOM     18  C   UNL     1       6.138 -28.949   2.001  1.00  0.00     0.008 C 
ATOM     19  C   UNL     1       7.726 -29.623   3.865  1.00  0.00     0.012 C 
ATOM     20  C   UNL     1       5.721 -31.894   2.252  1.00  0.00     0.001 C 
ATOM     21  C   UNL     1       6.529 -29.926   0.883  1.00  0.00     0.005 C 
ATOM     22  C   UNL     1       5.604 -31.164   0.888  1.00  0.00     0.003 C 
ATOM     23  C   UNL     1       7.021 -32.713   2.356  1.00  0.00     0.031 C 
ATOM     24  C   UNL     1       5.768 -32.171  -0.330  1.00  0.00    -0.008 C 
ATOM     25  C   UNL     1       7.313 -33.527   1.133  1.00  0.00    -0.027 C 
ATOM     26  C   UNL     1       6.875 -33.206  -0.101  1.00  0.00    -0.065 C 
ATOM     27  C   UNL     1       6.069 -31.410  -1.663  1.00  0.00     0.014 C 
ATOM     28  C   UNL     1       4.426 -32.940  -0.493  1.00  0.00     0.016 C 
ATOM     29  C   UNL     1       7.301 -34.086  -1.265  1.00  0.00     0.063 C 
ATOM     30  C   UNL     1       6.369 -32.334  -2.854  1.00  0.00     0.033 C 
ATOM     31  C   UNL     1       7.557 -33.255  -2.532  1.00  0.00     0.118 C 
BRANCH  31  32
ATOM     32  O   UNL     1       7.846 -34.088  -3.625  1.00  0.00    -0.393 OA
ATOM     33  H   UNL     1       7.000 -34.238  -4.122  1.00  0.00     0.210 HD
ENDBRANCH  31  32
ENDBRANCH  10  12
ENDBRANCH   8  10
ENDBRANCH   1   8
TORSDOF 8
ENDMDL
MODEL 4
REMARK VINA RESULT:    -5.942      3.086      6.590
REMARK INTER + INTRA:          -9.245
REMARK INTER:                  -8.379
REMARK INTRA:                  -0.865
REMARK UNBOUND:                -0.872
REMARK SMILES C[C@H](CO)CCC(=O)[C@H](C)[C@H]1C(=O)C[C@H]2[C@@H]3CC=C4C[C@@H](O)CC[C@]4(C)[C@@H]3CC[C@@]12C
REMARK SMILES IDX 6 1 5 2 2 3 1 4 3 5 4 6 7 8 8 9 9 10 10 11 11 12 12 13 30 14
REMARK SMILES IDX 13 15 14 16 15 17 29 18 31 19 16 20 28 21 27 22 17 23 25 24
REMARK SMILES IDX 18 25 19 26 24 27 26 28 20 29 23 30 21 31 22 32
REMARK H PARENT 4 7 22 33
REMARK Flexibility Score: inf
ROOT
ATOM      1  C   UNL     1       6.805 -33.393   1.529  1.00  0.00     0.076 C 
ENDROOT
BRANCH   1   2
ATOM      2  C   UNL     1       6.839 -32.511   0.268  1.00  0.00     0.013 C 
BRANCH   2   3
ATOM      3  C   UNL     1       5.453 -32.185  -0.346  1.00  0.00     0.012 C 
ATOM      4  C   UNL     1       4.364 -33.188   0.062  1.00  0.00     0.010 C 
BRANCH   3   5
ATOM      5  C   UNL     1       5.499 -31.974  -1.874  1.00  0.00     0.159 C 
BRANCH   5   6
ATOM      6  O   UNL     1       5.148 -30.663  -2.223  1.00  0.00    -0.396 OA
ATOM      7  H   UNL     1       4.491 -30.364  -1.542  1.00  0.00     0.210 HD
ENDBRANCH   5   6
ENDBRANCH   3   5
ENDBRANCH   2   3
ENDBRANCH   1   2
BRANCH   1   8
ATOM      8  C   UNL     1       6.995 -32.580   2.792  1.00  0.00     0.136 C 
ATOM      9  O   UNL     1       8.115 -32.170   3.064  1.00  0.00    -0.299 OA
BRANCH   8  10
ATOM     10  C   UNL     1       5.855 -32.300   3.759  1.00  0.00     0.064 C 
ATOM     11  C   UNL     1       5.174 -33.629   4.140  1.00  0.00     0.017 C 
BRANCH  10  12
ATOM     12  C   UNL     1       4.869 -31.217   3.178  1.00  0.00     0.072 C 
ATOM     13  C   UNL     1       3.514 -31.183   3.827  1.00  0.00     0.137 C 
ATOM     14  C   UNL     1       5.331 -29.706   3.264  1.00  0.00    -0.019 C 
ATOM     15  O   UNL     1       2.808 -32.166   3.984  1.00  0.00    -0.299 OA
ATOM     16  C   UNL     1       3.013 -29.819   4.101  1.00  0.00     0.080 C 
ATOM     17  C   UNL     1       3.977 -28.918   3.323  1.00  0.00     0.007 C 
ATOM     18  C   UNL     1       6.169 -29.414   4.542  1.00  0.00     0.008 C 
ATOM     19  C   UNL     1       6.154 -29.342   2.004  1.00  0.00     0.012 C 
ATOM     20  C   UNL     1       3.998 -27.467   3.905  1.00  0.00     0.001 C 
ATOM     21  C   UNL     1       6.278 -27.925   4.901  1.00  0.00     0.005 C 
ATOM     22  C   UNL     1       4.881 -27.322   5.172  1.00  0.00     0.003 C 
ATOM     23  C   UNL     1       4.367 -26.434   2.826  1.00  0.00     0.031 C 
ATOM     24  C   UNL     1       4.852 -25.838   5.739  1.00  0.00    -0.008 C 
ATOM     25  C   UNL     1       4.546 -25.047   3.363  1.00  0.00    -0.027 C 
ATOM     26  C   UNL     1       4.908 -24.778   4.633  1.00  0.00    -0.065 C 
ATOM     27  C   UNL     1       6.033 -25.583   6.732  1.00  0.00     0.014 C 
ATOM     28  C   UNL     1       3.512 -25.651   6.507  1.00  0.00     0.016 C 
ATOM     29  C   UNL     1       5.118 -23.325   5.028  1.00  0.00     0.063 C 
ATOM     30  C   UNL     1       6.138 -24.127   7.214  1.00  0.00     0.033 C 
ATOM     31  C   UNL     1       6.285 -23.175   6.015  1.00  0.00     0.118 C 
BRANCH  31  32
ATOM     32  O   UNL     1       6.401 -21.846   6.453  1.00  0.00    -0.393 OA
ATOM     33  H   UNL     1       6.025 -21.796   7.371  1.00  0.00     0.210 HD
ENDBRANCH  31  32
ENDBRANCH  10  12
ENDBRANCH   8  10
ENDBRANCH   1   8
TORSDOF 8
ENDMDL
MODEL 5
REMARK VINA RESULT:    -5.897      2.153      4.598
REMARK INTER + INTRA:          -9.182
REMARK INTER:                  -8.045
REMARK INTRA:                  -1.137
REMARK UNBOUND:                -0.872
REMARK SMILES C[C@H](CO)CCC(=O)[C@H](C)[C@H]1C(=O)C[C@H]2[C@@H]3CC=C4C[C@@H](O)CC[C@]4(C)[C@@H]3CC[C@@]12C
REMARK SMILES IDX 6 1 5 2 2 3 1 4 3 5 4 6 7 8 8 9 9 10 10 11 11 12 12 13 30 14
REMARK SMILES IDX 13 15 14 16 15 17 29 18 31 19 16 20 28 21 27 22 17 23 25 24
REMARK SMILES IDX 18 25 19 26 24 27 26 28 20 29 23 30 21 31 22 32
REMARK H PARENT 4 7 22 33
REMARK Flexibility Score: inf
ROOT
ATOM      1  C   UNL     1       4.697 -23.340   5.275  1.00  0.00     0.076 C 
ENDROOT
BRANCH   1   2
ATOM      2  C   UNL     1       6.031 -23.258   4.513  1.00  0.00     0.013 C 
BRANCH   2   3
ATOM      3  C   UNL     1       5.991 -23.779   3.053  1.00  0.00     0.012 C 
ATOM      4  C   UNL     1       4.651 -24.437   2.687  1.00  0.00     0.010 C 
BRANCH   3   5
ATOM      5  C   UNL     1       7.191 -24.680   2.694  1.00  0.00     0.159 C 
BRANCH   5   6
ATOM      6  O   UNL     1       6.777 -25.971   2.339  1.00  0.00    -0.396 OA
ATOM      7  H   UNL     1       7.591 -26.441   2.020  1.00  0.00     0.210 HD
ENDBRANCH   5   6
ENDBRANCH   3   5
ENDBRANCH   2   3
ENDBRANCH   1   2
BRANCH   1   8
ATOM      8  C   UNL     1       4.898 -23.704   6.730  1.00  0.00     0.136 C 
ATOM      9  O   UNL     1       5.367 -22.866   7.487  1.00  0.00    -0.299 OA
BRANCH   8  10
ATOM     10  C   UNL     1       4.586 -25.091   7.272  1.00  0.00     0.064 C 
ATOM     11  C   UNL     1       5.886 -25.741   7.786  1.00  0.00     0.017 C 
BRANCH  10  12
ATOM     12  C   UNL     1       3.811 -25.958   6.209  1.00  0.00     0.072 C 
ATOM     13  C   UNL     1       4.636 -27.015   5.533  1.00  0.00     0.137 C 
ATOM     14  C   UNL     1       2.558 -26.775   6.725  1.00  0.00    -0.019 C 
ATOM     15  O   UNL     1       5.717 -26.803   5.005  1.00  0.00    -0.299 OA
ATOM     16  C   UNL     1       3.948 -28.316   5.390  1.00  0.00     0.080 C 
ATOM     17  C   UNL     1       2.492 -27.993   5.740  1.00  0.00     0.007 C 
ATOM     18  C   UNL     1       2.743 -27.284   8.184  1.00  0.00     0.008 C 
ATOM     19  C   UNL     1       1.289 -25.892   6.636  1.00  0.00     0.012 C 
ATOM     20  C   UNL     1       1.719 -29.270   6.204  1.00  0.00     0.001 C 
ATOM     21  C   UNL     1       1.786 -28.417   8.585  1.00  0.00     0.005 C 
ATOM     22  C   UNL     1       1.991 -29.654   7.682  1.00  0.00     0.003 C 
ATOM     23  C   UNL     1       0.213 -29.154   5.909  1.00  0.00     0.031 C 
ATOM     24  C   UNL     1       1.204 -30.969   8.100  1.00  0.00    -0.008 C 
ATOM     25  C   UNL     1      -0.594 -30.286   6.466  1.00  0.00    -0.027 C 
ATOM     26  C   UNL     1      -0.224 -31.010   7.542  1.00  0.00    -0.065 C 
ATOM     27  C   UNL     1       1.133 -31.123   9.655  1.00  0.00     0.014 C 
ATOM     28  C   UNL     1       1.975 -32.188   7.517  1.00  0.00     0.016 C 
ATOM     29  C   UNL     1      -1.170 -32.089   8.042  1.00  0.00     0.063 C 
ATOM     30  C   UNL     1       0.271 -32.305  10.125  1.00  0.00     0.033 C 
ATOM     31  C   UNL     1      -1.160 -32.177   9.576  1.00  0.00     0.118 C 
BRANCH  31  32
ATOM     32  O   UNL     1      -1.956 -33.246  10.019  1.00  0.00    -0.393 OA
ATOM     33  H   UNL     1      -2.906 -32.988   9.891  1.00  0.00     0.210 HD
ENDBRANCH  31  32
ENDBRANCH  10  12
ENDBRANCH   8  10
ENDBRANCH   1   8
TORSDOF 8
ENDMDL
MODEL 6
REMARK VINA RESULT:    -5.771      3.196      8.184
REMARK INTER + INTRA:          -9.004
REMARK INTER:                  -8.263
REMARK INTRA:                  -0.741
REMARK UNBOUND:                -0.872
REMARK SMILES C[C@H](CO)CCC(=O)[C@H](C)[C@H]1C(=O)C[C@H]2[C@@H]3CC=C4C[C@@H](O)CC[C@]4(C)[C@@H]3CC[C@@]12C
REMARK SMILES IDX 6 1 5 2 2 3 1 4 3 5 4 6 7 8 8 9 9 10 10 11 11 12 12 13 30 14
REMARK SMILES IDX 13 15 14 16 15 17 29 18 31 19 16 20 28 21 27 22 17 23 25 24
REMARK SMILES IDX 18 25 19 26 24 27 26 28 20 29 23 30 21 31 22 32
REMARK H PARENT 4 7 22 33
REMARK Flexibility Score: inf
ROOT
ATOM      1  C   UNL     1       2.534 -25.399   6.379  1.00  0.00     0.076 C 
ENDROOT
BRANCH   1   2
ATOM      2  C   UNL     1       3.981 -24.876   6.356  1.00  0.00     0.013 C 
BRANCH   2   3
ATOM      3  C   UNL     1       4.684 -24.818   7.737  1.00  0.00     0.012 C 
ATOM      4  C   UNL     1       5.370 -23.469   8.005  1.00  0.00     0.010 C 
BRANCH   3   5
ATOM      5  C   UNL     1       5.636 -26.007   7.986  1.00  0.00     0.159 C 
BRANCH   5   6
ATOM      6  O   UNL     1       5.375 -26.625   9.217  1.00  0.00    -0.396 OA
ATOM      7  H   UNL     1       6.023 -27.373   9.291  1.00  0.00     0.210 HD
ENDBRANCH   5   6
ENDBRANCH   3   5
ENDBRANCH   2   3
ENDBRANCH   1   2
BRANCH   1   8
ATOM      8  C   UNL     1       2.480 -26.910   6.455  1.00  0.00     0.136 C 
ATOM      9  O   UNL     1       2.334 -27.439   7.548  1.00  0.00    -0.299 OA
BRANCH   8  10
ATOM     10  C   UNL     1       2.651 -27.792   5.228  1.00  0.00     0.064 C 
ATOM     11  C   UNL     1       1.269 -28.296   4.768  1.00  0.00     0.017 C 
BRANCH  10  12
ATOM     12  C   UNL     1       3.698 -28.940   5.492  1.00  0.00     0.072 C 
ATOM     13  C   UNL     1       3.120 -30.326   5.532  1.00  0.00     0.137 C 
ATOM     14  C   UNL     1       4.878 -29.088   4.449  1.00  0.00    -0.019 C 
ATOM     15  O   UNL     1       2.159 -30.645   6.214  1.00  0.00    -0.299 OA
ATOM     16  C   UNL     1       3.926 -31.335   4.813  1.00  0.00     0.080 C 
ATOM     17  C   UNL     1       5.246 -30.610   4.536  1.00  0.00     0.007 C 
ATOM     18  C   UNL     1       4.437 -28.733   2.999  1.00  0.00     0.008 C 
ATOM     19  C   UNL     1       6.062 -28.184   4.872  1.00  0.00     0.012 C 
ATOM     20  C   UNL     1       6.008 -31.249   3.330  1.00  0.00     0.001 C 
ATOM     21  C   UNL     1       5.379 -29.256   1.905  1.00  0.00     0.005 C 
ATOM     22  C   UNL     1       5.467 -30.798   1.947  1.00  0.00     0.003 C 
ATOM     23  C   UNL     1       7.528 -31.039   3.448  1.00  0.00     0.031 C 
ATOM     24  C   UNL     1       6.255 -31.492   0.755  1.00  0.00    -0.008 C 
ATOM     25  C   UNL     1       8.291 -31.503   2.246  1.00  0.00    -0.027 C 
ATOM     26  C   UNL     1       7.766 -31.568   1.006  1.00  0.00    -0.065 C 
ATOM     27  C   UNL     1       6.014 -30.747  -0.599  1.00  0.00     0.014 C 
ATOM     28  C   UNL     1       5.724 -32.947   0.620  1.00  0.00     0.016 C 
ATOM     29  C   UNL     1       8.673 -31.995  -0.137  1.00  0.00     0.063 C 
ATOM     30  C   UNL     1       6.853 -31.289  -1.766  1.00  0.00     0.033 C 
ATOM     31  C   UNL     1       8.351 -31.223  -1.426  1.00  0.00     0.118 C 
BRANCH  31  32
ATOM     32  O   UNL     1       9.122 -31.701  -2.499  1.00  0.00    -0.393 OA
ATOM     33  H   UNL     1       9.659 -32.467  -2.167  1.00  0.00     0.210 HD
ENDBRANCH  31  32
ENDBRANCH  10  12
ENDBRANCH   8  10
ENDBRANCH   1   8
TORSDOF 8
ENDMDL
MODEL 7
REMARK VINA RESULT:    -5.638      4.442      9.709
REMARK INTER + INTRA:          -8.817
REMARK INTER:                  -8.247
REMARK INTRA:                  -0.570
REMARK UNBOUND:                -0.872
REMARK SMILES C[C@H](CO)CCC(=O)[C@H](C)[C@H]1C(=O)C[C@H]2[C@@H]3CC=C4C[C@@H](O)CC[C@]4(C)[C@@H]3CC[C@@]12C
REMARK SMILES IDX 6 1 5 2 2 3 1 4 3 5 4 6 7 8 8 9 9 10 10 11 11 12 12 13 30 14
REMARK SMILES IDX 13 15 14 16 15 17 29 18 31 19 16 20 28 21 27 22 17 23 25 24
REMARK SMILES IDX 18 25 19 26 24 27 26 28 20 29 23 30 21 31 22 32
REMARK H PARENT 4 7 22 33
REMARK Flexibility Score: inf
ROOT
ATOM      1  C   UNL     1       4.579 -26.093   4.066  1.00  0.00     0.076 C 
ENDROOT
BRANCH   1   2
ATOM      2  C   UNL     1       5.469 -24.859   3.834  1.00  0.00     0.013 C 
BRANCH   2   3
ATOM      3  C   UNL     1       5.074 -23.599   4.646  1.00  0.00     0.012 C 
ATOM      4  C   UNL     1       4.897 -23.883   6.146  1.00  0.00     0.010 C 
BRANCH   3   5
ATOM      5  C   UNL     1       3.863 -22.848   4.056  1.00  0.00     0.159 C 
BRANCH   5   6
ATOM      6  O   UNL     1       3.888 -22.853   2.654  1.00  0.00    -0.396 OA
ATOM      7  H   UNL     1       4.587 -23.508   2.395  1.00  0.00     0.210 HD
ENDBRANCH   5   6
ENDBRANCH   3   5
ENDBRANCH   2   3
ENDBRANCH   1   2
BRANCH   1   8
ATOM      8  C   UNL     1       5.386 -27.299   4.496  1.00  0.00     0.136 C 
ATOM      9  O   UNL     1       6.020 -27.240   5.541  1.00  0.00    -0.299 OA
BRANCH   8  10
ATOM     10  C   UNL     1       5.477 -28.561   3.652  1.00  0.00     0.064 C 
ATOM     11  C   UNL     1       5.073 -29.777   4.510  1.00  0.00     0.017 C 
BRANCH  10  12
ATOM     12  C   UNL     1       6.894 -28.694   2.976  1.00  0.00     0.072 C 
ATOM     13  C   UNL     1       7.753 -29.800   3.521  1.00  0.00     0.137 C 
ATOM     14  C   UNL     1       6.923 -28.970   1.419  1.00  0.00    -0.019 C 
ATOM     15  O   UNL     1       7.980 -29.965   4.709  1.00  0.00    -0.299 OA
ATOM     16  C   UNL     1       8.464 -30.576   2.483  1.00  0.00     0.080 C 
ATOM     17  C   UNL     1       8.273 -29.740   1.214  1.00  0.00     0.007 C 
ATOM     18  C   UNL     1       5.733 -29.858   0.952  1.00  0.00     0.008 C 
ATOM     19  C   UNL     1       6.905 -27.625   0.652  1.00  0.00     0.012 C 
ATOM     20  C   UNL     1       8.433 -30.611  -0.073  1.00  0.00     0.001 C 
ATOM     21  C   UNL     1       5.930 -30.507  -0.426  1.00  0.00     0.005 C 
ATOM     22  C   UNL     1       7.166 -31.435  -0.424  1.00  0.00     0.003 C 
ATOM     23  C   UNL     1       8.918 -29.768  -1.267  1.00  0.00     0.031 C 
ATOM     24  C   UNL     1       7.384 -32.321  -1.724  1.00  0.00    -0.008 C 
ATOM     25  C   UNL     1       8.945 -30.523  -2.560  1.00  0.00    -0.027 C 
ATOM     26  C   UNL     1       8.153 -31.581  -2.826  1.00  0.00    -0.065 C 
ATOM     27  C   UNL     1       6.022 -32.813  -2.315  1.00  0.00     0.014 C 
ATOM     28  C   UNL     1       8.224 -33.564  -1.315  1.00  0.00     0.016 C 
ATOM     29  C   UNL     1       8.238 -32.214  -4.205  1.00  0.00     0.063 C 
ATOM     30  C   UNL     1       6.158 -33.565  -3.649  1.00  0.00     0.033 C 
ATOM     31  C   UNL     1       6.858 -32.681  -4.694  1.00  0.00     0.118 C 
BRANCH  31  32
ATOM     32  O   UNL     1       6.967 -33.358  -5.920  1.00  0.00    -0.393 OA
ATOM     33  H   UNL     1       7.647 -34.073  -5.811  1.00  0.00     0.210 HD
ENDBRANCH  31  32
ENDBRANCH  10  12
ENDBRANCH   8  10
ENDBRANCH   1   8
TORSDOF 8
ENDMDL
MODEL 8
REMARK VINA RESULT:    -5.524      4.552      9.570
REMARK INTER + INTRA:          -8.656
REMARK INTER:                  -8.288
REMARK INTRA:                  -0.368
REMARK UNBOUND:                -0.872
REMARK SMILES C[C@H](CO)CCC(=O)[C@H](C)[C@H]1C(=O)C[C@H]2[C@@H]3CC=C4C[C@@H](O)CC[C@]4(C)[C@@H]3CC[C@@]12C
REMARK SMILES IDX 6 1 5 2 2 3 1 4 3 5 4 6 7 8 8 9 9 10 10 11 11 12 12 13 30 14
REMARK SMILES IDX 13 15 14 16 15 17 29 18 31 19 16 20 28 21 27 22 17 23 25 24
REMARK SMILES IDX 18 25 19 26 24 27 26 28 20 29 23 30 21 31 22 32
REMARK H PARENT 4 7 22 33
REMARK Flexibility Score: inf
ROOT
ATOM      1  C   UNL     1       5.638 -26.873   5.758  1.00  0.00     0.076 C 
ENDROOT
BRANCH   1   2
ATOM      2  C   UNL     1       4.691 -25.868   6.435  1.00  0.00     0.013 C 
BRANCH   2   3
ATOM      3  C   UNL     1       5.359 -24.922   7.466  1.00  0.00     0.012 C 
ATOM      4  C   UNL     1       6.872 -24.768   7.246  1.00  0.00     0.010 C 
BRANCH   3   5
ATOM      5  C   UNL     1       5.023 -25.279   8.928  1.00  0.00     0.159 C 
BRANCH   5   6
ATOM      6  O   UNL     1       5.365 -26.605   9.225  1.00  0.00    -0.396 OA
ATOM      7  H   UNL     1       4.933 -27.163   8.527  1.00  0.00     0.210 HD
ENDBRANCH   5   6
ENDBRANCH   3   5
ENDBRANCH   2   3
ENDBRANCH   1   2
BRANCH   1   8
ATOM      8  C   UNL     1       5.377 -26.983   4.271  1.00  0.00     0.136 C 
ATOM      9  O   UNL     1       5.053 -25.977   3.655  1.00  0.00    -0.299 OA
BRANCH   8  10
ATOM     10  C   UNL     1       5.453 -28.307   3.526  1.00  0.00     0.064 C 
ATOM     11  C   UNL     1       4.998 -29.443   4.463  1.00  0.00     0.017 C 
BRANCH  10  12
ATOM     12  C   UNL     1       6.881 -28.527   2.898  1.00  0.00     0.072 C 
ATOM     13  C   UNL     1       7.674 -29.650   3.505  1.00  0.00     0.137 C 
ATOM     14  C   UNL     1       6.942 -28.857   1.352  1.00  0.00    -0.019 C 
ATOM     15  O   UNL     1       7.859 -29.783   4.704  1.00  0.00    -0.299 OA
ATOM     16  C   UNL     1       8.377 -30.492   2.515  1.00  0.00     0.080 C 
ATOM     17  C   UNL     1       8.261 -29.693   1.214  1.00  0.00     0.007 C 
ATOM     18  C   UNL     1       5.726 -29.706   0.879  1.00  0.00     0.008 C 
ATOM     19  C   UNL     1       7.006 -27.540   0.540  1.00  0.00     0.012 C 
ATOM     20  C   UNL     1       8.417 -30.614  -0.039  1.00  0.00     0.001 C 
ATOM     21  C   UNL     1       5.932 -30.411  -0.469  1.00  0.00     0.005 C 
ATOM     22  C   UNL     1       7.124 -31.393  -0.400  1.00  0.00     0.003 C 
ATOM     23  C   UNL     1       8.973 -29.835  -1.245  1.00  0.00     0.031 C 
ATOM     24  C   UNL     1       7.339 -32.331  -1.663  1.00  0.00    -0.008 C 
ATOM     25  C   UNL     1       9.003 -30.635  -2.511  1.00  0.00    -0.027 C 
ATOM     26  C   UNL     1       8.171 -31.665  -2.765  1.00  0.00    -0.065 C 
ATOM     27  C   UNL     1       5.973 -32.783  -2.277  1.00  0.00     0.014 C 
ATOM     28  C   UNL     1       8.109 -33.596  -1.187  1.00  0.00     0.016 C 
ATOM     29  C   UNL     1       8.266 -32.349  -4.119  1.00  0.00     0.063 C 
ATOM     30  C   UNL     1       6.112 -33.586  -3.580  1.00  0.00     0.033 C 
ATOM     31  C   UNL     1       6.881 -32.771  -4.633  1.00  0.00     0.118 C 
BRANCH  31  32
ATOM     32  O   UNL     1       6.993 -33.494  -5.832  1.00  0.00    -0.393 OA
ATOM     33  H   UNL     1       6.074 -33.695  -6.150  1.00  0.00     0.210 HD
ENDBRANCH  31  32
ENDBRANCH  10  12
ENDBRANCH   8  10
ENDBRANCH   1   8
TORSDOF 8
ENDMDL
MODEL 9
REMARK VINA RESULT:    -5.445      2.367      5.352
REMARK INTER + INTRA:          -8.545
REMARK INTER:                  -7.986
REMARK INTRA:                  -0.559
REMARK UNBOUND:                -0.872
REMARK SMILES C[C@H](CO)CCC(=O)[C@H](C)[C@H]1C(=O)C[C@H]2[C@@H]3CC=C4C[C@@H](O)CC[C@]4(C)[C@@H]3CC[C@@]12C
REMARK SMILES IDX 6 1 5 2 2 3 1 4 3 5 4 6 7 8 8 9 9 10 10 11 11 12 12 13 30 14
REMARK SMILES IDX 13 15 14 16 15 17 29 18 31 19 16 20 28 21 27 22 17 23 25 24
REMARK SMILES IDX 18 25 19 26 24 27 26 28 20 29 23 30 21 31 22 32
REMARK H PARENT 4 7 22 33
REMARK Flexibility Score: inf
ROOT
ATOM      1  C   UNL     1       4.584 -24.395   3.653  1.00  0.00     0.076 C 
ENDROOT
BRANCH   1   2
ATOM      2  C   UNL     1       4.482 -23.578   4.953  1.00  0.00     0.013 C 
BRANCH   2   3
ATOM      3  C   UNL     1       5.835 -23.268   5.645  1.00  0.00     0.012 C 
ATOM      4  C   UNL     1       5.726 -23.211   7.177  1.00  0.00     0.010 C 
BRANCH   3   5
ATOM      5  C   UNL     1       6.542 -22.023   5.072  1.00  0.00     0.159 C 
BRANCH   5   6
ATOM      6  O   UNL     1       5.774 -20.865   5.254  1.00  0.00    -0.396 OA
ATOM      7  H   UNL     1       5.068 -21.105   5.910  1.00  0.00     0.210 HD
ENDBRANCH   5   6
ENDBRANCH   3   5
ENDBRANCH   2   3
ENDBRANCH   1   2
BRANCH   1   8
ATOM      8  C   UNL     1       5.196 -25.759   3.889  1.00  0.00     0.136 C 
ATOM      9  O   UNL     1       6.111 -26.126   3.165  1.00  0.00    -0.299 OA
BRANCH   8  10
ATOM     10  C   UNL     1       4.681 -26.708   4.961  1.00  0.00     0.064 C 
ATOM     11  C   UNL     1       5.726 -26.817   6.088  1.00  0.00     0.017 C 
BRANCH  10  12
ATOM     12  C   UNL     1       4.258 -28.093   4.341  1.00  0.00     0.072 C 
ATOM     13  C   UNL     1       5.288 -29.180   4.459  1.00  0.00     0.137 C 
ATOM     14  C   UNL     1       2.962 -28.779   4.935  1.00  0.00    -0.019 C 
ATOM     15  O   UNL     1       6.455 -29.053   4.122  1.00  0.00    -0.299 OA
ATOM     16  C   UNL     1       4.734 -30.493   4.850  1.00  0.00     0.080 C 
ATOM     17  C   UNL     1       3.222 -30.307   4.696  1.00  0.00     0.007 C 
ATOM     18  C   UNL     1       2.790 -28.503   6.457  1.00  0.00     0.008 C 
ATOM     19  C   UNL     1       1.712 -28.281   4.169  1.00  0.00     0.012 C 
ATOM     20  C   UNL     1       2.428 -31.330   5.570  1.00  0.00     0.001 C 
ATOM     21  C   UNL     1       1.827 -29.465   7.169  1.00  0.00     0.005 C 
ATOM     22  C   UNL     1       2.328 -30.923   7.064  1.00  0.00     0.003 C 
ATOM     23  C   UNL     1       1.045 -31.635   4.964  1.00  0.00     0.031 C 
ATOM     24  C   UNL     1       1.534 -32.004   7.914  1.00  0.00    -0.008 C 
ATOM     25  C   UNL     1       0.186 -32.495   5.839  1.00  0.00    -0.027 C 
ATOM     26  C   UNL     1       0.305 -32.552   7.180  1.00  0.00    -0.065 C 
ATOM     27  C   UNL     1       1.071 -31.421   9.290  1.00  0.00     0.014 C 
ATOM     28  C   UNL     1       2.496 -33.196   8.182  1.00  0.00     0.016 C 
ATOM     29  C   UNL     1      -0.677 -33.419   7.952  1.00  0.00     0.063 C 
ATOM     30  C   UNL     1       0.184 -32.375  10.104  1.00  0.00     0.033 C 
ATOM     31  C   UNL     1      -1.060 -32.774   9.293  1.00  0.00     0.118 C 
BRANCH  31  32
ATOM     32  O   UNL     1      -1.883 -33.632  10.042  1.00  0.00    -0.393 OA
ATOM     33  H   UNL     1      -1.929 -33.274  10.967  1.00  0.00     0.210 HD
ENDBRANCH  31  32
ENDBRANCH  10  12
ENDBRANCH   8  10
ENDBRANCH   1   8
TORSDOF 8
ENDMDL
