MODEL 1
REMARK VINA RESULT:    -5.145      0.000      0.000
REMARK INTER + INTRA:          -7.933
REMARK INTER:                  -6.950
REMARK INTRA:                  -0.983
REMARK UNBOUND:                -0.983
REMARK SMILES CC(=O)CCC=C(C)CCC=C(C)C
REMARK SMILES IDX 7 1 6 2 8 3 9 4 10 5 11 6 13 7 12 8 14 9 5 10 4 11 2 12 3 13
REMARK SMILES IDX 1 14
REMARK H PARENT
REMARK Flexibility Score: inf
ROOT
ATOM      1  C   UNL     1     -28.520  12.729 -29.732  1.00  0.00    -0.077 C 
ATOM      2  C   UNL     1     -27.244  12.898 -29.317  1.00  0.00    -0.028 C 
ATOM      3  C   UNL     1     -29.209  13.733 -30.626  1.00  0.00     0.039 C 
ENDROOT
BRANCH   1   4
ATOM      4  C   UNL     1     -29.291  11.515 -29.259  1.00  0.00     0.034 C 
BRANCH   4   5
ATOM      5  C   UNL     1     -28.755  10.221 -29.885  1.00  0.00     0.032 C 
BRANCH   5   6
ATOM      6  C   UNL     1     -29.068  10.163 -31.363  1.00  0.00    -0.028 C 
ATOM      7  C   UNL     1     -28.619  10.115 -33.778  1.00  0.00     0.039 C 
ATOM      8  C   UNL     1     -28.151  10.253 -32.352  1.00  0.00    -0.080 C 
ATOM      9  C   UNL     1     -26.685  10.484 -32.071  1.00  0.00     0.039 C 
ENDBRANCH   5   6
ENDBRANCH   4   5
ENDBRANCH   1   4
BRANCH   2  10
ATOM     10  C   UNL     1     -26.353  14.048 -29.726  1.00  0.00     0.035 C 
BRANCH  10  11
ATOM     11  C   UNL     1     -24.973  13.561 -30.184  1.00  0.00     0.079 C 
BRANCH  11  12
ATOM     12  C   UNL     1     -24.077  14.712 -30.568  1.00  0.00     0.130 C 
ATOM     13  O   UNL     1     -24.575  15.781 -30.887  1.00  0.00    -0.300 OA
ATOM     14  C   UNL     1     -22.585  14.572 -30.568  1.00  0.00     0.087 C 
ENDBRANCH  11  12
ENDBRANCH  10  11
ENDBRANCH   2  10
TORSDOF 6
ENDMDL
MODEL 2
REMARK VINA RESULT:    -4.900     10.327     13.305
REMARK INTER + INTRA:          -7.602
REMARK INTER:                  -6.323
REMARK INTRA:                  -1.279
REMARK UNBOUND:                -0.983
REMARK SMILES CC(=O)CCC=C(C)CCC=C(C)C
REMARK SMILES IDX 7 1 6 2 8 3 9 4 10 5 11 6 13 7 12 8 14 9 5 10 4 11 2 12 3 13
REMARK SMILES IDX 1 14
REMARK H PARENT
REMARK Flexibility Score: inf
ROOT
ATOM      1  C   UNL     1     -12.762  13.770 -29.736  1.00  0.00    -0.077 C 
ATOM      2  C   UNL     1     -13.836  14.380 -30.286  1.00  0.00    -0.028 C 
ATOM      3  C   UNL     1     -11.714  13.082 -30.578  1.00  0.00     0.039 C 
ENDROOT
BRANCH   1   4
ATOM      4  C   UNL     1     -12.625  13.747 -28.228  1.00  0.00     0.034 C 
BRANCH   4   5
ATOM      5  C   UNL     1     -12.754  12.325 -27.667  1.00  0.00     0.032 C 
BRANCH   5   6
ATOM      6  C   UNL     1     -14.190  12.007 -27.319  1.00  0.00    -0.028 C 
ATOM      7  C   UNL     1     -16.402  10.961 -27.543  1.00  0.00     0.039 C 
ATOM      8  C   UNL     1     -15.013  11.232 -28.061  1.00  0.00    -0.080 C 
ATOM      9  C   UNL     1     -14.584  10.637 -29.381  1.00  0.00     0.039 C 
ENDBRANCH   5   6
ENDBRANCH   4   5
ENDBRANCH   1   4
BRANCH   2  10
ATOM     10  C   UNL     1     -14.089  14.497 -31.771  1.00  0.00     0.035 C 
BRANCH  10  11
ATOM     11  C   UNL     1     -14.982  13.362 -32.286  1.00  0.00     0.079 C 
BRANCH  11  12
ATOM     12  C   UNL     1     -16.439  13.629 -32.001  1.00  0.00     0.130 C 
ATOM     13  O   UNL     1     -17.042  14.453 -32.671  1.00  0.00    -0.300 OA
ATOM     14  C   UNL     1     -17.165  12.902 -30.909  1.00  0.00     0.087 C 
ENDBRANCH  11  12
ENDBRANCH  10  11
ENDBRANCH   2  10
TORSDOF 6
ENDMDL
MODEL 3
REMARK VINA RESULT:    -4.871      1.603      3.505
REMARK INTER + INTRA:          -7.563
REMARK INTER:                  -6.433
REMARK INTRA:                  -1.130
REMARK UNBOUND:                -0.983
REMARK SMILES CC(=O)CCC=C(C)CCC=C(C)C
REMARK SMILES IDX 7 1 6 2 8 3 9 4 10 5 11 6 13 7 12 8 14 9 5 10 4 11 2 12 3 13
REMARK SMILES IDX 1 14
REMARK H PARENT
REMARK Flexibility Score: inf
ROOT
ATOM      1  C   UNL     1     -27.570  10.534 -32.031  1.00  0.00    -0.077 C 
ATOM      2  C   UNL     1     -26.887  10.001 -30.993  1.00  0.00    -0.028 C 
ATOM      3  C   UNL     1     -27.055  11.728 -32.799  1.00  0.00     0.039 C 
ENDROOT
BRANCH   1   4
ATOM      4  C   UNL     1     -28.909   9.937 -32.413  1.00  0.00     0.034 C 
BRANCH   4   5
ATOM      5  C   UNL     1     -30.073  10.672 -31.737  1.00  0.00     0.032 C 
BRANCH   5   6
ATOM      6  C   UNL     1     -29.763  10.960 -30.286  1.00  0.00    -0.028 C 
ATOM      7  C   UNL     1     -29.414  12.311 -28.264  1.00  0.00     0.039 C 
ATOM      8  C   UNL     1     -29.669  12.195 -29.744  1.00  0.00    -0.080 C 
ATOM      9  C   UNL     1     -29.811  13.449 -30.574  1.00  0.00     0.039 C 
ENDBRANCH   5   6
ENDBRANCH   4   5
ENDBRANCH   1   4
BRANCH   2  10
ATOM     10  C   UNL     1     -25.535  10.481 -30.519  1.00  0.00     0.035 C 
BRANCH  10  11
ATOM     11  C   UNL     1     -25.663  11.514 -29.393  1.00  0.00     0.079 C 
BRANCH  11  12
ATOM     12  C   UNL     1     -25.252  12.890 -29.853  1.00  0.00     0.130 C 
ATOM     13  O   UNL     1     -24.108  13.079 -30.237  1.00  0.00    -0.300 OA
ATOM     14  C   UNL     1     -26.220  14.035 -29.847  1.00  0.00     0.087 C 
ENDBRANCH  11  12
ENDBRANCH  10  11
ENDBRANCH   2  10
TORSDOF 6
ENDMDL
MODEL 4
REMARK VINA RESULT:    -4.859     10.931     13.466
REMARK INTER + INTRA:          -7.546
REMARK INTER:                  -6.084
REMARK INTRA:                  -1.462
REMARK UNBOUND:                -0.983
REMARK SMILES CC(=O)CCC=C(C)CCC=C(C)C
REMARK SMILES IDX 7 1 6 2 8 3 9 4 10 5 11 6 13 7 12 8 14 9 5 10 4 11 2 12 3 13
REMARK SMILES IDX 1 14
REMARK H PARENT
REMARK Flexibility Score: inf
ROOT
ATOM      1  C   UNL     1     -14.751  11.436 -29.009  1.00  0.00    -0.077 C 
ATOM      2  C   UNL     1     -15.383  12.615 -28.811  1.00  0.00    -0.028 C 
ATOM      3  C   UNL     1     -15.211  10.447 -30.053  1.00  0.00     0.039 C 
ENDROOT
BRANCH   1   4
ATOM      4  C   UNL     1     -13.568  11.082 -28.133  1.00  0.00     0.034 C 
BRANCH   4   5
ATOM      5  C   UNL     1     -12.433  12.105 -28.269  1.00  0.00     0.032 C 
BRANCH   5   6
ATOM      6  C   UNL     1     -11.865  12.102 -29.670  1.00  0.00    -0.028 C 
ATOM      7  C   UNL     1     -11.190  13.017 -31.847  1.00  0.00     0.039 C 
ATOM      8  C   UNL     1     -11.850  13.168 -30.501  1.00  0.00    -0.080 C 
ATOM      9  C   UNL     1     -12.471  14.492 -30.122  1.00  0.00     0.039 C 
ENDBRANCH   5   6
ENDBRANCH   4   5
ENDBRANCH   1   4
BRANCH   2  10
ATOM     10  C   UNL     1     -16.560  13.104 -29.623  1.00  0.00     0.035 C 
BRANCH  10  11
ATOM     11  C   UNL     1     -16.184  14.306 -30.499  1.00  0.00     0.079 C 
BRANCH  11  12
ATOM     12  C   UNL     1     -16.242  13.962 -31.966  1.00  0.00     0.130 C 
ATOM     13  O   UNL     1     -17.159  14.392 -32.649  1.00  0.00    -0.300 OA
ATOM     14  C   UNL     1     -15.196  13.100 -32.606  1.00  0.00     0.087 C 
ENDBRANCH  11  12
ENDBRANCH  10  11
ENDBRANCH   2  10
TORSDOF 6
ENDMDL
MODEL 5
REMARK VINA RESULT:    -4.812      1.526      2.774
REMARK INTER + INTRA:          -7.483
REMARK INTER:                  -6.606
REMARK INTRA:                  -0.877
REMARK UNBOUND:                -0.983
REMARK SMILES CC(=O)CCC=C(C)CCC=C(C)C
REMARK SMILES IDX 7 1 6 2 8 3 9 4 10 5 11 6 13 7 12 8 14 9 5 10 4 11 2 12 3 13
REMARK SMILES IDX 1 14
REMARK H PARENT
REMARK Flexibility Score: inf
ROOT
ATOM      1  C   UNL     1     -26.030  11.275 -28.679  1.00  0.00    -0.077 C 
ATOM      2  C   UNL     1     -25.770  12.547 -29.057  1.00  0.00    -0.028 C 
ATOM      3  C   UNL     1     -25.233  10.106 -29.208  1.00  0.00     0.039 C 
ENDROOT
BRANCH   1   4
ATOM      4  C   UNL     1     -27.176  11.011 -27.726  1.00  0.00     0.034 C 
BRANCH   4   5
ATOM      5  C   UNL     1     -28.471  10.667 -28.473  1.00  0.00     0.032 C 
BRANCH   5   6
ATOM      6  C   UNL     1     -29.178  11.919 -28.938  1.00  0.00    -0.028 C 
ATOM      7  C   UNL     1     -30.065  13.568 -30.529  1.00  0.00     0.039 C 
ATOM      8  C   UNL     1     -29.270  12.325 -30.224  1.00  0.00    -0.080 C 
ATOM      9  C   UNL     1     -28.604  11.575 -31.353  1.00  0.00     0.039 C 
ENDBRANCH   5   6
ENDBRANCH   4   5
ENDBRANCH   1   4
BRANCH   2  10
ATOM     10  C   UNL     1     -24.648  12.956 -29.982  1.00  0.00     0.035 C 
BRANCH  10  11
ATOM     11  C   UNL     1     -24.920  14.316 -30.638  1.00  0.00     0.079 C 
BRANCH  11  12
ATOM     12  C   UNL     1     -23.644  15.086 -30.868  1.00  0.00     0.130 C 
ATOM     13  O   UNL     1     -23.696  16.203 -31.361  1.00  0.00    -0.300 OA
ATOM     14  C   UNL     1     -22.309  14.508 -30.506  1.00  0.00     0.087 C 
ENDBRANCH  11  12
ENDBRANCH  10  11
ENDBRANCH   2  10
TORSDOF 6
ENDMDL
MODEL 6
REMARK VINA RESULT:    -4.773     10.310     14.246
REMARK INTER + INTRA:          -7.430
REMARK INTER:                  -6.698
REMARK INTRA:                  -0.732
REMARK UNBOUND:                -0.983
REMARK SMILES CC(=O)CCC=C(C)CCC=C(C)C
REMARK SMILES IDX 7 1 6 2 8 3 9 4 10 5 11 6 13 7 12 8 14 9 5 10 4 11 2 12 3 13
REMARK SMILES IDX 1 14
REMARK H PARENT
REMARK Flexibility Score: inf
ROOT
ATOM      1  C   UNL     1     -14.007  14.430 -30.279  1.00  0.00    -0.077 C 
ATOM      2  C   UNL     1     -14.760  13.342 -30.559  1.00  0.00    -0.028 C 
ATOM      3  C   UNL     1     -14.453  15.826 -30.641  1.00  0.00     0.039 C 
ENDROOT
BRANCH   1   4
ATOM      4  C   UNL     1     -12.660  14.238 -29.613  1.00  0.00     0.034 C 
BRANCH   4   5
ATOM      5  C   UNL     1     -11.621  13.665 -30.585  1.00  0.00     0.032 C 
BRANCH   5   6
ATOM      6  C   UNL     1     -10.867  14.771 -31.286  1.00  0.00    -0.028 C 
ATOM      7  C   UNL     1      -9.875  16.006 -33.164  1.00  0.00     0.039 C 
ATOM      8  C   UNL     1     -10.584  14.798 -32.608  1.00  0.00    -0.080 C 
ATOM      9  C   UNL     1     -10.956  13.664 -33.533  1.00  0.00     0.039 C 
ENDBRANCH   5   6
ENDBRANCH   4   5
ENDBRANCH   1   4
BRANCH   2  10
ATOM     10  C   UNL     1     -16.128  13.387 -31.200  1.00  0.00     0.035 C 
BRANCH  10  11
ATOM     11  C   UNL     1     -17.168  12.622 -30.372  1.00  0.00     0.079 C 
BRANCH  11  12
ATOM     12  C   UNL     1     -17.129  13.028 -28.920  1.00  0.00     0.130 C 
ATOM     13  O   UNL     1     -17.300  14.200 -28.618  1.00  0.00    -0.300 OA
ATOM     14  C   UNL     1     -16.883  12.022 -27.836  1.00  0.00     0.087 C 
ENDBRANCH  11  12
ENDBRANCH  10  11
ENDBRANCH   2  10
TORSDOF 6
ENDMDL
MODEL 7
REMARK VINA RESULT:    -4.740     10.890     13.771
REMARK INTER + INTRA:          -7.386
REMARK INTER:                  -6.081
REMARK INTRA:                  -1.305
REMARK UNBOUND:                -0.983
REMARK SMILES CC(=O)CCC=C(C)CCC=C(C)C
REMARK SMILES IDX 7 1 6 2 8 3 9 4 10 5 11 6 13 7 12 8 14 9 5 10 4 11 2 12 3 13
REMARK SMILES IDX 1 14
REMARK H PARENT
REMARK Flexibility Score: inf
ROOT
ATOM      1  C   UNL     1     -13.983  14.738 -31.536  1.00  0.00    -0.077 C 
ATOM      2  C   UNL     1     -14.839  13.788 -31.977  1.00  0.00    -0.028 C 
ATOM      3  C   UNL     1     -14.419  15.827 -30.584  1.00  0.00     0.039 C 
ENDROOT
BRANCH   1   4
ATOM      4  C   UNL     1     -12.555  14.729 -32.039  1.00  0.00     0.034 C 
BRANCH   4   5
ATOM      5  C   UNL     1     -11.562  14.371 -30.925  1.00  0.00     0.032 C 
BRANCH   5   6
ATOM      6  C   UNL     1     -11.634  12.899 -30.588  1.00  0.00    -0.028 C 
ATOM      7  C   UNL     1     -12.246  10.889 -29.315  1.00  0.00     0.039 C 
ATOM      8  C   UNL     1     -12.202  12.387 -29.473  1.00  0.00    -0.080 C 
ATOM      9  C   UNL     1     -12.788  13.266 -28.394  1.00  0.00     0.039 C 
ENDBRANCH   5   6
ENDBRANCH   4   5
ENDBRANCH   1   4
BRANCH   2  10
ATOM     10  C   UNL     1     -16.281  13.664 -31.545  1.00  0.00     0.035 C 
BRANCH  10  11
ATOM     11  C   UNL     1     -16.476  12.521 -30.542  1.00  0.00     0.079 C 
BRANCH  11  12
ATOM     12  C   UNL     1     -16.573  13.034 -29.127  1.00  0.00     0.130 C 
ATOM     13  O   UNL     1     -16.885  14.198 -28.929  1.00  0.00    -0.300 OA
ATOM     14  C   UNL     1     -16.292  12.143 -27.954  1.00  0.00     0.087 C 
ENDBRANCH  11  12
ENDBRANCH  10  11
ENDBRANCH   2  10
TORSDOF 6
ENDMDL
MODEL 8
REMARK VINA RESULT:    -4.718     10.522     14.426
REMARK INTER + INTRA:          -7.356
REMARK INTER:                  -6.251
REMARK INTRA:                  -1.104
REMARK UNBOUND:                -0.983
REMARK SMILES CC(=O)CCC=C(C)CCC=C(C)C
REMARK SMILES IDX 7 1 6 2 8 3 9 4 10 5 11 6 13 7 12 8 14 9 5 10 4 11 2 12 3 13
REMARK SMILES IDX 1 14
REMARK H PARENT
REMARK Flexibility Score: inf
ROOT
ATOM      1  C   UNL     1     -11.827  13.497 -31.258  1.00  0.00    -0.077 C 
ATOM      2  C   UNL     1     -13.150  13.542 -31.530  1.00  0.00    -0.028 C 
ATOM      3  C   UNL     1     -10.973  14.743 -31.229  1.00  0.00     0.039 C 
ENDROOT
BRANCH   1   4
ATOM      4  C   UNL     1     -11.174  12.153 -31.009  1.00  0.00     0.034 C 
BRANCH   4   5
ATOM      5  C   UNL     1     -11.997  11.291 -30.043  1.00  0.00     0.032 C 
BRANCH   5   6
ATOM      6  C   UNL     1     -11.822  11.758 -28.617  1.00  0.00    -0.028 C 
ATOM      7  C   UNL     1     -12.487  12.584 -26.401  1.00  0.00     0.039 C 
ATOM      8  C   UNL     1     -12.817  12.215 -27.824  1.00  0.00    -0.080 C 
ATOM      9  C   UNL     1     -14.236  12.363 -28.320  1.00  0.00     0.039 C 
ENDBRANCH   5   6
ENDBRANCH   4   5
ENDBRANCH   1   4
BRANCH   2  10
ATOM     10  C   UNL     1     -13.933  14.811 -31.777  1.00  0.00     0.035 C 
BRANCH  10  11
ATOM     11  C   UNL     1     -15.222  14.853 -30.946  1.00  0.00     0.079 C 
BRANCH  11  12
ATOM     12  C   UNL     1     -16.322  14.045 -31.587  1.00  0.00     0.130 C 
ATOM     13  O   UNL     1     -16.696  14.327 -32.716  1.00  0.00    -0.300 OA
ATOM     14  C   UNL     1     -16.970  12.901 -30.867  1.00  0.00     0.087 C 
ENDBRANCH  11  12
ENDBRANCH  10  11
ENDBRANCH   2  10
TORSDOF 6
ENDMDL
MODEL 9
REMARK VINA RESULT:    -4.716     10.631     13.262
REMARK INTER + INTRA:          -7.354
REMARK INTER:                  -6.342
REMARK INTRA:                  -1.012
REMARK UNBOUND:                -0.983
REMARK SMILES CC(=O)CCC=C(C)CCC=C(C)C
REMARK SMILES IDX 7 1 6 2 8 3 9 4 10 5 11 6 13 7 12 8 14 9 5 10 4 11 2 12 3 13
REMARK SMILES IDX 1 14
REMARK H PARENT
REMARK Flexibility Score: inf
ROOT
ATOM      1  C   UNL     1     -15.771  12.444 -30.705  1.00  0.00    -0.077 C 
ATOM      2  C   UNL     1     -16.892  12.516 -29.953  1.00  0.00    -0.028 C 
ATOM      3  C   UNL     1     -14.702  11.408 -30.450  1.00  0.00     0.039 C 
ENDROOT
BRANCH   1   4
ATOM      4  C   UNL     1     -15.565  13.455 -31.814  1.00  0.00     0.034 C 
BRANCH   4   5
ATOM      5  C   UNL     1     -14.910  14.742 -31.296  1.00  0.00     0.032 C 
BRANCH   5   6
ATOM      6  C   UNL     1     -13.440  14.781 -31.646  1.00  0.00    -0.028 C 
ATOM      7  C   UNL     1     -11.017  14.583 -31.295  1.00  0.00     0.039 C 
ATOM      8  C   UNL     1     -12.430  14.570 -30.773  1.00  0.00    -0.080 C 
ATOM      9  C   UNL     1     -12.676  14.324 -29.303  1.00  0.00     0.039 C 
ENDBRANCH   5   6
ENDBRANCH   4   5
ENDBRANCH   1   4
BRANCH   2  10
ATOM     10  C   UNL     1     -17.236  11.563 -28.831  1.00  0.00     0.035 C 
BRANCH  10  11
ATOM     11  C   UNL     1     -16.893  12.155 -27.459  1.00  0.00     0.079 C 
BRANCH  11  12
ATOM     12  C   UNL     1     -15.717  11.451 -26.829  1.00  0.00     0.130 C 
ATOM     13  O   UNL     1     -14.598  11.924 -26.949  1.00  0.00    -0.300 OA
ATOM     14  C   UNL     1     -15.894  10.177 -26.057  1.00  0.00     0.087 C 
ENDBRANCH  11  12
ENDBRANCH  10  11
ENDBRANCH   2  10
TORSDOF 6
ENDMDL
