MODEL 1
REMARK VINA RESULT:    -4.501      0.000      0.000
REMARK INTER + INTRA:         -10.218
REMARK INTER:                  -8.447
REMARK INTRA:                  -1.771
REMARK UNBOUND:                -1.771
REMARK SMILES O=C([O-])CCCCCCCCCCCCCCC(=O)[O-]
REMARK SMILES IDX 10 1 9 2 8 3 7 4 6 5 5 6 4 7 2 8 1 9 3 10 11 11 12 12 13 13
REMARK SMILES IDX 14 14 15 15 16 16 17 17 18 18 19 19 20 20
REMARK H PARENT
REMARK Flexibility Score: inf
ROOT
ATOM      1  C   UNL     1     125.876 143.119 136.378  1.00  0.00     0.000 C 
ENDROOT
BRANCH   1   2
ATOM      2  C   UNL     1     125.268 141.848 135.769  1.00  0.00     0.000 C 
BRANCH   2   3
ATOM      3  C   UNL     1     125.358 140.632 136.708  1.00  0.00     0.000 C 
BRANCH   3   4
ATOM      4  C   UNL     1     125.391 139.259 136.003  1.00  0.00     0.000 C 
BRANCH   4   5
ATOM      5  C   UNL     1     126.579 138.357 136.382  1.00  0.00     0.000 C 
BRANCH   5   6
ATOM      6  C   UNL     1     127.399 138.914 137.558  1.00  0.00     0.006 C 
BRANCH   6   7
ATOM      7  C   UNL     1     128.898 138.982 137.236  1.00  0.00     0.053 C 
BRANCH   7   8
ATOM      8  C   UNL     1     129.711 138.155 138.185  1.00  0.00     0.041 C 
ATOM      9  O   UNL     1     130.959 138.075 138.046  1.00  0.00    -0.550 OA
ATOM     10  O   UNL     1     129.084 137.450 139.205  1.00  0.00    -0.550 OA
ENDBRANCH   7   8
ENDBRANCH   6   7
ENDBRANCH   5   6
ENDBRANCH   4   5
ENDBRANCH   3   4
ENDBRANCH   2   3
ENDBRANCH   1   2
BRANCH   1  11
ATOM     11  C   UNL     1     126.503 142.823 137.749  1.00  0.00     0.000 C 
BRANCH  11  12
ATOM     12  C   UNL     1     126.213 143.919 138.789  1.00  0.00     0.000 C 
BRANCH  12  13
ATOM     13  C   UNL     1     126.430 143.504 140.260  1.00  0.00     0.000 C 
BRANCH  13  14
ATOM     14  C   UNL     1     127.862 143.066 140.616  1.00  0.00     0.000 C 
BRANCH  14  15
ATOM     15  C   UNL     1     127.903 141.769 141.440  1.00  0.00     0.000 C 
BRANCH  15  16
ATOM     16  C   UNL     1     128.725 140.658 140.761  1.00  0.00     0.006 C 
BRANCH  16  17
ATOM     17  C   UNL     1     130.202 140.612 141.185  1.00  0.00     0.053 C 
BRANCH  17  18
ATOM     18  C   UNL     1     131.119 140.998 140.066  1.00  0.00     0.041 C 
ATOM     19  O   UNL     1     130.662 141.560 139.037  1.00  0.00    -0.550 OA
ATOM     20  O   UNL     1     132.476 140.710 140.147  1.00  0.00    -0.550 OA
ENDBRANCH  17  18
ENDBRANCH  16  17
ENDBRANCH  15  16
ENDBRANCH  14  15
ENDBRANCH  13  14
ENDBRANCH  12  13
ENDBRANCH  11  12
ENDBRANCH   1  11
TORSDOF 15
ENDMDL
MODEL 2
REMARK VINA RESULT:    -4.465      1.834      5.373
REMARK INTER + INTRA:         -10.151
REMARK INTER:                  -8.454
REMARK INTRA:                  -1.697
REMARK UNBOUND:                -1.771
REMARK SMILES O=C([O-])CCCCCCCCCCCCCCC(=O)[O-]
REMARK SMILES IDX 10 1 9 2 8 3 7 4 6 5 5 6 4 7 2 8 1 9 3 10 11 11 12 12 13 13
REMARK SMILES IDX 14 14 15 15 16 16 17 17 18 18 19 19 20 20
REMARK H PARENT
REMARK Flexibility Score: inf
ROOT
ATOM      1  C   UNL     1     127.465 142.240 141.349  1.00  0.00     0.000 C 
ENDROOT
BRANCH   1   2
ATOM      2  C   UNL     1     128.914 142.745 141.295  1.00  0.00     0.000 C 
BRANCH   2   3
ATOM      3  C   UNL     1     129.942 141.652 141.641  1.00  0.00     0.000 C 
BRANCH   3   4
ATOM      4  C   UNL     1     131.042 141.427 140.582  1.00  0.00     0.000 C 
BRANCH   4   5
ATOM      5  C   UNL     1     130.593 141.613 139.122  1.00  0.00     0.000 C 
BRANCH   5   6
ATOM      6  C   UNL     1     130.770 140.340 138.277  1.00  0.00     0.006 C 
BRANCH   6   7
ATOM      7  C   UNL     1     129.429 139.655 137.976  1.00  0.00     0.053 C 
BRANCH   7   8
ATOM      8  C   UNL     1     129.091 138.618 139.002  1.00  0.00     0.041 C 
ATOM      9  O   UNL     1     129.463 137.426 138.845  1.00  0.00    -0.550 OA
ATOM     10  O   UNL     1     128.339 138.963 140.119  1.00  0.00    -0.550 OA
ENDBRANCH   7   8
ENDBRANCH   6   7
ENDBRANCH   5   6
ENDBRANCH   4   5
ENDBRANCH   3   4
ENDBRANCH   2   3
ENDBRANCH   1   2
BRANCH   1  11
ATOM     11  C   UNL     1     126.564 143.069 140.422  1.00  0.00     0.000 C 
BRANCH  11  12
ATOM     12  C   UNL     1     127.217 143.365 139.060  1.00  0.00     0.000 C 
BRANCH  12  13
ATOM     13  C   UNL     1     126.842 142.389 137.925  1.00  0.00     0.000 C 
BRANCH  13  14
ATOM     14  C   UNL     1     126.065 143.012 136.750  1.00  0.00     0.000 C 
BRANCH  14  15
ATOM     15  C   UNL     1     125.367 141.961 135.872  1.00  0.00     0.000 C 
BRANCH  15  16
ATOM     16  C   UNL     1     125.179 140.614 136.593  1.00  0.00     0.006 C 
BRANCH  16  17
ATOM     17  C   UNL     1     124.682 139.473 135.689  1.00  0.00     0.053 C 
BRANCH  17  18
ATOM     18  C   UNL     1     125.653 138.334 135.639  1.00  0.00     0.041 C 
ATOM     19  O   UNL     1     126.627 138.296 136.436  1.00  0.00    -0.550 OA
ATOM     20  O   UNL     1     125.499 137.330 134.692  1.00  0.00    -0.550 OA
ENDBRANCH  17  18
ENDBRANCH  16  17
ENDBRANCH  15  16
ENDBRANCH  14  15
ENDBRANCH  13  14
ENDBRANCH  12  13
ENDBRANCH  11  12
ENDBRANCH   1  11
TORSDOF 15
ENDMDL
MODEL 3
REMARK VINA RESULT:    -4.399      3.292      6.148
REMARK INTER + INTRA:         -10.028
REMARK INTER:                  -8.718
REMARK INTRA:                  -1.310
REMARK UNBOUND:                -1.771
REMARK SMILES O=C([O-])CCCCCCCCCCCCCCC(=O)[O-]
REMARK SMILES IDX 10 1 9 2 8 3 7 4 6 5 5 6 4 7 2 8 1 9 3 10 11 11 12 12 13 13
REMARK SMILES IDX 14 14 15 15 16 16 17 17 18 18 19 19 20 20
REMARK H PARENT
REMARK Flexibility Score: inf
ROOT
ATOM      1  C   UNL     1     129.487 138.980 137.244  1.00  0.00     0.000 C 
ENDROOT
BRANCH   1   2
ATOM      2  C   UNL     1     130.987 139.104 137.548  1.00  0.00     0.000 C 
BRANCH   2   3
ATOM      3  C   UNL     1     131.339 140.390 138.316  1.00  0.00     0.000 C 
BRANCH   3   4
ATOM      4  C   UNL     1     132.041 140.174 139.673  1.00  0.00     0.000 C 
BRANCH   4   5
ATOM      5  C   UNL     1     132.127 141.420 140.572  1.00  0.00     0.000 C 
BRANCH   5   6
ATOM      6  C   UNL     1     133.394 141.440 141.444  1.00  0.00     0.006 C 
BRANCH   6   7
ATOM      7  C   UNL     1     134.240 140.173 141.263  1.00  0.00     0.053 C 
BRANCH   7   8
ATOM      8  C   UNL     1     135.673 140.496 140.969  1.00  0.00     0.041 C 
ATOM      9  O   UNL     1     136.374 139.702 140.290  1.00  0.00    -0.550 OA
ATOM     10  O   UNL     1     136.240 141.660 141.472  1.00  0.00    -0.550 OA
ENDBRANCH   7   8
ENDBRANCH   6   7
ENDBRANCH   5   6
ENDBRANCH   4   5
ENDBRANCH   3   4
ENDBRANCH   2   3
ENDBRANCH   1   2
BRANCH   1  11
ATOM     11  C   UNL     1     128.647 139.440 138.444  1.00  0.00     0.000 C 
BRANCH  11  12
ATOM     12  C   UNL     1     127.519 140.410 138.048  1.00  0.00     0.000 C 
BRANCH  12  13
ATOM     13  C   UNL     1     127.795 141.898 138.354  1.00  0.00     0.000 C 
BRANCH  13  14
ATOM     14  C   UNL     1     128.331 142.191 139.767  1.00  0.00     0.000 C 
BRANCH  14  15
ATOM     15  C   UNL     1     127.294 142.881 140.668  1.00  0.00     0.000 C 
BRANCH  15  16
ATOM     16  C   UNL     1     126.127 143.493 139.872  1.00  0.00     0.006 C 
BRANCH  16  17
ATOM     17  C   UNL     1     126.101 145.030 139.862  1.00  0.00     0.053 C 
BRANCH  17  18
ATOM     18  C   UNL     1     126.034 145.580 138.471  1.00  0.00     0.041 C 
ATOM     19  O   UNL     1     126.300 146.791 138.254  1.00  0.00    -0.550 OA
ATOM     20  O   UNL     1     125.649 144.761 137.416  1.00  0.00    -0.550 OA
ENDBRANCH  17  18
ENDBRANCH  16  17
ENDBRANCH  15  16
ENDBRANCH  14  15
ENDBRANCH  13  14
ENDBRANCH  12  13
ENDBRANCH  11  12
ENDBRANCH   1  11
TORSDOF 15
ENDMDL
MODEL 4
REMARK VINA RESULT:    -4.377      3.371      7.067
REMARK INTER + INTRA:          -9.987
REMARK INTER:                  -8.709
REMARK INTRA:                  -1.278
REMARK UNBOUND:                -1.771
REMARK SMILES O=C([O-])CCCCCCCCCCCCCCC(=O)[O-]
REMARK SMILES IDX 10 1 9 2 8 3 7 4 6 5 5 6 4 7 2 8 1 9 3 10 11 11 12 12 13 13
REMARK SMILES IDX 14 14 15 15 16 16 17 17 18 18 19 19 20 20
REMARK H PARENT
REMARK Flexibility Score: inf
ROOT
ATOM      1  C   UNL     1     130.678 140.495 138.203  1.00  0.00     0.000 C 
ENDROOT
BRANCH   1   2
ATOM      2  C   UNL     1     131.858 140.502 139.185  1.00  0.00     0.000 C 
BRANCH   2   3
ATOM      3  C   UNL     1     131.458 140.956 140.600  1.00  0.00     0.000 C 
BRANCH   3   4
ATOM      4  C   UNL     1     129.940 141.084 140.844  1.00  0.00     0.000 C 
BRANCH   4   5
ATOM      5  C   UNL     1     129.485 142.422 141.453  1.00  0.00     0.000 C 
BRANCH   5   6
ATOM      6  C   UNL     1     128.116 142.884 140.924  1.00  0.00     0.006 C 
BRANCH   6   7
ATOM      7  C   UNL     1     127.945 142.589 139.428  1.00  0.00     0.053 C 
BRANCH   7   8
ATOM      8  C   UNL     1     126.716 143.238 138.869  1.00  0.00     0.041 C 
ATOM      9  O   UNL     1     126.345 142.984 137.694  1.00  0.00    -0.550 OA
ATOM     10  O   UNL     1     125.998 144.145 139.638  1.00  0.00    -0.550 OA
ENDBRANCH   7   8
ENDBRANCH   6   7
ENDBRANCH   5   6
ENDBRANCH   4   5
ENDBRANCH   3   4
ENDBRANCH   2   3
ENDBRANCH   1   2
BRANCH   1  11
ATOM     11  C   UNL     1     130.567 139.138 137.492  1.00  0.00     0.000 C 
BRANCH  11  12
ATOM     12  C   UNL     1     129.311 138.348 137.902  1.00  0.00     0.000 C 
BRANCH  12  13
ATOM     13  C   UNL     1     129.578 136.942 138.479  1.00  0.00     0.000 C 
BRANCH  13  14
ATOM     14  C   UNL     1     131.021 136.687 138.951  1.00  0.00     0.000 C 
BRANCH  14  15
ATOM     15  C   UNL     1     131.785 135.716 138.036  1.00  0.00     0.000 C 
BRANCH  15  16
ATOM     16  C   UNL     1     132.805 134.854 138.803  1.00  0.00     0.006 C 
BRANCH  16  17
ATOM     17  C   UNL     1     132.474 133.353 138.832  1.00  0.00     0.053 C 
BRANCH  17  18
ATOM     18  C   UNL     1     131.660 132.981 140.033  1.00  0.00     0.041 C 
ATOM     19  O   UNL     1     131.985 133.402 141.174  1.00  0.00    -0.550 OA
ATOM     20  O   UNL     1     130.560 132.145 139.896  1.00  0.00    -0.550 OA
ENDBRANCH  17  18
ENDBRANCH  16  17
ENDBRANCH  15  16
ENDBRANCH  14  15
ENDBRANCH  13  14
ENDBRANCH  12  13
ENDBRANCH  11  12
ENDBRANCH   1  11
TORSDOF 15
ENDMDL
MODEL 5
REMARK VINA RESULT:    -4.359      2.834      4.819
REMARK INTER + INTRA:          -9.952
REMARK INTER:                  -8.130
REMARK INTRA:                  -1.823
REMARK UNBOUND:                -1.771
REMARK SMILES O=C([O-])CCCCCCCCCCCCCCC(=O)[O-]
REMARK SMILES IDX 10 1 9 2 8 3 7 4 6 5 5 6 4 7 2 8 1 9 3 10 11 11 12 12 13 13
REMARK SMILES IDX 14 14 15 15 16 16 17 17 18 18 19 19 20 20
REMARK H PARENT
REMARK Flexibility Score: inf
ROOT
ATOM      1  C   UNL     1     129.113 139.001 137.421  1.00  0.00     0.000 C 
ENDROOT
BRANCH   1   2
ATOM      2  C   UNL     1     128.453 139.200 138.793  1.00  0.00     0.000 C 
BRANCH   2   3
ATOM      3  C   UNL     1     128.610 137.978 139.716  1.00  0.00     0.000 C 
BRANCH   3   4
ATOM      4  C   UNL     1     128.599 136.610 139.003  1.00  0.00     0.000 C 
BRANCH   4   5
ATOM      5  C   UNL     1     129.769 135.676 139.360  1.00  0.00     0.000 C 
BRANCH   5   6
ATOM      6  C   UNL     1     131.028 135.950 138.520  1.00  0.00     0.006 C 
BRANCH   6   7
ATOM      7  C   UNL     1     132.090 134.856 138.695  1.00  0.00     0.053 C 
BRANCH   7   8
ATOM      8  C   UNL     1     133.391 135.414 139.182  1.00  0.00     0.041 C 
ATOM      9  O   UNL     1     133.563 136.660 139.244  1.00  0.00    -0.550 OA
ATOM     10  O   UNL     1     134.426 134.558 139.539  1.00  0.00    -0.550 OA
ENDBRANCH   7   8
ENDBRANCH   6   7
ENDBRANCH   5   6
ENDBRANCH   4   5
ENDBRANCH   3   4
ENDBRANCH   2   3
ENDBRANCH   1   2
BRANCH   1  11
ATOM     11  C   UNL     1     130.599 139.384 137.469  1.00  0.00     0.000 C 
BRANCH  11  12
ATOM     12  C   UNL     1     130.870 140.623 138.341  1.00  0.00     0.000 C 
BRANCH  12  13
ATOM     13  C   UNL     1     131.936 140.433 139.441  1.00  0.00     0.000 C 
BRANCH  13  14
ATOM     14  C   UNL     1     131.762 141.321 140.687  1.00  0.00     0.000 C 
BRANCH  14  15
ATOM     15  C   UNL     1     130.428 141.079 141.411  1.00  0.00     0.000 C 
BRANCH  15  16
ATOM     16  C   UNL     1     129.542 142.337 141.460  1.00  0.00     0.006 C 
BRANCH  16  17
ATOM     17  C   UNL     1     128.039 142.064 141.287  1.00  0.00     0.053 C 
BRANCH  17  18
ATOM     18  C   UNL     1     127.463 142.814 140.126  1.00  0.00     0.041 C 
ATOM     19  O   UNL     1     128.015 142.755 138.996  1.00  0.00    -0.550 OA
ATOM     20  O   UNL     1     126.333 143.603 140.299  1.00  0.00    -0.550 OA
ENDBRANCH  17  18
ENDBRANCH  16  17
ENDBRANCH  15  16
ENDBRANCH  14  15
ENDBRANCH  13  14
ENDBRANCH  12  13
ENDBRANCH  11  12
ENDBRANCH   1  11
TORSDOF 15
ENDMDL
MODEL 6
REMARK VINA RESULT:    -4.322      2.471      5.799
REMARK INTER + INTRA:          -9.883
REMARK INTER:                  -7.673
REMARK INTRA:                  -2.211
REMARK UNBOUND:                -1.771
REMARK SMILES O=C([O-])CCCCCCCCCCCCCCC(=O)[O-]
REMARK SMILES IDX 10 1 9 2 8 3 7 4 6 5 5 6 4 7 2 8 1 9 3 10 11 11 12 12 13 13
REMARK SMILES IDX 14 14 15 15 16 16 17 17 18 18 19 19 20 20
REMARK H PARENT
REMARK Flexibility Score: inf
ROOT
ATOM      1  C   UNL     1     130.361 141.630 139.334  1.00  0.00     0.000 C 
ENDROOT
BRANCH   1   2
ATOM      2  C   UNL     1     130.486 141.766 140.858  1.00  0.00     0.000 C 
BRANCH   2   3
ATOM      3  C   UNL     1     129.231 142.372 141.511  1.00  0.00     0.000 C 
BRANCH   3   4
ATOM      4  C   UNL     1     127.906 142.096 140.769  1.00  0.00     0.000 C 
BRANCH   4   5
ATOM      5  C   UNL     1     126.957 143.301 140.653  1.00  0.00     0.000 C 
BRANCH   5   6
ATOM      6  C   UNL     1     126.624 143.660 139.195  1.00  0.00     0.006 C 
BRANCH   6   7
ATOM      7  C   UNL     1     127.000 142.535 138.222  1.00  0.00     0.053 C 
BRANCH   7   8
ATOM      8  C   UNL     1     126.098 142.507 137.026  1.00  0.00     0.041 C 
ATOM      9  O   UNL     1     125.741 143.582 136.477  1.00  0.00    -0.550 OA
ATOM     10  O   UNL     1     125.628 141.294 136.537  1.00  0.00    -0.550 OA
ENDBRANCH   7   8
ENDBRANCH   6   7
ENDBRANCH   5   6
ENDBRANCH   4   5
ENDBRANCH   3   4
ENDBRANCH   2   3
ENDBRANCH   1   2
BRANCH   1  11
ATOM     11  C   UNL     1     131.368 140.605 138.792  1.00  0.00     0.000 C 
BRANCH  11  12
ATOM     12  C   UNL     1     132.354 140.111 139.865  1.00  0.00     0.000 C 
BRANCH  12  13
ATOM     13  C   UNL     1     132.366 138.585 140.095  1.00  0.00     0.000 C 
BRANCH  13  14
ATOM     14  C   UNL     1     131.862 138.123 141.475  1.00  0.00     0.000 C 
BRANCH  14  15
ATOM     15  C   UNL     1     130.337 138.250 141.627  1.00  0.00     0.000 C 
BRANCH  15  16
ATOM     16  C   UNL     1     129.568 137.604 140.461  1.00  0.00     0.006 C 
BRANCH  16  17
ATOM     17  C   UNL     1     128.484 138.502 139.840  1.00  0.00     0.053 C 
BRANCH  17  18
ATOM     18  C   UNL     1     128.247 138.179 138.398  1.00  0.00     0.041 C 
ATOM     19  O   UNL     1     128.235 136.981 138.009  1.00  0.00    -0.550 OA
ATOM     20  O   UNL     1     128.069 139.203 137.476  1.00  0.00    -0.550 OA
ENDBRANCH  17  18
ENDBRANCH  16  17
ENDBRANCH  15  16
ENDBRANCH  14  15
ENDBRANCH  13  14
ENDBRANCH  12  13
ENDBRANCH  11  12
ENDBRANCH   1  11
TORSDOF 15
ENDMDL
MODEL 7
REMARK VINA RESULT:    -4.310      2.814      6.620
REMARK INTER + INTRA:          -9.861
REMARK INTER:                  -7.718
REMARK INTRA:                  -2.143
REMARK UNBOUND:                -1.771
REMARK SMILES O=C([O-])CCCCCCCCCCCCCCC(=O)[O-]
REMARK SMILES IDX 10 1 9 2 8 3 7 4 6 5 5 6 4 7 2 8 1 9 3 10 11 11 12 12 13 13
REMARK SMILES IDX 14 14 15 15 16 16 17 17 18 18 19 19 20 20
REMARK H PARENT
REMARK Flexibility Score: inf
ROOT
ATOM      1  C   UNL     1     132.108 139.724 139.414  1.00  0.00     0.000 C 
ENDROOT
BRANCH   1   2
ATOM      2  C   UNL     1     131.212 140.453 138.403  1.00  0.00     0.000 C 
BRANCH   2   3
ATOM      3  C   UNL     1     130.434 141.625 139.029  1.00  0.00     0.000 C 
BRANCH   3   4
ATOM      4  C   UNL     1     130.222 141.533 140.554  1.00  0.00     0.000 C 
BRANCH   4   5
ATOM      5  C   UNL     1     129.035 142.347 141.101  1.00  0.00     0.000 C 
BRANCH   5   6
ATOM      6  C   UNL     1     127.818 142.331 140.161  1.00  0.00     0.006 C 
BRANCH   6   7
ATOM      7  C   UNL     1     126.991 143.620 140.264  1.00  0.00     0.053 C 
BRANCH   7   8
ATOM      8  C   UNL     1     126.455 144.046 138.932  1.00  0.00     0.041 C 
ATOM      9  O   UNL     1     126.459 143.245 137.961  1.00  0.00    -0.550 OA
ATOM     10  O   UNL     1     125.977 145.339 138.756  1.00  0.00    -0.550 OA
ENDBRANCH   7   8
ENDBRANCH   6   7
ENDBRANCH   5   6
ENDBRANCH   4   5
ENDBRANCH   3   4
ENDBRANCH   2   3
ENDBRANCH   1   2
BRANCH   1  11
ATOM     11  C   UNL     1     132.729 138.467 138.787  1.00  0.00     0.000 C 
BRANCH  11  12
ATOM     12  C   UNL     1     131.749 137.707 137.875  1.00  0.00     0.000 C 
BRANCH  12  13
ATOM     13  C   UNL     1     131.021 136.518 138.539  1.00  0.00     0.000 C 
BRANCH  13  14
ATOM     14  C   UNL     1     129.493 136.662 138.653  1.00  0.00     0.000 C 
BRANCH  14  15
ATOM     15  C   UNL     1     129.066 137.666 139.736  1.00  0.00     0.000 C 
BRANCH  15  16
ATOM     16  C   UNL     1     128.027 138.682 139.230  1.00  0.00     0.006 C 
BRANCH  16  17
ATOM     17  C   UNL     1     127.942 138.796 137.699  1.00  0.00     0.053 C 
BRANCH  17  18
ATOM     18  C   UNL     1     126.601 138.379 137.179  1.00  0.00     0.041 C 
ATOM     19  O   UNL     1     126.175 138.836 136.086  1.00  0.00    -0.550 OA
ATOM     20  O   UNL     1     125.809 137.509 137.917  1.00  0.00    -0.550 OA
ENDBRANCH  17  18
ENDBRANCH  16  17
ENDBRANCH  15  16
ENDBRANCH  14  15
ENDBRANCH  13  14
ENDBRANCH  12  13
ENDBRANCH  11  12
ENDBRANCH   1  11
TORSDOF 15
ENDMDL
MODEL 8
REMARK VINA RESULT:    -4.306      7.823     11.748
REMARK INTER + INTRA:          -9.853
REMARK INTER:                  -7.751
REMARK INTRA:                  -2.102
REMARK UNBOUND:                -1.771
REMARK SMILES O=C([O-])CCCCCCCCCCCCCCC(=O)[O-]
REMARK SMILES IDX 10 1 9 2 8 3 7 4 6 5 5 6 4 7 2 8 1 9 3 10 11 11 12 12 13 13
REMARK SMILES IDX 14 14 15 15 16 16 17 17 18 18 19 19 20 20
REMARK H PARENT
REMARK Flexibility Score: inf
ROOT
ATOM      1  C   UNL     1     140.283 133.849 139.067  1.00  0.00     0.000 C 
ENDROOT
BRANCH   1   2
ATOM      2  C   UNL     1     139.511 134.561 137.947  1.00  0.00     0.000 C 
BRANCH   2   3
ATOM      3  C   UNL     1     138.963 135.934 138.376  1.00  0.00     0.000 C 
BRANCH   3   4
ATOM      4  C   UNL     1     139.743 136.627 139.512  1.00  0.00     0.000 C 
BRANCH   4   5
ATOM      5  C   UNL     1     138.881 137.151 140.674  1.00  0.00     0.000 C 
BRANCH   5   6
ATOM      6  C   UNL     1     137.608 137.869 140.195  1.00  0.00     0.006 C 
BRANCH   6   7
ATOM      7  C   UNL     1     136.906 138.622 141.333  1.00  0.00     0.053 C 
BRANCH   7   8
ATOM      8  C   UNL     1     136.006 139.702 140.815  1.00  0.00     0.041 C 
ATOM      9  O   UNL     1     136.268 140.911 141.049  1.00  0.00    -0.550 OA
ATOM     10  O   UNL     1     134.862 139.371 140.100  1.00  0.00    -0.550 OA
ENDBRANCH   7   8
ENDBRANCH   6   7
ENDBRANCH   5   6
ENDBRANCH   4   5
ENDBRANCH   3   4
ENDBRANCH   2   3
ENDBRANCH   1   2
BRANCH   1  11
ATOM     11  C   UNL     1     139.340 132.990 139.920  1.00  0.00     0.000 C 
BRANCH  11  12
ATOM     12  C   UNL     1     139.281 133.445 141.390  1.00  0.00     0.000 C 
BRANCH  12  13
ATOM     13  C   UNL     1     137.866 133.744 141.929  1.00  0.00     0.000 C 
BRANCH  13  14
ATOM     14  C   UNL     1     136.822 134.123 140.863  1.00  0.00     0.000 C 
BRANCH  14  15
ATOM     15  C   UNL     1     135.693 135.006 141.420  1.00  0.00     0.000 C 
BRANCH  15  16
ATOM     16  C   UNL     1     134.359 134.804 140.678  1.00  0.00     0.006 C 
BRANCH  16  17
ATOM     17  C   UNL     1     134.046 135.882 139.628  1.00  0.00     0.053 C 
BRANCH  17  18
ATOM     18  C   UNL     1     132.943 135.463 138.706  1.00  0.00     0.041 C 
ATOM     19  O   UNL     1     132.357 136.316 137.989  1.00  0.00    -0.550 OA
ATOM     20  O   UNL     1     132.541 134.134 138.662  1.00  0.00    -0.550 OA
ENDBRANCH  17  18
ENDBRANCH  16  17
ENDBRANCH  15  16
ENDBRANCH  14  15
ENDBRANCH  13  14
ENDBRANCH  12  13
ENDBRANCH  11  12
ENDBRANCH   1  11
TORSDOF 15
ENDMDL
MODEL 9
REMARK VINA RESULT:    -2.809      4.396      7.455
REMARK INTER + INTRA:          -7.044
REMARK INTER:                  -6.314
REMARK INTRA:                  -0.730
REMARK UNBOUND:                -1.771
REMARK SMILES O=C([O-])CCCCCCCCCCCCCCC(=O)[O-]
REMARK SMILES IDX 10 1 9 2 8 3 7 4 6 5 5 6 4 7 2 8 1 9 3 10 11 11 12 12 13 13
REMARK SMILES IDX 14 14 15 15 16 16 17 17 18 18 19 19 20 20
REMARK H PARENT
REMARK Flexibility Score: inf
ROOT
ATOM      1  C   UNL     1     131.571 141.308 139.459  1.00  0.00     0.000 C 
ENDROOT
BRANCH   1   2
ATOM      2  C   UNL     1     130.058 141.538 139.581  1.00  0.00     0.000 C 
BRANCH   2   3
ATOM      3  C   UNL     1     129.632 141.989 140.990  1.00  0.00     0.000 C 
BRANCH   3   4
ATOM      4  C   UNL     1     128.177 142.485 141.110  1.00  0.00     0.000 C 
BRANCH   4   5
ATOM      5  C   UNL     1     127.478 142.792 139.773  1.00  0.00     0.000 C 
BRANCH   5   6
ATOM      6  C   UNL     1     126.099 143.449 139.958  1.00  0.00     0.006 C 
BRANCH   6   7
ATOM      7  C   UNL     1     126.178 144.981 139.917  1.00  0.00     0.053 C 
BRANCH   7   8
ATOM      8  C   UNL     1     126.055 145.509 138.521  1.00  0.00     0.041 C 
ATOM      9  O   UNL     1     125.711 144.744 137.582  1.00  0.00    -0.550 OA
ATOM     10  O   UNL     1     126.349 146.840 138.252  1.00  0.00    -0.550 OA
ENDBRANCH   7   8
ENDBRANCH   6   7
ENDBRANCH   5   6
ENDBRANCH   4   5
ENDBRANCH   3   4
ENDBRANCH   2   3
ENDBRANCH   1   2
BRANCH   1  11
ATOM     11  C   UNL     1     132.186 140.978 140.827  1.00  0.00     0.000 C 
BRANCH  11  12
ATOM     12  C   UNL     1     133.359 141.905 141.194  1.00  0.00     0.000 C 
BRANCH  12  13
ATOM     13  C   UNL     1     134.421 141.283 142.125  1.00  0.00     0.000 C 
BRANCH  13  14
ATOM     14  C   UNL     1     135.879 141.659 141.804  1.00  0.00     0.000 C 
BRANCH  14  15
ATOM     15  C   UNL     1     136.647 140.528 141.100  1.00  0.00     0.000 C 
BRANCH  15  16
ATOM     16  C   UNL     1     136.155 139.129 141.513  1.00  0.00     0.006 C 
BRANCH  16  17
ATOM     17  C   UNL     1     136.141 138.098 140.373  1.00  0.00     0.053 C 
BRANCH  17  18
ATOM     18  C   UNL     1     137.413 137.311 140.313  1.00  0.00     0.041 C 
ATOM     19  O   UNL     1     137.449 136.209 139.706  1.00  0.00    -0.550 OA
ATOM     20  O   UNL     1     138.553 137.781 140.954  1.00  0.00    -0.550 OA
ENDBRANCH  17  18
ENDBRANCH  16  17
ENDBRANCH  15  16
ENDBRANCH  14  15
ENDBRANCH  13  14
ENDBRANCH  12  13
ENDBRANCH  11  12
ENDBRANCH   1  11
TORSDOF 15
ENDMDL
