MODEL 1
REMARK VINA RESULT:    -4.365      0.000      0.000
REMARK INTER + INTRA:          -7.083
REMARK INTER:                  -6.662
REMARK INTRA:                  -0.421
REMARK UNBOUND:                -0.421
REMARK SMILES CCCCCCCCCCC(=O)[O-]
REMARK SMILES IDX 7 1 8 2 9 3 10 4 11 5 12 6 13 7 6 8 5 9 4 10 3 11 2 12 1 13
REMARK H PARENT
REMARK Flexibility Score: inf
ROOT
ATOM      1  C   UNL     1      58.747  32.261  77.535  1.00  0.00     0.000 C 
ENDROOT
BRANCH   1   2
ATOM      2  C   UNL     1      57.898  33.047  78.547  1.00  0.00     0.000 C 
BRANCH   2   3
ATOM      3  C   UNL     1      58.755  34.065  79.309  1.00  0.00     0.006 C 
BRANCH   3   4
ATOM      4  C   UNL     1      57.978  35.362  79.557  1.00  0.00     0.053 C 
BRANCH   4   5
ATOM      5  C   UNL     1      58.448  36.020  80.816  1.00  0.00     0.041 C 
ATOM      6  O   UNL     1      59.196  35.397  81.615  1.00  0.00    -0.550 OA
ATOM      7  O   UNL     1      58.100  37.337  81.084  1.00  0.00    -0.550 OA
ENDBRANCH   4   5
ENDBRANCH   3   4
ENDBRANCH   2   3
ENDBRANCH   1   2
BRANCH   1   8
ATOM      8  C   UNL     1      57.990  31.074  76.918  1.00  0.00     0.000 C 
BRANCH   8   9
ATOM      9  C   UNL     1      58.889  30.196  76.031  1.00  0.00    -0.000 C 
BRANCH   9  10
ATOM     10  C   UNL     1      58.081  29.274  75.103  1.00  0.00    -0.000 C 
BRANCH  10  11
ATOM     11  C   UNL     1      56.575  29.285  75.419  1.00  0.00    -0.000 C 
BRANCH  11  12
ATOM     12  C   UNL     1      55.716  29.595  74.184  1.00  0.00    -0.003 C 
ATOM     13  C   UNL     1      56.095  30.918  73.519  1.00  0.00     0.004 C 
ENDBRANCH  11  12
ENDBRANCH  10  11
ENDBRANCH   9  10
ENDBRANCH   8   9
ENDBRANCH   1   8
TORSDOF 9
ENDMDL
MODEL 2
REMARK VINA RESULT:    -4.258      3.927      6.766
REMARK INTER + INTRA:          -6.920
REMARK INTER:                  -5.990
REMARK INTRA:                  -0.930
REMARK UNBOUND:                -0.421
REMARK SMILES CCCCCCCCCCC(=O)[O-]
REMARK SMILES IDX 7 1 8 2 9 3 10 4 11 5 12 6 13 7 6 8 5 9 4 10 3 11 2 12 1 13
REMARK H PARENT
REMARK Flexibility Score: inf
ROOT
ATOM      1  C   UNL     1      59.058  34.483  80.375  1.00  0.00     0.000 C 
ENDROOT
BRANCH   1   2
ATOM      2  C   UNL     1      57.836  33.598  80.081  1.00  0.00     0.000 C 
BRANCH   2   3
ATOM      3  C   UNL     1      57.851  33.106  78.629  1.00  0.00     0.006 C 
BRANCH   3   4
ATOM      4  C   UNL     1      57.874  34.283  77.649  1.00  0.00     0.053 C 
BRANCH   4   5
ATOM      5  C   UNL     1      57.631  33.806  76.252  1.00  0.00     0.041 C 
ATOM      6  O   UNL     1      58.167  32.743  75.845  1.00  0.00    -0.550 OA
ATOM      7  O   UNL     1      56.775  34.510  75.416  1.00  0.00    -0.550 OA
ENDBRANCH   4   5
ENDBRANCH   3   4
ENDBRANCH   2   3
ENDBRANCH   1   2
BRANCH   1   8
ATOM      8  C   UNL     1      58.750  35.609  81.375  1.00  0.00     0.000 C 
BRANCH   8   9
ATOM      9  C   UNL     1      58.429  36.944  80.681  1.00  0.00    -0.000 C 
BRANCH   9  10
ATOM     10  C   UNL     1      56.920  37.147  80.466  1.00  0.00    -0.000 C 
BRANCH  10  11
ATOM     11  C   UNL     1      56.571  37.522  79.015  1.00  0.00    -0.000 C 
BRANCH  11  12
ATOM     12  C   UNL     1      57.800  37.972  78.211  1.00  0.00    -0.003 C 
ATOM     13  C   UNL     1      57.639  39.374  77.625  1.00  0.00     0.004 C 
ENDBRANCH  11  12
ENDBRANCH  10  11
ENDBRANCH   9  10
ENDBRANCH   8   9
ENDBRANCH   1   8
TORSDOF 9
ENDMDL
MODEL 3
REMARK VINA RESULT:    -4.202      3.925      7.123
REMARK INTER + INTRA:          -6.834
REMARK INTER:                  -6.182
REMARK INTRA:                  -0.651
REMARK UNBOUND:                -0.421
REMARK SMILES CCCCCCCCCCC(=O)[O-]
REMARK SMILES IDX 7 1 8 2 9 3 10 4 11 5 12 6 13 7 6 8 5 9 4 10 3 11 2 12 1 13
REMARK H PARENT
REMARK Flexibility Score: inf
ROOT
ATOM      1  C   UNL     1      57.659  33.849  77.231  1.00  0.00     0.000 C 
ENDROOT
BRANCH   1   2
ATOM      2  C   UNL     1      58.032  33.283  75.852  1.00  0.00     0.000 C 
BRANCH   2   3
ATOM      3  C   UNL     1      57.967  31.751  75.852  1.00  0.00     0.006 C 
BRANCH   3   4
ATOM      4  C   UNL     1      57.259  31.230  74.597  1.00  0.00     0.053 C 
BRANCH   4   5
ATOM      5  C   UNL     1      56.540  29.952  74.894  1.00  0.00     0.041 C 
ATOM      6  O   UNL     1      55.686  29.504  74.085  1.00  0.00    -0.550 OA
ATOM      7  O   UNL     1      56.847  29.231  76.040  1.00  0.00    -0.550 OA
ENDBRANCH   4   5
ENDBRANCH   3   4
ENDBRANCH   2   3
ENDBRANCH   1   2
BRANCH   1   8
ATOM      8  C   UNL     1      57.973  32.876  78.379  1.00  0.00     0.000 C 
BRANCH   8   9
ATOM      9  C   UNL     1      57.803  33.522  79.765  1.00  0.00    -0.000 C 
BRANCH   9  10
ATOM     10  C   UNL     1      59.085  34.216  80.252  1.00  0.00    -0.000 C 
BRANCH  10  11
ATOM     11  C   UNL     1      58.834  35.654  80.739  1.00  0.00    -0.000 C 
BRANCH  11  12
ATOM     12  C   UNL     1      58.441  36.603  79.596  1.00  0.00    -0.003 C 
ATOM     13  C   UNL     1      59.582  36.837  78.606  1.00  0.00     0.004 C 
ENDBRANCH  11  12
ENDBRANCH  10  11
ENDBRANCH   9  10
ENDBRANCH   8   9
ENDBRANCH   1   8
TORSDOF 9
ENDMDL
MODEL 4
REMARK VINA RESULT:    -4.201      3.558      6.636
REMARK INTER + INTRA:          -6.833
REMARK INTER:                  -5.906
REMARK INTRA:                  -0.927
REMARK UNBOUND:                -0.421
REMARK SMILES CCCCCCCCCCC(=O)[O-]
REMARK SMILES IDX 7 1 8 2 9 3 10 4 11 5 12 6 13 7 6 8 5 9 4 10 3 11 2 12 1 13
REMARK H PARENT
REMARK Flexibility Score: inf
ROOT
ATOM      1  C   UNL     1      59.057  33.846  79.366  1.00  0.00     0.000 C 
ENDROOT
BRANCH   1   2
ATOM      2  C   UNL     1      57.841  33.087  78.810  1.00  0.00     0.000 C 
BRANCH   2   3
ATOM      3  C   UNL     1      58.023  32.775  77.320  1.00  0.00     0.006 C 
BRANCH   3   4
ATOM      4  C   UNL     1      58.384  31.302  77.106  1.00  0.00     0.053 C 
BRANCH   4   5
ATOM      5  C   UNL     1      57.633  30.743  75.940  1.00  0.00     0.041 C 
ATOM      6  O   UNL     1      57.257  29.541  75.946  1.00  0.00    -0.550 OA
ATOM      7  O   UNL     1      57.304  31.560  74.867  1.00  0.00    -0.550 OA
ENDBRANCH   4   5
ENDBRANCH   3   4
ENDBRANCH   2   3
ENDBRANCH   1   2
BRANCH   1   8
ATOM      8  C   UNL     1      58.727  34.653  80.632  1.00  0.00     0.000 C 
BRANCH   8   9
ATOM      9  C   UNL     1      58.671  36.168  80.369  1.00  0.00    -0.000 C 
BRANCH   9  10
ATOM     10  C   UNL     1      57.236  36.676  80.154  1.00  0.00    -0.000 C 
BRANCH  10  11
ATOM     11  C   UNL     1      57.060  37.412  78.814  1.00  0.00    -0.000 C 
BRANCH  11  12
ATOM     12  C   UNL     1      56.686  36.463  77.665  1.00  0.00    -0.003 C 
ATOM     13  C   UNL     1      57.799  36.329  76.626  1.00  0.00     0.004 C 
ENDBRANCH  11  12
ENDBRANCH  10  11
ENDBRANCH   9  10
ENDBRANCH   8   9
ENDBRANCH   1   8
TORSDOF 9
ENDMDL
MODEL 5
REMARK VINA RESULT:    -4.106      1.626      2.376
REMARK INTER + INTRA:          -6.687
REMARK INTER:                  -6.109
REMARK INTRA:                  -0.578
REMARK UNBOUND:                -0.421
REMARK SMILES CCCCCCCCCCC(=O)[O-]
REMARK SMILES IDX 7 1 8 2 9 3 10 4 11 5 12 6 13 7 6 8 5 9 4 10 3 11 2 12 1 13
REMARK H PARENT
REMARK Flexibility Score: inf
ROOT
ATOM      1  C   UNL     1      57.900  33.197  78.907  1.00  0.00     0.000 C 
ENDROOT
BRANCH   1   2
ATOM      2  C   UNL     1      59.049  33.884  79.661  1.00  0.00     0.000 C 
BRANCH   2   3
ATOM      3  C   UNL     1      58.600  35.235  80.232  1.00  0.00     0.006 C 
BRANCH   3   4
ATOM      4  C   UNL     1      57.479  35.845  79.386  1.00  0.00     0.053 C 
BRANCH   4   5
ATOM      5  C   UNL     1      58.035  36.853  78.430  1.00  0.00     0.041 C 
ATOM      6  O   UNL     1      58.082  38.070  78.750  1.00  0.00    -0.550 OA
ATOM      7  O   UNL     1      58.545  36.444  77.206  1.00  0.00    -0.550 OA
ENDBRANCH   4   5
ENDBRANCH   3   4
ENDBRANCH   2   3
ENDBRANCH   1   2
BRANCH   1   8
ATOM      8  C   UNL     1      58.393  32.314  77.749  1.00  0.00     0.000 C 
BRANCH   8   9
ATOM      9  C   UNL     1      57.926  32.827  76.375  1.00  0.00    -0.000 C 
BRANCH   9  10
ATOM     10  C   UNL     1      57.644  31.685  75.385  1.00  0.00    -0.000 C 
BRANCH  10  11
ATOM     11  C   UNL     1      57.776  30.294  76.029  1.00  0.00    -0.000 C 
BRANCH  11  12
ATOM     12  C   UNL     1      57.130  29.188  75.181  1.00  0.00    -0.003 C 
ATOM     13  C   UNL     1      55.924  29.685  74.385  1.00  0.00     0.004 C 
ENDBRANCH  11  12
ENDBRANCH  10  11
ENDBRANCH   9  10
ENDBRANCH   8   9
ENDBRANCH   1   8
TORSDOF 9
ENDMDL
MODEL 6
REMARK VINA RESULT:    -3.988      3.007      5.067
REMARK INTER + INTRA:          -6.507
REMARK INTER:                  -5.314
REMARK INTRA:                  -1.194
REMARK UNBOUND:                -0.421
REMARK SMILES CCCCCCCCCCC(=O)[O-]
REMARK SMILES IDX 7 1 8 2 9 3 10 4 11 5 12 6 13 7 6 8 5 9 4 10 3 11 2 12 1 13
REMARK H PARENT
REMARK Flexibility Score: inf
ROOT
ATOM      1  C   UNL     1      58.244  34.029  77.129  1.00  0.00     0.000 C 
ENDROOT
BRANCH   1   2
ATOM      2  C   UNL     1      57.857  33.063  78.260  1.00  0.00     0.000 C 
BRANCH   2   3
ATOM      3  C   UNL     1      58.004  33.735  79.630  1.00  0.00     0.006 C 
BRANCH   3   4
ATOM      4  C   UNL     1      58.908  34.969  79.544  1.00  0.00     0.053 C 
BRANCH   4   5
ATOM      5  C   UNL     1      58.726  35.836  80.748  1.00  0.00     0.041 C 
ATOM      6  O   UNL     1      59.008  35.397  81.894  1.00  0.00    -0.550 OA
ATOM      7  O   UNL     1      58.290  37.146  80.603  1.00  0.00    -0.550 OA
ENDBRANCH   4   5
ENDBRANCH   3   4
ENDBRANCH   2   3
ENDBRANCH   1   2
BRANCH   1   8
ATOM      8  C   UNL     1      57.138  34.178  76.070  1.00  0.00     0.000 C 
BRANCH   8   9
ATOM      9  C   UNL     1      56.655  35.631  75.921  1.00  0.00    -0.000 C 
BRANCH   9  10
ATOM     10  C   UNL     1      56.469  36.332  77.276  1.00  0.00    -0.000 C 
BRANCH  10  11
ATOM     11  C   UNL     1      57.103  37.733  77.313  1.00  0.00    -0.000 C 
BRANCH  11  12
ATOM     12  C   UNL     1      58.349  37.839  76.420  1.00  0.00    -0.003 C 
ATOM     13  C   UNL     1      59.643  37.543  77.177  1.00  0.00     0.004 C 
ENDBRANCH  11  12
ENDBRANCH  10  11
ENDBRANCH   9  10
ENDBRANCH   8   9
ENDBRANCH   1   8
TORSDOF 9
ENDMDL
MODEL 7
REMARK VINA RESULT:    -3.963      4.536      6.832
REMARK INTER + INTRA:          -6.469
REMARK INTER:                  -5.533
REMARK INTRA:                  -0.936
REMARK UNBOUND:                -0.421
REMARK SMILES CCCCCCCCCCC(=O)[O-]
REMARK SMILES IDX 7 1 8 2 9 3 10 4 11 5 12 6 13 7 6 8 5 9 4 10 3 11 2 12 1 13
REMARK H PARENT
REMARK Flexibility Score: inf
ROOT
ATOM      1  C   UNL     1      57.842  37.414  77.693  1.00  0.00     0.000 C 
ENDROOT
BRANCH   1   2
ATOM      2  C   UNL     1      56.625  36.476  77.734  1.00  0.00     0.000 C 
BRANCH   2   3
ATOM      3  C   UNL     1      56.002  36.325  76.341  1.00  0.00     0.006 C 
BRANCH   3   4
ATOM      4  C   UNL     1      56.678  35.197  75.555  1.00  0.00     0.053 C 
BRANCH   4   5
ATOM      5  C   UNL     1      56.078  35.076  74.190  1.00  0.00     0.041 C 
ATOM      6  O   UNL     1      56.084  33.969  73.592  1.00  0.00    -0.550 OA
ATOM      7  O   UNL     1      55.468  36.174  73.600  1.00  0.00    -0.550 OA
ENDBRANCH   4   5
ENDBRANCH   3   4
ENDBRANCH   2   3
ENDBRANCH   1   2
BRANCH   1   8
ATOM      8  C   UNL     1      58.449  37.661  79.084  1.00  0.00     0.000 C 
BRANCH   8   9
ATOM      9  C   UNL     1      57.705  36.901  80.196  1.00  0.00    -0.000 C 
BRANCH   9  10
ATOM     10  C   UNL     1      58.615  35.913  80.944  1.00  0.00    -0.000 C 
BRANCH  10  11
ATOM     11  C   UNL     1      59.046  34.723  80.068  1.00  0.00    -0.000 C 
BRANCH  11  12
ATOM     12  C   UNL     1      57.945  33.660  79.936  1.00  0.00    -0.003 C 
ATOM     13  C   UNL     1      57.875  33.056  78.534  1.00  0.00     0.004 C 
ENDBRANCH  11  12
ENDBRANCH  10  11
ENDBRANCH   9  10
ENDBRANCH   8   9
ENDBRANCH   1   8
TORSDOF 9
ENDMDL
MODEL 8
REMARK VINA RESULT:    -3.940      3.777      6.436
REMARK INTER + INTRA:          -6.434
REMARK INTER:                  -5.561
REMARK INTRA:                  -0.873
REMARK UNBOUND:                -0.421
REMARK SMILES CCCCCCCCCCC(=O)[O-]
REMARK SMILES IDX 7 1 8 2 9 3 10 4 11 5 12 6 13 7 6 8 5 9 4 10 3 11 2 12 1 13
REMARK H PARENT
REMARK Flexibility Score: inf
ROOT
ATOM      1  C   UNL     1      58.828  33.410  78.874  1.00  0.00     0.000 C 
ENDROOT
BRANCH   1   2
ATOM      2  C   UNL     1      57.981  32.677  77.821  1.00  0.00     0.000 C 
BRANCH   2   3
ATOM      3  C   UNL     1      57.880  33.497  76.530  1.00  0.00     0.006 C 
BRANCH   3   4
ATOM      4  C   UNL     1      57.211  34.851  76.789  1.00  0.00     0.053 C 
BRANCH   4   5
ATOM      5  C   UNL     1      56.488  35.320  75.567  1.00  0.00     0.041 C 
ATOM      6  O   UNL     1      56.359  34.555  74.575  1.00  0.00    -0.550 OA
ATOM      7  O   UNL     1      55.915  36.584  75.540  1.00  0.00    -0.550 OA
ENDBRANCH   4   5
ENDBRANCH   3   4
ENDBRANCH   2   3
ENDBRANCH   1   2
BRANCH   1   8
ATOM      8  C   UNL     1      58.011  33.833  80.105  1.00  0.00     0.000 C 
BRANCH   8   9
ATOM      9  C   UNL     1      58.855  34.595  81.141  1.00  0.00    -0.000 C 
BRANCH   9  10
ATOM     10  C   UNL     1      58.816  36.117  80.927  1.00  0.00    -0.000 C 
BRANCH  10  11
ATOM     11  C   UNL     1      57.591  36.572  80.116  1.00  0.00    -0.000 C 
BRANCH  11  12
ATOM     12  C   UNL     1      57.960  37.551  78.990  1.00  0.00    -0.003 C 
ATOM     13  C   UNL     1      59.423  37.432  78.563  1.00  0.00     0.004 C 
ENDBRANCH  11  12
ENDBRANCH  10  11
ENDBRANCH   9  10
ENDBRANCH   8   9
ENDBRANCH   1   8
TORSDOF 9
ENDMDL
MODEL 9
REMARK VINA RESULT:    -3.938      3.240      5.044
REMARK INTER + INTRA:          -6.431
REMARK INTER:                  -5.247
REMARK INTRA:                  -1.184
REMARK UNBOUND:                -0.421
REMARK SMILES CCCCCCCCCCC(=O)[O-]
REMARK SMILES IDX 7 1 8 2 9 3 10 4 11 5 12 6 13 7 6 8 5 9 4 10 3 11 2 12 1 13
REMARK H PARENT
REMARK Flexibility Score: inf
ROOT
ATOM      1  C   UNL     1      59.201  37.435  77.073  1.00  0.00     0.000 C 
ENDROOT
BRANCH   1   2
ATOM      2  C   UNL     1      59.640  37.022  78.487  1.00  0.00     0.000 C 
BRANCH   2   3
ATOM      3  C   UNL     1      58.537  37.313  79.511  1.00  0.00     0.006 C 
BRANCH   3   4
ATOM      4  C   UNL     1      57.834  36.024  79.945  1.00  0.00     0.053 C 
BRANCH   4   5
ATOM      5  C   UNL     1      58.788  35.125  80.666  1.00  0.00     0.041 C 
ATOM      6  O   UNL     1      59.207  35.435  81.812  1.00  0.00    -0.550 OA
ATOM      7  O   UNL     1      59.177  33.921  80.094  1.00  0.00    -0.550 OA
ENDBRANCH   4   5
ENDBRANCH   3   4
ENDBRANCH   2   3
ENDBRANCH   1   2
BRANCH   1   8
ATOM      8  C   UNL     1      57.958  38.341  77.077  1.00  0.00     0.000 C 
BRANCH   8   9
ATOM      9  C   UNL     1      56.840  37.814  76.161  1.00  0.00    -0.000 C 
BRANCH   9  10
ATOM     10  C   UNL     1      56.366  36.408  76.559  1.00  0.00    -0.000 C 
BRANCH  10  11
ATOM     11  C   UNL     1      56.312  35.438  75.366  1.00  0.00    -0.000 C 
BRANCH  11  12
ATOM     12  C   UNL     1      57.274  34.252  75.527  1.00  0.00    -0.003 C 
ATOM     13  C   UNL     1      57.645  33.987  76.985  1.00  0.00     0.004 C 
ENDBRANCH  11  12
ENDBRANCH  10  11
ENDBRANCH   9  10
ENDBRANCH   8   9
ENDBRANCH   1   8
TORSDOF 9
ENDMDL
