MODEL 1
REMARK VINA RESULT:    -2.740      0.000      0.000
REMARK INTER + INTRA:          -2.740
REMARK INTER:                  -2.740
REMARK INTRA:                   0.000
REMARK UNBOUND:                 0.000
REMARK SMILES CC(=O)[O-]
REMARK SMILES IDX 1 1 2 2 3 3 4 4
REMARK H PARENT
REMARK Flexibility Score: inf
ROOT
ATOM      1  C   UNL     1      -5.562   2.745   9.092  1.00  0.00     0.063 C 
ATOM      2  C   UNL     1      -5.118   1.491   8.418  1.00  0.00     0.038 C 
ATOM      3  O   UNL     1      -3.949   1.402   7.957  1.00  0.00    -0.550 OA
ATOM      4  O   UNL     1      -6.009   0.439   8.247  1.00  0.00    -0.550 OA
ENDROOT
TORSDOF 0
ENDMDL
MODEL 2
REMARK VINA RESULT:    -2.600     11.742     12.076
REMARK INTER + INTRA:          -2.600
REMARK INTER:                  -2.600
REMARK INTRA:                   0.000
REMARK UNBOUND:                 0.000
REMARK SMILES CC(=O)[O-]
REMARK SMILES IDX 1 1 2 2 3 3 4 4
REMARK H PARENT
REMARK Flexibility Score: inf
ROOT
ATOM      1  C   UNL     1     -10.620  -3.474  -0.348  1.00  0.00     0.063 C 
ATOM      2  C   UNL     1      -9.692  -3.420  -1.515  1.00  0.00     0.038 C 
ATOM      3  O   UNL     1      -9.967  -2.696  -2.507  1.00  0.00    -0.550 OA
ATOM      4  O   UNL     1      -8.549  -4.209  -1.533  1.00  0.00    -0.550 OA
ENDROOT
TORSDOF 0
ENDMDL
MODEL 3
REMARK VINA RESULT:    -2.595     11.759     11.908
REMARK INTER + INTRA:          -2.595
REMARK INTER:                  -2.595
REMARK INTRA:                   0.000
REMARK UNBOUND:                 0.000
REMARK SMILES CC(=O)[O-]
REMARK SMILES IDX 1 1 2 2 3 3 4 4
REMARK H PARENT
REMARK Flexibility Score: inf
ROOT
ATOM      1  C   UNL     1     -10.708  -3.387  -1.037  1.00  0.00     0.063 C 
ATOM      2  C   UNL     1      -9.312  -3.244  -1.542  1.00  0.00     0.038 C 
ATOM      3  O   UNL     1      -8.544  -4.240  -1.567  1.00  0.00    -0.550 OA
ATOM      4  O   UNL     1      -8.839  -1.998  -1.934  1.00  0.00    -0.550 OA
ENDROOT
TORSDOF 0
ENDMDL
MODEL 4
REMARK VINA RESULT:    -2.588     11.503     11.831
REMARK INTER + INTRA:          -2.588
REMARK INTER:                  -2.588
REMARK INTRA:                   0.000
REMARK UNBOUND:                 0.000
REMARK SMILES CC(=O)[O-]
REMARK SMILES IDX 1 1 2 2 3 3 4 4
REMARK H PARENT
REMARK Flexibility Score: inf
ROOT
ATOM      1  C   UNL     1      -7.821  -1.887  -1.647  1.00  0.00     0.063 C 
ATOM      2  C   UNL     1      -8.832  -2.971  -1.808  1.00  0.00     0.038 C 
ATOM      3  O   UNL     1      -8.514  -4.170  -1.592  1.00  0.00    -0.550 OA
ATOM      4  O   UNL     1     -10.114  -2.667  -2.250  1.00  0.00    -0.550 OA
ENDROOT
TORSDOF 0
ENDMDL
MODEL 5
REMARK VINA RESULT:    -2.475     16.489     16.708
REMARK INTER + INTRA:          -2.475
REMARK INTER:                  -2.475
REMARK INTRA:                   0.000
REMARK UNBOUND:                 0.000
REMARK SMILES CC(=O)[O-]
REMARK SMILES IDX 1 1 2 2 3 3 4 4
REMARK H PARENT
REMARK Flexibility Score: inf
ROOT
ATOM      1  C   UNL     1      -5.524  -5.453  -6.428  1.00  0.00     0.063 C 
ATOM      2  C   UNL     1      -4.892  -6.751  -6.057  1.00  0.00     0.038 C 
ATOM      3  O   UNL     1      -3.665  -6.800  -5.778  1.00  0.00    -0.550 OA
ATOM      4  O   UNL     1      -5.643  -7.920  -6.070  1.00  0.00    -0.550 OA
ENDROOT
TORSDOF 0
ENDMDL
MODEL 6
REMARK VINA RESULT:    -2.468     16.008     16.404
REMARK INTER + INTRA:          -2.468
REMARK INTER:                  -2.468
REMARK INTRA:                   0.000
REMARK UNBOUND:                 0.000
REMARK SMILES CC(=O)[O-]
REMARK SMILES IDX 1 1 2 2 3 3 4 4
REMARK H PARENT
REMARK Flexibility Score: inf
ROOT
ATOM      1  C   UNL     1      -5.300  -5.641  -6.194  1.00  0.00     0.063 C 
ATOM      2  C   UNL     1      -5.969  -6.842  -5.616  1.00  0.00     0.038 C 
ATOM      3  O   UNL     1      -5.640  -7.995  -6.002  1.00  0.00    -0.550 OA
ATOM      4  O   UNL     1      -6.993  -6.691  -4.691  1.00  0.00    -0.550 OA
ENDROOT
TORSDOF 0
ENDMDL
MODEL 7
REMARK VINA RESULT:    -2.448     15.079     15.221
REMARK INTER + INTRA:          -2.448
REMARK INTER:                  -2.448
REMARK INTRA:                   0.000
REMARK UNBOUND:                 0.000
REMARK SMILES CC(=O)[O-]
REMARK SMILES IDX 1 1 2 2 3 3 4 4
REMARK H PARENT
REMARK Flexibility Score: inf
ROOT
ATOM      1  C   UNL     1      -3.274  -1.936  -5.976  1.00  0.00     0.063 C 
ATOM      2  C   UNL     1      -3.392  -3.415  -5.831  1.00  0.00     0.038 C 
ATOM      3  O   UNL     1      -2.405  -4.093  -5.442  1.00  0.00    -0.550 OA
ATOM      4  O   UNL     1      -4.574  -4.057  -6.178  1.00  0.00    -0.550 OA
ENDROOT
TORSDOF 0
ENDMDL
MODEL 8
REMARK VINA RESULT:    -2.339     12.103     12.483
REMARK INTER + INTRA:          -2.339
REMARK INTER:                  -2.339
REMARK INTRA:                   0.000
REMARK UNBOUND:                 0.000
REMARK SMILES CC(=O)[O-]
REMARK SMILES IDX 1 1 2 2 3 3 4 4
REMARK H PARENT
REMARK Flexibility Score: inf
ROOT
ATOM      1  C   UNL     1     -11.125  -3.509  -0.425  1.00  0.00     0.063 C 
ATOM      2  C   UNL     1     -10.381  -3.424  -1.714  1.00  0.00     0.038 C 
ATOM      3  O   UNL     1      -9.274  -4.010  -1.845  1.00  0.00    -0.550 OA
ATOM      4  O   UNL     1     -10.880  -2.654  -2.757  1.00  0.00    -0.550 OA
ENDROOT
TORSDOF 0
ENDMDL
MODEL 9
REMARK VINA RESULT:    -2.225     14.447     14.909
REMARK INTER + INTRA:          -2.225
REMARK INTER:                  -2.225
REMARK INTRA:                   0.000
REMARK UNBOUND:                 0.000
REMARK SMILES CC(=O)[O-]
REMARK SMILES IDX 1 1 2 2 3 3 4 4
REMARK H PARENT
REMARK Flexibility Score: inf
ROOT
ATOM      1  C   UNL     1       5.088  10.125   0.086  1.00  0.00     0.063 C 
ATOM      2  C   UNL     1       3.887   9.356  -0.351  1.00  0.00     0.038 C 
ATOM      3  O   UNL     1       3.212   9.745  -1.339  1.00  0.00    -0.550 OA
ATOM      4  O   UNL     1       3.479   8.237   0.366  1.00  0.00    -0.550 OA
ENDROOT
TORSDOF 0
ENDMDL
