MODEL 1
REMARK VINA RESULT:    -5.478      0.000      0.000
REMARK INTER + INTRA:          -6.205
REMARK INTER:                  -5.959
REMARK INTRA:                  -0.247
REMARK UNBOUND:                -0.247
REMARK SMILES O=C([O-])c1ccccc1O
REMARK SMILES IDX 4 1 9 2 5 3 8 4 6 5 7 6 2 7 1 8 3 9 10 10
REMARK H PARENT 10 11
REMARK Flexibility Score: inf
ROOT
ATOM      1  C   UNL     1       8.107 -16.263 -29.530  1.00  0.00     0.039 A 
ATOM      2  C   UNL     1       8.290 -17.237 -28.515  1.00  0.00     0.124 A 
ATOM      3  C   UNL     1       7.542 -15.021 -29.187  1.00  0.00     0.014 A 
ATOM      4  C   UNL     1       7.964 -16.924 -27.188  1.00  0.00     0.047 A 
ATOM      5  C   UNL     1       7.203 -14.733 -27.864  1.00  0.00     0.001 A 
ATOM      6  C   UNL     1       7.423 -15.679 -26.864  1.00  0.00     0.004 A 
ENDROOT
BRANCH   1   7
ATOM      7  C   UNL     1       8.517 -16.483 -30.935  1.00  0.00     0.075 C 
ATOM      8  O   UNL     1       7.730 -16.229 -31.885  1.00  0.00    -0.545 OA
ATOM      9  O   UNL     1       9.758 -17.041 -31.219  1.00  0.00    -0.545 OA
ENDBRANCH   1   7
BRANCH   2  10
ATOM     10  O   UNL     1       8.754 -18.527 -28.780  1.00  0.00    -0.507 OA
ATOM     11  H   UNL     1       9.481 -18.731 -29.452  1.00  0.00     0.293 HD
ENDBRANCH   2  10
TORSDOF 2
ENDMDL
MODEL 2
REMARK VINA RESULT:    -5.371      1.111      2.398
REMARK INTER + INTRA:          -6.089
REMARK INTER:                  -5.836
REMARK INTRA:                  -0.253
REMARK UNBOUND:                -0.247
REMARK SMILES O=C([O-])c1ccccc1O
REMARK SMILES IDX 4 1 9 2 5 3 8 4 6 5 7 6 2 7 1 8 3 9 10 10
REMARK H PARENT 10 11
REMARK Flexibility Score: inf
ROOT
ATOM      1  C   UNL     1       8.214 -16.494 -29.410  1.00  0.00     0.039 A 
ATOM      2  C   UNL     1       7.550 -15.405 -28.788  1.00  0.00     0.124 A 
ATOM      3  C   UNL     1       8.601 -17.594 -28.623  1.00  0.00     0.014 A 
ATOM      4  C   UNL     1       7.238 -15.473 -27.423  1.00  0.00     0.047 A 
ATOM      5  C   UNL     1       8.302 -17.636 -27.260  1.00  0.00     0.001 A 
ATOM      6  C   UNL     1       7.613 -16.582 -26.663  1.00  0.00     0.004 A 
ENDROOT
BRANCH   1   7
ATOM      7  C   UNL     1       8.490 -16.540 -30.864  1.00  0.00     0.075 C 
ATOM      8  O   UNL     1       9.598 -16.950 -31.299  1.00  0.00    -0.545 OA
ATOM      9  O   UNL     1       7.546 -16.063 -31.766  1.00  0.00    -0.545 OA
ENDBRANCH   1   7
BRANCH   2  10
ATOM     10  O   UNL     1       7.214 -14.235 -29.471  1.00  0.00    -0.507 OA
ATOM     11  H   UNL     1       7.699 -13.912 -30.297  1.00  0.00     0.293 HD
ENDBRANCH   2  10
TORSDOF 2
ENDMDL
MODEL 3
REMARK VINA RESULT:    -5.183      1.747      2.306
REMARK INTER + INTRA:          -5.884
REMARK INTER:                  -5.632
REMARK INTRA:                  -0.252
REMARK UNBOUND:                -0.247
REMARK SMILES O=C([O-])c1ccccc1O
REMARK SMILES IDX 4 1 9 2 5 3 8 4 6 5 7 6 2 7 1 8 3 9 10 10
REMARK H PARENT 10 11
REMARK Flexibility Score: inf
ROOT
ATOM      1  C   UNL     1       8.798 -17.130 -29.324  1.00  0.00     0.039 A 
ATOM      2  C   UNL     1      10.157 -17.506 -29.172  1.00  0.00     0.124 A 
ATOM      3  C   UNL     1       7.942 -17.205 -28.210  1.00  0.00     0.014 A 
ATOM      4  C   UNL     1      10.634 -17.883 -27.909  1.00  0.00     0.047 A 
ATOM      5  C   UNL     1       8.429 -17.603 -26.963  1.00  0.00     0.001 A 
ATOM      6  C   UNL     1       9.774 -17.932 -26.810  1.00  0.00     0.004 A 
ENDROOT
BRANCH   1   7
ATOM      7  C   UNL     1       8.243 -16.627 -30.601  1.00  0.00     0.075 C 
ATOM      8  O   UNL     1       7.395 -15.696 -30.616  1.00  0.00    -0.545 OA
ATOM      9  O   UNL     1       8.603 -17.230 -31.801  1.00  0.00    -0.545 OA
ENDBRANCH   1   7
BRANCH   2  10
ATOM     10  O   UNL     1      11.053 -17.554 -30.242  1.00  0.00    -0.507 OA
ATOM     11  H   UNL     1      10.850 -18.013 -31.119  1.00  0.00     0.293 HD
ENDBRANCH   2  10
TORSDOF 2
ENDMDL
MODEL 4
REMARK VINA RESULT:    -5.166      3.459      4.570
REMARK INTER + INTRA:          -5.866
REMARK INTER:                  -5.652
REMARK INTRA:                  -0.214
REMARK UNBOUND:                -0.247
REMARK SMILES O=C([O-])c1ccccc1O
REMARK SMILES IDX 4 1 9 2 5 3 8 4 6 5 7 6 2 7 1 8 3 9 10 10
REMARK H PARENT 10 11
REMARK Flexibility Score: inf
ROOT
ATOM      1  C   UNL     1      10.451 -18.267 -27.223  1.00  0.00     0.039 A 
ATOM      2  C   UNL     1      11.313 -19.307 -27.656  1.00  0.00     0.124 A 
ATOM      3  C   UNL     1      10.655 -17.700 -25.952  1.00  0.00     0.014 A 
ATOM      4  C   UNL     1      12.383 -19.703 -26.843  1.00  0.00     0.047 A 
ATOM      5  C   UNL     1      11.714 -18.121 -25.144  1.00  0.00     0.001 A 
ATOM      6  C   UNL     1      12.583 -19.114 -25.593  1.00  0.00     0.004 A 
ENDROOT
BRANCH   1   7
ATOM      7  C   UNL     1       9.360 -17.726 -28.064  1.00  0.00     0.075 C 
ATOM      8  O   UNL     1       9.200 -18.123 -29.249  1.00  0.00    -0.545 OA
ATOM      9  O   UNL     1       8.539 -16.717 -27.575  1.00  0.00    -0.545 OA
ENDBRANCH   1   7
BRANCH   2  10
ATOM     10  O   UNL     1      11.127 -19.991 -28.859  1.00  0.00    -0.507 OA
ATOM     11  H   UNL     1      10.614 -20.859 -28.934  1.00  0.00     0.293 HD
ENDBRANCH   2  10
TORSDOF 2
ENDMDL
MODEL 5
REMARK VINA RESULT:    -5.100      3.445      4.401
REMARK INTER + INTRA:          -5.794
REMARK INTER:                  -5.550
REMARK INTRA:                  -0.244
REMARK UNBOUND:                -0.247
REMARK SMILES O=C([O-])c1ccccc1O
REMARK SMILES IDX 4 1 9 2 5 3 8 4 6 5 7 6 2 7 1 8 3 9 10 10
REMARK H PARENT 10 11
REMARK Flexibility Score: inf
ROOT
ATOM      1  C   UNL     1      11.026 -18.110 -27.702  1.00  0.00     0.039 A 
ATOM      2  C   UNL     1      10.249 -18.072 -26.514  1.00  0.00     0.124 A 
ATOM      3  C   UNL     1      12.389 -18.445 -27.612  1.00  0.00     0.014 A 
ATOM      4  C   UNL     1      10.836 -18.430 -25.293  1.00  0.00     0.047 A 
ATOM      5  C   UNL     1      12.963 -18.778 -26.384  1.00  0.00     0.001 A 
ATOM      6  C   UNL     1      12.185 -18.780 -25.227  1.00  0.00     0.004 A 
ENDROOT
BRANCH   1   7
ATOM      7  C   UNL     1      10.456 -17.842 -29.041  1.00  0.00     0.075 C 
ATOM      8  O   UNL     1       9.244 -18.082 -29.288  1.00  0.00    -0.545 OA
ATOM      9  O   UNL     1      11.275 -17.385 -30.067  1.00  0.00    -0.545 OA
ENDBRANCH   1   7
BRANCH   2  10
ATOM     10  O   UNL     1       8.916 -17.659 -26.496  1.00  0.00    -0.507 OA
ATOM     11  H   UNL     1       8.540 -17.019 -25.810  1.00  0.00     0.293 HD
ENDBRANCH   2  10
TORSDOF 2
ENDMDL
MODEL 6
REMARK VINA RESULT:    -5.027      4.297      5.548
REMARK INTER + INTRA:          -5.715
REMARK INTER:                  -5.503
REMARK INTRA:                  -0.212
REMARK UNBOUND:                -0.247
REMARK SMILES O=C([O-])c1ccccc1O
REMARK SMILES IDX 4 1 9 2 5 3 8 4 6 5 7 6 2 7 1 8 3 9 10 10
REMARK H PARENT 10 11
REMARK Flexibility Score: inf
ROOT
ATOM      1  C   UNL     1      11.830 -19.813 -27.301  1.00  0.00     0.039 A 
ATOM      2  C   UNL     1      10.778 -18.889 -27.533  1.00  0.00     0.124 A 
ATOM      3  C   UNL     1      12.593 -19.693 -26.126  1.00  0.00     0.014 A 
ATOM      4  C   UNL     1      10.480 -17.921 -26.564  1.00  0.00     0.047 A 
ATOM      5  C   UNL     1      12.297 -18.709 -25.180  1.00  0.00     0.001 A 
ATOM      6  C   UNL     1      11.236 -17.831 -25.395  1.00  0.00     0.004 A 
ENDROOT
BRANCH   1   7
ATOM      7  C   UNL     1      12.141 -20.923 -28.229  1.00  0.00     0.075 C 
ATOM      8  O   UNL     1      11.465 -21.099 -29.276  1.00  0.00    -0.545 OA
ATOM      9  O   UNL     1      13.146 -21.831 -27.915  1.00  0.00    -0.545 OA
ENDBRANCH   1   7
BRANCH   2  10
ATOM     10  O   UNL     1      10.032 -18.874 -28.713  1.00  0.00    -0.507 OA
ATOM     11  H   UNL     1      10.026 -18.098 -29.360  1.00  0.00     0.293 HD
ENDBRANCH   2  10
TORSDOF 2
ENDMDL
MODEL 7
REMARK VINA RESULT:    -4.871      5.347      6.641
REMARK INTER + INTRA:          -5.545
REMARK INTER:                  -5.352
REMARK INTRA:                  -0.193
REMARK UNBOUND:                -0.247
REMARK SMILES O=C([O-])c1ccccc1O
REMARK SMILES IDX 4 1 9 2 5 3 8 4 6 5 7 6 2 7 1 8 3 9 10 10
REMARK H PARENT 10 11
REMARK Flexibility Score: inf
ROOT
ATOM      1  C   UNL     1      11.921 -20.474 -27.929  1.00  0.00     0.039 A 
ATOM      2  C   UNL     1      11.880 -20.927 -26.585  1.00  0.00     0.124 A 
ATOM      3  C   UNL     1      12.201 -21.401 -28.950  1.00  0.00     0.014 A 
ATOM      4  C   UNL     1      12.055 -22.289 -26.307  1.00  0.00     0.047 A 
ATOM      5  C   UNL     1      12.394 -22.752 -28.654  1.00  0.00     0.001 A 
ATOM      6  C   UNL     1      12.312 -23.197 -27.336  1.00  0.00     0.004 A 
ENDROOT
BRANCH   1   7
ATOM      7  C   UNL     1      11.649 -19.070 -28.311  1.00  0.00     0.075 C 
ATOM      8  O   UNL     1      12.426 -18.143 -27.962  1.00  0.00    -0.545 OA
ATOM      9  O   UNL     1      10.488 -18.752 -29.006  1.00  0.00    -0.545 OA
ENDBRANCH   1   7
BRANCH   2  10
ATOM     10  O   UNL     1      11.704 -20.063 -25.502  1.00  0.00    -0.507 OA
ATOM     11  H   UNL     1      12.264 -19.235 -25.351  1.00  0.00     0.293 HD
ENDBRANCH   2  10
TORSDOF 2
ENDMDL
MODEL 8
REMARK VINA RESULT:    -4.608      5.744      7.432
REMARK INTER + INTRA:          -5.258
REMARK INTER:                  -5.023
REMARK INTRA:                  -0.236
REMARK UNBOUND:                -0.247
REMARK SMILES O=C([O-])c1ccccc1O
REMARK SMILES IDX 4 1 9 2 5 3 8 4 6 5 7 6 2 7 1 8 3 9 10 10
REMARK H PARENT 10 11
REMARK Flexibility Score: inf
ROOT
ATOM      1  C   UNL     1      12.451 -20.719 -27.249  1.00  0.00     0.039 A 
ATOM      2  C   UNL     1      11.765 -20.829 -28.487  1.00  0.00     0.124 A 
ATOM      3  C   UNL     1      13.380 -21.715 -26.896  1.00  0.00     0.014 A 
ATOM      4  C   UNL     1      12.071 -21.885 -29.356  1.00  0.00     0.047 A 
ATOM      5  C   UNL     1      13.656 -22.773 -27.764  1.00  0.00     0.001 A 
ATOM      6  C   UNL     1      13.010 -22.853 -28.996  1.00  0.00     0.004 A 
ENDROOT
BRANCH   1   7
ATOM      7  C   UNL     1      12.256 -19.582 -26.322  1.00  0.00     0.075 C 
ATOM      8  O   UNL     1      13.241 -18.939 -25.872  1.00  0.00    -0.545 OA
ATOM      9  O   UNL     1      10.979 -19.253 -25.883  1.00  0.00    -0.545 OA
ENDBRANCH   1   7
BRANCH   2  10
ATOM     10  O   UNL     1      10.761 -19.941 -28.875  1.00  0.00    -0.507 OA
ATOM     11  H   UNL     1      10.688 -19.553 -29.806  1.00  0.00     0.293 HD
ENDBRANCH   2  10
TORSDOF 2
ENDMDL
