MODEL 1
REMARK VINA RESULT:    -4.532      0.000      0.000
REMARK INTER + INTRA:          -4.857
REMARK INTER:                  -4.797
REMARK INTRA:                  -0.060
REMARK UNBOUND:                -0.060
REMARK SMILES CC(=O)c1ccccc1
REMARK SMILES IDX 4 1 5 2 6 3 7 4 8 5 9 6 2 7 1 8 3 9
REMARK H PARENT
REMARK Flexibility Score: inf
ROOT
ATOM      1  C   UNL     1      21.462  13.001  18.749  1.00  0.00     0.017 A 
ATOM      2  C   UNL     1      21.089  14.247  19.294  1.00  0.00     0.012 A 
ATOM      3  C   UNL     1      19.922  14.368  20.055  1.00  0.00     0.001 A 
ATOM      4  C   UNL     1      19.113  13.254  20.280  1.00  0.00     0.000 A 
ATOM      5  C   UNL     1      19.469  12.013  19.748  1.00  0.00     0.001 A 
ATOM      6  C   UNL     1      20.635  11.885  18.987  1.00  0.00     0.012 A 
ENDROOT
BRANCH   1   7
ATOM      7  C   UNL     1      22.700  12.851  17.937  1.00  0.00     0.159 C 
ATOM      8  C   UNL     1      22.653  12.573  16.465  1.00  0.00     0.093 C 
ATOM      9  O   UNL     1      23.829  12.959  18.491  1.00  0.00    -0.295 OA
ENDBRANCH   1   7
TORSDOF 1
ENDMDL
MODEL 2
REMARK VINA RESULT:    -4.514      0.076      1.615
REMARK INTER + INTRA:          -4.838
REMARK INTER:                  -4.778
REMARK INTRA:                  -0.060
REMARK UNBOUND:                -0.060
REMARK SMILES CC(=O)c1ccccc1
REMARK SMILES IDX 4 1 5 2 6 3 7 4 8 5 9 6 2 7 1 8 3 9
REMARK H PARENT
REMARK Flexibility Score: inf
ROOT
ATOM      1  C   UNL     1      21.412  12.993  18.751  1.00  0.00     0.017 A 
ATOM      2  C   UNL     1      20.546  11.910  19.004  1.00  0.00     0.012 A 
ATOM      3  C   UNL     1      19.384  12.091  19.761  1.00  0.00     0.001 A 
ATOM      4  C   UNL     1      19.071  13.350  20.275  1.00  0.00     0.000 A 
ATOM      5  C   UNL     1      19.918  14.433  20.033  1.00  0.00     0.001 A 
ATOM      6  C   UNL     1      21.081  14.259  19.277  1.00  0.00     0.012 A 
ENDROOT
BRANCH   1   7
ATOM      7  C   UNL     1      22.654  12.822  17.949  1.00  0.00     0.159 C 
ATOM      8  C   UNL     1      22.613  12.536  16.478  1.00  0.00     0.093 C 
ATOM      9  O   UNL     1      23.779  12.919  18.510  1.00  0.00    -0.295 OA
ENDBRANCH   1   7
TORSDOF 1
ENDMDL
MODEL 3
REMARK VINA RESULT:    -4.251      2.607      3.678
REMARK INTER + INTRA:          -4.560
REMARK INTER:                  -4.498
REMARK INTRA:                  -0.062
REMARK UNBOUND:                -0.060
REMARK SMILES CC(=O)c1ccccc1
REMARK SMILES IDX 4 1 5 2 6 3 7 4 8 5 9 6 2 7 1 8 3 9
REMARK H PARENT
REMARK Flexibility Score: inf
ROOT
ATOM      1  C   UNL     1      19.047  14.396  20.889  1.00  0.00     0.017 A 
ATOM      2  C   UNL     1      18.823  15.158  22.054  1.00  0.00     0.012 A 
ATOM      3  C   UNL     1      17.964  14.690  23.053  1.00  0.00     0.001 A 
ATOM      4  C   UNL     1      17.319  13.462  22.906  1.00  0.00     0.000 A 
ATOM      5  C   UNL     1      17.531  12.696  21.759  1.00  0.00     0.001 A 
ATOM      6  C   UNL     1      18.389  13.157  20.755  1.00  0.00     0.012 A 
ENDROOT
BRANCH   1   7
ATOM      7  C   UNL     1      19.957  14.875  19.813  1.00  0.00     0.159 C 
ATOM      8  C   UNL     1      21.158  14.089  19.383  1.00  0.00     0.093 C 
ATOM      9  O   UNL     1      19.721  15.973  19.237  1.00  0.00    -0.295 OA
ENDBRANCH   1   7
TORSDOF 1
ENDMDL
MODEL 4
REMARK VINA RESULT:    -4.247      2.606      3.984
REMARK INTER + INTRA:          -4.555
REMARK INTER:                  -4.494
REMARK INTRA:                  -0.061
REMARK UNBOUND:                -0.060
REMARK SMILES CC(=O)c1ccccc1
REMARK SMILES IDX 4 1 5 2 6 3 7 4 8 5 9 6 2 7 1 8 3 9
REMARK H PARENT
REMARK Flexibility Score: inf
ROOT
ATOM      1  C   UNL     1      19.049  14.390  20.878  1.00  0.00     0.017 A 
ATOM      2  C   UNL     1      18.364  13.163  20.762  1.00  0.00     0.012 A 
ATOM      3  C   UNL     1      17.508  12.729  21.779  1.00  0.00     0.001 A 
ATOM      4  C   UNL     1      17.325  13.508  22.922  1.00  0.00     0.000 A 
ATOM      5  C   UNL     1      17.996  14.725  23.052  1.00  0.00     0.001 A 
ATOM      6  C   UNL     1      18.853  15.165  22.038  1.00  0.00     0.012 A 
ENDROOT
BRANCH   1   7
ATOM      7  C   UNL     1      19.964  14.870  19.807  1.00  0.00     0.159 C 
ATOM      8  C   UNL     1      21.164  14.080  19.378  1.00  0.00     0.093 C 
ATOM      9  O   UNL     1      19.735  15.970  19.235  1.00  0.00    -0.295 OA
ENDBRANCH   1   7
TORSDOF 1
ENDMDL
MODEL 5
REMARK VINA RESULT:    -4.186      1.703      4.081
REMARK INTER + INTRA:          -4.491
REMARK INTER:                  -4.433
REMARK INTRA:                  -0.058
REMARK UNBOUND:                -0.060
REMARK SMILES CC(=O)c1ccccc1
REMARK SMILES IDX 4 1 5 2 6 3 7 4 8 5 9 6 2 7 1 8 3 9
REMARK H PARENT
REMARK Flexibility Score: inf
ROOT
ATOM      1  C   UNL     1      22.185  12.824  18.494  1.00  0.00     0.017 A 
ATOM      2  C   UNL     1      22.211  12.672  17.092  1.00  0.00     0.012 A 
ATOM      3  C   UNL     1      23.391  12.300  16.441  1.00  0.00     0.001 A 
ATOM      4  C   UNL     1      24.556  12.075  17.174  1.00  0.00     0.000 A 
ATOM      5  C   UNL     1      24.547  12.220  18.562  1.00  0.00     0.001 A 
ATOM      6  C   UNL     1      23.370  12.593  19.220  1.00  0.00     0.012 A 
ENDROOT
BRANCH   1   7
ATOM      7  C   UNL     1      20.940  13.220  19.207  1.00  0.00     0.159 C 
ATOM      8  C   UNL     1      19.933  12.209  19.665  1.00  0.00     0.093 C 
ATOM      9  O   UNL     1      20.713  14.439  19.439  1.00  0.00    -0.295 OA
ENDBRANCH   1   7
TORSDOF 1
ENDMDL
MODEL 6
REMARK VINA RESULT:    -4.184      1.818      2.567
REMARK INTER + INTRA:          -4.489
REMARK INTER:                  -4.429
REMARK INTRA:                  -0.059
REMARK UNBOUND:                -0.060
REMARK SMILES CC(=O)c1ccccc1
REMARK SMILES IDX 4 1 5 2 6 3 7 4 8 5 9 6 2 7 1 8 3 9
REMARK H PARENT
REMARK Flexibility Score: inf
ROOT
ATOM      1  C   UNL     1      19.894  12.767  20.277  1.00  0.00     0.017 A 
ATOM      2  C   UNL     1      18.564  13.195  20.091  1.00  0.00     0.012 A 
ATOM      3  C   UNL     1      17.600  12.967  21.077  1.00  0.00     0.001 A 
ATOM      4  C   UNL     1      17.946  12.310  22.258  1.00  0.00     0.000 A 
ATOM      5  C   UNL     1      19.259  11.880  22.459  1.00  0.00     0.001 A 
ATOM      6  C   UNL     1      20.228  12.105  21.476  1.00  0.00     0.012 A 
ENDROOT
BRANCH   1   7
ATOM      7  C   UNL     1      20.936  12.999  19.240  1.00  0.00     0.159 C 
ATOM      8  C   UNL     1      21.439  11.894  18.361  1.00  0.00     0.093 C 
ATOM      9  O   UNL     1      21.417  14.155  19.085  1.00  0.00    -0.295 OA
ENDBRANCH   1   7
TORSDOF 1
ENDMDL
MODEL 7
REMARK VINA RESULT:    -4.161      2.765      4.710
REMARK INTER + INTRA:          -4.464
REMARK INTER:                  -4.394
REMARK INTRA:                  -0.070
REMARK UNBOUND:                -0.060
REMARK SMILES CC(=O)c1ccccc1
REMARK SMILES IDX 4 1 5 2 6 3 7 4 8 5 9 6 2 7 1 8 3 9
REMARK H PARENT
REMARK Flexibility Score: inf
ROOT
ATOM      1  C   UNL     1      19.284  13.515  20.741  1.00  0.00     0.017 A 
ATOM      2  C   UNL     1      19.346  12.210  20.211  1.00  0.00     0.012 A 
ATOM      3  C   UNL     1      20.314  11.877  19.258  1.00  0.00     0.001 A 
ATOM      4  C   UNL     1      21.228  12.835  18.821  1.00  0.00     0.000 A 
ATOM      5  C   UNL     1      21.180  14.132  19.337  1.00  0.00     0.001 A 
ATOM      6  C   UNL     1      20.215  14.472  20.290  1.00  0.00     0.012 A 
ENDROOT
BRANCH   1   7
ATOM      7  C   UNL     1      18.262  13.891  21.756  1.00  0.00     0.159 C 
ATOM      8  C   UNL     1      18.397  15.125  22.596  1.00  0.00     0.093 C 
ATOM      9  O   UNL     1      17.248  13.160  21.923  1.00  0.00    -0.295 OA
ENDBRANCH   1   7
TORSDOF 1
ENDMDL
MODEL 8
REMARK VINA RESULT:    -4.035      1.504      2.020
REMARK INTER + INTRA:          -4.331
REMARK INTER:                  -4.261
REMARK INTRA:                  -0.070
REMARK UNBOUND:                -0.060
REMARK SMILES CC(=O)c1ccccc1
REMARK SMILES IDX 4 1 5 2 6 3 7 4 8 5 9 6 2 7 1 8 3 9
REMARK H PARENT
REMARK Flexibility Score: inf
ROOT
ATOM      1  C   UNL     1      22.609  13.251  19.076  1.00  0.00     0.017 A 
ATOM      2  C   UNL     1      21.279  13.708  18.986  1.00  0.00     0.012 A 
ATOM      3  C   UNL     1      20.610  14.176  20.122  1.00  0.00     0.001 A 
ATOM      4  C   UNL     1      21.256  14.194  21.358  1.00  0.00     0.000 A 
ATOM      5  C   UNL     1      22.574  13.745  21.464  1.00  0.00     0.001 A 
ATOM      6  C   UNL     1      23.248  13.275  20.332  1.00  0.00     0.012 A 
ENDROOT
BRANCH   1   7
ATOM      7  C   UNL     1      23.338  12.748  17.880  1.00  0.00     0.159 C 
ATOM      8  C   UNL     1      22.676  12.627  16.541  1.00  0.00     0.093 C 
ATOM      9  O   UNL     1      24.550  12.412  17.982  1.00  0.00    -0.295 OA
ENDBRANCH   1   7
TORSDOF 1
ENDMDL
MODEL 9
REMARK VINA RESULT:    -4.032      3.828      5.653
REMARK INTER + INTRA:          -4.327
REMARK INTER:                  -4.263
REMARK INTRA:                  -0.064
REMARK UNBOUND:                -0.060
REMARK SMILES CC(=O)c1ccccc1
REMARK SMILES IDX 4 1 5 2 6 3 7 4 8 5 9 6 2 7 1 8 3 9
REMARK H PARENT
REMARK Flexibility Score: inf
ROOT
ATOM      1  C   UNL     1      18.141  13.957  22.119  1.00  0.00     0.017 A 
ATOM      2  C   UNL     1      18.942  15.100  21.924  1.00  0.00     0.012 A 
ATOM      3  C   UNL     1      19.772  15.203  20.803  1.00  0.00     0.001 A 
ATOM      4  C   UNL     1      19.816  14.170  19.866  1.00  0.00     0.000 A 
ATOM      5  C   UNL     1      19.029  13.032  20.044  1.00  0.00     0.001 A 
ATOM      6  C   UNL     1      18.196  12.923  21.163  1.00  0.00     0.012 A 
ENDROOT
BRANCH   1   7
ATOM      7  C   UNL     1      17.251  13.827  23.305  1.00  0.00     0.159 C 
ATOM      8  C   UNL     1      17.711  14.193  24.684  1.00  0.00     0.093 C 
ATOM      9  O   UNL     1      16.073  13.400  23.159  1.00  0.00    -0.295 OA
ENDBRANCH   1   7
TORSDOF 1
ENDMDL
