MODEL 1
REMARK VINA RESULT:    -2.912      0.000      0.000
REMARK INTER + INTRA:          -3.564
REMARK INTER:                  -3.422
REMARK INTRA:                  -0.142
REMARK UNBOUND:                -0.142
REMARK SMILES C=CC(C)=CCC=C(C)C
REMARK SMILES IDX 5 1 3 2 4 3 6 4 7 5 9 6 8 7 10 8 2 9 1 10
REMARK H PARENT
REMARK Flexibility Score: inf
ROOT
ATOM      1  C   UNL     1     135.467 138.709 163.521  1.00  0.00    -0.020 C 
ATOM      2  C   UNL     1     135.801 139.958 163.904  1.00  0.00    -0.055 C 
ATOM      3  C   UNL     1     135.623 141.148 162.985  1.00  0.00     0.044 C 
ENDROOT
BRANCH   1   4
ATOM      4  C   UNL     1     134.876 138.352 162.183  1.00  0.00     0.055 C 
BRANCH   4   5
ATOM      5  C   UNL     1     135.068 136.888 161.873  1.00  0.00    -0.024 C 
ATOM      6  C   UNL     1     136.345 134.875 161.270  1.00  0.00     0.039 C 
ATOM      7  C   UNL     1     136.267 136.350 161.568  1.00  0.00    -0.080 C 
ATOM      8  C   UNL     1     137.520 137.192 161.517  1.00  0.00     0.039 C 
ENDBRANCH   4   5
ENDBRANCH   1   4
BRANCH   2   9
ATOM      9  C   UNL     1     136.425 140.131 165.240  1.00  0.00    -0.005 C 
ATOM     10  C   UNL     1     136.906 139.121 165.967  1.00  0.00     0.009 C 
ENDBRANCH   2   9
TORSDOF 3
ENDMDL
MODEL 2
REMARK VINA RESULT:    -1.878      1.237      4.628
REMARK INTER + INTRA:          -2.350
REMARK INTER:                  -2.418
REMARK INTRA:                   0.069
REMARK UNBOUND:                -0.142
REMARK SMILES C=CC(C)=CCC=C(C)C
REMARK SMILES IDX 5 1 3 2 4 3 6 4 7 5 9 6 8 7 10 8 2 9 1 10
REMARK H PARENT
REMARK Flexibility Score: inf
ROOT
ATOM      1  C   UNL     1     136.232 137.355 161.604  1.00  0.00    -0.020 C 
ATOM      2  C   UNL     1     136.445 136.024 161.626  1.00  0.00    -0.055 C 
ATOM      3  C   UNL     1     135.304 135.032 161.562  1.00  0.00     0.044 C 
ENDROOT
BRANCH   1   4
ATOM      4  C   UNL     1     134.876 138.003 161.497  1.00  0.00     0.055 C 
BRANCH   4   5
ATOM      5  C   UNL     1     134.910 139.426 162.000  1.00  0.00    -0.024 C 
ATOM      6  C   UNL     1     135.243 141.205 163.664  1.00  0.00     0.039 C 
ATOM      7  C   UNL     1     135.247 139.752 163.265  1.00  0.00    -0.080 C 
ATOM      8  C   UNL     1     135.624 138.698 164.279  1.00  0.00     0.039 C 
ENDBRANCH   4   5
ENDBRANCH   1   4
BRANCH   2   9
ATOM      9  C   UNL     1     137.842 135.548 161.791  1.00  0.00    -0.005 C 
ATOM     10  C   UNL     1     138.272 134.875 162.860  1.00  0.00     0.009 C 
ENDBRANCH   2   9
TORSDOF 3
ENDMDL
MODEL 3
REMARK VINA RESULT:    -1.547      1.178      2.304
REMARK INTER + INTRA:          -1.961
REMARK INTER:                  -2.118
REMARK INTRA:                   0.157
REMARK UNBOUND:                -0.142
REMARK SMILES C=CC(C)=CCC=C(C)C
REMARK SMILES IDX 5 1 3 2 4 3 6 4 7 5 9 6 8 7 10 8 2 9 1 10
REMARK H PARENT
REMARK Flexibility Score: inf
ROOT
ATOM      1  C   UNL     1     134.998 139.167 162.083  1.00  0.00    -0.020 C 
ATOM      2  C   UNL     1     135.406 139.515 163.320  1.00  0.00    -0.055 C 
ATOM      3  C   UNL     1     136.000 138.505 164.278  1.00  0.00     0.044 C 
ENDROOT
BRANCH   1   4
ATOM      4  C   UNL     1     135.096 137.779 161.508  1.00  0.00     0.055 C 
BRANCH   4   5
ATOM      5  C   UNL     1     136.492 137.224 161.652  1.00  0.00    -0.024 C 
ATOM      6  C   UNL     1     138.187 135.459 161.893  1.00  0.00     0.039 C 
ATOM      7  C   UNL     1     136.754 135.905 161.748  1.00  0.00    -0.080 C 
ATOM      8  C   UNL     1     135.650 134.875 161.714  1.00  0.00     0.039 C 
ENDBRANCH   4   5
ENDBRANCH   1   4
BRANCH   2   9
ATOM      9  C   UNL     1     135.188 140.919 163.754  1.00  0.00    -0.005 C 
ATOM     10  C   UNL     1     135.210 141.961 162.922  1.00  0.00     0.009 C 
ENDBRANCH   2   9
TORSDOF 3
ENDMDL
MODEL 4
REMARK VINA RESULT:    -0.886      1.182      2.032
REMARK INTER + INTRA:          -1.184
REMARK INTER:                  -1.551
REMARK INTRA:                   0.367
REMARK UNBOUND:                -0.142
REMARK SMILES C=CC(C)=CCC=C(C)C
REMARK SMILES IDX 5 1 3 2 4 3 6 4 7 5 9 6 8 7 10 8 2 9 1 10
REMARK H PARENT
REMARK Flexibility Score: inf
ROOT
ATOM      1  C   UNL     1     135.470 138.474 162.169  1.00  0.00    -0.020 C 
ATOM      2  C   UNL     1     135.619 139.093 163.358  1.00  0.00    -0.055 C 
ATOM      3  C   UNL     1     135.171 138.451 164.653  1.00  0.00     0.044 C 
ENDROOT
BRANCH   1   4
ATOM      4  C   UNL     1     134.875 137.103 161.987  1.00  0.00     0.055 C 
BRANCH   4   5
ATOM      5  C   UNL     1     135.874 136.024 162.328  1.00  0.00    -0.024 C 
ATOM      6  C   UNL     1     138.053 134.887 162.256  1.00  0.00     0.039 C 
ATOM      7  C   UNL     1     137.138 136.016 161.856  1.00  0.00    -0.080 C 
ATOM      8  C   UNL     1     137.648 137.105 160.942  1.00  0.00     0.039 C 
ENDBRANCH   4   5
ENDBRANCH   1   4
BRANCH   2   9
ATOM      9  C   UNL     1     136.174 140.471 163.358  1.00  0.00    -0.005 C 
ATOM     10  C   UNL     1     135.434 141.566 163.176  1.00  0.00     0.009 C 
ENDBRANCH   2   9
TORSDOF 3
ENDMDL
MODEL 5
REMARK VINA RESULT:    -0.233      1.365      4.632
REMARK INTER + INTRA:          -0.416
REMARK INTER:                  -0.536
REMARK INTRA:                   0.120
REMARK UNBOUND:                -0.142
REMARK SMILES C=CC(C)=CCC=C(C)C
REMARK SMILES IDX 5 1 3 2 4 3 6 4 7 5 9 6 8 7 10 8 2 9 1 10
REMARK H PARENT
REMARK Flexibility Score: inf
ROOT
ATOM      1  C   UNL     1     136.711 137.418 163.058  1.00  0.00    -0.020 C 
ATOM      2  C   UNL     1     135.932 137.119 161.998  1.00  0.00    -0.055 C 
ATOM      3  C   UNL     1     134.907 138.094 161.462  1.00  0.00     0.044 C 
ENDROOT
BRANCH   1   4
ATOM      4  C   UNL     1     136.674 138.725 163.806  1.00  0.00     0.055 C 
BRANCH   4   5
ATOM      5  C   UNL     1     137.083 139.875 162.918  1.00  0.00    -0.024 C 
ATOM      6  C   UNL     1     136.779 142.010 161.737  1.00  0.00     0.039 C 
ATOM      7  C   UNL     1     136.271 140.915 162.640  1.00  0.00    -0.080 C 
ATOM      8  C   UNL     1     134.875 141.004 163.211  1.00  0.00     0.039 C 
ENDBRANCH   4   5
ENDBRANCH   1   4
BRANCH   2   9
ATOM      9  C   UNL     1     136.055 135.762 161.408  1.00  0.00    -0.005 C 
ATOM     10  C   UNL     1     136.990 134.881 161.769  1.00  0.00     0.009 C 
ENDBRANCH   2   9
TORSDOF 3
ENDMDL
