MODEL 1
REMARK VINA RESULT:    -2.527      0.000      0.000
REMARK INTER + INTRA:          -4.371
REMARK INTER:                  -3.857
REMARK INTRA:                  -0.515
REMARK UNBOUND:                -0.515
REMARK SMILES CCCCCCCCCCC(=O)[O-]
REMARK SMILES IDX 7 1 8 2 9 3 10 4 11 5 12 6 13 7 6 8 5 9 4 10 3 11 2 12 1 13
REMARK H PARENT
REMARK Flexibility Score: inf
ROOT
ATOM      1  C   UNL     1      17.095   2.810  25.025  1.00  0.00     0.000 C 
ENDROOT
BRANCH   1   2
ATOM      2  C   UNL     1      15.770   3.162  25.722  1.00  0.00     0.000 C 
BRANCH   2   3
ATOM      3  C   UNL     1      14.647   2.156  25.411  1.00  0.00     0.006 C 
BRANCH   3   4
ATOM      4  C   UNL     1      13.351   2.794  24.885  1.00  0.00     0.053 C 
BRANCH   4   5
ATOM      5  C   UNL     1      13.541   3.423  23.539  1.00  0.00     0.041 C 
ATOM      6  O   UNL     1      14.040   2.758  22.593  1.00  0.00    -0.550 OA
ATOM      7  O   UNL     1      13.135   4.733  23.322  1.00  0.00    -0.550 OA
ENDBRANCH   4   5
ENDBRANCH   3   4
ENDBRANCH   2   3
ENDBRANCH   1   2
BRANCH   1   8
ATOM      8  C   UNL     1      17.624   1.423  25.429  1.00  0.00     0.000 C 
BRANCH   8   9
ATOM      9  C   UNL     1      19.079   1.467  25.931  1.00  0.00    -0.000 C 
BRANCH   9  10
ATOM     10  C   UNL     1      19.183   1.302  27.455  1.00  0.00    -0.000 C 
BRANCH  10  11
ATOM     11  C   UNL     1      19.062   2.641  28.203  1.00  0.00    -0.000 C 
BRANCH  11  12
ATOM     12  C   UNL     1      19.369   2.507  29.703  1.00  0.00    -0.003 C 
ATOM     13  C   UNL     1      18.810   3.666  30.529  1.00  0.00     0.004 C 
ENDBRANCH  11  12
ENDBRANCH  10  11
ENDBRANCH   9  10
ENDBRANCH   8   9
ENDBRANCH   1   8
TORSDOF 9
ENDMDL
MODEL 2
REMARK VINA RESULT:    -2.466      0.991      1.683
REMARK INTER + INTRA:          -4.278
REMARK INTER:                  -3.909
REMARK INTRA:                  -0.368
REMARK UNBOUND:                -0.515
REMARK SMILES CCCCCCCCCCC(=O)[O-]
REMARK SMILES IDX 7 1 8 2 9 3 10 4 11 5 12 6 13 7 6 8 5 9 4 10 3 11 2 12 1 13
REMARK H PARENT
REMARK Flexibility Score: inf
ROOT
ATOM      1  C   UNL     1      18.558   2.384  25.557  1.00  0.00     0.000 C 
ENDROOT
BRANCH   1   2
ATOM      2  C   UNL     1      17.109   1.935  25.304  1.00  0.00     0.000 C 
BRANCH   2   3
ATOM      3  C   UNL     1      16.114   3.110  25.295  1.00  0.00     0.006 C 
BRANCH   3   4
ATOM      4  C   UNL     1      14.693   2.741  25.749  1.00  0.00     0.053 C 
BRANCH   4   5
ATOM      5  C   UNL     1      13.732   2.686  24.602  1.00  0.00     0.041 C 
ATOM      6  O   UNL     1      12.713   1.949  24.662  1.00  0.00    -0.550 OA
ATOM      7  O   UNL     1      13.945   3.476  23.479  1.00  0.00    -0.550 OA
ENDBRANCH   4   5
ENDBRANCH   3   4
ENDBRANCH   2   3
ENDBRANCH   1   2
BRANCH   1   8
ATOM      8  C   UNL     1      19.462   1.229  26.020  1.00  0.00     0.000 C 
BRANCH   8   9
ATOM      9  C   UNL     1      19.482   1.068  27.551  1.00  0.00    -0.000 C 
BRANCH   9  10
ATOM     10  C   UNL     1      19.033   2.341  28.285  1.00  0.00    -0.000 C 
BRANCH  10  11
ATOM     11  C   UNL     1      19.413   2.327  29.776  1.00  0.00    -0.000 C 
BRANCH  11  12
ATOM     12  C   UNL     1      19.251   3.706  30.437  1.00  0.00    -0.003 C 
ATOM     13  C   UNL     1      17.788   4.107  30.621  1.00  0.00     0.004 C 
ENDBRANCH  11  12
ENDBRANCH  10  11
ENDBRANCH   9  10
ENDBRANCH   8   9
ENDBRANCH   1   8
TORSDOF 9
ENDMDL
MODEL 3
REMARK VINA RESULT:    -2.120      3.673      6.634
REMARK INTER + INTRA:          -3.750
REMARK INTER:                  -3.243
REMARK INTRA:                  -0.506
REMARK UNBOUND:                -0.515
REMARK SMILES CCCCCCCCCCC(=O)[O-]
REMARK SMILES IDX 7 1 8 2 9 3 10 4 11 5 12 6 13 7 6 8 5 9 4 10 3 11 2 12 1 13
REMARK H PARENT
REMARK Flexibility Score: inf
ROOT
ATOM      1  C   UNL     1      17.619   1.449  25.353  1.00  0.00     0.000 C 
ENDROOT
BRANCH   1   2
ATOM      2  C   UNL     1      19.085   1.450  25.814  1.00  0.00     0.000 C 
BRANCH   2   3
ATOM      3  C   UNL     1      19.229   1.407  27.347  1.00  0.00     0.006 C 
BRANCH   3   4
ATOM      4  C   UNL     1      18.784   2.692  28.062  1.00  0.00     0.053 C 
BRANCH   4   5
ATOM      5  C   UNL     1      19.265   2.742  29.479  1.00  0.00     0.041 C 
ATOM      6  O   UNL     1      20.202   1.991  29.858  1.00  0.00    -0.550 OA
ATOM      7  O   UNL     1      18.701   3.643  30.373  1.00  0.00    -0.550 OA
ENDBRANCH   4   5
ENDBRANCH   3   4
ENDBRANCH   2   3
ENDBRANCH   1   2
BRANCH   1   8
ATOM      8  C   UNL     1      17.118   2.853  24.975  1.00  0.00     0.000 C 
BRANCH   8   9
ATOM      9  C   UNL     1      15.801   3.224  25.681  1.00  0.00    -0.000 C 
BRANCH   9  10
ATOM     10  C   UNL     1      14.692   2.185  25.447  1.00  0.00    -0.000 C 
BRANCH  10  11
ATOM     11  C   UNL     1      13.432   2.800  24.816  1.00  0.00    -0.000 C 
BRANCH  11  12
ATOM     12  C   UNL     1      13.622   3.130  23.326  1.00  0.00    -0.003 C 
ATOM     13  C   UNL     1      13.108   4.521  22.956  1.00  0.00     0.004 C 
ENDBRANCH  11  12
ENDBRANCH  10  11
ENDBRANCH   9  10
ENDBRANCH   8   9
ENDBRANCH   1   8
TORSDOF 9
ENDMDL
MODEL 4
REMARK VINA RESULT:    -1.745      3.770      6.517
REMARK INTER + INTRA:          -3.178
REMARK INTER:                  -2.686
REMARK INTRA:                  -0.492
REMARK UNBOUND:                -0.515
REMARK SMILES CCCCCCCCCCC(=O)[O-]
REMARK SMILES IDX 7 1 8 2 9 3 10 4 11 5 12 6 13 7 6 8 5 9 4 10 3 11 2 12 1 13
REMARK H PARENT
REMARK Flexibility Score: inf
ROOT
ATOM      1  C   UNL     1      18.998   1.986  26.331  1.00  0.00     0.000 C 
ENDROOT
BRANCH   1   2
ATOM      2  C   UNL     1      19.297   1.001  27.473  1.00  0.00     0.000 C 
BRANCH   2   3
ATOM      3  C   UNL     1      19.451   1.699  28.837  1.00  0.00     0.006 C 
BRANCH   3   4
ATOM      4  C   UNL     1      18.772   3.075  28.925  1.00  0.00     0.053 C 
BRANCH   4   5
ATOM      5  C   UNL     1      18.770   3.612  30.323  1.00  0.00     0.041 C 
ATOM      6  O   UNL     1      19.784   3.471  31.058  1.00  0.00    -0.550 OA
ATOM      7  O   UNL     1      17.662   4.298  30.803  1.00  0.00    -0.550 OA
ENDBRANCH   4   5
ENDBRANCH   3   4
ENDBRANCH   2   3
ENDBRANCH   1   2
BRANCH   1   8
ATOM      8  C   UNL     1      17.775   1.569  25.497  1.00  0.00     0.000 C 
BRANCH   8   9
ATOM      9  C   UNL     1      17.040   2.772  24.879  1.00  0.00    -0.000 C 
BRANCH   9  10
ATOM     10  C   UNL     1      15.753   3.132  25.637  1.00  0.00    -0.000 C 
BRANCH  10  11
ATOM     11  C   UNL     1      14.635   2.097  25.425  1.00  0.00    -0.000 C 
BRANCH  11  12
ATOM     12  C   UNL     1      13.382   2.709  24.776  1.00  0.00    -0.003 C 
ATOM     13  C   UNL     1      13.676   3.381  23.436  1.00  0.00     0.004 C 
ENDBRANCH  11  12
ENDBRANCH  10  11
ENDBRANCH   9  10
ENDBRANCH   8   9
ENDBRANCH   1   8
TORSDOF 9
ENDMDL
MODEL 5
REMARK VINA RESULT:    -1.260      3.545      6.678
REMARK INTER + INTRA:          -2.438
REMARK INTER:                  -2.078
REMARK INTRA:                  -0.360
REMARK UNBOUND:                -0.515
REMARK SMILES CCCCCCCCCCC(=O)[O-]
REMARK SMILES IDX 7 1 8 2 9 3 10 4 11 5 12 6 13 7 6 8 5 9 4 10 3 11 2 12 1 13
REMARK H PARENT
REMARK Flexibility Score: inf
ROOT
ATOM      1  C   UNL     1      17.148   2.804  25.022  1.00  0.00     0.000 C 
ENDROOT
BRANCH   1   2
ATOM      2  C   UNL     1      17.691   1.403  25.349  1.00  0.00     0.000 C 
BRANCH   2   3
ATOM      3  C   UNL     1      18.852   1.435  26.360  1.00  0.00     0.006 C 
BRANCH   3   4
ATOM      4  C   UNL     1      18.823   2.634  27.321  1.00  0.00     0.053 C 
BRANCH   4   5
ATOM      5  C   UNL     1      19.221   2.248  28.713  1.00  0.00     0.041 C 
ATOM      6  O   UNL     1      19.615   1.078  28.959  1.00  0.00    -0.550 OA
ATOM      7  O   UNL     1      19.187   3.192  29.732  1.00  0.00    -0.550 OA
ENDBRANCH   4   5
ENDBRANCH   3   4
ENDBRANCH   2   3
ENDBRANCH   1   2
BRANCH   1   8
ATOM      8  C   UNL     1      15.840   3.119  25.767  1.00  0.00     0.000 C 
BRANCH   8   9
ATOM      9  C   UNL     1      14.731   2.090  25.479  1.00  0.00    -0.000 C 
BRANCH   9  10
ATOM     10  C   UNL     1      13.525   2.708  24.755  1.00  0.00    -0.000 C 
BRANCH  10  11
ATOM     11  C   UNL     1      13.900   3.300  23.385  1.00  0.00    -0.000 C 
BRANCH  11  12
ATOM     12  C   UNL     1      12.827   4.260  22.846  1.00  0.00    -0.003 C 
ATOM     13  C   UNL     1      13.236   5.729  22.954  1.00  0.00     0.004 C 
ENDBRANCH  11  12
ENDBRANCH  10  11
ENDBRANCH   9  10
ENDBRANCH   8   9
ENDBRANCH   1   8
TORSDOF 9
ENDMDL
MODEL 6
REMARK VINA RESULT:    -0.886     13.903     15.808
REMARK INTER + INTRA:          -1.867
REMARK INTER:                  -1.568
REMARK INTRA:                  -0.299
REMARK UNBOUND:                -0.515
REMARK SMILES CCCCCCCCCCC(=O)[O-]
REMARK SMILES IDX 7 1 8 2 9 3 10 4 11 5 12 6 13 7 6 8 5 9 4 10 3 11 2 12 1 13
REMARK H PARENT
REMARK Flexibility Score: inf
ROOT
ATOM      1  C   UNL     1      11.710  14.110  22.265  1.00  0.00     0.000 C 
ENDROOT
BRANCH   1   2
ATOM      2  C   UNL     1      10.875  14.228  23.551  1.00  0.00     0.000 C 
BRANCH   2   3
ATOM      3  C   UNL     1      11.003  15.608  24.220  1.00  0.00     0.006 C 
BRANCH   3   4
ATOM      4  C   UNL     1      11.551  15.570  25.655  1.00  0.00     0.053 C 
BRANCH   4   5
ATOM      5  C   UNL     1      11.780  16.943  26.207  1.00  0.00     0.041 C 
ATOM      6  O   UNL     1      12.322  17.830  25.495  1.00  0.00    -0.550 OA
ATOM      7  O   UNL     1      11.364  17.253  27.495  1.00  0.00    -0.550 OA
ENDBRANCH   4   5
ENDBRANCH   3   4
ENDBRANCH   2   3
ENDBRANCH   1   2
BRANCH   1   8
ATOM      8  C   UNL     1      10.963  14.633  21.026  1.00  0.00     0.000 C 
BRANCH   8   9
ATOM      9  C   UNL     1      11.014  16.167  20.907  1.00  0.00    -0.000 C 
BRANCH   9  10
ATOM     10  C   UNL     1      11.015  16.647  19.447  1.00  0.00    -0.000 C 
BRANCH  10  11
ATOM     11  C   UNL     1      12.129  17.669  19.163  1.00  0.00    -0.000 C 
BRANCH  11  12
ATOM     12  C   UNL     1      13.389  17.415  20.008  1.00  0.00    -0.003 C 
ATOM     13  C   UNL     1      14.678  17.788  19.277  1.00  0.00     0.004 C 
ENDBRANCH  11  12
ENDBRANCH  10  11
ENDBRANCH   9  10
ENDBRANCH   8   9
ENDBRANCH   1   8
TORSDOF 9
ENDMDL
MODEL 7
REMARK VINA RESULT:    -0.865      3.619      6.649
REMARK INTER + INTRA:          -1.835
REMARK INTER:                  -1.192
REMARK INTRA:                  -0.643
REMARK UNBOUND:                -0.515
REMARK SMILES CCCCCCCCCCC(=O)[O-]
REMARK SMILES IDX 7 1 8 2 9 3 10 4 11 5 12 6 13 7 6 8 5 9 4 10 3 11 2 12 1 13
REMARK H PARENT
REMARK Flexibility Score: inf
ROOT
ATOM      1  C   UNL     1      16.555   3.353  26.181  1.00  0.00     0.000 C 
ENDROOT
BRANCH   1   2
ATOM      2  C   UNL     1      17.252   2.646  25.007  1.00  0.00     0.000 C 
BRANCH   2   3
ATOM      3  C   UNL     1      18.011   1.379  25.440  1.00  0.00     0.006 C 
BRANCH   3   4
ATOM      4  C   UNL     1      19.328   1.651  26.184  1.00  0.00     0.053 C 
BRANCH   4   5
ATOM      5  C   UNL     1      20.489   0.950  25.547  1.00  0.00     0.041 C 
ATOM      6  O   UNL     1      20.293   0.076  24.661  1.00  0.00    -0.550 OA
ATOM      7  O   UNL     1      21.787   1.288  25.906  1.00  0.00    -0.550 OA
ENDBRANCH   4   5
ENDBRANCH   3   4
ENDBRANCH   2   3
ENDBRANCH   1   2
BRANCH   1   8
ATOM      8  C   UNL     1      15.064   3.616  25.912  1.00  0.00     0.000 C 
BRANCH   8   9
ATOM      9  C   UNL     1      14.273   2.323  25.641  1.00  0.00    -0.000 C 
BRANCH   9  10
ATOM     10  C   UNL     1      13.275   2.473  24.481  1.00  0.00    -0.000 C 
BRANCH  10  11
ATOM     11  C   UNL     1      13.848   3.291  23.312  1.00  0.00    -0.000 C 
BRANCH  11  12
ATOM     12  C   UNL     1      12.850   4.333  22.779  1.00  0.00    -0.003 C 
ATOM     13  C   UNL     1      13.292   5.770  23.049  1.00  0.00     0.004 C 
ENDBRANCH  11  12
ENDBRANCH  10  11
ENDBRANCH   9  10
ENDBRANCH   8   9
ENDBRANCH   1   8
TORSDOF 9
ENDMDL
MODEL 8
REMARK VINA RESULT:    -0.327      1.374      2.593
REMARK INTER + INTRA:          -1.014
REMARK INTER:                  -0.513
REMARK INTRA:                  -0.501
REMARK UNBOUND:                -0.515
REMARK SMILES CCCCCCCCCCC(=O)[O-]
REMARK SMILES IDX 7 1 8 2 9 3 10 4 11 5 12 6 13 7 6 8 5 9 4 10 3 11 2 12 1 13
REMARK H PARENT
REMARK Flexibility Score: inf
ROOT
ATOM      1  C   UNL     1      18.785   2.376  26.706  1.00  0.00     0.000 C 
ENDROOT
BRANCH   1   2
ATOM      2  C   UNL     1      18.251   1.916  25.339  1.00  0.00     0.000 C 
BRANCH   2   3
ATOM      3  C   UNL     1      16.721   1.747  25.324  1.00  0.00     0.006 C 
BRANCH   3   4
ATOM      4  C   UNL     1      15.937   3.068  25.260  1.00  0.00     0.053 C 
BRANCH   4   5
ATOM      5  C   UNL     1      14.498   2.851  24.908  1.00  0.00     0.041 C 
ATOM      6  O   UNL     1      13.961   3.525  23.989  1.00  0.00    -0.550 OA
ATOM      7  O   UNL     1      13.758   1.880  25.571  1.00  0.00    -0.550 OA
ENDBRANCH   4   5
ENDBRANCH   3   4
ENDBRANCH   2   3
ENDBRANCH   1   2
BRANCH   1   8
ATOM      8  C   UNL     1      19.303   1.207  27.561  1.00  0.00     0.000 C 
BRANCH   8   9
ATOM      9  C   UNL     1      19.560   1.611  29.024  1.00  0.00    -0.000 C 
BRANCH   9  10
ATOM     10  C   UNL     1      19.195   3.078  29.305  1.00  0.00    -0.000 C 
BRANCH  10  11
ATOM     11  C   UNL     1      19.075   3.377  30.809  1.00  0.00    -0.000 C 
BRANCH  11  12
ATOM     12  C   UNL     1      17.902   4.320  31.129  1.00  0.00    -0.003 C 
ATOM     13  C   UNL     1      16.997   4.570  29.924  1.00  0.00     0.004 C 
ENDBRANCH  11  12
ENDBRANCH  10  11
ENDBRANCH   9  10
ENDBRANCH   8   9
ENDBRANCH   1   8
TORSDOF 9
ENDMDL
