MODEL 1
REMARK VINA RESULT:    -4.124      0.000      0.000
REMARK INTER + INTRA:          -4.990
REMARK INTER:                  -4.727
REMARK INTRA:                  -0.263
REMARK UNBOUND:                -0.263
REMARK SMILES COC(=O)c1ccccc1O
REMARK SMILES IDX 5 1 6 2 7 3 8 4 9 5 10 6 3 7 4 8 2 9 1 10 11 11
REMARK H PARENT 11 12
REMARK Flexibility Score: inf
ROOT
ATOM      1  C   UNL     1      26.666  40.437  20.213  1.00  0.00     0.101 A 
ATOM      2  C   UNL     1      26.245  41.275  21.264  1.00  0.00     0.019 A 
ATOM      3  C   UNL     1      26.445  42.656  21.201  1.00  0.00     0.001 A 
ATOM      4  C   UNL     1      27.070  43.222  20.091  1.00  0.00     0.004 A 
ATOM      5  C   UNL     1      27.495  42.410  19.039  1.00  0.00     0.047 A 
ATOM      6  C   UNL     1      27.299  41.021  19.089  1.00  0.00     0.130 A 
ENDROOT
BRANCH   1   7
ATOM      7  C   UNL     1      26.439  38.971  20.308  1.00  0.00     0.341 C 
ATOM      8  O   UNL     1      27.305  38.170  19.858  1.00  0.00    -0.246 OA
BRANCH   7   9
ATOM      9  O   UNL     1      25.272  38.469  20.895  1.00  0.00    -0.465 OA
ATOM     10  C   UNL     1      24.940  37.086  20.886  1.00  0.00     0.282 C 
ENDBRANCH   7   9
ENDBRANCH   1   7
BRANCH   6  11
ATOM     11  O   UNL     1      27.735  40.233  18.024  1.00  0.00    -0.507 OA
ATOM     12  H   UNL     1      27.880  39.235  18.124  1.00  0.00     0.293 HD
ENDBRANCH   6  11
TORSDOF 3
ENDMDL
MODEL 2
REMARK VINA RESULT:    -3.935      1.330      2.250
REMARK INTER + INTRA:          -4.773
REMARK INTER:                  -4.484
REMARK INTRA:                  -0.289
REMARK UNBOUND:                -0.263
REMARK SMILES COC(=O)c1ccccc1O
REMARK SMILES IDX 5 1 6 2 7 3 8 4 9 5 10 6 3 7 4 8 2 9 1 10 11 11
REMARK H PARENT 11 12
REMARK Flexibility Score: inf
ROOT
ATOM      1  C   UNL     1      26.890  41.292  20.082  1.00  0.00     0.101 A 
ATOM      2  C   UNL     1      27.369  41.893  18.900  1.00  0.00     0.019 A 
ATOM      3  C   UNL     1      27.393  43.282  18.765  1.00  0.00     0.001 A 
ATOM      4  C   UNL     1      26.939  44.094  19.803  1.00  0.00     0.004 A 
ATOM      5  C   UNL     1      26.461  43.520  20.981  1.00  0.00     0.047 A 
ATOM      6  C   UNL     1      26.431  42.124  21.131  1.00  0.00     0.130 A 
ENDROOT
BRANCH   1   7
ATOM      7  C   UNL     1      26.876  39.810  20.197  1.00  0.00     0.341 C 
ATOM      8  O   UNL     1      27.907  39.147  19.896  1.00  0.00    -0.246 OA
BRANCH   7   9
ATOM      9  O   UNL     1      25.728  39.142  20.638  1.00  0.00    -0.465 OA
ATOM     10  C   UNL     1      25.656  37.724  20.741  1.00  0.00     0.282 C 
ENDBRANCH   7   9
ENDBRANCH   1   7
BRANCH   6  11
ATOM     11  O   UNL     1      25.947  41.577  22.319  1.00  0.00    -0.507 OA
ATOM     12  H   UNL     1      25.161  40.937  22.330  1.00  0.00     0.293 HD
ENDBRANCH   6  11
TORSDOF 3
ENDMDL
MODEL 3
REMARK VINA RESULT:    -3.914      4.320      6.751
REMARK INTER + INTRA:          -4.749
REMARK INTER:                  -4.451
REMARK INTRA:                  -0.298
REMARK UNBOUND:                -0.263
REMARK SMILES COC(=O)c1ccccc1O
REMARK SMILES IDX 5 1 6 2 7 3 8 4 9 5 10 6 3 7 4 8 2 9 1 10 11 11
REMARK H PARENT 11 12
REMARK Flexibility Score: inf
ROOT
ATOM      1  C   UNL     1      27.744  35.507  21.867  1.00  0.00     0.101 A 
ATOM      2  C   UNL     1      28.277  34.668  20.868  1.00  0.00     0.019 A 
ATOM      3  C   UNL     1      28.795  33.412  21.193  1.00  0.00     0.001 A 
ATOM      4  C   UNL     1      28.790  32.974  22.516  1.00  0.00     0.004 A 
ATOM      5  C   UNL     1      28.266  33.789  23.519  1.00  0.00     0.047 A 
ATOM      6  C   UNL     1      27.743  35.054  23.208  1.00  0.00     0.130 A 
ENDROOT
BRANCH   1   7
ATOM      7  C   UNL     1      27.200  36.839  21.492  1.00  0.00     0.341 C 
ATOM      8  O   UNL     1      27.683  37.884  22.011  1.00  0.00    -0.246 OA
BRANCH   7   9
ATOM      9  O   UNL     1      26.157  36.946  20.565  1.00  0.00    -0.465 OA
ATOM     10  C   UNL     1      24.791  37.038  20.952  1.00  0.00     0.282 C 
ENDBRANCH   7   9
ENDBRANCH   1   7
BRANCH   6  11
ATOM     11  O   UNL     1      27.227  35.848  24.231  1.00  0.00    -0.507 OA
ATOM     12  H   UNL     1      27.080  36.844  24.111  1.00  0.00     0.293 HD
ENDBRANCH   6  11
TORSDOF 3
ENDMDL
MODEL 4
REMARK VINA RESULT:    -3.832      1.658      4.605
REMARK INTER + INTRA:          -4.655
REMARK INTER:                  -4.381
REMARK INTRA:                  -0.274
REMARK UNBOUND:                -0.263
REMARK SMILES COC(=O)c1ccccc1O
REMARK SMILES IDX 5 1 6 2 7 3 8 4 9 5 10 6 3 7 4 8 2 9 1 10 11 11
REMARK H PARENT 11 12
REMARK Flexibility Score: inf
ROOT
ATOM      1  C   UNL     1      26.854  39.178  20.602  1.00  0.00     0.101 A 
ATOM      2  C   UNL     1      28.116  38.551  20.616  1.00  0.00     0.019 A 
ATOM      3  C   UNL     1      28.232  37.187  20.892  1.00  0.00     0.001 A 
ATOM      4  C   UNL     1      27.094  36.428  21.160  1.00  0.00     0.004 A 
ATOM      5  C   UNL     1      25.836  37.030  21.152  1.00  0.00     0.047 A 
ATOM      6  C   UNL     1      25.704  38.400  20.875  1.00  0.00     0.130 A 
ENDROOT
BRANCH   1   7
ATOM      7  C   UNL     1      26.761  40.632  20.304  1.00  0.00     0.341 C 
ATOM      8  O   UNL     1      26.202  41.408  21.128  1.00  0.00    -0.246 OA
BRANCH   7   9
ATOM      9  O   UNL     1      27.292  41.150  19.117  1.00  0.00    -0.465 OA
ATOM     10  C   UNL     1      27.336  42.544  18.839  1.00  0.00     0.282 C 
ENDBRANCH   7   9
ENDBRANCH   1   7
BRANCH   6  11
ATOM     11  O   UNL     1      24.434  38.975  20.874  1.00  0.00    -0.507 OA
ATOM     12  H   UNL     1      24.299  39.972  21.003  1.00  0.00     0.293 HD
ENDBRANCH   6  11
TORSDOF 3
ENDMDL
MODEL 5
REMARK VINA RESULT:    -3.737     15.614     16.772
REMARK INTER + INTRA:          -4.546
REMARK INTER:                  -4.277
REMARK INTRA:                  -0.269
REMARK UNBOUND:                -0.263
REMARK SMILES COC(=O)c1ccccc1O
REMARK SMILES IDX 5 1 6 2 7 3 8 4 9 5 10 6 3 7 4 8 2 9 1 10 11 11
REMARK H PARENT 11 12
REMARK Flexibility Score: inf
ROOT
ATOM      1  C   UNL     1      24.770  26.635  28.740  1.00  0.00     0.101 A 
ATOM      2  C   UNL     1      25.041  25.331  28.280  1.00  0.00     0.019 A 
ATOM      3  C   UNL     1      26.194  24.656  28.687  1.00  0.00     0.001 A 
ATOM      4  C   UNL     1      27.094  25.270  29.557  1.00  0.00     0.004 A 
ATOM      5  C   UNL     1      26.845  26.561  30.024  1.00  0.00     0.047 A 
ATOM      6  C   UNL     1      25.690  27.251  29.623  1.00  0.00     0.130 A 
ENDROOT
BRANCH   1   7
ATOM      7  C   UNL     1      23.535  27.329  28.290  1.00  0.00     0.341 C 
ATOM      8  O   UNL     1      23.541  28.581  28.128  1.00  0.00    -0.246 OA
BRANCH   7   9
ATOM      9  O   UNL     1      22.364  26.605  28.041  1.00  0.00    -0.465 OA
ATOM     10  C   UNL     1      21.203  26.716  28.857  1.00  0.00     0.282 C 
ENDBRANCH   7   9
ENDBRANCH   1   7
BRANCH   6  11
ATOM     11  O   UNL     1      25.466  28.540  30.105  1.00  0.00    -0.507 OA
ATOM     12  H   UNL     1      24.780  29.156  29.682  1.00  0.00     0.293 HD
ENDBRANCH   6  11
TORSDOF 3
ENDMDL
MODEL 6
REMARK VINA RESULT:    -3.679      2.267      4.284
REMARK INTER + INTRA:          -4.480
REMARK INTER:                  -4.212
REMARK INTRA:                  -0.267
REMARK UNBOUND:                -0.263
REMARK SMILES COC(=O)c1ccccc1O
REMARK SMILES IDX 5 1 6 2 7 3 8 4 9 5 10 6 3 7 4 8 2 9 1 10 11 11
REMARK H PARENT 11 12
REMARK Flexibility Score: inf
ROOT
ATOM      1  C   UNL     1      27.875  39.352  19.732  1.00  0.00     0.101 A 
ATOM      2  C   UNL     1      28.130  38.705  20.958  1.00  0.00     0.019 A 
ATOM      3  C   UNL     1      28.750  37.454  20.989  1.00  0.00     0.001 A 
ATOM      4  C   UNL     1      29.125  36.829  19.801  1.00  0.00     0.004 A 
ATOM      5  C   UNL     1      28.882  37.452  18.577  1.00  0.00     0.047 A 
ATOM      6  C   UNL     1      28.259  38.710  18.530  1.00  0.00     0.130 A 
ENDROOT
BRANCH   1   7
ATOM      7  C   UNL     1      27.212  40.683  19.730  1.00  0.00     0.341 C 
ATOM      8  O   UNL     1      26.422  40.993  20.664  1.00  0.00    -0.246 OA
BRANCH   7   9
ATOM      9  O   UNL     1      27.459  41.598  18.700  1.00  0.00    -0.465 OA
ATOM     10  C   UNL     1      27.110  42.974  18.795  1.00  0.00     0.282 C 
ENDBRANCH   7   9
ENDBRANCH   1   7
BRANCH   6  11
ATOM     11  O   UNL     1      28.027  39.309  17.293  1.00  0.00    -0.507 OA
ATOM     12  H   UNL     1      27.845  38.761  16.460  1.00  0.00     0.293 HD
ENDBRANCH   6  11
TORSDOF 3
ENDMDL
MODEL 7
REMARK VINA RESULT:    -3.668     15.322     16.028
REMARK INTER + INTRA:          -4.467
REMARK INTER:                  -4.209
REMARK INTRA:                  -0.258
REMARK UNBOUND:                -0.263
REMARK SMILES COC(=O)c1ccccc1O
REMARK SMILES IDX 5 1 6 2 7 3 8 4 9 5 10 6 3 7 4 8 2 9 1 10 11 11
REMARK H PARENT 11 12
REMARK Flexibility Score: inf
ROOT
ATOM      1  C   UNL     1      24.982  27.173  28.747  1.00  0.00     0.101 A 
ATOM      2  C   UNL     1      26.190  26.553  28.366  1.00  0.00     0.019 A 
ATOM      3  C   UNL     1      27.420  27.097  28.740  1.00  0.00     0.001 A 
ATOM      4  C   UNL     1      27.467  28.266  29.497  1.00  0.00     0.004 A 
ATOM      5  C   UNL     1      26.283  28.896  29.884  1.00  0.00     0.047 A 
ATOM      6  C   UNL     1      25.040  28.359  29.516  1.00  0.00     0.130 A 
ENDROOT
BRANCH   1   7
ATOM      7  C   UNL     1      23.687  26.570  28.334  1.00  0.00     0.341 C 
ATOM      8  O   UNL     1      23.639  25.354  27.997  1.00  0.00    -0.246 OA
BRANCH   7   9
ATOM      9  O   UNL     1      22.519  27.340  28.316  1.00  0.00    -0.465 OA
ATOM     10  C   UNL     1      21.261  26.839  28.755  1.00  0.00     0.282 C 
ENDBRANCH   7   9
ENDBRANCH   1   7
BRANCH   6  11
ATOM     11  O   UNL     1      23.872  29.010  29.916  1.00  0.00    -0.507 OA
ATOM     12  H   UNL     1      23.689  29.976  29.670  1.00  0.00     0.293 HD
ENDBRANCH   6  11
TORSDOF 3
ENDMDL
MODEL 8
REMARK VINA RESULT:    -3.642      2.097      4.716
REMARK INTER + INTRA:          -4.437
REMARK INTER:                  -4.088
REMARK INTRA:                  -0.349
REMARK UNBOUND:                -0.263
REMARK SMILES COC(=O)c1ccccc1O
REMARK SMILES IDX 5 1 6 2 7 3 8 4 9 5 10 6 3 7 4 8 2 9 1 10 11 11
REMARK H PARENT 11 12
REMARK Flexibility Score: inf
ROOT
ATOM      1  C   UNL     1      27.693  37.985  19.641  1.00  0.00     0.101 A 
ATOM      2  C   UNL     1      28.830  37.234  20.000  1.00  0.00     0.019 A 
ATOM      3  C   UNL     1      28.791  36.354  21.084  1.00  0.00     0.001 A 
ATOM      4  C   UNL     1      27.621  36.211  21.827  1.00  0.00     0.004 A 
ATOM      5  C   UNL     1      26.484  36.945  21.488  1.00  0.00     0.047 A 
ATOM      6  C   UNL     1      26.509  37.832  20.400  1.00  0.00     0.130 A 
ENDROOT
BRANCH   1   7
ATOM      7  C   UNL     1      27.764  38.913  18.482  1.00  0.00     0.341 C 
ATOM      8  O   UNL     1      28.126  38.482  17.352  1.00  0.00    -0.246 OA
BRANCH   7   9
ATOM      9  O   UNL     1      27.431  40.264  18.632  1.00  0.00    -0.465 OA
ATOM     10  C   UNL     1      28.065  41.111  19.583  1.00  0.00     0.282 C 
ENDBRANCH   7   9
ENDBRANCH   1   7
BRANCH   6  11
ATOM     11  O   UNL     1      25.358  38.554  20.085  1.00  0.00    -0.507 OA
ATOM     12  H   UNL     1      24.986  38.579  19.142  1.00  0.00     0.293 HD
ENDBRANCH   6  11
TORSDOF 3
ENDMDL
