MODEL 1
REMARK VINA RESULT:    -4.342      0.000      0.000
REMARK INTER + INTRA:          -7.578
REMARK INTER:                  -6.626
REMARK INTRA:                  -0.952
REMARK UNBOUND:                -0.952
REMARK SMILES O=C([O-])CCCCCCCCC(=O)[O-]
REMARK SMILES IDX 7 1 6 2 5 3 4 4 2 5 1 6 3 7 8 8 9 9 10 10 11 11 12 12 13 13
REMARK SMILES IDX 14 14
REMARK H PARENT
REMARK Flexibility Score: inf
ROOT
ATOM      1  C   UNL     1      10.367   4.037  29.516  1.00  0.00     0.000 C 
ENDROOT
BRANCH   1   2
ATOM      2  C   UNL     1       9.424   4.728  30.517  1.00  0.00     0.000 C 
BRANCH   2   3
ATOM      3  C   UNL     1       9.941   6.114  30.952  1.00  0.00     0.006 C 
BRANCH   3   4
ATOM      4  C   UNL     1       8.955   7.257  30.658  1.00  0.00     0.053 C 
BRANCH   4   5
ATOM      5  C   UNL     1       9.174   7.867  29.310  1.00  0.00     0.041 C 
ATOM      6  O   UNL     1       8.651   7.349  28.288  1.00  0.00    -0.550 OA
ATOM      7  O   UNL     1       9.977   8.993  29.177  1.00  0.00    -0.550 OA
ENDBRANCH   4   5
ENDBRANCH   3   4
ENDBRANCH   2   3
ENDBRANCH   1   2
BRANCH   1   8
ATOM      8  C   UNL     1       9.755   3.925  28.110  1.00  0.00     0.000 C 
BRANCH   8   9
ATOM      9  C   UNL     1      10.499   4.780  27.070  1.00  0.00     0.000 C 
BRANCH   9  10
ATOM     10  C   UNL     1      11.697   5.543  27.663  1.00  0.00     0.006 C 
BRANCH  10  11
ATOM     11  C   UNL     1      11.956   6.908  27.002  1.00  0.00     0.053 C 
BRANCH  11  12
ATOM     12  C   UNL     1      13.081   6.865  26.014  1.00  0.00     0.041 C 
ATOM     13  O   UNL     1      12.856   6.573  24.810  1.00  0.00    -0.550 OA
ATOM     14  O   UNL     1      14.375   7.179  26.414  1.00  0.00    -0.550 OA
ENDBRANCH  11  12
ENDBRANCH  10  11
ENDBRANCH   9  10
ENDBRANCH   8   9
ENDBRANCH   1   8
TORSDOF 9
ENDMDL
MODEL 2
REMARK VINA RESULT:    -4.338      2.011      4.966
REMARK INTER + INTRA:          -7.573
REMARK INTER:                  -6.679
REMARK INTRA:                  -0.893
REMARK UNBOUND:                -0.952
REMARK SMILES O=C([O-])CCCCCCCCC(=O)[O-]
REMARK SMILES IDX 7 1 6 2 5 3 4 4 2 5 1 6 3 7 8 8 9 9 10 10 11 11 12 12 13 13
REMARK SMILES IDX 14 14
REMARK H PARENT
REMARK Flexibility Score: inf
ROOT
ATOM      1  C   UNL     1      10.452   8.062  28.228  1.00  0.00     0.000 C 
ENDROOT
BRANCH   1   2
ATOM      2  C   UNL     1       9.856   7.056  27.228  1.00  0.00     0.000 C 
BRANCH   2   3
ATOM      3  C   UNL     1      10.942   6.325  26.411  1.00  0.00     0.006 C 
BRANCH   3   4
ATOM      4  C   UNL     1      12.319   7.006  26.474  1.00  0.00     0.053 C 
BRANCH   4   5
ATOM      5  C   UNL     1      13.419   6.041  26.787  1.00  0.00     0.041 C 
ATOM      6  O   UNL     1      14.302   6.342  27.633  1.00  0.00    -0.550 OA
ATOM      7  O   UNL     1      13.484   4.821  26.126  1.00  0.00    -0.550 OA
ENDBRANCH   4   5
ENDBRANCH   3   4
ENDBRANCH   2   3
ENDBRANCH   1   2
BRANCH   1   8
ATOM      8  C   UNL     1       9.433   8.515  29.286  1.00  0.00     0.000 C 
BRANCH   8   9
ATOM      9  C   UNL     1       8.775   7.334  30.019  1.00  0.00     0.000 C 
BRANCH   9  10
ATOM     10  C   UNL     1       9.761   6.548  30.902  1.00  0.00     0.006 C 
BRANCH  10  11
ATOM     11  C   UNL     1       9.627   5.020  30.777  1.00  0.00     0.053 C 
BRANCH  11  12
ATOM     12  C   UNL     1      10.517   4.450  29.714  1.00  0.00     0.041 C 
ATOM     13  O   UNL     1      10.031   3.736  28.798  1.00  0.00    -0.550 OA
ATOM     14  O   UNL     1      11.877   4.734  29.714  1.00  0.00    -0.550 OA
ENDBRANCH  11  12
ENDBRANCH  10  11
ENDBRANCH   9  10
ENDBRANCH   8   9
ENDBRANCH   1   8
TORSDOF 9
ENDMDL
MODEL 3
REMARK VINA RESULT:    -4.213      2.064      3.061
REMARK INTER + INTRA:          -7.381
REMARK INTER:                  -6.556
REMARK INTRA:                  -0.825
REMARK UNBOUND:                -0.952
REMARK SMILES O=C([O-])CCCCCCCCC(=O)[O-]
REMARK SMILES IDX 7 1 6 2 5 3 4 4 2 5 1 6 3 7 8 8 9 9 10 10 11 11 12 12 13 13
REMARK SMILES IDX 14 14
REMARK H PARENT
REMARK Flexibility Score: inf
ROOT
ATOM      1  C   UNL     1       9.096   8.359  29.404  1.00  0.00     0.000 C 
ENDROOT
BRANCH   1   2
ATOM      2  C   UNL     1       8.751   7.373  30.533  1.00  0.00     0.000 C 
BRANCH   2   3
ATOM      3  C   UNL     1       9.970   6.540  30.979  1.00  0.00     0.006 C 
BRANCH   3   4
ATOM      4  C   UNL     1       9.747   5.022  30.873  1.00  0.00     0.053 C 
BRANCH   4   5
ATOM      5  C   UNL     1      10.638   4.385  29.854  1.00  0.00     0.041 C 
ATOM      6  O   UNL     1      10.142   3.705  28.917  1.00  0.00    -0.550 OA
ATOM      7  O   UNL     1      12.017   4.521  29.952  1.00  0.00    -0.550 OA
ENDBRANCH   4   5
ENDBRANCH   3   4
ENDBRANCH   2   3
ENDBRANCH   1   2
BRANCH   1   8
ATOM      8  C   UNL     1      10.236   7.852  28.506  1.00  0.00     0.000 C 
BRANCH   8   9
ATOM      9  C   UNL     1       9.730   6.999  27.331  1.00  0.00     0.000 C 
BRANCH   9  10
ATOM     10  C   UNL     1      10.858   6.249  26.601  1.00  0.00     0.006 C 
BRANCH  10  11
ATOM     11  C   UNL     1      12.219   6.965  26.654  1.00  0.00     0.053 C 
BRANCH  11  12
ATOM     12  C   UNL     1      13.361   6.017  26.857  1.00  0.00     0.041 C 
ATOM     13  O   UNL     1      14.246   6.267  27.716  1.00  0.00    -0.550 OA
ATOM     14  O   UNL     1      13.430   4.839  26.123  1.00  0.00    -0.550 OA
ENDBRANCH  11  12
ENDBRANCH  10  11
ENDBRANCH   9  10
ENDBRANCH   8   9
ENDBRANCH   1   8
TORSDOF 9
ENDMDL
MODEL 4
REMARK VINA RESULT:    -4.075     13.613     15.813
REMARK INTER + INTRA:          -7.170
REMARK INTER:                  -6.335
REMARK INTRA:                  -0.836
REMARK UNBOUND:                -0.952
REMARK SMILES O=C([O-])CCCCCCCCC(=O)[O-]
REMARK SMILES IDX 7 1 6 2 5 3 4 4 2 5 1 6 3 7 8 8 9 9 10 10 11 11 12 12 13 13
REMARK SMILES IDX 14 14
REMARK H PARENT
REMARK Flexibility Score: inf
ROOT
ATOM      1  C   UNL     1       7.775   9.558  13.486  1.00  0.00     0.000 C 
ENDROOT
BRANCH   1   2
ATOM      2  C   UNL     1       8.381   8.416  12.653  1.00  0.00     0.000 C 
BRANCH   2   3
ATOM      3  C   UNL     1       7.448   7.963  11.510  1.00  0.00     0.006 C 
BRANCH   3   4
ATOM      4  C   UNL     1       7.450   6.443  11.283  1.00  0.00     0.053 C 
BRANCH   4   5
ATOM      5  C   UNL     1       6.687   5.707  12.339  1.00  0.00     0.041 C 
ATOM      6  O   UNL     1       7.275   4.883  13.087  1.00  0.00    -0.550 OA
ATOM      7  O   UNL     1       5.320   5.913  12.480  1.00  0.00    -0.550 OA
ENDBRANCH   4   5
ENDBRANCH   3   4
ENDBRANCH   2   3
ENDBRANCH   1   2
BRANCH   1   8
ATOM      8  C   UNL     1       6.783   9.054  14.546  1.00  0.00     0.000 C 
BRANCH   8   9
ATOM      9  C   UNL     1       7.304   7.821  15.305  1.00  0.00     0.000 C 
BRANCH   9  10
ATOM     10  C   UNL     1       6.176   6.893  15.791  1.00  0.00     0.006 C 
BRANCH  10  11
ATOM     11  C   UNL     1       4.796   7.570  15.857  1.00  0.00     0.053 C 
BRANCH  11  12
ATOM     12  C   UNL     1       3.811   6.791  16.675  1.00  0.00     0.041 C 
ATOM     13  O   UNL     1       3.743   5.540  16.560  1.00  0.00    -0.550 OA
ATOM     14  O   UNL     1       2.991   7.442  17.589  1.00  0.00    -0.550 OA
ENDBRANCH  11  12
ENDBRANCH  10  11
ENDBRANCH   9  10
ENDBRANCH   8   9
ENDBRANCH   1   8
TORSDOF 9
ENDMDL
MODEL 5
REMARK VINA RESULT:    -4.015      2.346      5.250
REMARK INTER + INTRA:          -7.078
REMARK INTER:                  -6.426
REMARK INTRA:                  -0.652
REMARK UNBOUND:                -0.952
REMARK SMILES O=C([O-])CCCCCCCCC(=O)[O-]
REMARK SMILES IDX 7 1 6 2 5 3 4 4 2 5 1 6 3 7 8 8 9 9 10 10 11 11 12 12 13 13
REMARK SMILES IDX 14 14
REMARK H PARENT
REMARK Flexibility Score: inf
ROOT
ATOM      1  C   UNL     1      10.450   7.674  26.227  1.00  0.00     0.000 C 
ENDROOT
BRANCH   1   2
ATOM      2  C   UNL     1      11.570   8.725  26.145  1.00  0.00     0.000 C 
BRANCH   2   3
ATOM      3  C   UNL     1      12.871   8.154  25.543  1.00  0.00     0.006 C 
BRANCH   3   4
ATOM      4  C   UNL     1      12.778   6.661  25.190  1.00  0.00     0.053 C 
BRANCH   4   5
ATOM      5  C   UNL     1      13.455   5.792  26.202  1.00  0.00     0.041 C 
ATOM      6  O   UNL     1      13.535   4.549  26.017  1.00  0.00    -0.550 OA
ATOM      7  O   UNL     1      13.975   6.351  27.363  1.00  0.00    -0.550 OA
ENDBRANCH   4   5
ENDBRANCH   3   4
ENDBRANCH   2   3
ENDBRANCH   1   2
BRANCH   1   8
ATOM      8  C   UNL     1      10.133   7.260  27.673  1.00  0.00     0.000 C 
BRANCH   8   9
ATOM      9  C   UNL     1       9.119   6.106  27.751  1.00  0.00     0.000 C 
BRANCH   9  10
ATOM     10  C   UNL     1       9.754   4.728  27.495  1.00  0.00     0.006 C 
BRANCH  10  11
ATOM     11  C   UNL     1       9.747   3.801  28.724  1.00  0.00     0.053 C 
BRANCH  11  12
ATOM     12  C   UNL     1      10.506   4.375  29.881  1.00  0.00     0.041 C 
ATOM     13  O   UNL     1       9.932   4.559  30.985  1.00  0.00    -0.550 OA
ATOM     14  O   UNL     1      11.857   4.676  29.751  1.00  0.00    -0.550 OA
ENDBRANCH  11  12
ENDBRANCH  10  11
ENDBRANCH   9  10
ENDBRANCH   8   9
ENDBRANCH   1   8
TORSDOF 9
ENDMDL
MODEL 6
REMARK VINA RESULT:    -3.973     13.640     15.640
REMARK INTER + INTRA:          -7.016
REMARK INTER:                  -6.228
REMARK INTRA:                  -0.788
REMARK UNBOUND:                -0.952
REMARK SMILES O=C([O-])CCCCCCCCC(=O)[O-]
REMARK SMILES IDX 7 1 6 2 5 3 4 4 2 5 1 6 3 7 8 8 9 9 10 10 11 11 12 12 13 13
REMARK SMILES IDX 14 14
REMARK H PARENT
REMARK Flexibility Score: inf
ROOT
ATOM      1  C   UNL     1       6.983   7.590  15.209  1.00  0.00     0.000 C 
ENDROOT
BRANCH   1   2
ATOM      2  C   UNL     1       6.894   6.114  14.782  1.00  0.00     0.000 C 
BRANCH   2   3
ATOM      3  C   UNL     1       7.828   5.787  13.599  1.00  0.00     0.006 C 
BRANCH   3   4
ATOM      4  C   UNL     1       7.078   5.430  12.306  1.00  0.00     0.053 C 
BRANCH   4   5
ATOM      5  C   UNL     1       6.466   6.628  11.651  1.00  0.00     0.041 C 
ATOM      6  O   UNL     1       7.122   7.699  11.552  1.00  0.00    -0.550 OA
ATOM      7  O   UNL     1       5.163   6.571  11.174  1.00  0.00    -0.550 OA
ENDBRANCH   4   5
ENDBRANCH   3   4
ENDBRANCH   2   3
ENDBRANCH   1   2
BRANCH   1   8
ATOM      8  C   UNL     1       5.622   8.302  15.155  1.00  0.00     0.000 C 
BRANCH   8   9
ATOM      9  C   UNL     1       4.480   7.367  14.723  1.00  0.00     0.000 C 
BRANCH   9  10
ATOM     10  C   UNL     1       3.112   7.781  15.295  1.00  0.00     0.006 C 
BRANCH  10  11
ATOM     11  C   UNL     1       3.201   8.787  16.456  1.00  0.00     0.053 C 
BRANCH  11  12
ATOM     12  C   UNL     1       3.067   8.131  17.797  1.00  0.00     0.041 C 
ATOM     13  O   UNL     1       4.090   7.732  18.411  1.00  0.00    -0.550 OA
ATOM     14  O   UNL     1       1.815   7.990  18.384  1.00  0.00    -0.550 OA
ENDBRANCH  11  12
ENDBRANCH  10  11
ENDBRANCH   9  10
ENDBRANCH   8   9
ENDBRANCH   1   8
TORSDOF 9
ENDMDL
MODEL 7
REMARK VINA RESULT:    -3.965      2.263      5.578
REMARK INTER + INTRA:          -7.003
REMARK INTER:                  -6.426
REMARK INTRA:                  -0.577
REMARK UNBOUND:                -0.952
REMARK SMILES O=C([O-])CCCCCCCCC(=O)[O-]
REMARK SMILES IDX 7 1 6 2 5 3 4 4 2 5 1 6 3 7 8 8 9 9 10 10 11 11 12 12 13 13
REMARK SMILES IDX 14 14
REMARK H PARENT
REMARK Flexibility Score: inf
ROOT
ATOM      1  C   UNL     1      11.166   6.377  26.549  1.00  0.00     0.000 C 
ENDROOT
BRANCH   1   2
ATOM      2  C   UNL     1      12.525   6.919  27.024  1.00  0.00     0.000 C 
BRANCH   2   3
ATOM      3  C   UNL     1      13.691   6.448  26.130  1.00  0.00     0.006 C 
BRANCH   3   4
ATOM      4  C   UNL     1      14.140   7.500  25.104  1.00  0.00     0.053 C 
BRANCH   4   5
ATOM      5  C   UNL     1      15.345   8.262  25.558  1.00  0.00     0.041 C 
ATOM      6  O   UNL     1      15.770   9.236  24.882  1.00  0.00    -0.550 OA
ATOM      7  O   UNL     1      16.014   7.882  26.715  1.00  0.00    -0.550 OA
ENDBRANCH   4   5
ENDBRANCH   3   4
ENDBRANCH   2   3
ENDBRANCH   1   2
BRANCH   1   8
ATOM      8  C   UNL     1       9.987   6.965  27.341  1.00  0.00     0.000 C 
BRANCH   8   9
ATOM      9  C   UNL     1       8.987   5.890  27.801  1.00  0.00     0.000 C 
BRANCH   9  10
ATOM     10  C   UNL     1       9.636   4.508  27.997  1.00  0.00     0.006 C 
BRANCH  10  11
ATOM     11  C   UNL     1       9.728   4.065  29.468  1.00  0.00     0.053 C 
BRANCH  11  12
ATOM     12  C   UNL     1      10.761   4.832  30.236  1.00  0.00     0.041 C 
ATOM     13  O   UNL     1      10.409   5.688  31.088  1.00  0.00    -0.550 OA
ATOM     14  O   UNL     1      12.113   4.578  30.034  1.00  0.00    -0.550 OA
ENDBRANCH  11  12
ENDBRANCH  10  11
ENDBRANCH   9  10
ENDBRANCH   8   9
ENDBRANCH   1   8
TORSDOF 9
ENDMDL
MODEL 8
REMARK VINA RESULT:    -3.963      2.129      5.216
REMARK INTER + INTRA:          -6.999
REMARK INTER:                  -6.175
REMARK INTRA:                  -0.824
REMARK UNBOUND:                -0.952
REMARK SMILES O=C([O-])CCCCCCCCC(=O)[O-]
REMARK SMILES IDX 7 1 6 2 5 3 4 4 2 5 1 6 3 7 8 8 9 9 10 10 11 11 12 12 13 13
REMARK SMILES IDX 14 14
REMARK H PARENT
REMARK Flexibility Score: inf
ROOT
ATOM      1  C   UNL     1      10.658   6.273  26.638  1.00  0.00     0.000 C 
ENDROOT
BRANCH   1   2
ATOM      2  C   UNL     1      11.970   6.597  27.373  1.00  0.00     0.000 C 
BRANCH   2   3
ATOM      3  C   UNL     1      13.164   5.784  26.832  1.00  0.00     0.006 C 
BRANCH   3   4
ATOM      4  C   UNL     1      13.658   6.260  25.457  1.00  0.00     0.053 C 
BRANCH   4   5
ATOM      5  C   UNL     1      14.234   7.640  25.503  1.00  0.00     0.041 C 
ATOM      6  O   UNL     1      13.642   8.593  24.931  1.00  0.00    -0.550 OA
ATOM      7  O   UNL     1      15.439   7.870  26.156  1.00  0.00    -0.550 OA
ENDBRANCH   4   5
ENDBRANCH   3   4
ENDBRANCH   2   3
ENDBRANCH   1   2
BRANCH   1   8
ATOM      8  C   UNL     1       9.421   6.816  27.372  1.00  0.00     0.000 C 
BRANCH   8   9
ATOM      9  C   UNL     1       9.726   7.229  28.822  1.00  0.00     0.000 C 
BRANCH   9  10
ATOM     10  C   UNL     1       8.998   6.359  29.862  1.00  0.00     0.006 C 
BRANCH  10  11
ATOM     11  C   UNL     1       9.942   5.584  30.798  1.00  0.00     0.053 C 
BRANCH  11  12
ATOM     12  C   UNL     1      10.754   4.554  30.072  1.00  0.00     0.041 C 
ATOM     13  O   UNL     1      11.984   4.437  30.307  1.00  0.00    -0.550 OA
ATOM     14  O   UNL     1      10.144   3.700  29.161  1.00  0.00    -0.550 OA
ENDBRANCH  11  12
ENDBRANCH  10  11
ENDBRANCH   9  10
ENDBRANCH   8   9
ENDBRANCH   1   8
TORSDOF 9
ENDMDL
