MODEL 1
REMARK VINA RESULT:    31.701      0.000      0.000
REMARK INTER + INTRA:          34.841
REMARK INTER:                  34.481
REMARK INTRA:                   0.360
REMARK UNBOUND:                 0.360
REMARK SMILES C[C@H]1[C@H](C)CC[C@@]2(C(=O)[O-])CC[C@@]3(C)C(=CC[C@H]4[C@@]5(C)CC[C@@H](O)C(C)(C)[C@H]5CC[C@]43C)[C@H]12
REMARK SMILES IDX 7 1 6 2 11 3 33 4 5 5 12 6 15 7 2 8 3 9 13 10 16 11 1 12
REMARK SMILES IDX 4 13 14 14 31 15 17 16 18 17 30 18 32 19 19 20 29 21 28 22
REMARK SMILES IDX 21 23 20 24 25 25 22 26 23 27 26 28 27 29 8 30 9 31 10 32
REMARK SMILES IDX 24 33
REMARK H PARENT 24 34
REMARK Flexibility Score: inf
ROOT
ATOM      1  C   UNL     1      10.328   1.872  19.310  1.00  0.00     0.017 C 
ATOM      2  C   UNL     1      10.366   3.180  20.125  1.00  0.00     0.014 C 
ATOM      3  C   UNL     1      11.061   0.771  20.125  1.00  0.00     0.014 C 
ATOM      4  C   UNL     1       8.857   1.390  19.132  1.00  0.00     0.030 C 
ATOM      5  C   UNL     1       9.567   4.282  19.436  1.00  0.00     0.004 C 
ATOM      6  C   UNL     1      11.138  -0.548  19.347  1.00  0.00     0.013 C 
ATOM      7  C   UNL     1       8.860   0.041  18.360  1.00  0.00    -0.063 C 
ATOM      8  C   UNL     1       7.855   2.510  18.647  1.00  0.00    -0.003 C 
ATOM      9  C   UNL     1       8.086   3.894  19.347  1.00  0.00    -0.011 C 
ATOM     10  C   UNL     1       9.749  -1.124  18.862  1.00  0.00    -0.006 C 
ATOM     11  C   UNL     1       7.952  -0.217  17.403  1.00  0.00    -0.027 C 
ATOM     12  C   UNL     1       6.386   2.084  18.929  1.00  0.00     0.008 C 
ATOM     13  C   UNL     1       7.317   5.022  18.639  1.00  0.00     0.008 C 
ATOM     14  C   UNL     1       9.057  -1.736  20.121  1.00  0.00     0.017 C 
ATOM     15  C   UNL     1       9.946  -2.259  17.696  1.00  0.00    -0.020 C 
ATOM     16  C   UNL     1       7.443  -1.608  17.248  1.00  0.00     0.032 C 
ATOM     17  C   UNL     1       8.579  -2.617  16.947  1.00  0.00     0.006 C 
ATOM     18  C   UNL     1      10.959  -1.794  16.620  1.00  0.00     0.008 C 
ATOM     19  C   UNL     1      10.545  -3.549  18.350  1.00  0.00     0.012 C 
ATOM     20  C   UNL     1       8.619  -3.010  15.384  1.00  0.00    -0.025 C 
ATOM     21  C   UNL     1      11.195  -2.772  15.463  1.00  0.00     0.005 C 
ATOM     22  C   UNL     1       9.999  -3.657  14.993  1.00  0.00     0.003 C 
ATOM     23  C   UNL     1       8.390  -1.795  14.419  1.00  0.00     0.010 C 
ATOM     24  C   UNL     1       7.448  -4.035  15.207  1.00  0.00     0.012 C 
ATOM     25  C   UNL     1      10.163  -4.047  13.452  1.00  0.00    -0.006 C 
ATOM     26  C   UNL     1       8.478  -2.151  12.920  1.00  0.00     0.033 C 
ATOM     27  C   UNL     1       9.787  -2.846  12.512  1.00  0.00     0.120 C 
ATOM     28  C   UNL     1      11.627  -4.504  13.159  1.00  0.00     0.014 C 
ATOM     29  C   UNL     1       9.288  -5.286  13.072  1.00  0.00     0.014 C 
ENDROOT
BRANCH   1  30
ATOM     30  C   UNL     1      11.041   2.108  17.978  1.00  0.00     0.048 C 
ATOM     31  O   UNL     1      10.381   2.461  16.963  1.00  0.00    -0.550 OA
ATOM     32  O   UNL     1      12.411   1.910  17.848  1.00  0.00    -0.550 OA
ENDBRANCH   1  30
BRANCH  27  33
ATOM     33  O   UNL     1      10.804  -1.875  12.456  1.00  0.00    -0.393 OA
ATOM     34  H   UNL     1      10.427  -1.069  12.016  1.00  0.00     0.210 HD
ENDBRANCH  27  33
TORSDOF 2
ENDMDL
