MODEL 1
REMARK VINA RESULT:    -3.963      0.000      0.000
REMARK INTER + INTRA:          -8.096
REMARK INTER:                  -7.206
REMARK INTRA:                  -0.891
REMARK UNBOUND:                -0.891
REMARK SMILES CCCCCCCCCCCCCCCC(=O)[O-]
REMARK SMILES IDX 9 1 10 2 11 3 12 4 13 5 14 6 15 7 16 8 17 9 18 10 8 11 7 12
REMARK SMILES IDX 6 13 5 14 4 15 3 16 2 17 1 18
REMARK H PARENT
REMARK Flexibility Score: inf
ROOT
ATOM      1  C   UNL     1      -1.844   2.616   9.373  1.00  0.00     0.000 C 
ENDROOT
BRANCH   1   2
ATOM      2  C   UNL     1      -1.005   3.855   9.730  1.00  0.00     0.000 C 
BRANCH   2   3
ATOM      3  C   UNL     1      -1.360   5.077   8.870  1.00  0.00     0.000 C 
BRANCH   3   4
ATOM      4  C   UNL     1      -0.496   6.307   9.204  1.00  0.00     0.000 C 
BRANCH   4   5
ATOM      5  C   UNL     1       0.874   5.913   9.795  1.00  0.00     0.000 C 
BRANCH   5   6
ATOM      6  C   UNL     1       1.991   6.924   9.487  1.00  0.00     0.006 C 
BRANCH   6   7
ATOM      7  C   UNL     1       1.542   8.036   8.531  1.00  0.00     0.053 C 
BRANCH   7   8
ATOM      8  C   UNL     1       2.450   8.103   7.344  1.00  0.00     0.041 C 
ATOM      9  O   UNL     1       2.002   8.470   6.226  1.00  0.00    -0.550 OA
ATOM     10  O   UNL     1       3.800   7.811   7.483  1.00  0.00    -0.550 OA
ENDBRANCH   7   8
ENDBRANCH   6   7
ENDBRANCH   5   6
ENDBRANCH   4   5
ENDBRANCH   3   4
ENDBRANCH   2   3
ENDBRANCH   1   2
BRANCH   1  11
ATOM     11  C   UNL     1      -3.185   2.573  10.123  1.00  0.00     0.000 C 
BRANCH  11  12
ATOM     12  C   UNL     1      -4.388   2.826   9.200  1.00  0.00    -0.000 C 
BRANCH  12  13
ATOM     13  C   UNL     1      -5.087   4.175   9.494  1.00  0.00    -0.000 C 
BRANCH  13  14
ATOM     14  C   UNL     1      -4.765   5.272   8.463  1.00  0.00    -0.000 C 
BRANCH  14  15
ATOM     15  C   UNL     1      -5.609   6.551   8.609  1.00  0.00    -0.000 C 
BRANCH  15  16
ATOM     16  C   UNL     1      -6.976   6.478   7.892  1.00  0.00    -0.000 C 
BRANCH  16  17
ATOM     17  C   UNL     1      -7.225   7.676   6.965  1.00  0.00    -0.003 C 
ATOM     18  C   UNL     1      -7.914   7.239   5.674  1.00  0.00     0.004 C 
ENDBRANCH  16  17
ENDBRANCH  15  16
ENDBRANCH  14  15
ENDBRANCH  13  14
ENDBRANCH  12  13
ENDBRANCH  11  12
ENDBRANCH   1  11
TORSDOF 14
ENDMDL
MODEL 2
REMARK VINA RESULT:    -3.813      1.352      2.478
REMARK INTER + INTRA:          -7.824
REMARK INTER:                  -6.490
REMARK INTRA:                  -1.333
REMARK UNBOUND:                -0.891
REMARK SMILES CCCCCCCCCCCCCCCC(=O)[O-]
REMARK SMILES IDX 9 1 10 2 11 3 12 4 13 5 14 6 15 7 16 8 17 9 18 10 8 11 7 12
REMARK SMILES IDX 6 13 5 14 4 15 3 16 2 17 1 18
REMARK H PARENT
REMARK Flexibility Score: inf
ROOT
ATOM      1  C   UNL     1      -1.503   4.755   8.973  1.00  0.00     0.000 C 
ENDROOT
BRANCH   1   2
ATOM      2  C   UNL     1      -2.029   5.845   9.923  1.00  0.00     0.000 C 
BRANCH   2   3
ATOM      3  C   UNL     1      -1.279   7.176   9.767  1.00  0.00     0.000 C 
BRANCH   3   4
ATOM      4  C   UNL     1      -0.032   7.053   8.874  1.00  0.00     0.000 C 
BRANCH   4   5
ATOM      5  C   UNL     1       0.131   8.264   7.931  1.00  0.00     0.000 C 
BRANCH   5   6
ATOM      6  C   UNL     1       1.422   9.063   8.173  1.00  0.00     0.006 C 
BRANCH   6   7
ATOM      7  C   UNL     1       2.460   8.285   8.991  1.00  0.00     0.053 C 
BRANCH   7   8
ATOM      8  C   UNL     1       3.706   8.074   8.188  1.00  0.00     0.041 C 
ATOM      9  O   UNL     1       3.645   7.517   7.061  1.00  0.00    -0.550 OA
ATOM     10  O   UNL     1       4.926   8.538   8.663  1.00  0.00    -0.550 OA
ENDBRANCH   7   8
ENDBRANCH   6   7
ENDBRANCH   5   6
ENDBRANCH   4   5
ENDBRANCH   3   4
ENDBRANCH   2   3
ENDBRANCH   1   2
BRANCH   1  11
ATOM     11  C   UNL     1      -1.213   3.430   9.694  1.00  0.00     0.000 C 
BRANCH  11  12
ATOM     12  C   UNL     1      -2.012   2.252   9.111  1.00  0.00    -0.000 C 
BRANCH  12  13
ATOM     13  C   UNL     1      -3.262   1.908   9.955  1.00  0.00    -0.000 C 
BRANCH  13  14
ATOM     14  C   UNL     1      -4.588   2.296   9.277  1.00  0.00    -0.000 C 
BRANCH  14  15
ATOM     15  C   UNL     1      -5.227   3.588   9.818  1.00  0.00    -0.000 C 
BRANCH  15  16
ATOM     16  C   UNL     1      -5.271   4.738   8.786  1.00  0.00    -0.000 C 
BRANCH  16  17
ATOM     17  C   UNL     1      -5.743   6.065   9.396  1.00  0.00    -0.003 C 
ATOM     18  C   UNL     1      -6.014   7.104   8.311  1.00  0.00     0.004 C 
ENDBRANCH  16  17
ENDBRANCH  15  16
ENDBRANCH  14  15
ENDBRANCH  13  14
ENDBRANCH  12  13
ENDBRANCH  11  12
ENDBRANCH   1  11
TORSDOF 14
ENDMDL
MODEL 3
REMARK VINA RESULT:    -3.798      3.163      6.805
REMARK INTER + INTRA:          -7.798
REMARK INTER:                  -6.586
REMARK INTRA:                  -1.212
REMARK UNBOUND:                -0.891
REMARK SMILES CCCCCCCCCCCCCCCC(=O)[O-]
REMARK SMILES IDX 9 1 10 2 11 3 12 4 13 5 14 6 15 7 16 8 17 9 18 10 8 11 7 12
REMARK SMILES IDX 6 13 5 14 4 15 3 16 2 17 1 18
REMARK H PARENT
REMARK Flexibility Score: inf
ROOT
ATOM      1  C   UNL     1      -2.241   2.295   9.091  1.00  0.00     0.000 C 
ENDROOT
BRANCH   1   2
ATOM      2  C   UNL     1      -3.420   2.193  10.074  1.00  0.00     0.000 C 
BRANCH   2   3
ATOM      3  C   UNL     1      -4.769   2.512   9.412  1.00  0.00     0.000 C 
BRANCH   3   4
ATOM      4  C   UNL     1      -5.262   3.935   9.728  1.00  0.00     0.000 C 
BRANCH   4   5
ATOM      5  C   UNL     1      -4.915   4.934   8.604  1.00  0.00     0.000 C 
BRANCH   5   6
ATOM      6  C   UNL     1      -5.126   6.405   9.001  1.00  0.00     0.006 C 
BRANCH   6   7
ATOM      7  C   UNL     1      -6.539   6.911   8.689  1.00  0.00     0.053 C 
BRANCH   7   8
ATOM      8  C   UNL     1      -6.477   8.190   7.914  1.00  0.00     0.041 C 
ATOM      9  O   UNL     1      -5.737   9.129   8.304  1.00  0.00    -0.550 OA
ATOM     10  O   UNL     1      -7.198   8.323   6.734  1.00  0.00    -0.550 OA
ENDBRANCH   7   8
ENDBRANCH   6   7
ENDBRANCH   5   6
ENDBRANCH   4   5
ENDBRANCH   3   4
ENDBRANCH   2   3
ENDBRANCH   1   2
BRANCH   1  11
ATOM     11  C   UNL     1      -1.087   3.149   9.637  1.00  0.00     0.000 C 
BRANCH  11  12
ATOM     12  C   UNL     1      -1.514   4.594   9.947  1.00  0.00    -0.000 C 
BRANCH  12  13
ATOM     13  C   UNL     1      -1.280   5.550   8.754  1.00  0.00    -0.000 C 
BRANCH  13  14
ATOM     14  C   UNL     1      -0.931   6.989   9.177  1.00  0.00    -0.000 C 
BRANCH  14  15
ATOM     15  C   UNL     1       0.494   7.435   8.806  1.00  0.00    -0.000 C 
BRANCH  15  16
ATOM     16  C   UNL     1       0.596   8.086   7.409  1.00  0.00    -0.000 C 
BRANCH  16  17
ATOM     17  C   UNL     1       2.033   8.487   7.044  1.00  0.00    -0.003 C 
ATOM     18  C   UNL     1       2.577   9.531   8.015  1.00  0.00     0.004 C 
ENDBRANCH  16  17
ENDBRANCH  15  16
ENDBRANCH  14  15
ENDBRANCH  13  14
ENDBRANCH  12  13
ENDBRANCH  11  12
ENDBRANCH   1  11
TORSDOF 14
ENDMDL
MODEL 4
REMARK VINA RESULT:    -3.786      3.532      6.825
REMARK INTER + INTRA:          -7.776
REMARK INTER:                  -6.279
REMARK INTRA:                  -1.497
REMARK UNBOUND:                -0.891
REMARK SMILES CCCCCCCCCCCCCCCC(=O)[O-]
REMARK SMILES IDX 9 1 10 2 11 3 12 4 13 5 14 6 15 7 16 8 17 9 18 10 8 11 7 12
REMARK SMILES IDX 6 13 5 14 4 15 3 16 2 17 1 18
REMARK H PARENT
REMARK Flexibility Score: inf
ROOT
ATOM      1  C   UNL     1      -1.873   2.549   8.886  1.00  0.00     0.000 C 
ENDROOT
BRANCH   1   2
ATOM      2  C   UNL     1      -3.184   1.768   9.083  1.00  0.00     0.000 C 
BRANCH   2   3
ATOM      3  C   UNL     1      -4.139   2.458  10.070  1.00  0.00     0.000 C 
BRANCH   3   4
ATOM      4  C   UNL     1      -5.199   3.320   9.362  1.00  0.00     0.000 C 
BRANCH   4   5
ATOM      5  C   UNL     1      -4.942   4.830   9.551  1.00  0.00     0.000 C 
BRANCH   5   6
ATOM      6  C   UNL     1      -5.045   5.640   8.248  1.00  0.00     0.006 C 
BRANCH   6   7
ATOM      7  C   UNL     1      -5.921   6.891   8.390  1.00  0.00     0.053 C 
BRANCH   7   8
ATOM      8  C   UNL     1      -7.087   6.822   7.455  1.00  0.00     0.041 C 
ATOM      9  O   UNL     1      -7.080   7.486   6.386  1.00  0.00    -0.550 OA
ATOM     10  O   UNL     1      -8.158   5.984   7.739  1.00  0.00    -0.550 OA
ENDBRANCH   7   8
ENDBRANCH   6   7
ENDBRANCH   5   6
ENDBRANCH   4   5
ENDBRANCH   3   4
ENDBRANCH   2   3
ENDBRANCH   1   2
BRANCH   1  11
ATOM     11  C   UNL     1      -1.482   3.373  10.123  1.00  0.00     0.000 C 
BRANCH  11  12
ATOM     12  C   UNL     1      -0.618   4.596   9.771  1.00  0.00    -0.000 C 
BRANCH  12  13
ATOM     13  C   UNL     1      -1.380   5.633   8.913  1.00  0.00    -0.000 C 
BRANCH  13  14
ATOM     14  C   UNL     1      -1.667   6.952   9.653  1.00  0.00    -0.000 C 
BRANCH  14  15
ATOM     15  C   UNL     1      -1.052   8.200   8.994  1.00  0.00    -0.000 C 
BRANCH  15  16
ATOM     16  C   UNL     1       0.068   7.877   7.979  1.00  0.00    -0.000 C 
BRANCH  16  17
ATOM     17  C   UNL     1       1.254   8.847   8.076  1.00  0.00    -0.003 C 
ATOM     18  C   UNL     1       2.529   8.213   7.527  1.00  0.00     0.004 C 
ENDBRANCH  16  17
ENDBRANCH  15  16
ENDBRANCH  14  15
ENDBRANCH  13  14
ENDBRANCH  12  13
ENDBRANCH  11  12
ENDBRANCH   1  11
TORSDOF 14
ENDMDL
MODEL 5
REMARK VINA RESULT:    -3.759      1.463      2.308
REMARK INTER + INTRA:          -7.726
REMARK INTER:                  -6.802
REMARK INTRA:                  -0.924
REMARK UNBOUND:                -0.891
REMARK SMILES CCCCCCCCCCCCCCCC(=O)[O-]
REMARK SMILES IDX 9 1 10 2 11 3 12 4 13 5 14 6 15 7 16 8 17 9 18 10 8 11 7 12
REMARK SMILES IDX 6 13 5 14 4 15 3 16 2 17 1 18
REMARK H PARENT
REMARK Flexibility Score: inf
ROOT
ATOM      1  C   UNL     1      -3.210   5.696   9.369  1.00  0.00     0.000 C 
ENDROOT
BRANCH   1   2
ATOM      2  C   UNL     1      -1.941   4.929   8.959  1.00  0.00     0.000 C 
BRANCH   2   3
ATOM      3  C   UNL     1      -0.652   5.680   9.326  1.00  0.00     0.000 C 
BRANCH   3   4
ATOM      4  C   UNL     1      -0.573   7.073   8.677  1.00  0.00     0.000 C 
BRANCH   4   5
ATOM      5  C   UNL     1       0.449   7.988   9.383  1.00  0.00     0.000 C 
BRANCH   5   6
ATOM      6  C   UNL     1       0.766   9.275   8.603  1.00  0.00     0.006 C 
BRANCH   6   7
ATOM      7  C   UNL     1       2.232   9.359   8.162  1.00  0.00     0.053 C 
BRANCH   7   8
ATOM      8  C   UNL     1       2.501   8.390   7.054  1.00  0.00     0.041 C 
ATOM      9  O   UNL     1       1.761   8.371   6.037  1.00  0.00    -0.550 OA
ATOM     10  O   UNL     1       3.601   7.544   7.122  1.00  0.00    -0.550 OA
ENDBRANCH   7   8
ENDBRANCH   6   7
ENDBRANCH   5   6
ENDBRANCH   4   5
ENDBRANCH   3   4
ENDBRANCH   2   3
ENDBRANCH   1   2
BRANCH   1  11
ATOM     11  C   UNL     1      -4.476   5.150   8.692  1.00  0.00     0.000 C 
BRANCH  11  12
ATOM     12  C   UNL     1      -5.708   6.037   8.938  1.00  0.00    -0.000 C 
BRANCH  12  13
ATOM     13  C   UNL     1      -5.339   7.409   9.547  1.00  0.00    -0.000 C 
BRANCH  13  14
ATOM     14  C   UNL     1      -5.750   8.604   8.668  1.00  0.00    -0.000 C 
BRANCH  14  15
ATOM     15  C   UNL     1      -7.087   8.421   7.927  1.00  0.00    -0.000 C 
BRANCH  15  16
ATOM     16  C   UNL     1      -7.263   9.373   6.722  1.00  0.00    -0.000 C 
BRANCH  16  17
ATOM     17  C   UNL     1      -7.739   8.647   5.456  1.00  0.00    -0.003 C 
ATOM     18  C   UNL     1      -7.952   7.159   5.722  1.00  0.00     0.004 C 
ENDBRANCH  16  17
ENDBRANCH  15  16
ENDBRANCH  14  15
ENDBRANCH  13  14
ENDBRANCH  12  13
ENDBRANCH  11  12
ENDBRANCH   1  11
TORSDOF 14
ENDMDL
MODEL 6
REMARK VINA RESULT:    -3.718      3.149      4.007
REMARK INTER + INTRA:          -7.652
REMARK INTER:                  -7.138
REMARK INTRA:                  -0.513
REMARK UNBOUND:                -0.891
REMARK SMILES CCCCCCCCCCCCCCCC(=O)[O-]
REMARK SMILES IDX 9 1 10 2 11 3 12 4 13 5 14 6 15 7 16 8 17 9 18 10 8 11 7 12
REMARK SMILES IDX 6 13 5 14 4 15 3 16 2 17 1 18
REMARK H PARENT
REMARK Flexibility Score: inf
ROOT
ATOM      1  C   UNL     1      -1.257   4.921   9.061  1.00  0.00     0.000 C 
ENDROOT
BRANCH   1   2
ATOM      2  C   UNL     1      -0.291   6.048   9.467  1.00  0.00     0.000 C 
BRANCH   2   3
ATOM      3  C   UNL     1      -0.710   7.416   8.906  1.00  0.00     0.000 C 
BRANCH   3   4
ATOM      4  C   UNL     1       0.270   7.946   7.845  1.00  0.00     0.000 C 
BRANCH   4   5
ATOM      5  C   UNL     1       1.663   8.246   8.437  1.00  0.00     0.000 C 
BRANCH   5   6
ATOM      6  C   UNL     1       2.701   8.673   7.385  1.00  0.00     0.006 C 
BRANCH   6   7
ATOM      7  C   UNL     1       3.858   9.482   7.983  1.00  0.00     0.053 C 
BRANCH   7   8
ATOM      8  C   UNL     1       4.989   8.577   8.360  1.00  0.00     0.041 C 
ATOM      9  O   UNL     1       4.980   7.984   9.470  1.00  0.00    -0.550 OA
ATOM     10  O   UNL     1       6.025   8.350   7.465  1.00  0.00    -0.550 OA
ENDBRANCH   7   8
ENDBRANCH   6   7
ENDBRANCH   5   6
ENDBRANCH   4   5
ENDBRANCH   3   4
ENDBRANCH   2   3
ENDBRANCH   1   2
BRANCH   1  11
ATOM     11  C   UNL     1      -0.998   3.614   9.827  1.00  0.00     0.000 C 
BRANCH  11  12
ATOM     12  C   UNL     1      -1.927   2.473   9.381  1.00  0.00    -0.000 C 
BRANCH  12  13
ATOM     13  C   UNL     1      -3.330   2.566  10.024  1.00  0.00    -0.000 C 
BRANCH  13  14
ATOM     14  C   UNL     1      -4.466   2.105   9.092  1.00  0.00    -0.000 C 
BRANCH  14  15
ATOM     15  C   UNL     1      -4.820   0.612   9.208  1.00  0.00    -0.000 C 
BRANCH  15  16
ATOM     16  C   UNL     1      -6.153   0.345   9.942  1.00  0.00    -0.000 C 
BRANCH  16  17
ATOM     17  C   UNL     1      -7.343   0.210   8.982  1.00  0.00    -0.003 C 
ATOM     18  C   UNL     1      -8.147   1.506   8.915  1.00  0.00     0.004 C 
ENDBRANCH  16  17
ENDBRANCH  15  16
ENDBRANCH  14  15
ENDBRANCH  13  14
ENDBRANCH  12  13
ENDBRANCH  11  12
ENDBRANCH   1  11
TORSDOF 14
ENDMDL
MODEL 7
REMARK VINA RESULT:    -3.698      5.334      8.578
REMARK INTER + INTRA:          -7.615
REMARK INTER:                  -6.851
REMARK INTRA:                  -0.765
REMARK UNBOUND:                -0.891
REMARK SMILES CCCCCCCCCCCCCCCC(=O)[O-]
REMARK SMILES IDX 9 1 10 2 11 3 12 4 13 5 14 6 15 7 16 8 17 9 18 10 8 11 7 12
REMARK SMILES IDX 6 13 5 14 4 15 3 16 2 17 1 18
REMARK H PARENT
REMARK Flexibility Score: inf
ROOT
ATOM      1  C   UNL     1      -1.330   5.153   9.061  1.00  0.00     0.000 C 
ENDROOT
BRANCH   1   2
ATOM      2  C   UNL     1      -1.089   3.941   9.978  1.00  0.00     0.000 C 
BRANCH   2   3
ATOM      3  C   UNL     1      -1.725   2.653   9.434  1.00  0.00     0.000 C 
BRANCH   3   4
ATOM      4  C   UNL     1      -3.087   2.347  10.082  1.00  0.00     0.000 C 
BRANCH   4   5
ATOM      5  C   UNL     1      -4.045   1.625   9.110  1.00  0.00     0.000 C 
BRANCH   5   6
ATOM      6  C   UNL     1      -5.262   0.990   9.803  1.00  0.00     0.006 C 
BRANCH   6   7
ATOM      7  C   UNL     1      -6.578   1.697   9.462  1.00  0.00     0.053 C 
BRANCH   7   8
ATOM      8  C   UNL     1      -7.630   0.697   9.098  1.00  0.00     0.041 C 
ATOM      9  O   UNL     1      -8.295   0.837   8.038  1.00  0.00    -0.550 OA
ATOM     10  O   UNL     1      -7.839  -0.416   9.901  1.00  0.00    -0.550 OA
ENDBRANCH   7   8
ENDBRANCH   6   7
ENDBRANCH   5   6
ENDBRANCH   4   5
ENDBRANCH   3   4
ENDBRANCH   2   3
ENDBRANCH   1   2
BRANCH   1  11
ATOM     11  C   UNL     1      -2.348   6.145   9.645  1.00  0.00     0.000 C 
BRANCH  11  12
ATOM     12  C   UNL     1      -1.885   7.606   9.528  1.00  0.00    -0.000 C 
BRANCH  12  13
ATOM     13  C   UNL     1      -0.370   7.772   9.792  1.00  0.00    -0.000 C 
BRANCH  13  14
ATOM     14  C   UNL     1       0.313   8.780   8.851  1.00  0.00    -0.000 C 
BRANCH  14  15
ATOM     15  C   UNL     1       0.760   8.192   7.501  1.00  0.00    -0.000 C 
BRANCH  15  16
ATOM     16  C   UNL     1       2.155   8.676   7.045  1.00  0.00    -0.000 C 
BRANCH  16  17
ATOM     17  C   UNL     1       3.295   7.809   7.598  1.00  0.00    -0.003 C 
ATOM     18  C   UNL     1       4.008   8.508   8.752  1.00  0.00     0.004 C 
ENDBRANCH  16  17
ENDBRANCH  15  16
ENDBRANCH  14  15
ENDBRANCH  13  14
ENDBRANCH  12  13
ENDBRANCH  11  12
ENDBRANCH   1  11
TORSDOF 14
ENDMDL
MODEL 8
REMARK VINA RESULT:    -3.654      1.285      2.106
REMARK INTER + INTRA:          -7.535
REMARK INTER:                  -6.351
REMARK INTRA:                  -1.184
REMARK UNBOUND:                -0.891
REMARK SMILES CCCCCCCCCCCCCCCC(=O)[O-]
REMARK SMILES IDX 9 1 10 2 11 3 12 4 13 5 14 6 15 7 16 8 17 9 18 10 8 11 7 12
REMARK SMILES IDX 6 13 5 14 4 15 3 16 2 17 1 18
REMARK H PARENT
REMARK Flexibility Score: inf
ROOT
ATOM      1  C   UNL     1      -3.103   2.823   9.343  1.00  0.00     0.000 C 
ENDROOT
BRANCH   1   2
ATOM      2  C   UNL     1      -1.573   2.944   9.445  1.00  0.00     0.000 C 
BRANCH   2   3
ATOM      3  C   UNL     1      -1.116   4.362   9.820  1.00  0.00     0.000 C 
BRANCH   3   4
ATOM      4  C   UNL     1      -2.011   5.454   9.207  1.00  0.00     0.000 C 
BRANCH   4   5
ATOM      5  C   UNL     1      -1.363   6.852   9.290  1.00  0.00     0.000 C 
BRANCH   5   6
ATOM      6  C   UNL     1       0.060   6.907   8.710  1.00  0.00     0.006 C 
BRANCH   6   7
ATOM      7  C   UNL     1       0.360   8.225   7.988  1.00  0.00     0.053 C 
BRANCH   7   8
ATOM      8  C   UNL     1       1.728   8.191   7.382  1.00  0.00     0.041 C 
ATOM      9  O   UNL     1       2.715   7.823   8.071  1.00  0.00    -0.550 OA
ATOM     10  O   UNL     1       1.904   8.514   6.043  1.00  0.00    -0.550 OA
ENDBRANCH   7   8
ENDBRANCH   6   7
ENDBRANCH   5   6
ENDBRANCH   4   5
ENDBRANCH   3   4
ENDBRANCH   2   3
ENDBRANCH   1   2
BRANCH   1  11
ATOM     11  C   UNL     1      -3.568   1.379   9.100  1.00  0.00     0.000 C 
BRANCH  11  12
ATOM     12  C   UNL     1      -5.076   1.194   9.339  1.00  0.00    -0.000 C 
BRANCH  12  13
ATOM     13  C   UNL     1      -5.723   2.421  10.023  1.00  0.00    -0.000 C 
BRANCH  13  14
ATOM     14  C   UNL     1      -7.102   2.791   9.448  1.00  0.00    -0.000 C 
BRANCH  14  15
ATOM     15  C   UNL     1      -7.234   4.258   9.000  1.00  0.00    -0.000 C 
BRANCH  15  16
ATOM     16  C   UNL     1      -6.029   5.140   9.400  1.00  0.00    -0.000 C 
BRANCH  16  17
ATOM     17  C   UNL     1      -5.509   5.998   8.238  1.00  0.00    -0.003 C 
ATOM     18  C   UNL     1      -6.516   7.080   7.859  1.00  0.00     0.004 C 
ENDBRANCH  16  17
ENDBRANCH  15  16
ENDBRANCH  14  15
ENDBRANCH  13  14
ENDBRANCH  12  13
ENDBRANCH  11  12
ENDBRANCH   1  11
TORSDOF 14
ENDMDL
MODEL 9
REMARK VINA RESULT:    -3.595      3.370      6.381
REMARK INTER + INTRA:          -7.428
REMARK INTER:                  -6.054
REMARK INTRA:                  -1.373
REMARK UNBOUND:                -0.891
REMARK SMILES CCCCCCCCCCCCCCCC(=O)[O-]
REMARK SMILES IDX 9 1 10 2 11 3 12 4 13 5 14 6 15 7 16 8 17 9 18 10 8 11 7 12
REMARK SMILES IDX 6 13 5 14 4 15 3 16 2 17 1 18
REMARK H PARENT
REMARK Flexibility Score: inf
ROOT
ATOM      1  C   UNL     1      -1.845   2.614   9.077  1.00  0.00     0.000 C 
ENDROOT
BRANCH   1   2
ATOM      2  C   UNL     1      -3.114   2.261   9.872  1.00  0.00     0.000 C 
BRANCH   2   3
ATOM      3  C   UNL     1      -4.391   2.821   9.226  1.00  0.00     0.000 C 
BRANCH   3   4
ATOM      4  C   UNL     1      -4.727   4.242   9.713  1.00  0.00     0.000 C 
BRANCH   4   5
ATOM      5  C   UNL     1      -4.665   5.279   8.572  1.00  0.00     0.000 C 
BRANCH   5   6
ATOM      6  C   UNL     1      -5.588   6.489   8.789  1.00  0.00     0.006 C 
BRANCH   6   7
ATOM      7  C   UNL     1      -6.520   6.749   7.600  1.00  0.00     0.053 C 
BRANCH   7   8
ATOM      8  C   UNL     1      -6.830   8.209   7.486  1.00  0.00     0.041 C 
ATOM      9  O   UNL     1      -7.918   8.587   6.981  1.00  0.00    -0.550 OA
ATOM     10  O   UNL     1      -5.938   9.149   7.987  1.00  0.00    -0.550 OA
ENDBRANCH   7   8
ENDBRANCH   6   7
ENDBRANCH   5   6
ENDBRANCH   4   5
ENDBRANCH   3   4
ENDBRANCH   2   3
ENDBRANCH   1   2
BRANCH   1  11
ATOM     11  C   UNL     1      -0.986   3.680   9.775  1.00  0.00     0.000 C 
BRANCH  11  12
ATOM     12  C   UNL     1      -1.097   5.061   9.106  1.00  0.00    -0.000 C 
BRANCH  12  13
ATOM     13  C   UNL     1      -0.363   6.165   9.901  1.00  0.00    -0.000 C 
BRANCH  13  14
ATOM     14  C   UNL     1       0.634   6.976   9.054  1.00  0.00    -0.000 C 
BRANCH  14  15
ATOM     15  C   UNL     1      -0.008   8.085   8.201  1.00  0.00    -0.000 C 
BRANCH  15  16
ATOM     16  C   UNL     1      -0.407   9.338   9.012  1.00  0.00    -0.000 C 
BRANCH  16  17
ATOM     17  C   UNL     1      -1.869   9.749   8.788  1.00  0.00    -0.003 C 
ATOM     18  C   UNL     1      -2.809   8.962   9.697  1.00  0.00     0.004 C 
ENDBRANCH  16  17
ENDBRANCH  15  16
ENDBRANCH  14  15
ENDBRANCH  13  14
ENDBRANCH  12  13
ENDBRANCH  11  12
ENDBRANCH   1  11
TORSDOF 14
ENDMDL
