MODEL 1
REMARK VINA RESULT:    -3.871      0.000      0.000
REMARK INTER + INTRA:          -3.871
REMARK INTER:                  -3.871
REMARK INTRA:                   0.000
REMARK UNBOUND:                 0.000
REMARK SMILES c1ccc2ccccc2c1
REMARK SMILES IDX 2 1 1 2 10 3 9 4 8 5 7 6 6 7 5 8 4 9 3 10
REMARK H PARENT
REMARK Flexibility Score: inf
ROOT
ATOM      1  C   UNL     1     -97.606  65.796 158.392  1.00  0.00     0.001 A 
ATOM      2  C   UNL     1     -96.373  66.453 158.329  1.00  0.00     0.001 A 
ATOM      3  C   UNL     1     -95.711  66.822 159.503  1.00  0.00     0.009 A 
ATOM      4  C   UNL     1     -96.281  66.534 160.754  1.00  0.00    -0.018 A 
ATOM      5  C   UNL     1     -95.628  66.898 161.941  1.00  0.00     0.009 A 
ATOM      6  C   UNL     1     -96.207  66.606 163.178  1.00  0.00     0.001 A 
ATOM      7  C   UNL     1     -97.439  65.949 163.241  1.00  0.00     0.001 A 
ATOM      8  C   UNL     1     -98.101  65.580 162.067  1.00  0.00     0.009 A 
ATOM      9  C   UNL     1     -97.531  65.868 160.817  1.00  0.00    -0.018 A 
ATOM     10  C   UNL     1     -98.184  65.504 159.630  1.00  0.00     0.009 A 
ENDROOT
TORSDOF 0
ENDMDL
MODEL 2
REMARK VINA RESULT:    -3.868      2.981      5.228
REMARK INTER + INTRA:          -3.868
REMARK INTER:                  -3.868
REMARK INTRA:                   0.000
REMARK UNBOUND:                 0.000
REMARK SMILES c1ccc2ccccc2c1
REMARK SMILES IDX 2 1 1 2 10 3 9 4 8 5 7 6 6 7 5 8 4 9 3 10
REMARK H PARENT
REMARK Flexibility Score: inf
ROOT
ATOM      1  C   UNL     1     -96.434  66.479 153.511  1.00  0.00     0.001 A 
ATOM      2  C   UNL     1     -97.685  65.868 153.635  1.00  0.00     0.001 A 
ATOM      3  C   UNL     1     -98.220  65.609 154.900  1.00  0.00     0.009 A 
ATOM      4  C   UNL     1     -97.503  65.963 156.053  1.00  0.00    -0.018 A 
ATOM      5  C   UNL     1     -98.028  65.710 157.330  1.00  0.00     0.009 A 
ATOM      6  C   UNL     1     -97.304  66.068 158.470  1.00  0.00     0.001 A 
ATOM      7  C   UNL     1     -96.053  66.679 158.346  1.00  0.00     0.001 A 
ATOM      8  C   UNL     1     -95.518  66.938 157.081  1.00  0.00     0.009 A 
ATOM      9  C   UNL     1     -96.235  66.583 155.928  1.00  0.00    -0.018 A 
ATOM     10  C   UNL     1     -95.710  66.836 154.651  1.00  0.00     0.009 A 
ENDROOT
TORSDOF 0
ENDMDL
MODEL 3
REMARK VINA RESULT:    -3.868      0.067      2.082
REMARK INTER + INTRA:          -3.868
REMARK INTER:                  -3.868
REMARK INTRA:                   0.000
REMARK UNBOUND:                 0.000
REMARK SMILES c1ccc2ccccc2c1
REMARK SMILES IDX 2 1 1 2 10 3 9 4 8 5 7 6 6 7 5 8 4 9 3 10
REMARK H PARENT
REMARK Flexibility Score: inf
ROOT
ATOM      1  C   UNL     1     -96.366  66.465 158.364  1.00  0.00     0.001 A 
ATOM      2  C   UNL     1     -97.601  65.814 158.446  1.00  0.00     0.001 A 
ATOM      3  C   UNL     1     -98.165  65.527 159.692  1.00  0.00     0.009 A 
ATOM      4  C   UNL     1     -97.493  65.893 160.869  1.00  0.00    -0.018 A 
ATOM      5  C   UNL     1     -98.048  65.612 162.127  1.00  0.00     0.009 A 
ATOM      6  C   UNL     1     -97.369  65.981 163.291  1.00  0.00     0.001 A 
ATOM      7  C   UNL     1     -96.134  66.632 163.209  1.00  0.00     0.001 A 
ATOM      8  C   UNL     1     -95.570  66.919 161.963  1.00  0.00     0.009 A 
ATOM      9  C   UNL     1     -96.242  66.553 160.786  1.00  0.00    -0.018 A 
ATOM     10  C   UNL     1     -95.687  66.834 159.528  1.00  0.00     0.009 A 
ENDROOT
TORSDOF 0
ENDMDL
MODEL 4
REMARK VINA RESULT:    -3.866      3.013      4.850
REMARK INTER + INTRA:          -3.866
REMARK INTER:                  -3.866
REMARK INTRA:                   0.000
REMARK UNBOUND:                 0.000
REMARK SMILES c1ccc2ccccc2c1
REMARK SMILES IDX 2 1 1 2 10 3 9 4 8 5 7 6 6 7 5 8 4 9 3 10
REMARK H PARENT
REMARK Flexibility Score: inf
ROOT
ATOM      1  C   UNL     1     -97.631  65.836 153.555  1.00  0.00     0.001 A 
ATOM      2  C   UNL     1     -96.405  66.505 153.471  1.00  0.00     0.001 A 
ATOM      3  C   UNL     1     -95.730  66.885 154.634  1.00  0.00     0.009 A 
ATOM      4  C   UNL     1     -96.279  66.597 155.893  1.00  0.00    -0.018 A 
ATOM      5  C   UNL     1     -95.611  66.972 157.069  1.00  0.00     0.009 A 
ATOM      6  C   UNL     1     -96.169  66.680 158.316  1.00  0.00     0.001 A 
ATOM      7  C   UNL     1     -97.395  66.012 158.400  1.00  0.00     0.001 A 
ATOM      8  C   UNL     1     -98.070  65.631 157.237  1.00  0.00     0.009 A 
ATOM      9  C   UNL     1     -97.521  65.919 155.978  1.00  0.00    -0.018 A 
ATOM     10  C   UNL     1     -98.188  65.544 154.802  1.00  0.00     0.009 A 
ENDROOT
TORSDOF 0
ENDMDL
MODEL 5
REMARK VINA RESULT:    -3.859     10.940     13.659
REMARK INTER + INTRA:          -3.859
REMARK INTER:                  -3.859
REMARK INTRA:                   0.000
REMARK UNBOUND:                 0.000
REMARK SMILES c1ccc2ccccc2c1
REMARK SMILES IDX 2 1 1 2 10 3 9 4 8 5 7 6 6 7 5 8 4 9 3 10
REMARK H PARENT
REMARK Flexibility Score: inf
ROOT
ATOM      1  C   UNL     1     -97.830  65.747 149.718  1.00  0.00     0.001 A 
ATOM      2  C   UNL     1     -96.623  66.350 150.085  1.00  0.00     0.001 A 
ATOM      3  C   UNL     1     -95.754  66.840 149.107  1.00  0.00     0.009 A 
ATOM      4  C   UNL     1     -96.090  66.730 147.748  1.00  0.00    -0.018 A 
ATOM      5  C   UNL     1     -95.228  67.219 146.755  1.00  0.00     0.009 A 
ATOM      6  C   UNL     1     -95.574  67.103 145.406  1.00  0.00     0.001 A 
ATOM      7  C   UNL     1     -96.781  66.500 145.039  1.00  0.00     0.001 A 
ATOM      8  C   UNL     1     -97.650  66.010 146.017  1.00  0.00     0.009 A 
ATOM      9  C   UNL     1     -97.314  66.119 147.376  1.00  0.00    -0.018 A 
ATOM     10  C   UNL     1     -98.176  65.631 148.370  1.00  0.00     0.009 A 
ENDROOT
TORSDOF 0
ENDMDL
MODEL 6
REMARK VINA RESULT:    -3.858      0.163      3.436
REMARK INTER + INTRA:          -3.858
REMARK INTER:                  -3.858
REMARK INTRA:                   0.000
REMARK UNBOUND:                 0.000
REMARK SMILES c1ccc2ccccc2c1
REMARK SMILES IDX 2 1 1 2 10 3 9 4 8 5 7 6 6 7 5 8 4 9 3 10
REMARK H PARENT
REMARK Flexibility Score: inf
ROOT
ATOM      1  C   UNL     1     -97.617  65.781 163.231  1.00  0.00     0.001 A 
ATOM      2  C   UNL     1     -96.391  66.451 163.267  1.00  0.00     0.001 A 
ATOM      3  C   UNL     1     -95.748  66.806 162.078  1.00  0.00     0.009 A 
ATOM      4  C   UNL     1     -96.332  66.491 160.840  1.00  0.00    -0.018 A 
ATOM      5  C   UNL     1     -95.698  66.841 159.638  1.00  0.00     0.009 A 
ATOM      6  C   UNL     1     -96.290  66.521 158.414  1.00  0.00     0.001 A 
ATOM      7  C   UNL     1     -97.516  65.851 158.379  1.00  0.00     0.001 A 
ATOM      8  C   UNL     1     -98.159  65.496 159.568  1.00  0.00     0.009 A 
ATOM      9  C   UNL     1     -97.575  65.811 160.805  1.00  0.00    -0.018 A 
ATOM     10  C   UNL     1     -98.209  65.461 162.007  1.00  0.00     0.009 A 
ENDROOT
TORSDOF 0
ENDMDL
MODEL 7
REMARK VINA RESULT:    -3.851      2.987      5.918
REMARK INTER + INTRA:          -3.851
REMARK INTER:                  -3.851
REMARK INTRA:                   0.000
REMARK UNBOUND:                 0.000
REMARK SMILES c1ccc2ccccc2c1
REMARK SMILES IDX 2 1 1 2 10 3 9 4 8 5 7 6 6 7 5 8 4 9 3 10
REMARK H PARENT
REMARK Flexibility Score: inf
ROOT
ATOM      1  C   UNL     1     -97.676  65.769 158.363  1.00  0.00     0.001 A 
ATOM      2  C   UNL     1     -96.455  66.447 158.419  1.00  0.00     0.001 A 
ATOM      3  C   UNL     1     -95.802  66.820 157.241  1.00  0.00     0.009 A 
ATOM      4  C   UNL     1     -96.371  66.517 155.995  1.00  0.00    -0.018 A 
ATOM      5  C   UNL     1     -95.728  66.886 154.803  1.00  0.00     0.009 A 
ATOM      6  C   UNL     1     -96.305  66.577 153.569  1.00  0.00     0.001 A 
ATOM      7  C   UNL     1     -97.527  65.899 153.514  1.00  0.00     0.001 A 
ATOM      8  C   UNL     1     -98.179  65.526 154.691  1.00  0.00     0.009 A 
ATOM      9  C   UNL     1     -97.610  65.830 155.938  1.00  0.00    -0.018 A 
ATOM     10  C   UNL     1     -98.253  65.461 157.129  1.00  0.00     0.009 A 
ENDROOT
TORSDOF 0
ENDMDL
MODEL 8
REMARK VINA RESULT:    -3.849      0.206      4.014
REMARK INTER + INTRA:          -3.849
REMARK INTER:                  -3.849
REMARK INTRA:                   0.000
REMARK UNBOUND:                 0.000
REMARK SMILES c1ccc2ccccc2c1
REMARK SMILES IDX 2 1 1 2 10 3 9 4 8 5 7 6 6 7 5 8 4 9 3 10
REMARK H PARENT
REMARK Flexibility Score: inf
ROOT
ATOM      1  C   UNL     1     -96.455  66.454 163.294  1.00  0.00     0.001 A 
ATOM      2  C   UNL     1     -97.672  65.768 163.228  1.00  0.00     0.001 A 
ATOM      3  C   UNL     1     -98.230  65.442 161.989  1.00  0.00     0.009 A 
ATOM      4  C   UNL     1     -97.571  65.801 160.803  1.00  0.00    -0.018 A 
ATOM      5  C   UNL     1     -98.119  65.479 159.552  1.00  0.00     0.009 A 
ATOM      6  C   UNL     1     -97.453  65.843 158.379  1.00  0.00     0.001 A 
ATOM      7  C   UNL     1     -96.236  66.529 158.445  1.00  0.00     0.001 A 
ATOM      8  C   UNL     1     -95.678  66.855 159.684  1.00  0.00     0.009 A 
ATOM      9  C   UNL     1     -96.337  66.496 160.870  1.00  0.00    -0.018 A 
ATOM     10  C   UNL     1     -95.789  66.818 162.121  1.00  0.00     0.009 A 
ENDROOT
TORSDOF 0
ENDMDL
MODEL 9
REMARK VINA RESULT:    -3.840      2.983      6.275
REMARK INTER + INTRA:          -3.840
REMARK INTER:                  -3.840
REMARK INTRA:                   0.000
REMARK UNBOUND:                 0.000
REMARK SMILES c1ccc2ccccc2c1
REMARK SMILES IDX 2 1 1 2 10 3 9 4 8 5 7 6 6 7 5 8 4 9 3 10
REMARK H PARENT
REMARK Flexibility Score: inf
ROOT
ATOM      1  C   UNL     1     -96.435  66.510 158.395  1.00  0.00     0.001 A 
ATOM      2  C   UNL     1     -97.640  65.801 158.391  1.00  0.00     0.001 A 
ATOM      3  C   UNL     1     -98.241  65.440 157.182  1.00  0.00     0.009 A 
ATOM      4  C   UNL     1     -97.636  65.787 155.964  1.00  0.00    -0.018 A 
ATOM      5  C   UNL     1     -98.228  65.431 154.742  1.00  0.00     0.009 A 
ATOM      6  C   UNL     1     -97.615  65.783 153.537  1.00  0.00     0.001 A 
ATOM      7  C   UNL     1     -96.410  66.492 153.541  1.00  0.00     0.001 A 
ATOM      8  C   UNL     1     -95.810  66.853 154.749  1.00  0.00     0.009 A 
ATOM      9  C   UNL     1     -96.414  66.506 155.968  1.00  0.00    -0.018 A 
ATOM     10  C   UNL     1     -95.823  66.862 157.189  1.00  0.00     0.009 A 
ENDROOT
TORSDOF 0
ENDMDL
