MODEL 1
REMARK VINA RESULT:    -5.940      0.000      0.000
REMARK INTER + INTRA:          -6.705
REMARK INTER:                  -6.461
REMARK INTRA:                  -0.244
REMARK UNBOUND:                -0.244
REMARK SMILES C[C@@H]1[C@@H](C)CC[C@@]2(C(=O)[O-])CC[C@]3(C)C(=CC[C@H]4[C@]5(C)CC[C@H](O)C(C)(C)[C@H]5CC[C@@]43C)[C@@H]12
REMARK SMILES IDX 7 1 6 2 11 3 33 4 5 5 12 6 15 7 2 8 3 9 13 10 16 11 1 12
REMARK SMILES IDX 4 13 14 14 31 15 17 16 18 17 30 18 32 19 19 20 29 21 28 22
REMARK SMILES IDX 21 23 20 24 25 25 22 26 23 27 26 28 27 29 8 30 9 31 10 32
REMARK SMILES IDX 24 33
REMARK H PARENT 24 34
REMARK Flexibility Score: inf
ROOT
ATOM      1  C   UNL     1      -6.507 -55.263 -36.505  1.00  0.00     0.017 C 
ATOM      2  C   UNL     1      -7.808 -54.955 -37.315  1.00  0.00     0.014 C 
ATOM      3  C   UNL     1      -6.911 -56.187 -35.298  1.00  0.00     0.014 C 
ATOM      4  C   UNL     1      -5.390 -55.889 -37.463  1.00  0.00     0.030 C 
ATOM      5  C   UNL     1      -7.497 -54.488 -38.730  1.00  0.00     0.004 C 
ATOM      6  C   UNL     1      -6.272 -57.577 -35.318  1.00  0.00     0.013 C 
ATOM      7  C   UNL     1      -4.360 -56.752 -36.707  1.00  0.00    -0.063 C 
ATOM      8  C   UNL     1      -5.999 -56.610 -38.720  1.00  0.00    -0.003 C 
ATOM      9  C   UNL     1      -6.915 -55.650 -39.562  1.00  0.00    -0.011 C 
ATOM     10  C   UNL     1      -4.724 -57.544 -35.441  1.00  0.00    -0.006 C 
ATOM     11  C   UNL     1      -3.067 -56.771 -37.122  1.00  0.00    -0.027 C 
ATOM     12  C   UNL     1      -4.916 -57.177 -39.662  1.00  0.00     0.008 C 
ATOM     13  C   UNL     1      -8.042 -56.432 -40.260  1.00  0.00     0.008 C 
ATOM     14  C   UNL     1      -4.177 -56.654 -34.267  1.00  0.00     0.017 C 
ATOM     15  C   UNL     1      -4.071 -59.055 -35.436  1.00  0.00    -0.020 C 
ATOM     16  C   UNL     1      -2.144 -57.879 -36.671  1.00  0.00     0.032 C 
ATOM     17  C   UNL     1      -2.988 -59.172 -36.589  1.00  0.00     0.006 C 
ATOM     18  C   UNL     1      -5.109 -60.190 -35.734  1.00  0.00     0.008 C 
ATOM     19  C   UNL     1      -3.496 -59.356 -34.013  1.00  0.00     0.012 C 
ATOM     20  C   UNL     1      -2.255 -60.567 -36.775  1.00  0.00    -0.025 C 
ATOM     21  C   UNL     1      -4.487 -61.601 -35.888  1.00  0.00     0.005 C 
ATOM     22  C   UNL     1      -3.397 -61.642 -36.993  1.00  0.00     0.003 C 
ATOM     23  C   UNL     1      -1.393 -60.538 -38.079  1.00  0.00     0.010 C 
ATOM     24  C   UNL     1      -1.307 -60.856 -35.574  1.00  0.00     0.012 C 
ATOM     25  C   UNL     1      -2.915 -63.086 -37.414  1.00  0.00    -0.006 C 
ATOM     26  C   UNL     1      -0.877 -61.918 -38.531  1.00  0.00     0.033 C 
ATOM     27  C   UNL     1      -1.984 -62.982 -38.670  1.00  0.00     0.120 C 
ATOM     28  C   UNL     1      -4.134 -63.973 -37.795  1.00  0.00     0.014 C 
ATOM     29  C   UNL     1      -2.166 -63.831 -36.280  1.00  0.00     0.014 C 
ENDROOT
BRANCH   1  30
ATOM     30  C   UNL     1      -6.000 -53.941 -35.920  1.00  0.00     0.048 C 
ATOM     31  O   UNL     1      -6.612 -53.400 -34.960  1.00  0.00    -0.550 OA
ATOM     32  O   UNL     1      -4.833 -53.341 -36.381  1.00  0.00    -0.550 OA
ENDBRANCH   1  30
BRANCH  27  33
ATOM     33  O   UNL     1      -2.714 -62.788 -39.863  1.00  0.00    -0.393 OA
ATOM     34  H   UNL     1      -3.070 -63.661 -40.165  1.00  0.00     0.210 HD
ENDBRANCH  27  33
TORSDOF 2
ENDMDL
MODEL 2
REMARK VINA RESULT:    -4.947      4.087      6.303
REMARK INTER + INTRA:          -5.624
REMARK INTER:                  -5.624
REMARK INTRA:                  -0.000
REMARK UNBOUND:                -0.244
REMARK SMILES C[C@@H]1[C@@H](C)CC[C@@]2(C(=O)[O-])CC[C@]3(C)C(=CC[C@H]4[C@]5(C)CC[C@H](O)C(C)(C)[C@H]5CC[C@@]43C)[C@@H]12
REMARK SMILES IDX 7 1 6 2 11 3 33 4 5 5 12 6 15 7 2 8 3 9 13 10 16 11 1 12
REMARK SMILES IDX 4 13 14 14 31 15 17 16 18 17 30 18 32 19 19 20 29 21 28 22
REMARK SMILES IDX 21 23 20 24 25 25 22 26 23 27 26 28 27 29 8 30 9 31 10 32
REMARK SMILES IDX 24 33
REMARK H PARENT 24 34
REMARK Flexibility Score: inf
ROOT
ATOM      1  C   UNL     1      -6.900 -56.237 -38.833  1.00  0.00     0.017 C 
ATOM      2  C   UNL     1      -6.150 -56.436 -40.190  1.00  0.00     0.014 C 
ATOM      3  C   UNL     1      -6.886 -57.618 -38.080  1.00  0.00     0.014 C 
ATOM      4  C   UNL     1      -6.246 -55.035 -38.007  1.00  0.00     0.030 C 
ATOM      5  C   UNL     1      -5.684 -55.112 -40.779  1.00  0.00     0.004 C 
ATOM      6  C   UNL     1      -6.132 -57.611 -36.749  1.00  0.00     0.013 C 
ATOM      7  C   UNL     1      -6.483 -55.146 -36.487  1.00  0.00    -0.063 C 
ATOM      8  C   UNL     1      -4.739 -54.785 -38.381  1.00  0.00    -0.003 C 
ATOM      9  C   UNL     1      -4.554 -54.511 -39.917  1.00  0.00    -0.011 C 
ATOM     10  C   UNL     1      -6.613 -56.501 -35.773  1.00  0.00    -0.006 C 
ATOM     11  C   UNL     1      -6.654 -54.018 -35.750  1.00  0.00    -0.027 C 
ATOM     12  C   UNL     1      -4.124 -53.599 -37.610  1.00  0.00     0.008 C 
ATOM     13  C   UNL     1      -3.181 -55.006 -40.405  1.00  0.00     0.008 C 
ATOM     14  C   UNL     1      -8.161 -56.682 -35.580  1.00  0.00     0.017 C 
ATOM     15  C   UNL     1      -5.795 -56.538 -34.345  1.00  0.00    -0.020 C 
ATOM     16  C   UNL     1      -6.492 -54.063 -34.248  1.00  0.00     0.032 C 
ATOM     17  C   UNL     1      -5.358 -55.068 -33.942  1.00  0.00     0.006 C 
ATOM     18  C   UNL     1      -4.462 -57.359 -34.403  1.00  0.00     0.008 C 
ATOM     19  C   UNL     1      -6.688 -57.237 -33.266  1.00  0.00     0.012 C 
ATOM     20  C   UNL     1      -4.529 -54.886 -32.602  1.00  0.00    -0.025 C 
ATOM     21  C   UNL     1      -3.603 -57.277 -33.116  1.00  0.00     0.005 C 
ATOM     22  C   UNL     1      -3.251 -55.812 -32.741  1.00  0.00     0.003 C 
ATOM     23  C   UNL     1      -4.019 -53.411 -32.495  1.00  0.00     0.010 C 
ATOM     24  C   UNL     1      -5.417 -55.182 -31.358  1.00  0.00     0.012 C 
ATOM     25  C   UNL     1      -2.151 -55.647 -31.620  1.00  0.00    -0.006 C 
ATOM     26  C   UNL     1      -2.956 -53.182 -31.402  1.00  0.00     0.033 C 
ATOM     27  C   UNL     1      -1.749 -54.137 -31.499  1.00  0.00     0.120 C 
ATOM     28  C   UNL     1      -0.875 -56.454 -31.991  1.00  0.00     0.014 C 
ATOM     29  C   UNL     1      -2.614 -56.168 -30.235  1.00  0.00     0.014 C 
ENDROOT
BRANCH   1  30
ATOM     30  C   UNL     1      -8.361 -55.905 -39.153  1.00  0.00     0.048 C 
ATOM     31  O   UNL     1      -9.044 -55.218 -38.346  1.00  0.00    -0.550 OA
ATOM     32  O   UNL     1      -8.948 -56.291 -40.353  1.00  0.00    -0.550 OA
ENDBRANCH   1  30
BRANCH  27  33
ATOM     33  O   UNL     1      -0.875 -53.732 -32.531  1.00  0.00    -0.393 OA
ATOM     34  H   UNL     1      -0.729 -52.756 -32.463  1.00  0.00     0.210 HD
ENDBRANCH  27  33
TORSDOF 2
ENDMDL
MODEL 3
REMARK VINA RESULT:    -4.698      2.032      7.362
REMARK INTER + INTRA:          -5.353
REMARK INTER:                  -5.361
REMARK INTRA:                   0.008
REMARK UNBOUND:                -0.244
REMARK SMILES C[C@@H]1[C@@H](C)CC[C@@]2(C(=O)[O-])CC[C@]3(C)C(=CC[C@H]4[C@]5(C)CC[C@H](O)C(C)(C)[C@H]5CC[C@@]43C)[C@@H]12
REMARK SMILES IDX 7 1 6 2 11 3 33 4 5 5 12 6 15 7 2 8 3 9 13 10 16 11 1 12
REMARK SMILES IDX 4 13 14 14 31 15 17 16 18 17 30 18 32 19 19 20 29 21 28 22
REMARK SMILES IDX 21 23 20 24 25 25 22 26 23 27 26 28 27 29 8 30 9 31 10 32
REMARK SMILES IDX 24 33
REMARK H PARENT 24 34
REMARK Flexibility Score: inf
ROOT
ATOM      1  C   UNL     1      -3.273 -63.159 -36.402  1.00  0.00     0.017 C 
ATOM      2  C   UNL     1      -3.981 -64.263 -37.253  1.00  0.00     0.014 C 
ATOM      3  C   UNL     1      -2.117 -62.557 -37.283  1.00  0.00     0.014 C 
ATOM      4  C   UNL     1      -4.338 -62.080 -35.894  1.00  0.00     0.030 C 
ATOM      5  C   UNL     1      -5.373 -64.580 -36.723  1.00  0.00     0.004 C 
ATOM      6  C   UNL     1      -2.277 -61.072 -37.617  1.00  0.00     0.013 C 
ATOM      7  C   UNL     1      -3.709 -60.704 -35.596  1.00  0.00    -0.063 C 
ATOM      8  C   UNL     1      -5.608 -61.995 -36.815  1.00  0.00    -0.003 C 
ATOM      9  C   UNL     1      -6.321 -63.387 -36.964  1.00  0.00    -0.011 C 
ATOM     10  C   UNL     1      -2.486 -60.177 -36.364  1.00  0.00    -0.006 C 
ATOM     11  C   UNL     1      -4.197 -59.949 -34.578  1.00  0.00    -0.027 C 
ATOM     12  C   UNL     1      -6.650 -60.981 -36.298  1.00  0.00     0.008 C 
ATOM     13  C   UNL     1      -7.010 -63.511 -38.335  1.00  0.00     0.008 C 
ATOM     14  C   UNL     1      -1.283 -60.442 -35.389  1.00  0.00     0.017 C 
ATOM     15  C   UNL     1      -2.632 -58.586 -36.759  1.00  0.00    -0.020 C 
ATOM     16  C   UNL     1      -3.884 -58.472 -34.514  1.00  0.00     0.032 C 
ATOM     17  C   UNL     1      -3.850 -57.949 -35.969  1.00  0.00     0.006 C 
ATOM     18  C   UNL     1      -2.953 -58.340 -38.273  1.00  0.00     0.008 C 
ATOM     19  C   UNL     1      -1.270 -57.866 -36.483  1.00  0.00     0.012 C 
ATOM     20  C   UNL     1      -4.181 -56.419 -36.230  1.00  0.00    -0.025 C 
ATOM     21  C   UNL     1      -3.248 -56.862 -38.633  1.00  0.00     0.005 C 
ATOM     22  C   UNL     1      -4.413 -56.276 -37.790  1.00  0.00     0.003 C 
ATOM     23  C   UNL     1      -5.527 -56.046 -35.528  1.00  0.00     0.010 C 
ATOM     24  C   UNL     1      -3.062 -55.505 -35.650  1.00  0.00     0.012 C 
ATOM     25  C   UNL     1      -4.968 -54.881 -38.282  1.00  0.00    -0.006 C 
ATOM     26  C   UNL     1      -6.110 -54.683 -35.953  1.00  0.00     0.033 C 
ATOM     27  C   UNL     1      -6.264 -54.520 -37.478  1.00  0.00     0.120 C 
ATOM     28  C   UNL     1      -5.343 -54.949 -39.789  1.00  0.00     0.014 C 
ATOM     29  C   UNL     1      -3.937 -53.732 -38.136  1.00  0.00     0.014 C 
ENDROOT
BRANCH   1  30
ATOM     30  C   UNL     1      -2.621 -63.846 -35.199  1.00  0.00     0.048 C 
ATOM     31  O   UNL     1      -1.390 -63.693 -34.976  1.00  0.00    -0.550 OA
ATOM     32  O   UNL     1      -3.368 -64.594 -34.295  1.00  0.00    -0.550 OA
ENDBRANCH   1  30
BRANCH  27  33
ATOM     33  O   UNL     1      -7.395 -55.227 -37.943  1.00  0.00    -0.393 OA
ATOM     34  H   UNL     1      -7.097 -55.925 -38.577  1.00  0.00     0.210 HD
ENDBRANCH  27  33
TORSDOF 2
ENDMDL
MODEL 4
REMARK VINA RESULT:    -4.460      2.133      3.722
REMARK INTER + INTRA:          -5.095
REMARK INTER:                  -4.861
REMARK INTRA:                  -0.234
REMARK UNBOUND:                -0.244
REMARK SMILES C[C@@H]1[C@@H](C)CC[C@@]2(C(=O)[O-])CC[C@]3(C)C(=CC[C@H]4[C@]5(C)CC[C@H](O)C(C)(C)[C@H]5CC[C@@]43C)[C@@H]12
REMARK SMILES IDX 7 1 6 2 11 3 33 4 5 5 12 6 15 7 2 8 3 9 13 10 16 11 1 12
REMARK SMILES IDX 4 13 14 14 31 15 17 16 18 17 30 18 32 19 19 20 29 21 28 22
REMARK SMILES IDX 21 23 20 24 25 25 22 26 23 27 26 28 27 29 8 30 9 31 10 32
REMARK SMILES IDX 24 33
REMARK H PARENT 24 34
REMARK Flexibility Score: inf
ROOT
ATOM      1  C   UNL     1      -5.483 -54.785 -34.812  1.00  0.00     0.017 C 
ATOM      2  C   UNL     1      -6.212 -54.254 -33.535  1.00  0.00     0.014 C 
ATOM      3  C   UNL     1      -3.937 -54.721 -34.533  1.00  0.00     0.014 C 
ATOM      4  C   UNL     1      -6.018 -56.243 -35.193  1.00  0.00     0.030 C 
ATOM      5  C   UNL     1      -7.667 -54.699 -33.487  1.00  0.00     0.004 C 
ATOM      6  C   UNL     1      -3.230 -56.078 -34.538  1.00  0.00     0.013 C 
ATOM      7  C   UNL     1      -5.000 -57.068 -36.006  1.00  0.00    -0.063 C 
ATOM      8  C   UNL     1      -6.601 -57.021 -33.957  1.00  0.00    -0.003 C 
ATOM      9  C   UNL     1      -7.753 -56.221 -33.249  1.00  0.00    -0.011 C 
ATOM     10  C   UNL     1      -3.482 -56.899 -35.832  1.00  0.00    -0.006 C 
ATOM     11  C   UNL     1      -5.442 -57.928 -36.960  1.00  0.00    -0.027 C 
ATOM     12  C   UNL     1      -7.152 -58.411 -34.337  1.00  0.00     0.008 C 
ATOM     13  C   UNL     1      -7.796 -56.531 -31.742  1.00  0.00     0.008 C 
ATOM     14  C   UNL     1      -3.058 -56.002 -37.050  1.00  0.00     0.017 C 
ATOM     15  C   UNL     1      -2.689 -58.342 -35.811  1.00  0.00    -0.020 C 
ATOM     16  C   UNL     1      -4.529 -59.014 -37.481  1.00  0.00     0.032 C 
ATOM     17  C   UNL     1      -3.667 -59.495 -36.291  1.00  0.00     0.006 C 
ATOM     18  C   UNL     1      -2.212 -58.779 -34.384  1.00  0.00     0.008 C 
ATOM     19  C   UNL     1      -1.396 -58.224 -36.683  1.00  0.00     0.012 C 
ATOM     20  C   UNL     1      -3.103 -60.978 -36.318  1.00  0.00    -0.025 C 
ATOM     21  C   UNL     1      -1.604 -60.202 -34.320  1.00  0.00     0.005 C 
ATOM     22  C   UNL     1      -2.585 -61.282 -34.852  1.00  0.00     0.003 C 
ATOM     23  C   UNL     1      -4.269 -61.978 -36.611  1.00  0.00     0.010 C 
ATOM     24  C   UNL     1      -2.032 -61.142 -37.436  1.00  0.00     0.012 C 
ATOM     25  C   UNL     1      -2.167 -62.777 -34.563  1.00  0.00    -0.006 C 
ATOM     26  C   UNL     1      -3.914 -63.458 -36.365  1.00  0.00     0.033 C 
ATOM     27  C   UNL     1      -3.340 -63.736 -34.962  1.00  0.00     0.120 C 
ATOM     28  C   UNL     1      -1.881 -62.975 -33.047  1.00  0.00     0.014 C 
ATOM     29  C   UNL     1      -0.878 -63.203 -35.312  1.00  0.00     0.014 C 
ENDROOT
BRANCH   1  30
ATOM     30  C   UNL     1      -5.782 -53.813 -35.957  1.00  0.00     0.048 C 
ATOM     31  O   UNL     1      -6.624 -54.120 -36.843  1.00  0.00    -0.550 OA
ATOM     32  O   UNL     1      -5.190 -52.555 -36.017  1.00  0.00    -0.550 OA
ENDBRANCH   1  30
BRANCH  27  33
ATOM     33  O   UNL     1      -4.370 -63.751 -33.996  1.00  0.00    -0.393 OA
ATOM     34  H   UNL     1      -4.361 -62.891 -33.506  1.00  0.00     0.210 HD
ENDBRANCH  27  33
TORSDOF 2
ENDMDL
MODEL 5
REMARK VINA RESULT:    -3.997      2.653      7.368
REMARK INTER + INTRA:          -4.591
REMARK INTER:                  -4.522
REMARK INTRA:                  -0.069
REMARK UNBOUND:                -0.244
REMARK SMILES C[C@@H]1[C@@H](C)CC[C@@]2(C(=O)[O-])CC[C@]3(C)C(=CC[C@H]4[C@]5(C)CC[C@H](O)C(C)(C)[C@H]5CC[C@@]43C)[C@@H]12
REMARK SMILES IDX 7 1 6 2 11 3 33 4 5 5 12 6 15 7 2 8 3 9 13 10 16 11 1 12
REMARK SMILES IDX 4 13 14 14 31 15 17 16 18 17 30 18 32 19 19 20 29 21 28 22
REMARK SMILES IDX 21 23 20 24 25 25 22 26 23 27 26 28 27 29 8 30 9 31 10 32
REMARK SMILES IDX 24 33
REMARK H PARENT 24 34
REMARK Flexibility Score: inf
ROOT
ATOM      1  C   UNL     1      -6.172 -60.697 -36.052  1.00  0.00     0.017 C 
ATOM      2  C   UNL     1      -5.481 -62.010 -35.560  1.00  0.00     0.014 C 
ATOM      3  C   UNL     1      -7.087 -60.180 -34.882  1.00  0.00     0.014 C 
ATOM      4  C   UNL     1      -5.076 -59.641 -36.540  1.00  0.00     0.030 C 
ATOM      5  C   UNL     1      -4.243 -62.341 -36.381  1.00  0.00     0.004 C 
ATOM      6  C   UNL     1      -6.691 -58.814 -34.318  1.00  0.00     0.013 C 
ATOM      7  C   UNL     1      -5.566 -58.181 -36.463  1.00  0.00    -0.063 C 
ATOM      8  C   UNL     1      -3.674 -59.860 -35.864  1.00  0.00    -0.003 C 
ATOM      9  C   UNL     1      -3.127 -61.313 -36.103  1.00  0.00    -0.011 C 
ATOM     10  C   UNL     1      -6.575 -57.709 -35.403  1.00  0.00    -0.006 C 
ATOM     11  C   UNL     1      -5.156 -57.284 -37.398  1.00  0.00    -0.027 C 
ATOM     12  C   UNL     1      -2.609 -58.863 -36.369  1.00  0.00     0.008 C 
ATOM     13  C   UNL     1      -2.249 -61.774 -34.926  1.00  0.00     0.008 C 
ATOM     14  C   UNL     1      -7.942 -57.660 -36.175  1.00  0.00     0.017 C 
ATOM     15  C   UNL     1      -6.168 -56.249 -34.757  1.00  0.00    -0.020 C 
ATOM     16  C   UNL     1      -5.287 -55.802 -37.133  1.00  0.00     0.032 C 
ATOM     17  C   UNL     1      -5.022 -55.582 -35.627  1.00  0.00     0.006 C 
ATOM     18  C   UNL     1      -5.580 -56.344 -33.308  1.00  0.00     0.008 C 
ATOM     19  C   UNL     1      -7.455 -55.367 -34.646  1.00  0.00     0.012 C 
ATOM     20  C   UNL     1      -4.464 -54.173 -35.156  1.00  0.00    -0.025 C 
ATOM     21  C   UNL     1      -5.049 -55.002 -32.745  1.00  0.00     0.005 C 
ATOM     22  C   UNL     1      -3.969 -54.368 -33.664  1.00  0.00     0.003 C 
ATOM     23  C   UNL     1      -3.212 -53.792 -36.010  1.00  0.00     0.010 C 
ATOM     24  C   UNL     1      -5.537 -53.062 -35.347  1.00  0.00     0.012 C 
ATOM     25  C   UNL     1      -3.172 -53.158 -33.035  1.00  0.00    -0.006 C 
ATOM     26  C   UNL     1      -2.402 -52.602 -35.457  1.00  0.00     0.033 C 
ATOM     27  C   UNL     1      -1.986 -52.764 -33.982  1.00  0.00     0.120 C 
ATOM     28  C   UNL     1      -2.572 -53.562 -31.659  1.00  0.00     0.014 C 
ATOM     29  C   UNL     1      -4.060 -51.914 -32.780  1.00  0.00     0.014 C 
ENDROOT
BRANCH   1  30
ATOM     30  C   UNL     1      -7.089 -61.064 -37.222  1.00  0.00     0.048 C 
ATOM     31  O   UNL     1      -7.258 -60.252 -38.171  1.00  0.00    -0.550 OA
ATOM     32  O   UNL     1      -7.704 -62.310 -37.302  1.00  0.00    -0.550 OA
ENDBRANCH   1  30
BRANCH  27  33
ATOM     33  O   UNL     1      -0.893 -53.651 -33.866  1.00  0.00    -0.393 OA
ATOM     34  H   UNL     1      -1.115 -54.346 -33.197  1.00  0.00     0.210 HD
ENDBRANCH  27  33
TORSDOF 2
ENDMDL
MODEL 6
REMARK VINA RESULT:    -3.803      1.779      2.757
REMARK INTER + INTRA:          -4.381
REMARK INTER:                  -4.127
REMARK INTRA:                  -0.254
REMARK UNBOUND:                -0.244
REMARK SMILES C[C@@H]1[C@@H](C)CC[C@@]2(C(=O)[O-])CC[C@]3(C)C(=CC[C@H]4[C@]5(C)CC[C@H](O)C(C)(C)[C@H]5CC[C@@]43C)[C@@H]12
REMARK SMILES IDX 7 1 6 2 11 3 33 4 5 5 12 6 15 7 2 8 3 9 13 10 16 11 1 12
REMARK SMILES IDX 4 13 14 14 31 15 17 16 18 17 30 18 32 19 19 20 29 21 28 22
REMARK SMILES IDX 21 23 20 24 25 25 22 26 23 27 26 28 27 29 8 30 9 31 10 32
REMARK SMILES IDX 24 33
REMARK H PARENT 24 34
REMARK Flexibility Score: inf
ROOT
ATOM      1  C   UNL     1      -5.830 -55.801 -36.677  1.00  0.00     0.017 C 
ATOM      2  C   UNL     1      -5.721 -54.851 -37.913  1.00  0.00     0.014 C 
ATOM      3  C   UNL     1      -7.235 -56.504 -36.746  1.00  0.00     0.014 C 
ATOM      4  C   UNL     1      -4.593 -56.813 -36.642  1.00  0.00     0.030 C 
ATOM      5  C   UNL     1      -4.275 -54.487 -38.222  1.00  0.00     0.004 C 
ATOM      6  C   UNL     1      -7.180 -58.025 -36.905  1.00  0.00     0.013 C 
ATOM      7  C   UNL     1      -4.900 -58.116 -35.876  1.00  0.00    -0.063 C 
ATOM      8  C   UNL     1      -3.967 -57.062 -38.062  1.00  0.00    -0.003 C 
ATOM      9  C   UNL     1      -3.514 -55.723 -38.747  1.00  0.00    -0.011 C 
ATOM     10  C   UNL     1      -6.310 -58.727 -35.827  1.00  0.00    -0.006 C 
ATOM     11  C   UNL     1      -3.917 -58.721 -35.160  1.00  0.00    -0.027 C 
ATOM     12  C   UNL     1      -2.749 -58.008 -38.018  1.00  0.00     0.008 C 
ATOM     13  C   UNL     1      -3.629 -55.818 -40.279  1.00  0.00     0.008 C 
ATOM     14  C   UNL     1      -6.861 -58.294 -34.421  1.00  0.00     0.017 C 
ATOM     15  C   UNL     1      -6.292 -60.362 -36.016  1.00  0.00    -0.020 C 
ATOM     16  C   UNL     1      -4.066 -60.165 -34.740  1.00  0.00     0.032 C 
ATOM     17  C   UNL     1      -4.806 -60.898 -35.883  1.00  0.00     0.006 C 
ATOM     18  C   UNL     1      -6.773 -60.838 -37.429  1.00  0.00     0.008 C 
ATOM     19  C   UNL     1      -7.277 -61.004 -34.984  1.00  0.00     0.012 C 
ATOM     20  C   UNL     1      -4.564 -62.457 -36.062  1.00  0.00    -0.025 C 
ATOM     21  C   UNL     1      -6.616 -62.359 -37.680  1.00  0.00     0.005 C 
ATOM     22  C   UNL     1      -5.152 -62.836 -37.483  1.00  0.00     0.003 C 
ATOM     23  C   UNL     1      -3.028 -62.749 -36.105  1.00  0.00     0.010 C 
ATOM     24  C   UNL     1      -5.174 -63.251 -34.870  1.00  0.00     0.012 C 
ATOM     25  C   UNL     1      -4.843 -64.300 -37.990  1.00  0.00    -0.006 C 
ATOM     26  C   UNL     1      -2.664 -64.171 -36.575  1.00  0.00     0.033 C 
ATOM     27  C   UNL     1      -3.300 -64.563 -37.924  1.00  0.00     0.120 C 
ATOM     28  C   UNL     1      -5.294 -64.466 -39.469  1.00  0.00     0.014 C 
ATOM     29  C   UNL     1      -5.586 -65.392 -37.179  1.00  0.00     0.014 C 
ENDROOT
BRANCH   1  30
ATOM     30  C   UNL     1      -5.816 -54.929 -35.418  1.00  0.00     0.048 C 
ATOM     31  O   UNL     1      -6.896 -54.473 -34.954  1.00  0.00    -0.550 OA
ATOM     32  O   UNL     1      -4.639 -54.671 -34.724  1.00  0.00    -0.550 OA
ENDBRANCH   1  30
BRANCH  27  33
ATOM     33  O   UNL     1      -2.608 -63.957 -38.996  1.00  0.00    -0.393 OA
ATOM     34  H   UNL     1      -1.814 -63.487 -38.638  1.00  0.00     0.210 HD
ENDBRANCH  27  33
TORSDOF 2
ENDMDL
MODEL 7
REMARK VINA RESULT:    -3.362      2.778      4.603
REMARK INTER + INTRA:          -3.901
REMARK INTER:                  -3.668
REMARK INTRA:                  -0.233
REMARK UNBOUND:                -0.244
REMARK SMILES C[C@@H]1[C@@H](C)CC[C@@]2(C(=O)[O-])CC[C@]3(C)C(=CC[C@H]4[C@]5(C)CC[C@H](O)C(C)(C)[C@H]5CC[C@@]43C)[C@@H]12
REMARK SMILES IDX 7 1 6 2 11 3 33 4 5 5 12 6 15 7 2 8 3 9 13 10 16 11 1 12
REMARK SMILES IDX 4 13 14 14 31 15 17 16 18 17 30 18 32 19 19 20 29 21 28 22
REMARK SMILES IDX 21 23 20 24 25 25 22 26 23 27 26 28 27 29 8 30 9 31 10 32
REMARK SMILES IDX 24 33
REMARK H PARENT 24 34
REMARK Flexibility Score: inf
ROOT
ATOM      1  C   UNL     1      -4.864 -56.803 -36.201  1.00  0.00     0.017 C 
ATOM      2  C   UNL     1      -5.678 -55.767 -35.360  1.00  0.00     0.014 C 
ATOM      3  C   UNL     1      -3.353 -56.666 -35.783  1.00  0.00     0.014 C 
ATOM      4  C   UNL     1      -5.465 -58.272 -36.008  1.00  0.00     0.030 C 
ATOM      5  C   UNL     1      -7.159 -56.114 -35.314  1.00  0.00     0.004 C 
ATOM      6  C   UNL     1      -2.754 -57.918 -35.138  1.00  0.00     0.013 C 
ATOM      7  C   UNL     1      -4.433 -59.387 -36.273  1.00  0.00    -0.063 C 
ATOM      8  C   UNL     1      -6.227 -58.445 -34.645  1.00  0.00    -0.003 C 
ATOM      9  C   UNL     1      -7.383 -57.393 -34.480  1.00  0.00    -0.011 C 
ATOM     10  C   UNL     1      -2.933 -59.200 -35.997  1.00  0.00    -0.006 C 
ATOM     11  C   UNL     1      -4.838 -60.557 -36.833  1.00  0.00    -0.027 C 
ATOM     12  C   UNL     1      -6.840 -59.852 -34.481  1.00  0.00     0.008 C 
ATOM     13  C   UNL     1      -7.603 -57.041 -32.998  1.00  0.00     0.008 C 
ATOM     14  C   UNL     1      -2.320 -58.908 -37.414  1.00  0.00     0.017 C 
ATOM     15  C   UNL     1      -2.257 -60.520 -35.283  1.00  0.00    -0.020 C 
ATOM     16  C   UNL     1      -3.961 -61.783 -36.740  1.00  0.00     0.032 C 
ATOM     17  C   UNL     1      -3.264 -61.743 -35.361  1.00  0.00     0.006 C 
ATOM     18  C   UNL     1      -1.963 -60.330 -33.756  1.00  0.00     0.008 C 
ATOM     19  C   UNL     1      -0.876 -60.812 -35.957  1.00  0.00     0.012 C 
ATOM     20  C   UNL     1      -2.813 -63.114 -34.701  1.00  0.00    -0.025 C 
ATOM     21  C   UNL     1      -1.473 -61.610 -33.034  1.00  0.00     0.005 C 
ATOM     22  C   UNL     1      -2.472 -62.788 -33.189  1.00  0.00     0.003 C 
ATOM     23  C   UNL     1      -4.014 -64.115 -34.697  1.00  0.00     0.010 C 
ATOM     24  C   UNL     1      -1.648 -63.758 -35.508  1.00  0.00     0.012 C 
ATOM     25  C   UNL     1      -2.199 -64.034 -32.258  1.00  0.00    -0.006 C 
ATOM     26  C   UNL     1      -3.799 -65.364 -33.819  1.00  0.00     0.033 C 
ATOM     27  C   UNL     1      -3.394 -65.042 -32.367  1.00  0.00     0.120 C 
ATOM     28  C   UNL     1      -2.086 -63.585 -30.773  1.00  0.00     0.014 C 
ATOM     29  C   UNL     1      -0.876 -64.767 -32.597  1.00  0.00     0.014 C 
ENDROOT
BRANCH   1  30
ATOM     30  C   UNL     1      -4.970 -56.393 -37.673  1.00  0.00     0.048 C 
ATOM     31  O   UNL     1      -5.800 -56.966 -38.429  1.00  0.00    -0.550 OA
ATOM     32  O   UNL     1      -4.210 -55.351 -38.195  1.00  0.00    -0.550 OA
ENDBRANCH   1  30
BRANCH  27  33
ATOM     33  O   UNL     1      -4.516 -64.624 -31.618  1.00  0.00    -0.393 OA
ATOM     34  H   UNL     1      -4.832 -65.382 -31.067  1.00  0.00     0.210 HD
ENDBRANCH  27  33
TORSDOF 2
ENDMDL
MODEL 8
REMARK VINA RESULT:    -3.025     12.760     15.689
REMARK INTER + INTRA:          -3.535
REMARK INTER:                  -3.455
REMARK INTRA:                  -0.079
REMARK UNBOUND:                -0.244
REMARK SMILES C[C@@H]1[C@@H](C)CC[C@@]2(C(=O)[O-])CC[C@]3(C)C(=CC[C@H]4[C@]5(C)CC[C@H](O)C(C)(C)[C@H]5CC[C@@]43C)[C@@H]12
REMARK SMILES IDX 7 1 6 2 11 3 33 4 5 5 12 6 15 7 2 8 3 9 13 10 16 11 1 12
REMARK SMILES IDX 4 13 14 14 31 15 17 16 18 17 30 18 32 19 19 20 29 21 28 22
REMARK SMILES IDX 21 23 20 24 25 25 22 26 23 27 26 28 27 29 8 30 9 31 10 32
REMARK SMILES IDX 24 33
REMARK H PARENT 24 34
REMARK Flexibility Score: inf
ROOT
ATOM      1  C   UNL     1      -8.889 -68.729 -28.788  1.00  0.00     0.017 C 
ATOM      2  C   UNL     1      -8.649 -68.352 -30.286  1.00  0.00     0.014 C 
ATOM      3  C   UNL     1      -8.381 -70.205 -28.588  1.00  0.00     0.014 C 
ATOM      4  C   UNL     1      -8.190 -67.661 -27.826  1.00  0.00     0.030 C 
ATOM      5  C   UNL     1      -8.647 -66.844 -30.496  1.00  0.00     0.004 C 
ATOM      6  C   UNL     1      -7.215 -70.351 -27.608  1.00  0.00     0.013 C 
ATOM      7  C   UNL     1      -7.849 -68.232 -26.434  1.00  0.00    -0.063 C 
ATOM      8  C   UNL     1      -6.978 -66.927 -28.507  1.00  0.00    -0.003 C 
ATOM      9  C   UNL     1      -7.399 -66.214 -29.843  1.00  0.00    -0.011 C 
ATOM     10  C   UNL     1      -7.492 -69.712 -26.219  1.00  0.00    -0.006 C 
ATOM     11  C   UNL     1      -7.930 -67.430 -25.341  1.00  0.00    -0.027 C 
ATOM     12  C   UNL     1      -6.333 -65.868 -27.588  1.00  0.00     0.008 C 
ATOM     13  C   UNL     1      -6.228 -66.174 -30.841  1.00  0.00     0.008 C 
ATOM     14  C   UNL     1      -8.818 -70.346 -25.665  1.00  0.00     0.017 C 
ATOM     15  C   UNL     1      -6.225 -69.907 -25.186  1.00  0.00    -0.020 C 
ATOM     16  C   UNL     1      -7.239 -67.828 -24.058  1.00  0.00     0.032 C 
ATOM     17  C   UNL     1      -5.922 -68.536 -24.449  1.00  0.00     0.006 C 
ATOM     18  C   UNL     1      -4.885 -70.294 -25.898  1.00  0.00     0.008 C 
ATOM     19  C   UNL     1      -6.548 -71.080 -24.202  1.00  0.00     0.012 C 
ATOM     20  C   UNL     1      -4.711 -68.502 -23.424  1.00  0.00    -0.025 C 
ATOM     21  C   UNL     1      -3.650 -70.330 -24.963  1.00  0.00     0.005 C 
ATOM     22  C   UNL     1      -3.434 -68.980 -24.229  1.00  0.00     0.003 C 
ATOM     23  C   UNL     1      -4.447 -67.028 -22.972  1.00  0.00     0.010 C 
ATOM     24  C   UNL     1      -5.037 -69.345 -22.156  1.00  0.00     0.012 C 
ATOM     25  C   UNL     1      -2.050 -68.830 -23.482  1.00  0.00    -0.006 C 
ATOM     26  C   UNL     1      -3.117 -66.822 -22.219  1.00  0.00     0.033 C 
ATOM     27  C   UNL     1      -1.885 -67.356 -22.975  1.00  0.00     0.120 C 
ATOM     28  C   UNL     1      -0.875 -69.136 -24.454  1.00  0.00     0.014 C 
ATOM     29  C   UNL     1      -1.897 -69.805 -22.287  1.00  0.00     0.014 C 
ENDROOT
BRANCH   1  30
ATOM     30  C   UNL     1     -10.401 -68.729 -28.545  1.00  0.00     0.048 C 
ATOM     31  O   UNL     1     -11.186 -69.112 -29.453  1.00  0.00    -0.550 OA
ATOM     32  O   UNL     1     -10.940 -68.372 -27.313  1.00  0.00    -0.550 OA
ENDBRANCH   1  30
BRANCH  27  33
ATOM     33  O   UNL     1      -1.514 -66.472 -24.012  1.00  0.00    -0.393 OA
ATOM     34  H   UNL     1      -1.488 -66.973 -24.865  1.00  0.00     0.210 HD
ENDBRANCH  27  33
TORSDOF 2
ENDMDL
