MODEL 1
REMARK VINA RESULT:    -4.121      0.000      0.000
REMARK INTER + INTRA:         -10.451
REMARK INTER:                  -7.976
REMARK INTRA:                  -2.475
REMARK UNBOUND:                -2.475
REMARK SMILES CCCCCCCCCCCCCCCCCC(=O)[O-]
REMARK SMILES IDX 10 1 11 2 12 3 13 4 14 5 15 6 16 7 17 8 18 9 19 10 20 11
REMARK SMILES IDX 9 12 8 13 7 14 6 15 5 16 4 17 3 18 2 19 1 20
REMARK H PARENT
REMARK Flexibility Score: inf
ROOT
ATOM      1  C   UNL     1      45.462  56.596  47.996  1.00  0.00     0.000 C 
ENDROOT
BRANCH   1   2
ATOM      2  C   UNL     1      44.066  56.894  47.419  1.00  0.00     0.000 C 
BRANCH   2   3
ATOM      3  C   UNL     1      44.056  58.132  46.508  1.00  0.00     0.000 C 
BRANCH   3   4
ATOM      4  C   UNL     1      43.914  57.769  45.020  1.00  0.00     0.000 C 
BRANCH   4   5
ATOM      5  C   UNL     1      42.567  57.102  44.699  1.00  0.00     0.000 C 
BRANCH   5   6
ATOM      6  C   UNL     1      41.371  58.038  44.933  1.00  0.00     0.000 C 
BRANCH   6   7
ATOM      7  C   UNL     1      40.262  57.323  45.721  1.00  0.00     0.006 C 
BRANCH   7   8
ATOM      8  C   UNL     1      40.804  56.157  46.560  1.00  0.00     0.053 C 
BRANCH   8   9
ATOM      9  C   UNL     1      39.715  55.478  47.333  1.00  0.00     0.041 C 
ATOM     10  O   UNL     1      38.944  56.151  48.067  1.00  0.00    -0.550 OA
ATOM     11  O   UNL     1      39.574  54.099  47.269  1.00  0.00    -0.550 OA
ENDBRANCH   8   9
ENDBRANCH   7   8
ENDBRANCH   6   7
ENDBRANCH   5   6
ENDBRANCH   4   5
ENDBRANCH   3   4
ENDBRANCH   2   3
ENDBRANCH   1   2
BRANCH   1  12
ATOM     12  C   UNL     1      46.060  57.801  48.739  1.00  0.00     0.000 C 
BRANCH  12  13
ATOM     13  C   UNL     1      45.137  58.329  49.852  1.00  0.00    -0.000 C 
BRANCH  13  14
ATOM     14  C   UNL     1      45.291  59.842  50.082  1.00  0.00    -0.000 C 
BRANCH  14  15
ATOM     15  C   UNL     1      44.482  60.675  49.074  1.00  0.00    -0.000 C 
BRANCH  15  16
ATOM     16  C   UNL     1      43.387  61.522  49.744  1.00  0.00    -0.000 C 
BRANCH  16  17
ATOM     17  C   UNL     1      41.965  61.307  49.190  1.00  0.00    -0.000 C 
BRANCH  17  18
ATOM     18  C   UNL     1      41.855  60.137  48.191  1.00  0.00    -0.000 C 
BRANCH  18  19
ATOM     19  C   UNL     1      40.900  59.039  48.682  1.00  0.00    -0.003 C 
ATOM     20  C   UNL     1      41.626  58.034  49.572  1.00  0.00     0.004 C 
ENDBRANCH  18  19
ENDBRANCH  17  18
ENDBRANCH  16  17
ENDBRANCH  15  16
ENDBRANCH  14  15
ENDBRANCH  13  14
ENDBRANCH  12  13
ENDBRANCH   1  12
TORSDOF 16
ENDMDL
MODEL 2
REMARK VINA RESULT:    -4.109      2.978      5.803
REMARK INTER + INTRA:         -10.428
REMARK INTER:                  -7.874
REMARK INTRA:                  -2.554
REMARK UNBOUND:                -2.475
REMARK SMILES CCCCCCCCCCCCCCCCCC(=O)[O-]
REMARK SMILES IDX 10 1 11 2 12 3 13 4 14 5 15 6 16 7 17 8 18 9 19 10 20 11
REMARK SMILES IDX 9 12 8 13 7 14 6 15 5 16 4 17 3 18 2 19 1 20
REMARK H PARENT
REMARK Flexibility Score: inf
ROOT
ATOM      1  C   UNL     1      43.916  57.686  44.982  1.00  0.00     0.000 C 
ENDROOT
BRANCH   1   2
ATOM      2  C   UNL     1      44.099  58.117  46.449  1.00  0.00     0.000 C 
BRANCH   2   3
ATOM      3  C   UNL     1      44.049  56.929  47.423  1.00  0.00     0.000 C 
BRANCH   3   4
ATOM      4  C   UNL     1      45.438  56.558  47.974  1.00  0.00     0.000 C 
BRANCH   4   5
ATOM      5  C   UNL     1      46.087  57.707  48.762  1.00  0.00     0.000 C 
BRANCH   5   6
ATOM      6  C   UNL     1      45.214  58.194  49.929  1.00  0.00     0.000 C 
BRANCH   6   7
ATOM      7  C   UNL     1      45.368  59.709  50.133  1.00  0.00     0.006 C 
BRANCH   7   8
ATOM      8  C   UNL     1      45.209  60.491  48.822  1.00  0.00     0.053 C 
BRANCH   8   9
ATOM      9  C   UNL     1      45.125  61.967  49.064  1.00  0.00     0.041 C 
ATOM     10  O   UNL     1      46.059  62.725  48.691  1.00  0.00    -0.550 OA
ATOM     11  O   UNL     1      44.030  62.501  49.730  1.00  0.00    -0.550 OA
ENDBRANCH   8   9
ENDBRANCH   7   8
ENDBRANCH   6   7
ENDBRANCH   5   6
ENDBRANCH   4   5
ENDBRANCH   3   4
ENDBRANCH   2   3
ENDBRANCH   1   2
BRANCH   1  12
ATOM     12  C   UNL     1      42.551  57.025  44.729  1.00  0.00     0.000 C 
BRANCH  12  13
ATOM     13  C   UNL     1      41.371  57.968  45.026  1.00  0.00    -0.000 C 
BRANCH  13  14
ATOM     14  C   UNL     1      40.203  57.254  45.725  1.00  0.00    -0.000 C 
BRANCH  14  15
ATOM     15  C   UNL     1      40.526  56.887  47.183  1.00  0.00    -0.000 C 
BRANCH  15  16
ATOM     16  C   UNL     1      39.528  57.492  48.185  1.00  0.00    -0.000 C 
BRANCH  16  17
ATOM     17  C   UNL     1      40.139  57.933  49.530  1.00  0.00    -0.000 C 
BRANCH  17  18
ATOM     18  C   UNL     1      41.613  58.378  49.429  1.00  0.00    -0.000 C 
BRANCH  18  19
ATOM     19  C   UNL     1      41.754  59.902  49.304  1.00  0.00    -0.003 C 
ATOM     20  C   UNL     1      41.814  60.332  47.841  1.00  0.00     0.004 C 
ENDBRANCH  18  19
ENDBRANCH  17  18
ENDBRANCH  16  17
ENDBRANCH  15  16
ENDBRANCH  14  15
ENDBRANCH  13  14
ENDBRANCH  12  13
ENDBRANCH   1  12
TORSDOF 16
ENDMDL
MODEL 3
REMARK VINA RESULT:    -4.061      2.640      5.451
REMARK INTER + INTRA:         -10.335
REMARK INTER:                  -8.450
REMARK INTRA:                  -1.885
REMARK UNBOUND:                -2.475
REMARK SMILES CCCCCCCCCCCCCCCCCC(=O)[O-]
REMARK SMILES IDX 10 1 11 2 12 3 13 4 14 5 15 6 16 7 17 8 18 9 19 10 20 11
REMARK SMILES IDX 9 12 8 13 7 14 6 15 5 16 4 17 3 18 2 19 1 20
REMARK H PARENT
REMARK Flexibility Score: inf
ROOT
ATOM      1  C   UNL     1      41.514  58.047  45.414  1.00  0.00     0.000 C 
ENDROOT
BRANCH   1   2
ATOM      2  C   UNL     1      40.273  57.258  45.872  1.00  0.00     0.000 C 
BRANCH   2   3
ATOM      3  C   UNL     1      40.395  56.757  47.321  1.00  0.00     0.000 C 
BRANCH   3   4
ATOM      4  C   UNL     1      39.574  57.604  48.309  1.00  0.00     0.000 C 
BRANCH   4   5
ATOM      5  C   UNL     1      40.347  57.926  49.598  1.00  0.00     0.000 C 
BRANCH   5   6
ATOM      6  C   UNL     1      41.703  58.596  49.326  1.00  0.00     0.000 C 
BRANCH   6   7
ATOM      7  C   UNL     1      41.516  59.934  48.596  1.00  0.00     0.006 C 
BRANCH   7   8
ATOM      8  C   UNL     1      42.853  60.551  48.162  1.00  0.00     0.053 C 
BRANCH   8   9
ATOM      9  C   UNL     1      43.500  61.312  49.279  1.00  0.00     0.041 C 
ATOM     10  O   UNL     1      42.823  61.670  50.279  1.00  0.00    -0.550 OA
ATOM     11  O   UNL     1      44.844  61.652  49.201  1.00  0.00    -0.550 OA
ENDBRANCH   8   9
ENDBRANCH   7   8
ENDBRANCH   6   7
ENDBRANCH   5   6
ENDBRANCH   4   5
ENDBRANCH   3   4
ENDBRANCH   2   3
ENDBRANCH   1   2
BRANCH   1  12
ATOM     12  C   UNL     1      42.582  57.144  44.776  1.00  0.00     0.000 C 
BRANCH  12  13
ATOM     13  C   UNL     1      44.015  57.620  45.073  1.00  0.00    -0.000 C 
BRANCH  13  14
ATOM     14  C   UNL     1      44.190  58.110  46.520  1.00  0.00    -0.000 C 
BRANCH  14  15
ATOM     15  C   UNL     1      44.218  56.952  47.533  1.00  0.00    -0.000 C 
BRANCH  15  16
ATOM     16  C   UNL     1      45.646  56.569  47.958  1.00  0.00    -0.000 C 
BRANCH  16  17
ATOM     17  C   UNL     1      46.305  57.528  48.969  1.00  0.00    -0.000 C 
BRANCH  17  18
ATOM     18  C   UNL     1      45.298  58.374  49.775  1.00  0.00    -0.000 C 
BRANCH  18  19
ATOM     19  C   UNL     1      45.902  58.912  51.080  1.00  0.00    -0.003 C 
ATOM     20  C   UNL     1      45.741  57.908  52.217  1.00  0.00     0.004 C 
ENDBRANCH  18  19
ENDBRANCH  17  18
ENDBRANCH  16  17
ENDBRANCH  15  16
ENDBRANCH  14  15
ENDBRANCH  13  14
ENDBRANCH  12  13
ENDBRANCH   1  12
TORSDOF 16
ENDMDL
MODEL 4
REMARK VINA RESULT:    -4.059      2.664      4.714
REMARK INTER + INTRA:         -10.330
REMARK INTER:                  -8.452
REMARK INTRA:                  -1.878
REMARK UNBOUND:                -2.475
REMARK SMILES CCCCCCCCCCCCCCCCCC(=O)[O-]
REMARK SMILES IDX 10 1 11 2 12 3 13 4 14 5 15 6 16 7 17 8 18 9 19 10 20 11
REMARK SMILES IDX 9 12 8 13 7 14 6 15 5 16 4 17 3 18 2 19 1 20
REMARK H PARENT
REMARK Flexibility Score: inf
ROOT
ATOM      1  C   UNL     1      40.485  56.579  47.547  1.00  0.00     0.000 C 
ENDROOT
BRANCH   1   2
ATOM      2  C   UNL     1      40.384  56.685  46.015  1.00  0.00     0.000 C 
BRANCH   2   3
ATOM      3  C   UNL     1      41.351  57.729  45.431  1.00  0.00     0.000 C 
BRANCH   3   4
ATOM      4  C   UNL     1      42.565  57.087  44.738  1.00  0.00     0.000 C 
BRANCH   4   5
ATOM      5  C   UNL     1      43.871  57.854  45.001  1.00  0.00     0.000 C 
BRANCH   5   6
ATOM      6  C   UNL     1      44.035  58.259  46.474  1.00  0.00     0.000 C 
BRANCH   6   7
ATOM      7  C   UNL     1      44.320  57.030  47.351  1.00  0.00     0.006 C 
BRANCH   7   8
ATOM      8  C   UNL     1      44.258  57.359  48.850  1.00  0.00     0.053 C 
BRANCH   8   9
ATOM      9  C   UNL     1      45.595  57.775  49.382  1.00  0.00     0.041 C 
ATOM     10  O   UNL     1      45.674  58.439  50.449  1.00  0.00    -0.550 OA
ATOM     11  O   UNL     1      46.751  57.456  48.683  1.00  0.00    -0.550 OA
ENDBRANCH   8   9
ENDBRANCH   7   8
ENDBRANCH   6   7
ENDBRANCH   5   6
ENDBRANCH   4   5
ENDBRANCH   3   4
ENDBRANCH   2   3
ENDBRANCH   1   2
BRANCH   1  12
ATOM     12  C   UNL     1      39.631  57.635  48.268  1.00  0.00     0.000 C 
BRANCH  12  13
ATOM     13  C   UNL     1      40.333  58.220  49.507  1.00  0.00    -0.000 C 
BRANCH  13  14
ATOM     14  C   UNL     1      41.689  58.862  49.173  1.00  0.00    -0.000 C 
BRANCH  14  15
ATOM     15  C   UNL     1      41.541  60.146  48.339  1.00  0.00    -0.000 C 
BRANCH  15  16
ATOM     16  C   UNL     1      41.894  61.416  49.132  1.00  0.00    -0.000 C 
BRANCH  16  17
ATOM     17  C   UNL     1      43.304  61.425  49.754  1.00  0.00    -0.000 C 
BRANCH  17  18
ATOM     18  C   UNL     1      44.429  61.083  48.756  1.00  0.00    -0.000 C 
BRANCH  18  19
ATOM     19  C   UNL     1      45.788  61.648  49.193  1.00  0.00    -0.003 C 
ATOM     20  C   UNL     1      46.173  62.867  48.360  1.00  0.00     0.004 C 
ENDBRANCH  18  19
ENDBRANCH  17  18
ENDBRANCH  16  17
ENDBRANCH  15  16
ENDBRANCH  14  15
ENDBRANCH  13  14
ENDBRANCH  12  13
ENDBRANCH   1  12
TORSDOF 16
ENDMDL
MODEL 5
REMARK VINA RESULT:    -4.032      1.238      4.675
REMARK INTER + INTRA:         -10.279
REMARK INTER:                  -8.191
REMARK INTRA:                  -2.089
REMARK UNBOUND:                -2.475
REMARK SMILES CCCCCCCCCCCCCCCCCC(=O)[O-]
REMARK SMILES IDX 10 1 11 2 12 3 13 4 14 5 15 6 16 7 17 8 18 9 19 10 20 11
REMARK SMILES IDX 9 12 8 13 7 14 6 15 5 16 4 17 3 18 2 19 1 20
REMARK H PARENT
REMARK Flexibility Score: inf
ROOT
ATOM      1  C   UNL     1      45.401  56.595  47.996  1.00  0.00     0.000 C 
ENDROOT
BRANCH   1   2
ATOM      2  C   UNL     1      46.037  57.813  48.690  1.00  0.00     0.000 C 
BRANCH   2   3
ATOM      3  C   UNL     1      45.142  58.397  49.795  1.00  0.00     0.000 C 
BRANCH   3   4
ATOM      4  C   UNL     1      45.280  59.924  49.922  1.00  0.00     0.000 C 
BRANCH   4   5
ATOM      5  C   UNL     1      44.309  60.684  49.004  1.00  0.00     0.000 C 
BRANCH   5   6
ATOM      6  C   UNL     1      43.073  61.209  49.750  1.00  0.00     0.000 C 
BRANCH   6   7
ATOM      7  C   UNL     1      41.811  61.070  48.886  1.00  0.00     0.006 C 
BRANCH   7   8
ATOM      8  C   UNL     1      41.724  59.699  48.200  1.00  0.00     0.053 C 
BRANCH   8   9
ATOM      9  C   UNL     1      41.121  58.666  49.101  1.00  0.00     0.041 C 
ATOM     10  O   UNL     1      41.851  58.002  49.883  1.00  0.00    -0.550 OA
ATOM     11  O   UNL     1      39.756  58.414  49.054  1.00  0.00    -0.550 OA
ENDBRANCH   8   9
ENDBRANCH   7   8
ENDBRANCH   6   7
ENDBRANCH   5   6
ENDBRANCH   4   5
ENDBRANCH   3   4
ENDBRANCH   2   3
ENDBRANCH   1   2
BRANCH   1  12
ATOM     12  C   UNL     1      44.024  56.915  47.392  1.00  0.00     0.000 C 
BRANCH  12  13
ATOM     13  C   UNL     1      44.069  58.099  46.408  1.00  0.00    -0.000 C 
BRANCH  13  14
ATOM     14  C   UNL     1      43.974  57.653  44.940  1.00  0.00    -0.000 C 
BRANCH  14  15
ATOM     15  C   UNL     1      42.613  57.017  44.605  1.00  0.00    -0.000 C 
BRANCH  15  16
ATOM     16  C   UNL     1      41.431  57.964  44.874  1.00  0.00    -0.000 C 
BRANCH  16  17
ATOM     17  C   UNL     1      40.281  57.355  45.698  1.00  0.00    -0.000 C 
BRANCH  17  18
ATOM     18  C   UNL     1      40.703  56.149  46.564  1.00  0.00    -0.000 C 
BRANCH  18  19
ATOM     19  C   UNL     1      39.507  55.482  47.257  1.00  0.00    -0.003 C 
ATOM     20  C   UNL     1      39.647  53.963  47.257  1.00  0.00     0.004 C 
ENDBRANCH  18  19
ENDBRANCH  17  18
ENDBRANCH  16  17
ENDBRANCH  15  16
ENDBRANCH  14  15
ENDBRANCH  13  14
ENDBRANCH  12  13
ENDBRANCH   1  12
TORSDOF 16
ENDMDL
MODEL 6
REMARK VINA RESULT:    -3.999      2.996      5.504
REMARK INTER + INTRA:         -10.215
REMARK INTER:                  -7.681
REMARK INTRA:                  -2.533
REMARK UNBOUND:                -2.475
REMARK SMILES CCCCCCCCCCCCCCCCCC(=O)[O-]
REMARK SMILES IDX 10 1 11 2 12 3 13 4 14 5 15 6 16 7 17 8 18 9 19 10 20 11
REMARK SMILES IDX 9 12 8 13 7 14 6 15 5 16 4 17 3 18 2 19 1 20
REMARK H PARENT
REMARK Flexibility Score: inf
ROOT
ATOM      1  C   UNL     1      42.652  57.660  45.693  1.00  0.00     0.000 C 
ENDROOT
BRANCH   1   2
ATOM      2  C   UNL     1      44.053  57.713  46.328  1.00  0.00     0.000 C 
BRANCH   2   3
ATOM      3  C   UNL     1      44.159  56.852  47.598  1.00  0.00     0.000 C 
BRANCH   3   4
ATOM      4  C   UNL     1      45.617  56.577  48.004  1.00  0.00     0.000 C 
BRANCH   4   5
ATOM      5  C   UNL     1      46.229  57.724  48.824  1.00  0.00     0.000 C 
BRANCH   5   6
ATOM      6  C   UNL     1      45.394  58.081  50.063  1.00  0.00     0.000 C 
BRANCH   6   7
ATOM      7  C   UNL     1      45.283  59.604  50.228  1.00  0.00     0.006 C 
BRANCH   7   8
ATOM      8  C   UNL     1      45.300  60.338  48.880  1.00  0.00     0.053 C 
BRANCH   8   9
ATOM      9  C   UNL     1      45.137  61.817  49.053  1.00  0.00     0.041 C 
ATOM     10  O   UNL     1      46.041  62.604  48.668  1.00  0.00    -0.550 OA
ATOM     11  O   UNL     1      44.000  62.324  49.667  1.00  0.00    -0.550 OA
ENDBRANCH   8   9
ENDBRANCH   7   8
ENDBRANCH   6   7
ENDBRANCH   5   6
ENDBRANCH   4   5
ENDBRANCH   3   4
ENDBRANCH   2   3
ENDBRANCH   1   2
BRANCH   1  12
ATOM     12  C   UNL     1      41.876  58.975  45.870  1.00  0.00     0.000 C 
BRANCH  12  13
ATOM     13  C   UNL     1      42.530  59.916  46.899  1.00  0.00    -0.000 C 
BRANCH  13  14
ATOM     14  C   UNL     1      41.608  60.223  48.091  1.00  0.00    -0.000 C 
BRANCH  14  15
ATOM     15  C   UNL     1      41.969  59.399  49.339  1.00  0.00    -0.000 C 
BRANCH  15  16
ATOM     16  C   UNL     1      41.311  58.008  49.345  1.00  0.00    -0.000 C 
BRANCH  16  17
ATOM     17  C   UNL     1      39.786  58.007  49.125  1.00  0.00    -0.000 C 
BRANCH  17  18
ATOM     18  C   UNL     1      39.339  57.255  47.855  1.00  0.00    -0.000 C 
BRANCH  18  19
ATOM     19  C   UNL     1      40.337  56.163  47.442  1.00  0.00    -0.003 C 
ATOM     20  C   UNL     1      39.615  54.893  47.004  1.00  0.00     0.004 C 
ENDBRANCH  18  19
ENDBRANCH  17  18
ENDBRANCH  16  17
ENDBRANCH  15  16
ENDBRANCH  14  15
ENDBRANCH  13  14
ENDBRANCH  12  13
ENDBRANCH   1  12
TORSDOF 16
ENDMDL
MODEL 7
REMARK VINA RESULT:    -3.996      1.667      4.029
REMARK INTER + INTRA:         -10.209
REMARK INTER:                  -7.985
REMARK INTRA:                  -2.224
REMARK UNBOUND:                -2.475
REMARK SMILES CCCCCCCCCCCCCCCCCC(=O)[O-]
REMARK SMILES IDX 10 1 11 2 12 3 13 4 14 5 15 6 16 7 17 8 18 9 19 10 20 11
REMARK SMILES IDX 9 12 8 13 7 14 6 15 5 16 4 17 3 18 2 19 1 20
REMARK H PARENT
REMARK Flexibility Score: inf
ROOT
ATOM      1  C   UNL     1      45.373  60.456  49.111  1.00  0.00     0.000 C 
ENDROOT
BRANCH   1   2
ATOM      2  C   UNL     1      45.189  59.589  50.370  1.00  0.00     0.000 C 
BRANCH   2   3
ATOM      3  C   UNL     1      45.199  58.084  50.056  1.00  0.00     0.000 C 
BRANCH   3   4
ATOM      4  C   UNL     1      46.018  57.749  48.797  1.00  0.00     0.000 C 
BRANCH   4   5
ATOM      5  C   UNL     1      45.414  56.590  47.989  1.00  0.00     0.000 C 
BRANCH   5   6
ATOM      6  C   UNL     1      44.027  56.922  47.418  1.00  0.00     0.000 C 
BRANCH   6   7
ATOM      7  C   UNL     1      44.070  58.219  46.596  1.00  0.00     0.006 C 
BRANCH   7   8
ATOM      8  C   UNL     1      44.035  57.951  45.084  1.00  0.00     0.053 C 
BRANCH   8   9
ATOM      9  C   UNL     1      42.716  57.386  44.652  1.00  0.00     0.041 C 
ATOM     10  O   UNL     1      42.674  56.392  43.881  1.00  0.00    -0.550 OA
ATOM     11  O   UNL     1      41.534  57.979  45.076  1.00  0.00    -0.550 OA
ENDBRANCH   8   9
ENDBRANCH   7   8
ENDBRANCH   6   7
ENDBRANCH   5   6
ENDBRANCH   4   5
ENDBRANCH   3   4
ENDBRANCH   2   3
ENDBRANCH   1   2
BRANCH   1  12
ATOM     12  C   UNL     1      44.361  61.611  49.039  1.00  0.00     0.000 C 
BRANCH  12  13
ATOM     13  C   UNL     1      43.089  61.338  49.863  1.00  0.00    -0.000 C 
BRANCH  13  14
ATOM     14  C   UNL     1      41.822  61.275  48.995  1.00  0.00    -0.000 C 
BRANCH  14  15
ATOM     15  C   UNL     1      41.641  59.907  48.317  1.00  0.00    -0.000 C 
BRANCH  15  16
ATOM     16  C   UNL     1      41.647  58.740  49.320  1.00  0.00    -0.000 C 
BRANCH  16  17
ATOM     17  C   UNL     1      40.291  58.032  49.506  1.00  0.00    -0.000 C 
BRANCH  17  18
ATOM     18  C   UNL     1      39.668  57.522  48.190  1.00  0.00    -0.000 C 
BRANCH  18  19
ATOM     19  C   UNL     1      40.510  56.416  47.537  1.00  0.00    -0.003 C 
ATOM     20  C   UNL     1      39.622  55.342  46.914  1.00  0.00     0.004 C 
ENDBRANCH  18  19
ENDBRANCH  17  18
ENDBRANCH  16  17
ENDBRANCH  15  16
ENDBRANCH  14  15
ENDBRANCH  13  14
ENDBRANCH  12  13
ENDBRANCH   1  12
TORSDOF 16
ENDMDL
MODEL 8
REMARK VINA RESULT:    -3.989      2.813      6.108
REMARK INTER + INTRA:         -10.196
REMARK INTER:                  -7.920
REMARK INTRA:                  -2.276
REMARK UNBOUND:                -2.475
REMARK SMILES CCCCCCCCCCCCCCCCCC(=O)[O-]
REMARK SMILES IDX 10 1 11 2 12 3 13 4 14 5 15 6 16 7 17 8 18 9 19 10 20 11
REMARK SMILES IDX 9 12 8 13 7 14 6 15 5 16 4 17 3 18 2 19 1 20
REMARK H PARENT
REMARK Flexibility Score: inf
ROOT
ATOM      1  C   UNL     1      40.449  58.050  49.495  1.00  0.00     0.000 C 
ENDROOT
BRANCH   1   2
ATOM      2  C   UNL     1      41.742  58.800  49.126  1.00  0.00     0.000 C 
BRANCH   2   3
ATOM      3  C   UNL     1      41.472  60.078  48.315  1.00  0.00     0.000 C 
BRANCH   3   4
ATOM      4  C   UNL     1      41.928  61.350  49.050  1.00  0.00     0.000 C 
BRANCH   4   5
ATOM      5  C   UNL     1      43.239  61.147  49.828  1.00  0.00     0.000 C 
BRANCH   5   6
ATOM      6  C   UNL     1      44.460  61.002  48.907  1.00  0.00     0.000 C 
BRANCH   6   7
ATOM      7  C   UNL     1      45.476  60.013  49.497  1.00  0.00     0.006 C 
BRANCH   7   8
ATOM      8  C   UNL     1      44.875  59.166  50.627  1.00  0.00     0.053 C 
BRANCH   8   9
ATOM      9  C   UNL     1      45.900  58.270  51.253  1.00  0.00     0.041 C 
ATOM     10  O   UNL     1      45.861  58.028  52.488  1.00  0.00    -0.550 OA
ATOM     11  O   UNL     1      46.916  57.728  50.477  1.00  0.00    -0.550 OA
ENDBRANCH   8   9
ENDBRANCH   7   8
ENDBRANCH   6   7
ENDBRANCH   5   6
ENDBRANCH   4   5
ENDBRANCH   3   4
ENDBRANCH   2   3
ENDBRANCH   1   2
BRANCH   1  12
ATOM     12  C   UNL     1      39.643  57.624  48.258  1.00  0.00     0.000 C 
BRANCH  12  13
ATOM     13  C   UNL     1      40.430  56.679  47.333  1.00  0.00    -0.000 C 
BRANCH  13  14
ATOM     14  C   UNL     1      40.271  57.036  45.846  1.00  0.00    -0.000 C 
BRANCH  14  15
ATOM     15  C   UNL     1      41.403  57.945  45.336  1.00  0.00    -0.000 C 
BRANCH  15  16
ATOM     16  C   UNL     1      42.611  57.152  44.808  1.00  0.00    -0.000 C 
BRANCH  16  17
ATOM     17  C   UNL     1      43.988  57.726  45.196  1.00  0.00    -0.000 C 
BRANCH  17  18
ATOM     18  C   UNL     1      44.098  58.134  46.680  1.00  0.00    -0.000 C 
BRANCH  18  19
ATOM     19  C   UNL     1      44.173  56.918  47.614  1.00  0.00    -0.003 C 
ATOM     20  C   UNL     1      45.620  56.525  47.893  1.00  0.00     0.004 C 
ENDBRANCH  18  19
ENDBRANCH  17  18
ENDBRANCH  16  17
ENDBRANCH  15  16
ENDBRANCH  14  15
ENDBRANCH  13  14
ENDBRANCH  12  13
ENDBRANCH   1  12
TORSDOF 16
ENDMDL
MODEL 9
REMARK VINA RESULT:    -3.967      0.687      2.455
REMARK INTER + INTRA:         -10.153
REMARK INTER:                  -7.635
REMARK INTRA:                  -2.518
REMARK UNBOUND:                -2.475
REMARK SMILES CCCCCCCCCCCCCCCCCC(=O)[O-]
REMARK SMILES IDX 10 1 11 2 12 3 13 4 14 5 15 6 16 7 17 8 18 9 19 10 20 11
REMARK SMILES IDX 9 12 8 13 7 14 6 15 5 16 4 17 3 18 2 19 1 20
REMARK H PARENT
REMARK Flexibility Score: inf
ROOT
ATOM      1  C   UNL     1      45.013  57.664  48.378  1.00  0.00     0.000 C 
ENDROOT
BRANCH   1   2
ATOM      2  C   UNL     1      44.261  57.153  47.136  1.00  0.00     0.000 C 
BRANCH   2   3
ATOM      3  C   UNL     1      44.082  58.243  46.065  1.00  0.00     0.000 C 
BRANCH   3   4
ATOM      4  C   UNL     1      43.865  57.658  44.659  1.00  0.00     0.000 C 
BRANCH   4   5
ATOM      5  C   UNL     1      42.463  57.055  44.479  1.00  0.00     0.000 C 
BRANCH   5   6
ATOM      6  C   UNL     1      41.340  58.060  44.778  1.00  0.00     0.000 C 
BRANCH   6   7
ATOM      7  C   UNL     1      40.323  57.467  45.764  1.00  0.00     0.006 C 
BRANCH   7   8
ATOM      8  C   UNL     1      40.820  56.160  46.397  1.00  0.00     0.053 C 
BRANCH   8   9
ATOM      9  C   UNL     1      39.774  55.532  47.266  1.00  0.00     0.041 C 
ATOM     10  O   UNL     1      39.575  54.289  47.223  1.00  0.00    -0.550 OA
ATOM     11  O   UNL     1      38.997  56.324  48.101  1.00  0.00    -0.550 OA
ENDBRANCH   8   9
ENDBRANCH   7   8
ENDBRANCH   6   7
ENDBRANCH   5   6
ENDBRANCH   4   5
ENDBRANCH   3   4
ENDBRANCH   2   3
ENDBRANCH   1   2
BRANCH   1  12
ATOM     12  C   UNL     1      44.084  57.868  49.585  1.00  0.00     0.000 C 
BRANCH  12  13
ATOM     13  C   UNL     1      42.673  57.298  49.352  1.00  0.00    -0.000 C 
BRANCH  13  14
ATOM     14  C   UNL     1      41.564  58.323  49.638  1.00  0.00    -0.000 C 
BRANCH  14  15
ATOM     15  C   UNL     1      41.155  59.113  48.383  1.00  0.00    -0.000 C 
BRANCH  15  16
ATOM     16  C   UNL     1      42.036  60.352  48.146  1.00  0.00    -0.000 C 
BRANCH  16  17
ATOM     17  C   UNL     1      42.038  61.380  49.294  1.00  0.00    -0.000 C 
BRANCH  17  18
ATOM     18  C   UNL     1      43.440  61.677  49.864  1.00  0.00    -0.000 C 
BRANCH  18  19
ATOM     19  C   UNL     1      44.562  61.163  48.950  1.00  0.00    -0.003 C 
ATOM     20  C   UNL     1      45.768  62.096  48.979  1.00  0.00     0.004 C 
ENDBRANCH  18  19
ENDBRANCH  17  18
ENDBRANCH  16  17
ENDBRANCH  15  16
ENDBRANCH  14  15
ENDBRANCH  13  14
ENDBRANCH  12  13
ENDBRANCH   1  12
TORSDOF 16
ENDMDL
