MODEL 1
REMARK VINA RESULT:    -5.872      0.000      0.000
REMARK INTER + INTRA:          -6.241
REMARK INTER:                  -6.215
REMARK INTRA:                  -0.026
REMARK UNBOUND:                -0.026
REMARK SMILES CC1=C[C@@H]2C(=C(C)CC[C@@H]2C(C)C)CC1
REMARK SMILES IDX 1 1 2 2 3 3 4 4 10 5 9 6 8 7 6 8 5 9 14 10 15 11 7 12 11 13
REMARK SMILES IDX 12 14 13 15
REMARK H PARENT
REMARK Flexibility Score: inf
ROOT
ATOM      1  C   UNL     1     -49.335 -50.344  17.884  1.00  0.00     0.039 C 
ATOM      2  C   UNL     1     -50.499 -50.203  18.825  1.00  0.00    -0.076 C 
ATOM      3  C   UNL     1     -50.313 -49.691  20.053  1.00  0.00    -0.020 C 
ATOM      4  C   UNL     1     -51.477 -49.516  21.007  1.00  0.00     0.041 C 
ATOM      5  C   UNL     1     -51.148 -48.545  22.172  1.00  0.00     0.003 C 
ATOM      6  C   UNL     1     -52.392 -48.452  23.077  1.00  0.00     0.009 C 
ATOM      7  C   UNL     1     -53.636 -47.959  22.335  1.00  0.00     0.031 C 
ATOM      8  C   UNL     1     -53.767 -48.463  20.908  1.00  0.00    -0.073 C 
ATOM      9  C   UNL     1     -52.768 -49.145  20.274  1.00  0.00    -0.064 C 
ATOM     10  C   UNL     1     -52.934 -49.601  18.826  1.00  0.00     0.036 C 
ATOM     11  C   UNL     1     -51.883 -50.639  18.413  1.00  0.00     0.035 C 
ATOM     12  C   UNL     1     -55.038 -48.086  20.180  1.00  0.00     0.039 C 
ENDROOT
BRANCH   5  13
ATOM     13  C   UNL     1     -50.489 -47.173  21.762  1.00  0.00    -0.013 C 
ATOM     14  C   UNL     1     -51.048 -45.919  22.457  1.00  0.00     0.007 C 
ATOM     15  C   UNL     1     -48.957 -47.198  21.879  1.00  0.00     0.007 C 
ENDBRANCH   5  13
TORSDOF 1
ENDMDL
MODEL 2
REMARK VINA RESULT:    -5.864      1.185      4.604
REMARK INTER + INTRA:          -6.233
REMARK INTER:                  -6.196
REMARK INTRA:                  -0.037
REMARK UNBOUND:                -0.026
REMARK SMILES CC1=C[C@@H]2C(=C(C)CC[C@@H]2C(C)C)CC1
REMARK SMILES IDX 1 1 2 2 3 3 4 4 10 5 9 6 8 7 6 8 5 9 14 10 15 11 7 12 11 13
REMARK SMILES IDX 12 14 13 15
REMARK H PARENT
REMARK Flexibility Score: inf
ROOT
ATOM      1  C   UNL     1     -56.074 -47.457  20.527  1.00  0.00     0.039 C 
ATOM      2  C   UNL     1     -54.821 -47.630  21.339  1.00  0.00    -0.076 C 
ATOM      3  C   UNL     1     -53.965 -48.625  21.051  1.00  0.00    -0.020 C 
ATOM      4  C   UNL     1     -52.683 -48.801  21.840  1.00  0.00     0.041 C 
ATOM      5  C   UNL     1     -51.656 -49.705  21.108  1.00  0.00     0.003 C 
ATOM      6  C   UNL     1     -50.405 -49.820  22.001  1.00  0.00     0.009 C 
ATOM      7  C   UNL     1     -49.765 -48.465  22.311  1.00  0.00     0.031 C 
ATOM      8  C   UNL     1     -50.753 -47.329  22.524  1.00  0.00    -0.073 C 
ATOM      9  C   UNL     1     -52.089 -47.459  22.273  1.00  0.00    -0.064 C 
ATOM     10  C   UNL     1     -53.036 -46.278  22.469  1.00  0.00     0.036 C 
ATOM     11  C   UNL     1     -54.509 -46.703  22.487  1.00  0.00     0.035 C 
ATOM     12  C   UNL     1     -50.163 -46.001  22.941  1.00  0.00     0.039 C 
ENDROOT
BRANCH   5  13
ATOM     13  C   UNL     1     -51.392 -49.362  19.591  1.00  0.00    -0.013 C 
ATOM     14  C   UNL     1     -49.919 -49.178  19.185  1.00  0.00     0.007 C 
ATOM     15  C   UNL     1     -52.080 -50.351  18.637  1.00  0.00     0.007 C 
ENDBRANCH   5  13
TORSDOF 1
ENDMDL
MODEL 3
REMARK VINA RESULT:    -5.753     10.290     13.345
REMARK INTER + INTRA:          -6.116
REMARK INTER:                  -6.095
REMARK INTRA:                  -0.020
REMARK UNBOUND:                -0.026
REMARK SMILES CC1=C[C@@H]2C(=C(C)CC[C@@H]2C(C)C)CC1
REMARK SMILES IDX 1 1 2 2 3 3 4 4 10 5 9 6 8 7 6 8 5 9 14 10 15 11 7 12 11 13
REMARK SMILES IDX 12 14 13 15
REMARK H PARENT
REMARK Flexibility Score: inf
ROOT
ATOM      1  C   UNL     1     -44.914 -51.115  31.813  1.00  0.00     0.039 C 
ATOM      2  C   UNL     1     -43.710 -50.832  30.959  1.00  0.00    -0.076 C 
ATOM      3  C   UNL     1     -43.865 -50.336  29.720  1.00  0.00    -0.020 C 
ATOM      4  C   UNL     1     -42.663 -50.019  28.853  1.00  0.00     0.041 C 
ATOM      5  C   UNL     1     -43.019 -49.084  27.667  1.00  0.00     0.003 C 
ATOM      6  C   UNL     1     -41.732 -48.839  26.855  1.00  0.00     0.009 C 
ATOM      7  C   UNL     1     -40.611 -48.209  27.684  1.00  0.00     0.031 C 
ATOM      8  C   UNL     1     -40.525 -48.706  29.118  1.00  0.00    -0.073 C 
ATOM      9  C   UNL     1     -41.481 -49.505  29.678  1.00  0.00    -0.064 C 
ATOM     10  C   UNL     1     -41.369 -49.950  31.134  1.00  0.00     0.036 C 
ATOM     11  C   UNL     1     -42.318 -51.106  31.471  1.00  0.00     0.035 C 
ATOM     12  C   UNL     1     -39.364 -48.189  29.936  1.00  0.00     0.039 C 
ENDROOT
BRANCH   5  13
ATOM     13  C   UNL     1     -43.862 -47.801  28.027  1.00  0.00    -0.013 C 
ATOM     14  C   UNL     1     -43.185 -46.446  27.752  1.00  0.00     0.007 C 
ATOM     15  C   UNL     1     -45.264 -47.823  27.398  1.00  0.00     0.007 C 
ENDBRANCH   5  13
TORSDOF 1
ENDMDL
MODEL 4
REMARK VINA RESULT:    -5.703     10.113     13.001
REMARK INTER + INTRA:          -6.063
REMARK INTER:                  -6.023
REMARK INTRA:                  -0.040
REMARK UNBOUND:                -0.026
REMARK SMILES CC1=C[C@@H]2C(=C(C)CC[C@@H]2C(C)C)CC1
REMARK SMILES IDX 1 1 2 2 3 3 4 4 10 5 9 6 8 7 6 8 5 9 14 10 15 11 7 12 11 13
REMARK SMILES IDX 12 14 13 15
REMARK H PARENT
REMARK Flexibility Score: inf
ROOT
ATOM      1  C   UNL     1     -38.264 -48.502  28.508  1.00  0.00     0.039 C 
ATOM      2  C   UNL     1     -39.653 -48.479  29.084  1.00  0.00    -0.076 C 
ATOM      3  C   UNL     1     -40.698 -48.149  28.306  1.00  0.00    -0.020 C 
ATOM      4  C   UNL     1     -42.109 -48.145  28.860  1.00  0.00     0.041 C 
ATOM      5  C   UNL     1     -43.184 -48.159  27.742  1.00  0.00     0.003 C 
ATOM      6  C   UNL     1     -44.569 -48.144  28.417  1.00  0.00     0.009 C 
ATOM      7  C   UNL     1     -44.791 -49.332  29.355  1.00  0.00     0.031 C 
ATOM      8  C   UNL     1     -43.563 -49.758  30.143  1.00  0.00    -0.073 C 
ATOM      9  C   UNL     1     -42.319 -49.249  29.899  1.00  0.00    -0.064 C 
ATOM     10  C   UNL     1     -41.110 -49.734  30.694  1.00  0.00     0.036 C 
ATOM     11  C   UNL     1     -39.894 -48.813  30.535  1.00  0.00     0.035 C 
ATOM     12  C   UNL     1     -43.770 -50.857  31.161  1.00  0.00     0.039 C 
ENDROOT
BRANCH   5  13
ATOM     13  C   UNL     1     -42.983 -49.231  26.604  1.00  0.00    -0.013 C 
ATOM     14  C   UNL     1     -44.210 -50.097  26.264  1.00  0.00     0.007 C 
ATOM     15  C   UNL     1     -42.399 -48.623  25.319  1.00  0.00     0.007 C 
ENDBRANCH   5  13
TORSDOF 1
ENDMDL
MODEL 5
REMARK VINA RESULT:    -5.662     10.311     12.679
REMARK INTER + INTRA:          -6.020
REMARK INTER:                  -6.002
REMARK INTRA:                  -0.018
REMARK UNBOUND:                -0.026
REMARK SMILES CC1=C[C@@H]2C(=C(C)CC[C@@H]2C(C)C)CC1
REMARK SMILES IDX 1 1 2 2 3 3 4 4 10 5 9 6 8 7 6 8 5 9 14 10 15 11 7 12 11 13
REMARK SMILES IDX 12 14 13 15
REMARK H PARENT
REMARK Flexibility Score: inf
ROOT
ATOM      1  C   UNL     1     -38.481 -48.099  29.042  1.00  0.00     0.039 C 
ATOM      2  C   UNL     1     -39.845 -48.075  28.411  1.00  0.00    -0.076 C 
ATOM      3  C   UNL     1     -40.720 -49.062  28.663  1.00  0.00    -0.020 C 
ATOM      4  C   UNL     1     -42.110 -49.043  28.058  1.00  0.00     0.041 C 
ATOM      5  C   UNL     1     -43.086 -50.006  28.784  1.00  0.00     0.003 C 
ATOM      6  C   UNL     1     -44.455 -49.911  28.082  1.00  0.00     0.009 C 
ATOM      7  C   UNL     1     -45.034 -48.494  28.088  1.00  0.00     0.031 C 
ATOM      8  C   UNL     1     -44.007 -47.387  27.912  1.00  0.00    -0.073 C 
ATOM      9  C   UNL     1     -42.662 -47.621  27.936  1.00  0.00    -0.064 C 
ATOM     10  C   UNL     1     -41.669 -46.470  27.789  1.00  0.00     0.036 C 
ATOM     11  C   UNL     1     -40.247 -46.956  27.483  1.00  0.00     0.035 C 
ATOM     12  C   UNL     1     -44.553 -45.981  27.803  1.00  0.00     0.039 C 
ENDROOT
BRANCH   5  13
ATOM     13  C   UNL     1     -43.110 -49.908  30.357  1.00  0.00    -0.013 C 
ATOM     14  C   UNL     1     -44.497 -49.977  31.020  1.00  0.00     0.007 C 
ATOM     15  C   UNL     1     -42.160 -50.917  31.023  1.00  0.00     0.007 C 
ENDBRANCH   5  13
TORSDOF 1
ENDMDL
MODEL 6
REMARK VINA RESULT:    -5.545      2.930      6.404
REMARK INTER + INTRA:          -5.896
REMARK INTER:                  -5.926
REMARK INTRA:                   0.030
REMARK UNBOUND:                -0.026
REMARK SMILES CC1=C[C@@H]2C(=C(C)CC[C@@H]2C(C)C)CC1
REMARK SMILES IDX 1 1 2 2 3 3 4 4 10 5 9 6 8 7 6 8 5 9 14 10 15 11 7 12 11 13
REMARK SMILES IDX 12 14 13 15
REMARK H PARENT
REMARK Flexibility Score: inf
ROOT
ATOM      1  C   UNL     1     -51.506 -51.125  20.012  1.00  0.00     0.039 C 
ATOM      2  C   UNL     1     -50.305 -50.403  19.466  1.00  0.00    -0.076 C 
ATOM      3  C   UNL     1     -49.693 -50.858  18.361  1.00  0.00    -0.020 C 
ATOM      4  C   UNL     1     -48.497 -50.131  17.779  1.00  0.00     0.041 C 
ATOM      5  C   UNL     1     -48.207 -50.547  16.313  1.00  0.00     0.003 C 
ATOM      6  C   UNL     1     -46.974 -49.757  15.832  1.00  0.00     0.009 C 
ATOM      7  C   UNL     1     -47.169 -48.241  15.905  1.00  0.00     0.031 C 
ATOM      8  C   UNL     1     -47.962 -47.759  17.108  1.00  0.00    -0.073 C 
ATOM      9  C   UNL     1     -48.609 -48.615  17.953  1.00  0.00    -0.064 C 
ATOM     10  C   UNL     1     -49.422 -48.080  19.129  1.00  0.00     0.036 C 
ATOM     11  C   UNL     1     -49.767 -49.172  20.150  1.00  0.00     0.035 C 
ATOM     12  C   UNL     1     -48.081 -46.261  17.273  1.00  0.00     0.039 C 
ENDROOT
BRANCH   5  13
ATOM     13  C   UNL     1     -49.446 -50.552  15.337  1.00  0.00    -0.013 C 
ATOM     14  C   UNL     1     -49.463 -49.456  14.257  1.00  0.00     0.007 C 
ATOM     15  C   UNL     1     -49.680 -51.927  14.693  1.00  0.00     0.007 C 
ENDBRANCH   5  13
TORSDOF 1
ENDMDL
MODEL 7
REMARK VINA RESULT:    -5.515     10.103     12.582
REMARK INTER + INTRA:          -5.864
REMARK INTER:                  -6.067
REMARK INTRA:                   0.203
REMARK UNBOUND:                -0.026
REMARK SMILES CC1=C[C@@H]2C(=C(C)CC[C@@H]2C(C)C)CC1
REMARK SMILES IDX 1 1 2 2 3 3 4 4 10 5 9 6 8 7 6 8 5 9 14 10 15 11 7 12 11 13
REMARK SMILES IDX 12 14 13 15
REMARK H PARENT
REMARK Flexibility Score: inf
ROOT
ATOM      1  C   UNL     1     -43.743 -50.757  31.122  1.00  0.00     0.039 C 
ATOM      2  C   UNL     1     -43.664 -49.884  29.901  1.00  0.00    -0.076 C 
ATOM      3  C   UNL     1     -42.696 -48.959  29.797  1.00  0.00    -0.020 C 
ATOM      4  C   UNL     1     -42.582 -48.087  28.562  1.00  0.00     0.041 C 
ATOM      5  C   UNL     1     -41.194 -47.405  28.444  1.00  0.00     0.003 C 
ATOM      6  C   UNL     1     -41.197 -46.542  27.167  1.00  0.00     0.009 C 
ATOM      7  C   UNL     1     -41.479 -47.352  25.899  1.00  0.00     0.031 C 
ATOM      8  C   UNL     1     -42.499 -48.466  26.070  1.00  0.00    -0.073 C 
ATOM      9  C   UNL     1     -42.983 -48.839  27.291  1.00  0.00    -0.064 C 
ATOM     10  C   UNL     1     -43.980 -49.988  27.415  1.00  0.00     0.036 C 
ATOM     11  C   UNL     1     -44.669 -50.024  28.784  1.00  0.00     0.035 C 
ATOM     12  C   UNL     1     -42.885 -49.216  24.815  1.00  0.00     0.039 C 
ENDROOT
BRANCH   5  13
ATOM     13  C   UNL     1     -39.943 -48.345  28.638  1.00  0.00    -0.013 C 
ATOM     14  C   UNL     1     -39.900 -49.606  27.756  1.00  0.00     0.007 C 
ATOM     15  C   UNL     1     -38.613 -47.584  28.531  1.00  0.00     0.007 C 
ENDBRANCH   5  13
TORSDOF 1
ENDMDL
MODEL 8
REMARK VINA RESULT:    -5.413      1.893      4.195
REMARK INTER + INTRA:          -5.756
REMARK INTER:                  -5.826
REMARK INTRA:                   0.070
REMARK UNBOUND:                -0.026
REMARK SMILES CC1=C[C@@H]2C(=C(C)CC[C@@H]2C(C)C)CC1
REMARK SMILES IDX 1 1 2 2 3 3 4 4 10 5 9 6 8 7 6 8 5 9 14 10 15 11 7 12 11 13
REMARK SMILES IDX 12 14 13 15
REMARK H PARENT
REMARK Flexibility Score: inf
ROOT
ATOM      1  C   UNL     1     -48.780 -48.293  25.516  1.00  0.00     0.039 C 
ATOM      2  C   UNL     1     -49.565 -48.888  24.380  1.00  0.00    -0.076 C 
ATOM      3  C   UNL     1     -50.885 -48.658  24.282  1.00  0.00    -0.020 C 
ATOM      4  C   UNL     1     -51.690 -49.226  23.131  1.00  0.00     0.041 C 
ATOM      5  C   UNL     1     -53.061 -48.520  22.961  1.00  0.00     0.003 C 
ATOM      6  C   UNL     1     -53.791 -49.182  21.776  1.00  0.00     0.009 C 
ATOM      7  C   UNL     1     -53.005 -49.095  20.465  1.00  0.00     0.031 C 
ATOM      8  C   UNL     1     -51.500 -49.247  20.615  1.00  0.00    -0.073 C 
ATOM      9  C   UNL     1     -50.881 -49.269  21.832  1.00  0.00    -0.064 C 
ATOM     10  C   UNL     1     -49.362 -49.388  21.930  1.00  0.00     0.036 C 
ATOM     11  C   UNL     1     -48.891 -49.752  23.344  1.00  0.00     0.035 C 
ATOM     12  C   UNL     1     -50.701 -49.277  19.332  1.00  0.00     0.039 C 
ENDROOT
BRANCH   5  13
ATOM     13  C   UNL     1     -53.031 -46.944  22.960  1.00  0.00    -0.013 C 
ATOM     14  C   UNL     1     -54.126 -46.246  22.134  1.00  0.00     0.007 C 
ATOM     15  C   UNL     1     -52.989 -46.356  24.379  1.00  0.00     0.007 C 
ENDBRANCH   5  13
TORSDOF 1
ENDMDL
MODEL 9
REMARK VINA RESULT:    -5.312      1.275      3.922
REMARK INTER + INTRA:          -5.649
REMARK INTER:                  -5.620
REMARK INTRA:                  -0.030
REMARK UNBOUND:                -0.026
REMARK SMILES CC1=C[C@@H]2C(=C(C)CC[C@@H]2C(C)C)CC1
REMARK SMILES IDX 1 1 2 2 3 3 4 4 10 5 9 6 8 7 6 8 5 9 14 10 15 11 7 12 11 13
REMARK SMILES IDX 12 14 13 15
REMARK H PARENT
REMARK Flexibility Score: inf
ROOT
ATOM      1  C   UNL     1     -55.549 -48.820  21.372  1.00  0.00     0.039 C 
ATOM      2  C   UNL     1     -54.178 -48.669  20.774  1.00  0.00    -0.076 C 
ATOM      3  C   UNL     1     -53.141 -48.316  21.552  1.00  0.00    -0.020 C 
ATOM      4  C   UNL     1     -51.746 -48.183  20.975  1.00  0.00     0.041 C 
ATOM      5  C   UNL     1     -50.648 -48.191  22.071  1.00  0.00     0.003 C 
ATOM      6  C   UNL     1     -49.282 -48.041  21.374  1.00  0.00     0.009 C 
ATOM      7  C   UNL     1     -49.002 -49.154  20.361  1.00  0.00     0.031 C 
ATOM      8  C   UNL     1     -50.216 -49.614  19.571  1.00  0.00    -0.073 C 
ATOM      9  C   UNL     1     -51.485 -49.206  19.867  1.00  0.00    -0.064 C 
ATOM     10  C   UNL     1     -52.676 -49.724  19.066  1.00  0.00     0.036 C 
ATOM     11  C   UNL     1     -53.947 -48.899  19.302  1.00  0.00     0.035 C 
ATOM     12  C   UNL     1     -49.958 -50.634  18.485  1.00  0.00     0.039 C 
ENDROOT
BRANCH   5  13
ATOM     13  C   UNL     1     -50.753 -49.340  23.145  1.00  0.00    -0.013 C 
ATOM     14  C   UNL     1     -49.438 -50.058  23.500  1.00  0.00     0.007 C 
ATOM     15  C   UNL     1     -51.462 -48.882  24.429  1.00  0.00     0.007 C 
ENDBRANCH   5  13
TORSDOF 1
ENDMDL
