MODEL 1
REMARK VINA RESULT:     4.834      0.000      0.000
REMARK INTER + INTRA:           6.555
REMARK INTER:                   6.813
REMARK INTRA:                  -0.258
REMARK UNBOUND:                -0.258
REMARK SMILES CCCCCCCCC(=O)[O-]
REMARK SMILES IDX 6 1 7 2 8 3 9 4 10 5 11 6 5 7 4 8 3 9 2 10 1 11
REMARK H PARENT
REMARK Flexibility Score: inf
ROOT
ATOM      1  C   UNL     1      17.173  17.449  17.092  1.00  0.00     0.000 C 
ENDROOT
BRANCH   1   2
ATOM      2  C   UNL     1      16.196  17.325  18.268  1.00  0.00     0.006 C 
BRANCH   2   3
ATOM      3  C   UNL     1      16.740  18.035  19.511  1.00  0.00     0.053 C 
BRANCH   3   4
ATOM      4  C   UNL     1      17.866  17.255  20.110  1.00  0.00     0.041 C 
ATOM      5  O   UNL     1      17.690  16.059  20.463  1.00  0.00    -0.550 OA
ATOM      6  O   UNL     1      19.124  17.832  20.233  1.00  0.00    -0.550 OA
ENDBRANCH   3   4
ENDBRANCH   2   3
ENDBRANCH   1   2
BRANCH   1   7
ATOM      7  C   UNL     1      16.421  17.576  15.762  1.00  0.00     0.000 C 
BRANCH   7   8
ATOM      8  C   UNL     1      17.240  16.975  14.608  1.00  0.00    -0.000 C 
BRANCH   8   9
ATOM      9  C   UNL     1      18.088  18.025  13.875  1.00  0.00    -0.000 C 
BRANCH   9  10
ATOM     10  C   UNL     1      17.767  19.459  14.319  1.00  0.00    -0.003 C 
ATOM     11  C   UNL     1      18.906  20.412  13.964  1.00  0.00     0.004 C 
ENDBRANCH   9  10
ENDBRANCH   8   9
ENDBRANCH   7   8
ENDBRANCH   1   7
TORSDOF 7
ENDMDL
MODEL 2
REMARK VINA RESULT:     5.174      3.088      5.470
REMARK INTER + INTRA:           7.033
REMARK INTER:                   7.361
REMARK INTRA:                  -0.327
REMARK UNBOUND:                -0.258
REMARK SMILES CCCCCCCCC(=O)[O-]
REMARK SMILES IDX 6 1 7 2 8 3 9 4 10 5 11 6 5 7 4 8 3 9 2 10 1 11
REMARK H PARENT
REMARK Flexibility Score: inf
ROOT
ATOM      1  C   UNL     1      16.046  17.875  17.875  1.00  0.00     0.000 C 
ENDROOT
BRANCH   1   2
ATOM      2  C   UNL     1      17.067  17.475  16.803  1.00  0.00     0.006 C 
BRANCH   2   3
ATOM      3  C   UNL     1      16.416  17.419  15.418  1.00  0.00     0.053 C 
BRANCH   3   4
ATOM      4  C   UNL     1      17.460  17.303  14.353  1.00  0.00     0.041 C 
ATOM      5  O   UNL     1      18.039  18.333  13.919  1.00  0.00    -0.550 OA
ATOM      6  O   UNL     1      17.830  16.052  13.875  1.00  0.00    -0.550 OA
ENDBRANCH   3   4
ENDBRANCH   2   3
ENDBRANCH   1   2
BRANCH   1   7
ATOM      7  C   UNL     1      16.291  17.112  19.182  1.00  0.00     0.000 C 
BRANCH   7   8
ATOM      8  C   UNL     1      17.777  17.160  19.576  1.00  0.00    -0.000 C 
BRANCH   8   9
ATOM      9  C   UNL     1      18.009  17.864  20.921  1.00  0.00    -0.000 C 
BRANCH   9  10
ATOM     10  C   UNL     1      19.451  18.368  21.083  1.00  0.00    -0.003 C 
ATOM     11  C   UNL     1      20.328  17.906  19.922  1.00  0.00     0.004 C 
ENDBRANCH   9  10
ENDBRANCH   8   9
ENDBRANCH   7   8
ENDBRANCH   1   7
TORSDOF 7
ENDMDL
MODEL 3
REMARK VINA RESULT:     5.269      1.160      1.868
REMARK INTER + INTRA:           7.168
REMARK INTER:                   7.461
REMARK INTRA:                  -0.294
REMARK UNBOUND:                -0.258
REMARK SMILES CCCCCCCCC(=O)[O-]
REMARK SMILES IDX 6 1 7 2 8 3 9 4 10 5 11 6 5 7 4 8 3 9 2 10 1 11
REMARK H PARENT
REMARK Flexibility Score: inf
ROOT
ATOM      1  C   UNL     1      16.274  17.389  18.448  1.00  0.00     0.000 C 
ENDROOT
BRANCH   1   2
ATOM      2  C   UNL     1      16.902  17.992  19.711  1.00  0.00     0.006 C 
BRANCH   2   3
ATOM      3  C   UNL     1      18.032  17.105  20.241  1.00  0.00     0.053 C 
BRANCH   3   4
ATOM      4  C   UNL     1      19.304  17.883  20.344  1.00  0.00     0.041 C 
ATOM      5  O   UNL     1      20.219  17.718  19.494  1.00  0.00    -0.550 OA
ATOM      6  O   UNL     1      19.461  18.829  21.349  1.00  0.00    -0.550 OA
ENDBRANCH   3   4
ENDBRANCH   2   3
ENDBRANCH   1   2
BRANCH   1   7
ATOM      7  C   UNL     1      17.261  17.418  17.275  1.00  0.00     0.000 C 
BRANCH   7   8
ATOM      8  C   UNL     1      16.554  17.823  15.972  1.00  0.00    -0.000 C 
BRANCH   8   9
ATOM      9  C   UNL     1      17.015  16.990  14.766  1.00  0.00    -0.000 C 
BRANCH   9  10
ATOM     10  C   UNL     1      18.052  17.723  13.903  1.00  0.00    -0.003 C 
ATOM     11  C   UNL     1      17.954  19.234  14.091  1.00  0.00     0.004 C 
ENDBRANCH   9  10
ENDBRANCH   8   9
ENDBRANCH   7   8
ENDBRANCH   1   7
TORSDOF 7
ENDMDL
MODEL 4
REMARK VINA RESULT:     6.272      2.897      5.410
REMARK INTER + INTRA:           8.580
REMARK INTER:                   8.811
REMARK INTRA:                  -0.230
REMARK UNBOUND:                -0.258
REMARK SMILES CCCCCCCCC(=O)[O-]
REMARK SMILES IDX 6 1 7 2 8 3 9 4 10 5 11 6 5 7 4 8 3 9 2 10 1 11
REMARK H PARENT
REMARK Flexibility Score: inf
ROOT
ATOM      1  C   UNL     1      17.385  17.109  16.417  1.00  0.00     0.000 C 
ENDROOT
BRANCH   1   2
ATOM      2  C   UNL     1      16.894  17.217  14.969  1.00  0.00     0.006 C 
BRANCH   2   3
ATOM      3  C   UNL     1      17.957  17.865  14.075  1.00  0.00     0.053 C 
BRANCH   3   4
ATOM      4  C   UNL     1      17.943  19.351  14.239  1.00  0.00     0.041 C 
ATOM      5  O   UNL     1      16.943  19.923  14.748  1.00  0.00    -0.550 OA
ATOM      6  O   UNL     1      19.055  20.101  13.876  1.00  0.00    -0.550 OA
ENDBRANCH   3   4
ENDBRANCH   2   3
ENDBRANCH   1   2
BRANCH   1   7
ATOM      7  C   UNL     1      16.438  17.842  17.376  1.00  0.00     0.000 C 
BRANCH   7   8
ATOM      8  C   UNL     1      16.294  17.074  18.699  1.00  0.00    -0.000 C 
BRANCH   8   9
ATOM      9  C   UNL     1      17.013  17.767  19.867  1.00  0.00    -0.000 C 
BRANCH   9  10
ATOM     10  C   UNL     1      18.373  17.128  20.186  1.00  0.00    -0.003 C 
ATOM     11  C   UNL     1      19.405  18.191  20.553  1.00  0.00     0.004 C 
ENDBRANCH   9  10
ENDBRANCH   8   9
ENDBRANCH   7   8
ENDBRANCH   1   7
TORSDOF 7
ENDMDL
