MODEL 1
REMARK VINA RESULT:    -5.297      0.000      0.000
REMARK INTER + INTRA:          -5.705
REMARK INTER:                  -5.606
REMARK INTRA:                  -0.099
REMARK UNBOUND:                -0.099
REMARK SMILES C=C(C)[C@H]1CC=C(C)C(=O)C1
REMARK SMILES IDX 8 1 7 2 6 3 5 4 4 5 11 6 9 7 10 8 2 9 1 10 3 11
REMARK H PARENT
REMARK Flexibility Score: inf
ROOT
ATOM      1  C   UNL     1      11.312  14.234  25.601  1.00  0.00     0.048 C 
ATOM      2  C   UNL     1      12.492  15.158  25.717  1.00  0.00    -0.012 C 
ATOM      3  C   UNL     1      12.514  16.305  25.019  1.00  0.00    -0.019 C 
ATOM      4  C   UNL     1      13.679  17.258  25.083  1.00  0.00     0.036 C 
ATOM      5  C   UNL     1      14.338  17.233  26.475  1.00  0.00     0.025 C 
ATOM      6  C   UNL     1      14.741  15.795  26.850  1.00  0.00     0.089 C 
ATOM      7  C   UNL     1      13.571  14.862  26.693  1.00  0.00     0.158 C 
ATOM      8  O   UNL     1      13.535  13.802  27.375  1.00  0.00    -0.295 OA
ENDROOT
BRANCH   5   9
ATOM      9  C   UNL     1      15.529  18.179  26.544  1.00  0.00    -0.077 C 
ATOM     10  C   UNL     1      16.073  18.660  25.414  1.00  0.00     0.008 C 
ATOM     11  C   UNL     1      16.124  18.600  27.865  1.00  0.00     0.039 C 
ENDBRANCH   5   9
TORSDOF 1
ENDMDL
MODEL 2
REMARK VINA RESULT:    -5.178      2.259      4.220
REMARK INTER + INTRA:          -5.579
REMARK INTER:                  -5.483
REMARK INTRA:                  -0.096
REMARK UNBOUND:                -0.099
REMARK SMILES C=C(C)[C@H]1CC=C(C)C(=O)C1
REMARK SMILES IDX 8 1 7 2 6 3 5 4 4 5 11 6 9 7 10 8 2 9 1 10 3 11
REMARK H PARENT
REMARK Flexibility Score: inf
ROOT
ATOM      1  C   UNL     1      15.382  19.020  24.364  1.00  0.00     0.048 C 
ATOM      2  C   UNL     1      15.031  17.837  25.223  1.00  0.00    -0.012 C 
ATOM      3  C   UNL     1      14.468  16.751  24.668  1.00  0.00    -0.019 C 
ATOM      4  C   UNL     1      14.079  15.547  25.484  1.00  0.00     0.036 C 
ATOM      5  C   UNL     1      15.039  15.350  26.673  1.00  0.00     0.025 C 
ATOM      6  C   UNL     1      15.110  16.632  27.522  1.00  0.00     0.089 C 
ATOM      7  C   UNL     1      15.418  17.823  26.656  1.00  0.00     0.158 C 
ATOM      8  O   UNL     1      15.978  18.828  27.171  1.00  0.00    -0.295 OA
ENDROOT
BRANCH   5   9
ATOM      9  C   UNL     1      14.642  14.146  27.516  1.00  0.00    -0.077 C 
ATOM     10  C   UNL     1      13.433  14.100  28.096  1.00  0.00     0.008 C 
ATOM     11  C   UNL     1      15.582  12.983  27.718  1.00  0.00     0.039 C 
ENDBRANCH   5   9
TORSDOF 1
ENDMDL
MODEL 3
REMARK VINA RESULT:    -5.159      1.491      2.018
REMARK INTER + INTRA:          -5.559
REMARK INTER:                  -5.461
REMARK INTRA:                  -0.098
REMARK UNBOUND:                -0.099
REMARK SMILES C=C(C)[C@H]1CC=C(C)C(=O)C1
REMARK SMILES IDX 8 1 7 2 6 3 5 4 4 5 11 6 9 7 10 8 2 9 1 10 3 11
REMARK H PARENT
REMARK Flexibility Score: inf
ROOT
ATOM      1  C   UNL     1      11.198  14.161  27.136  1.00  0.00     0.048 C 
ATOM      2  C   UNL     1      12.187  15.288  27.021  1.00  0.00    -0.012 C 
ATOM      3  C   UNL     1      12.904  15.661  28.094  1.00  0.00    -0.019 C 
ATOM      4  C   UNL     1      13.893  16.795  28.040  1.00  0.00     0.036 C 
ATOM      5  C   UNL     1      14.549  16.892  26.649  1.00  0.00     0.025 C 
ATOM      6  C   UNL     1      13.470  17.006  25.556  1.00  0.00     0.089 C 
ATOM      7  C   UNL     1      12.456  15.903  25.697  1.00  0.00     0.158 C 
ATOM      8  O   UNL     1      11.809  15.532  24.682  1.00  0.00    -0.295 OA
ENDROOT
BRANCH   5   9
ATOM      9  C   UNL     1      15.536  18.048  26.578  1.00  0.00    -0.077 C 
ATOM     10  C   UNL     1      15.863  18.583  25.391  1.00  0.00     0.008 C 
ATOM     11  C   UNL     1      16.166  18.622  27.823  1.00  0.00     0.039 C 
ENDBRANCH   5   9
TORSDOF 1
ENDMDL
MODEL 4
REMARK VINA RESULT:    -4.826      1.671      2.054
REMARK INTER + INTRA:          -5.206
REMARK INTER:                  -5.119
REMARK INTRA:                  -0.087
REMARK UNBOUND:                -0.099
REMARK SMILES C=C(C)[C@H]1CC=C(C)C(=O)C1
REMARK SMILES IDX 8 1 7 2 6 3 5 4 4 5 11 6 9 7 10 8 2 9 1 10 3 11
REMARK H PARENT
REMARK Flexibility Score: inf
ROOT
ATOM      1  C   UNL     1      12.357  13.130  28.119  1.00  0.00     0.048 C 
ATOM      2  C   UNL     1      13.133  14.347  27.698  1.00  0.00    -0.012 C 
ATOM      3  C   UNL     1      12.543  15.554  27.709  1.00  0.00    -0.019 C 
ATOM      4  C   UNL     1      13.267  16.802  27.280  1.00  0.00     0.036 C 
ATOM      5  C   UNL     1      14.768  16.716  27.618  1.00  0.00     0.025 C 
ATOM      6  C   UNL     1      15.382  15.445  27.003  1.00  0.00     0.089 C 
ATOM      7  C   UNL     1      14.581  14.231  27.389  1.00  0.00     0.158 C 
ATOM      8  O   UNL     1      15.145  13.105  27.411  1.00  0.00    -0.295 OA
ENDROOT
BRANCH   5   9
ATOM      9  C   UNL     1      15.513  17.966  27.170  1.00  0.00    -0.077 C 
ATOM     10  C   UNL     1      16.168  18.717  28.069  1.00  0.00     0.008 C 
ATOM     11  C   UNL     1      15.540  18.388  25.722  1.00  0.00     0.039 C 
ENDBRANCH   5   9
TORSDOF 1
ENDMDL
MODEL 5
REMARK VINA RESULT:    -4.698      1.674      4.318
REMARK INTER + INTRA:          -5.072
REMARK INTER:                  -4.973
REMARK INTRA:                  -0.098
REMARK UNBOUND:                -0.099
REMARK SMILES C=C(C)[C@H]1CC=C(C)C(=O)C1
REMARK SMILES IDX 8 1 7 2 6 3 5 4 4 5 11 6 9 7 10 8 2 9 1 10 3 11
REMARK H PARENT
REMARK Flexibility Score: inf
ROOT
ATOM      1  C   UNL     1      16.094  18.619  25.521  1.00  0.00     0.048 C 
ATOM      2  C   UNL     1      14.887  17.743  25.709  1.00  0.00    -0.012 C 
ATOM      3  C   UNL     1      14.255  17.235  24.638  1.00  0.00    -0.019 C 
ATOM      4  C   UNL     1      13.031  16.368  24.768  1.00  0.00     0.036 C 
ATOM      5  C   UNL     1      13.084  15.526  26.057  1.00  0.00     0.025 C 
ATOM      6  C   UNL     1      13.287  16.435  27.283  1.00  0.00     0.089 C 
ATOM      7  C   UNL     1      14.469  17.343  27.077  1.00  0.00     0.158 C 
ATOM      8  O   UNL     1      15.082  17.791  28.083  1.00  0.00    -0.295 OA
ENDROOT
BRANCH   5   9
ATOM      9  C   UNL     1      11.841  14.660  26.208  1.00  0.00    -0.077 C 
ATOM     10  C   UNL     1      11.038  14.445  25.153  1.00  0.00     0.008 C 
ATOM     11  C   UNL     1      11.481  14.023  27.528  1.00  0.00     0.039 C 
ENDBRANCH   5   9
TORSDOF 1
ENDMDL
MODEL 6
REMARK VINA RESULT:    -4.629      1.855      2.586
REMARK INTER + INTRA:          -4.998
REMARK INTER:                  -4.902
REMARK INTRA:                  -0.096
REMARK UNBOUND:                -0.099
REMARK SMILES C=C(C)[C@H]1CC=C(C)C(=O)C1
REMARK SMILES IDX 8 1 7 2 6 3 5 4 4 5 11 6 9 7 10 8 2 9 1 10 3 11
REMARK H PARENT
REMARK Flexibility Score: inf
ROOT
ATOM      1  C   UNL     1      12.442  12.738  28.028  1.00  0.00     0.048 C 
ATOM      2  C   UNL     1      13.200  14.030  27.894  1.00  0.00    -0.012 C 
ATOM      3  C   UNL     1      14.519  14.008  27.641  1.00  0.00    -0.019 C 
ATOM      4  C   UNL     1      15.331  15.270  27.516  1.00  0.00     0.036 C 
ATOM      5  C   UNL     1      14.487  16.413  26.920  1.00  0.00     0.025 C 
ATOM      6  C   UNL     1      13.207  16.623  27.750  1.00  0.00     0.089 C 
ATOM      7  C   UNL     1      12.470  15.322  27.920  1.00  0.00     0.158 C 
ATOM      8  O   UNL     1      11.227  15.344  28.124  1.00  0.00    -0.295 OA
ENDROOT
BRANCH   5   9
ATOM      9  C   UNL     1      15.294  17.700  26.808  1.00  0.00    -0.077 C 
ATOM     10  C   UNL     1      15.783  18.286  27.912  1.00  0.00     0.008 C 
ATOM     11  C   UNL     1      15.566  18.343  25.471  1.00  0.00     0.039 C 
ENDBRANCH   5   9
TORSDOF 1
ENDMDL
MODEL 7
REMARK VINA RESULT:    -4.561      1.993      4.419
REMARK INTER + INTRA:          -4.927
REMARK INTER:                  -4.830
REMARK INTRA:                  -0.097
REMARK UNBOUND:                -0.099
REMARK SMILES C=C(C)[C@H]1CC=C(C)C(=O)C1
REMARK SMILES IDX 8 1 7 2 6 3 5 4 4 5 11 6 9 7 10 8 2 9 1 10 3 11
REMARK H PARENT
REMARK Flexibility Score: inf
ROOT
ATOM      1  C   UNL     1      15.949  18.985  25.076  1.00  0.00     0.048 C 
ATOM      2  C   UNL     1      15.271  17.820  25.741  1.00  0.00    -0.012 C 
ATOM      3  C   UNL     1      15.356  17.668  27.073  1.00  0.00    -0.019 C 
ATOM      4  C   UNL     1      14.713  16.509  27.788  1.00  0.00     0.036 C 
ATOM      5  C   UNL     1      13.416  16.072  27.080  1.00  0.00     0.025 C 
ATOM      6  C   UNL     1      13.694  15.761  25.598  1.00  0.00     0.089 C 
ATOM      7  C   UNL     1      14.411  16.910  24.943  1.00  0.00     0.158 C 
ATOM      8  O   UNL     1      14.303  17.071  23.698  1.00  0.00    -0.295 OA
ENDROOT
BRANCH   5   9
ATOM      9  C   UNL     1      12.768  14.888  27.784  1.00  0.00    -0.077 C 
ATOM     10  C   UNL     1      13.508  13.821  28.125  1.00  0.00     0.008 C 
ATOM     11  C   UNL     1      11.297  14.881  28.119  1.00  0.00     0.039 C 
ENDBRANCH   5   9
TORSDOF 1
ENDMDL
MODEL 8
REMARK VINA RESULT:    -4.522      2.044      3.067
REMARK INTER + INTRA:          -4.885
REMARK INTER:                  -4.786
REMARK INTRA:                  -0.099
REMARK UNBOUND:                -0.099
REMARK SMILES C=C(C)[C@H]1CC=C(C)C(=O)C1
REMARK SMILES IDX 8 1 7 2 6 3 5 4 4 5 11 6 9 7 10 8 2 9 1 10 3 11
REMARK H PARENT
REMARK Flexibility Score: inf
ROOT
ATOM      1  C   UNL     1      13.246  15.516  27.456  1.00  0.00     0.048 C 
ATOM      2  C   UNL     1      13.978  16.352  26.443  1.00  0.00    -0.012 C 
ATOM      3  C   UNL     1      13.701  16.214  25.136  1.00  0.00    -0.019 C 
ATOM      4  C   UNL     1      14.417  17.012  24.078  1.00  0.00     0.036 C 
ATOM      5  C   UNL     1      14.801  18.408  24.604  1.00  0.00     0.025 C 
ATOM      6  C   UNL     1      15.626  18.284  25.898  1.00  0.00     0.089 C 
ATOM      7  C   UNL     1      14.914  17.412  26.896  1.00  0.00     0.158 C 
ATOM      8  O   UNL     1      15.150  17.566  28.124  1.00  0.00    -0.295 OA
ENDROOT
BRANCH   5   9
ATOM      9  C   UNL     1      15.543  19.216  23.548  1.00  0.00    -0.077 C 
ATOM     10  C   UNL     1      16.698  19.827  23.856  1.00  0.00     0.008 C 
ATOM     11  C   UNL     1      15.012  19.348  22.142  1.00  0.00     0.039 C 
ENDBRANCH   5   9
TORSDOF 1
ENDMDL
