MODEL 1
REMARK VINA RESULT:    -3.235      0.000      0.000
REMARK INTER + INTRA:          -7.422
REMARK INTER:                  -5.694
REMARK INTRA:                  -1.728
REMARK UNBOUND:                -1.728
REMARK SMILES CCCCCCC=CCCCCCCCC(=O)[O-]
REMARK SMILES IDX 10 1 11 2 12 3 13 4 14 5 15 6 16 7 17 8 18 9 9 10 8 11 7 12
REMARK SMILES IDX 6 13 5 14 4 15 3 16 2 17 1 18
REMARK H PARENT
REMARK Flexibility Score: inf
ROOT
ATOM      1  C   UNL     1      16.738  20.985   4.955  1.00  0.00     0.004 C 
ENDROOT
BRANCH   1   2
ATOM      2  C   UNL     1      17.398  21.690   3.758  1.00  0.00     0.000 C 
BRANCH   2   3
ATOM      3  C   UNL     1      17.822  23.131   4.091  1.00  0.00     0.000 C 
BRANCH   3   4
ATOM      4  C   UNL     1      17.299  24.164   3.077  1.00  0.00     0.000 C 
BRANCH   4   5
ATOM      5  C   UNL     1      15.827  23.980   2.652  1.00  0.00     0.006 C 
BRANCH   5   6
ATOM      6  C   UNL     1      15.557  24.219   1.157  1.00  0.00     0.053 C 
BRANCH   6   7
ATOM      7  C   UNL     1      15.449  22.937   0.391  1.00  0.00     0.041 C 
ATOM      8  O   UNL     1      15.213  21.856   0.993  1.00  0.00    -0.550 OA
ATOM      9  O   UNL     1      15.588  22.939  -0.991  1.00  0.00    -0.550 OA
ENDBRANCH   6   7
ENDBRANCH   5   6
ENDBRANCH   4   5
ENDBRANCH   3   4
ENDBRANCH   2   3
ENDBRANCH   1   2
BRANCH   1  10
ATOM     10  C   UNL     1      16.734  21.851   6.223  1.00  0.00     0.027 C 
BRANCH  10  11
ATOM     11  C   UNL     1      15.971  21.175   7.335  1.00  0.00    -0.031 C 
ATOM     12  C   UNL     1      16.401  21.088   8.610  1.00  0.00    -0.031 C 
BRANCH  12  13
ATOM     13  C   UNL     1      17.680  21.702   9.120  1.00  0.00     0.027 C 
BRANCH  13  14
ATOM     14  C   UNL     1      17.388  22.846  10.103  1.00  0.00     0.004 C 
BRANCH  14  15
ATOM     15  C   UNL     1      16.737  24.059   9.419  1.00  0.00     0.000 C 
BRANCH  15  16
ATOM     16  C   UNL     1      17.726  24.828   8.527  1.00  0.00    -0.000 C 
BRANCH  16  17
ATOM     17  C   UNL     1      17.121  25.122   7.151  1.00  0.00    -0.003 C 
ATOM     18  C   UNL     1      15.595  25.121   7.213  1.00  0.00     0.004 C 
ENDBRANCH  16  17
ENDBRANCH  15  16
ENDBRANCH  14  15
ENDBRANCH  13  14
ENDBRANCH  12  13
ENDBRANCH  10  11
ENDBRANCH   1  10
TORSDOF 13
ENDMDL
MODEL 2
REMARK VINA RESULT:    -3.211      3.433      7.673
REMARK INTER + INTRA:          -7.380
REMARK INTER:                  -6.467
REMARK INTRA:                  -0.913
REMARK UNBOUND:                -1.728
REMARK SMILES CCCCCCC=CCCCCCCCC(=O)[O-]
REMARK SMILES IDX 10 1 11 2 12 3 13 4 14 5 15 6 16 7 17 8 18 9 9 10 8 11 7 12
REMARK SMILES IDX 6 13 5 14 4 15 3 16 2 17 1 18
REMARK H PARENT
REMARK Flexibility Score: inf
ROOT
ATOM      1  C   UNL     1      16.818  22.204   6.038  1.00  0.00     0.004 C 
ENDROOT
BRANCH   1   2
ATOM      2  C   UNL     1      16.349  20.905   6.716  1.00  0.00     0.000 C 
BRANCH   2   3
ATOM      3  C   UNL     1      16.344  21.016   8.251  1.00  0.00     0.000 C 
BRANCH   3   4
ATOM      4  C   UNL     1      15.340  22.056   8.779  1.00  0.00     0.000 C 
BRANCH   4   5
ATOM      5  C   UNL     1      15.966  23.265   9.504  1.00  0.00     0.006 C 
BRANCH   5   6
ATOM      6  C   UNL     1      17.502  23.261   9.548  1.00  0.00     0.053 C 
BRANCH   6   7
ATOM      7  C   UNL     1      18.090  24.457   8.865  1.00  0.00     0.041 C 
ATOM      8  O   UNL     1      17.429  25.078   7.992  1.00  0.00    -0.550 OA
ATOM      9  O   UNL     1      19.363  24.898   9.208  1.00  0.00    -0.550 OA
ENDBRANCH   6   7
ENDBRANCH   5   6
ENDBRANCH   4   5
ENDBRANCH   3   4
ENDBRANCH   2   3
ENDBRANCH   1   2
BRANCH   1  10
ATOM     10  C   UNL     1      17.172  22.002   4.557  1.00  0.00     0.027 C 
BRANCH  10  11
ATOM     11  C   UNL     1      17.460  23.323   3.887  1.00  0.00    -0.031 C 
ATOM     12  C   UNL     1      17.004  23.674   2.668  1.00  0.00    -0.031 C 
BRANCH  12  13
ATOM     13  C   UNL     1      16.095  22.820   1.821  1.00  0.00     0.027 C 
BRANCH  13  14
ATOM     14  C   UNL     1      15.806  23.495   0.472  1.00  0.00     0.004 C 
BRANCH  14  15
ATOM     15  C   UNL     1      16.581  24.811   0.293  1.00  0.00     0.000 C 
BRANCH  15  16
ATOM     16  C   UNL     1      17.639  24.720  -0.818  1.00  0.00    -0.000 C 
BRANCH  16  17
ATOM     17  C   UNL     1      17.007  24.342  -2.160  1.00  0.00    -0.003 C 
ATOM     18  C   UNL     1      17.872  24.816  -3.326  1.00  0.00     0.004 C 
ENDBRANCH  16  17
ENDBRANCH  15  16
ENDBRANCH  14  15
ENDBRANCH  13  14
ENDBRANCH  12  13
ENDBRANCH  10  11
ENDBRANCH   1  10
TORSDOF 13
ENDMDL
MODEL 3
REMARK VINA RESULT:    -3.153      1.804      3.353
REMARK INTER + INTRA:          -7.278
REMARK INTER:                  -5.926
REMARK INTRA:                  -1.351
REMARK UNBOUND:                -1.728
REMARK SMILES CCCCCCC=CCCCCCCCC(=O)[O-]
REMARK SMILES IDX 10 1 11 2 12 3 13 4 14 5 15 6 16 7 17 8 18 9 9 10 8 11 7 12
REMARK SMILES IDX 6 13 5 14 4 15 3 16 2 17 1 18
REMARK H PARENT
REMARK Flexibility Score: inf
ROOT
ATOM      1  C   UNL     1      17.419  22.528   3.703  1.00  0.00     0.004 C 
ENDROOT
BRANCH   1   2
ATOM      2  C   UNL     1      16.660  23.554   2.845  1.00  0.00     0.000 C 
BRANCH   2   3
ATOM      3  C   UNL     1      15.978  22.907   1.627  1.00  0.00     0.000 C 
BRANCH   3   4
ATOM      4  C   UNL     1      14.936  23.823   0.961  1.00  0.00     0.000 C 
BRANCH   4   5
ATOM      5  C   UNL     1      15.388  24.478  -0.361  1.00  0.00     0.006 C 
BRANCH   5   6
ATOM      6  C   UNL     1      16.409  23.658  -1.166  1.00  0.00     0.053 C 
BRANCH   6   7
ATOM      7  C   UNL     1      17.587  24.482  -1.588  1.00  0.00     0.041 C 
ATOM      8  O   UNL     1      18.358  24.976  -0.723  1.00  0.00    -0.550 OA
ATOM      9  O   UNL     1      17.845  24.686  -2.938  1.00  0.00    -0.550 OA
ENDBRANCH   6   7
ENDBRANCH   5   6
ENDBRANCH   4   5
ENDBRANCH   3   4
ENDBRANCH   2   3
ENDBRANCH   1   2
BRANCH   1  10
ATOM     10  C   UNL     1      17.149  22.699   5.206  1.00  0.00     0.027 C 
BRANCH  10  11
ATOM     11  C   UNL     1      16.156  23.808   5.452  1.00  0.00    -0.031 C 
ATOM     12  C   UNL     1      16.087  24.529   6.589  1.00  0.00    -0.031 C 
BRANCH  12  13
ATOM     13  C   UNL     1      17.027  24.370   7.756  1.00  0.00     0.027 C 
BRANCH  13  14
ATOM     14  C   UNL     1      16.492  23.332   8.756  1.00  0.00     0.004 C 
BRANCH  14  15
ATOM     15  C   UNL     1      17.560  22.309   9.172  1.00  0.00     0.000 C 
BRANCH  15  16
ATOM     16  C   UNL     1      17.119  20.861   8.903  1.00  0.00    -0.000 C 
BRANCH  16  17
ATOM     17  C   UNL     1      15.866  20.815   8.024  1.00  0.00    -0.003 C 
ATOM     18  C   UNL     1      15.908  19.620   7.074  1.00  0.00     0.004 C 
ENDBRANCH  16  17
ENDBRANCH  15  16
ENDBRANCH  14  15
ENDBRANCH  13  14
ENDBRANCH  12  13
ENDBRANCH  10  11
ENDBRANCH   1  10
TORSDOF 13
ENDMDL
MODEL 4
REMARK VINA RESULT:    -3.108      3.028      7.527
REMARK INTER + INTRA:          -7.198
REMARK INTER:                  -5.957
REMARK INTRA:                  -1.241
REMARK UNBOUND:                -1.728
REMARK SMILES CCCCCCC=CCCCCCCCC(=O)[O-]
REMARK SMILES IDX 10 1 11 2 12 3 13 4 14 5 15 6 16 7 17 8 18 9 9 10 8 11 7 12
REMARK SMILES IDX 6 13 5 14 4 15 3 16 2 17 1 18
REMARK H PARENT
REMARK Flexibility Score: inf
ROOT
ATOM      1  C   UNL     1      16.945  22.596   5.280  1.00  0.00     0.004 C 
ENDROOT
BRANCH   1   2
ATOM      2  C   UNL     1      16.472  24.012   5.649  1.00  0.00     0.000 C 
BRANCH   2   3
ATOM      3  C   UNL     1      15.406  24.001   6.759  1.00  0.00     0.000 C 
BRANCH   3   4
ATOM      4  C   UNL     1      16.004  24.132   8.171  1.00  0.00     0.000 C 
BRANCH   4   5
ATOM      5  C   UNL     1      15.715  22.949   9.119  1.00  0.00     0.006 C 
BRANCH   5   6
ATOM      6  C   UNL     1      15.126  21.706   8.431  1.00  0.00     0.053 C 
BRANCH   6   7
ATOM      7  C   UNL     1      16.134  20.608   8.292  1.00  0.00     0.041 C 
ATOM      8  O   UNL     1      15.911  19.636   7.522  1.00  0.00    -0.550 OA
ATOM      9  O   UNL     1      17.329  20.667   8.997  1.00  0.00    -0.550 OA
ENDBRANCH   6   7
ENDBRANCH   5   6
ENDBRANCH   4   5
ENDBRANCH   3   4
ENDBRANCH   2   3
ENDBRANCH   1   2
BRANCH   1  10
ATOM     10  C   UNL     1      17.673  22.549   3.928  1.00  0.00     0.027 C 
BRANCH  10  11
ATOM     11  C   UNL     1      17.189  23.650   3.017  1.00  0.00    -0.031 C 
ATOM     12  C   UNL     1      16.332  23.468   1.992  1.00  0.00    -0.031 C 
BRANCH  12  13
ATOM     13  C   UNL     1      15.691  22.149   1.644  1.00  0.00     0.027 C 
BRANCH  13  14
ATOM     14  C   UNL     1      15.010  22.215   0.268  1.00  0.00     0.004 C 
BRANCH  14  15
ATOM     15  C   UNL     1      15.230  23.564  -0.435  1.00  0.00     0.000 C 
BRANCH  15  16
ATOM     16  C   UNL     1      15.365  23.415  -1.959  1.00  0.00    -0.000 C 
BRANCH  16  17
ATOM     17  C   UNL     1      16.528  24.252  -2.499  1.00  0.00    -0.003 C 
ATOM     18  C   UNL     1      17.735  24.176  -1.568  1.00  0.00     0.004 C 
ENDBRANCH  16  17
ENDBRANCH  15  16
ENDBRANCH  14  15
ENDBRANCH  13  14
ENDBRANCH  12  13
ENDBRANCH  10  11
ENDBRANCH   1  10
TORSDOF 13
ENDMDL
MODEL 5
REMARK VINA RESULT:    -2.972      3.094      7.694
REMARK INTER + INTRA:          -6.959
REMARK INTER:                  -6.061
REMARK INTRA:                  -0.898
REMARK UNBOUND:                -1.728
REMARK SMILES CCCCCCC=CCCCCCCCC(=O)[O-]
REMARK SMILES IDX 10 1 11 2 12 3 13 4 14 5 15 6 16 7 17 8 18 9 9 10 8 11 7 12
REMARK SMILES IDX 6 13 5 14 4 15 3 16 2 17 1 18
REMARK H PARENT
REMARK Flexibility Score: inf
ROOT
ATOM      1  C   UNL     1      16.682  23.599   5.325  1.00  0.00     0.004 C 
ENDROOT
BRANCH   1   2
ATOM      2  C   UNL     1      17.252  24.810   6.082  1.00  0.00     0.000 C 
BRANCH   2   3
ATOM      3  C   UNL     1      16.737  24.891   7.530  1.00  0.00     0.000 C 
BRANCH   3   4
ATOM      4  C   UNL     1      17.529  24.000   8.503  1.00  0.00     0.000 C 
BRANCH   4   5
ATOM      5  C   UNL     1      16.724  22.852   9.147  1.00  0.00     0.006 C 
BRANCH   5   6
ATOM      6  C   UNL     1      17.241  21.443   8.814  1.00  0.00     0.053 C 
BRANCH   6   7
ATOM      7  C   UNL     1      16.215  20.620   8.098  1.00  0.00     0.041 C 
ATOM      8  O   UNL     1      15.280  20.071   8.740  1.00  0.00    -0.550 OA
ATOM      9  O   UNL     1      16.279  20.476   6.718  1.00  0.00    -0.550 OA
ENDBRANCH   6   7
ENDBRANCH   5   6
ENDBRANCH   4   5
ENDBRANCH   3   4
ENDBRANCH   2   3
ENDBRANCH   1   2
BRANCH   1  10
ATOM     10  C   UNL     1      17.577  23.156   4.159  1.00  0.00     0.027 C 
BRANCH  10  11
ATOM     11  C   UNL     1      16.767  22.465   3.090  1.00  0.00    -0.031 C 
ATOM     12  C   UNL     1      16.289  23.072   1.986  1.00  0.00    -0.031 C 
BRANCH  12  13
ATOM     13  C   UNL     1      16.540  24.517   1.633  1.00  0.00     0.027 C 
BRANCH  13  14
ATOM     14  C   UNL     1      16.119  24.810   0.184  1.00  0.00     0.004 C 
BRANCH  14  15
ATOM     15  C   UNL     1      16.404  23.633  -0.762  1.00  0.00     0.000 C 
BRANCH  15  16
ATOM     16  C   UNL     1      16.532  24.079  -2.228  1.00  0.00    -0.000 C 
BRANCH  16  17
ATOM     17  C   UNL     1      17.830  24.856  -2.462  1.00  0.00    -0.003 C 
ATOM     18  C   UNL     1      18.145  24.960  -3.953  1.00  0.00     0.004 C 
ENDBRANCH  16  17
ENDBRANCH  15  16
ENDBRANCH  14  15
ENDBRANCH  13  14
ENDBRANCH  12  13
ENDBRANCH  10  11
ENDBRANCH   1  10
TORSDOF 13
ENDMDL
MODEL 6
REMARK VINA RESULT:    -2.964      3.552      8.160
REMARK INTER + INTRA:          -6.945
REMARK INTER:                  -6.233
REMARK INTRA:                  -0.711
REMARK UNBOUND:                -1.728
REMARK SMILES CCCCCCC=CCCCCCCCC(=O)[O-]
REMARK SMILES IDX 10 1 11 2 12 3 13 4 14 5 15 6 16 7 17 8 18 9 9 10 8 11 7 12
REMARK SMILES IDX 6 13 5 14 4 15 3 16 2 17 1 18
REMARK H PARENT
REMARK Flexibility Score: inf
ROOT
ATOM      1  C   UNL     1      17.396  22.143   4.238  1.00  0.00     0.004 C 
ENDROOT
BRANCH   1   2
ATOM      2  C   UNL     1      16.877  22.531   5.633  1.00  0.00     0.000 C 
BRANCH   2   3
ATOM      3  C   UNL     1      16.600  21.300   6.515  1.00  0.00     0.000 C 
BRANCH   3   4
ATOM      4  C   UNL     1      16.203  21.668   7.956  1.00  0.00     0.000 C 
BRANCH   4   5
ATOM      5  C   UNL     1      17.349  21.611   8.987  1.00  0.00     0.006 C 
BRANCH   5   6
ATOM      6  C   UNL     1      17.479  22.862   9.871  1.00  0.00     0.053 C 
BRANCH   6   7
ATOM      7  C   UNL     1      17.194  24.121   9.112  1.00  0.00     0.041 C 
ATOM      8  O   UNL     1      18.102  24.673   8.435  1.00  0.00    -0.550 OA
ATOM      9  O   UNL     1      15.920  24.674   9.134  1.00  0.00    -0.550 OA
ENDBRANCH   6   7
ENDBRANCH   5   6
ENDBRANCH   4   5
ENDBRANCH   3   4
ENDBRANCH   2   3
ENDBRANCH   1   2
BRANCH   1  10
ATOM     10  C   UNL     1      17.424  23.333   3.266  1.00  0.00     0.027 C 
BRANCH  10  11
ATOM     11  C   UNL     1      16.054  23.950   3.131  1.00  0.00    -0.031 C 
ATOM     12  C   UNL     1      15.339  23.975   1.989  1.00  0.00    -0.031 C 
BRANCH  12  13
ATOM     13  C   UNL     1      15.782  23.341   0.694  1.00  0.00     0.027 C 
BRANCH  13  14
ATOM     14  C   UNL     1      16.250  24.407  -0.308  1.00  0.00     0.004 C 
BRANCH  14  15
ATOM     15  C   UNL     1      16.889  23.794  -1.565  1.00  0.00     0.000 C 
BRANCH  15  16
ATOM     16  C   UNL     1      17.980  24.695  -2.165  1.00  0.00    -0.000 C 
BRANCH  16  17
ATOM     17  C   UNL     1      17.868  24.764  -3.691  1.00  0.00    -0.003 C 
ATOM     18  C   UNL     1      16.407  24.720  -4.135  1.00  0.00     0.004 C 
ENDBRANCH  16  17
ENDBRANCH  15  16
ENDBRANCH  14  15
ENDBRANCH  13  14
ENDBRANCH  12  13
ENDBRANCH  10  11
ENDBRANCH   1  10
TORSDOF 13
ENDMDL
MODEL 7
REMARK VINA RESULT:    -2.961      1.775      3.505
REMARK INTER + INTRA:          -6.939
REMARK INTER:                  -6.173
REMARK INTRA:                  -0.766
REMARK UNBOUND:                -1.728
REMARK SMILES CCCCCCC=CCCCCCCCC(=O)[O-]
REMARK SMILES IDX 10 1 11 2 12 3 13 4 14 5 15 6 16 7 17 8 18 9 9 10 8 11 7 12
REMARK SMILES IDX 6 13 5 14 4 15 3 16 2 17 1 18
REMARK H PARENT
REMARK Flexibility Score: inf
ROOT
ATOM      1  C   UNL     1      16.590  24.555   4.062  1.00  0.00     0.004 C 
ENDROOT
BRANCH   1   2
ATOM      2  C   UNL     1      15.662  24.524   2.836  1.00  0.00     0.000 C 
BRANCH   2   3
ATOM      3  C   UNL     1      16.442  24.606   1.511  1.00  0.00     0.000 C 
BRANCH   3   4
ATOM      4  C   UNL     1      16.012  23.536   0.491  1.00  0.00     0.000 C 
BRANCH   4   5
ATOM      5  C   UNL     1      15.577  24.079  -0.886  1.00  0.00     0.006 C 
BRANCH   5   6
ATOM      6  C   UNL     1      16.395  23.545  -2.073  1.00  0.00     0.053 C 
BRANCH   6   7
ATOM      7  C   UNL     1      17.569  24.420  -2.388  1.00  0.00     0.041 C 
ATOM      8  O   UNL     1      18.298  24.861  -1.460  1.00  0.00    -0.550 OA
ATOM      9  O   UNL     1      17.872  24.730  -3.708  1.00  0.00    -0.550 OA
ENDBRANCH   6   7
ENDBRANCH   5   6
ENDBRANCH   4   5
ENDBRANCH   3   4
ENDBRANCH   2   3
ENDBRANCH   1   2
BRANCH   1  10
ATOM     10  C   UNL     1      17.784  23.598   3.923  1.00  0.00     0.027 C 
BRANCH  10  11
ATOM     11  C   UNL     1      17.322  22.162   3.881  1.00  0.00    -0.031 C 
ATOM     12  C   UNL     1      16.930  21.457   4.960  1.00  0.00    -0.031 C 
BRANCH  12  13
ATOM     13  C   UNL     1      16.844  22.016   6.357  1.00  0.00     0.027 C 
BRANCH  13  14
ATOM     14  C   UNL     1      15.998  21.107   7.263  1.00  0.00     0.004 C 
BRANCH  14  15
ATOM     15  C   UNL     1      16.646  20.878   8.638  1.00  0.00     0.000 C 
BRANCH  15  16
ATOM     16  C   UNL     1      17.683  21.959   8.983  1.00  0.00    -0.000 C 
BRANCH  16  17
ATOM     17  C   UNL     1      17.108  22.991   9.958  1.00  0.00    -0.003 C 
ATOM     18  C   UNL     1      16.817  24.311   9.248  1.00  0.00     0.004 C 
ENDBRANCH  16  17
ENDBRANCH  15  16
ENDBRANCH  14  15
ENDBRANCH  13  14
ENDBRANCH  12  13
ENDBRANCH  10  11
ENDBRANCH   1  10
TORSDOF 13
ENDMDL
MODEL 8
REMARK VINA RESULT:    -2.919      3.696      8.299
REMARK INTER + INTRA:          -6.865
REMARK INTER:                  -6.008
REMARK INTRA:                  -0.857
REMARK UNBOUND:                -1.728
REMARK SMILES CCCCCCC=CCCCCCCCC(=O)[O-]
REMARK SMILES IDX 10 1 11 2 12 3 13 4 14 5 15 6 16 7 17 8 18 9 9 10 8 11 7 12
REMARK SMILES IDX 6 13 5 14 4 15 3 16 2 17 1 18
REMARK H PARENT
REMARK Flexibility Score: inf
ROOT
ATOM      1  C   UNL     1      17.615  22.371   3.909  1.00  0.00     0.004 C 
ENDROOT
BRANCH   1   2
ATOM      2  C   UNL     1      16.856  22.411   5.246  1.00  0.00     0.000 C 
BRANCH   2   3
ATOM      3  C   UNL     1      16.725  23.841   5.801  1.00  0.00     0.000 C 
BRANCH   3   4
ATOM      4  C   UNL     1      15.533  24.009   6.760  1.00  0.00     0.000 C 
BRANCH   4   5
ATOM      5  C   UNL     1      15.149  22.747   7.559  1.00  0.00     0.006 C 
BRANCH   5   6
ATOM      6  C   UNL     1      15.975  22.520   8.835  1.00  0.00     0.053 C 
BRANCH   6   7
ATOM      7  C   UNL     1      16.777  21.257   8.772  1.00  0.00     0.041 C 
ATOM      8  O   UNL     1      17.849  21.152   9.425  1.00  0.00    -0.550 OA
ATOM      9  O   UNL     1      16.330  20.187   8.006  1.00  0.00    -0.550 OA
ENDBRANCH   6   7
ENDBRANCH   5   6
ENDBRANCH   4   5
ENDBRANCH   3   4
ENDBRANCH   2   3
ENDBRANCH   1   2
BRANCH   1  10
ATOM     10  C   UNL     1      17.219  23.521   2.970  1.00  0.00     0.027 C 
BRANCH  10  11
ATOM     11  C   UNL     1      15.953  23.191   2.218  1.00  0.00    -0.031 C 
ATOM     12  C   UNL     1      15.682  23.609   0.966  1.00  0.00    -0.031 C 
BRANCH  12  13
ATOM     13  C   UNL     1      16.626  24.421   0.116  1.00  0.00     0.027 C 
BRANCH  13  14
ATOM     14  C   UNL     1      16.750  23.823  -1.294  1.00  0.00     0.004 C 
BRANCH  14  15
ATOM     15  C   UNL     1      17.949  24.391  -2.071  1.00  0.00     0.000 C 
BRANCH  15  16
ATOM     16  C   UNL     1      17.576  24.797  -3.506  1.00  0.00    -0.000 C 
BRANCH  16  17
ATOM     17  C   UNL     1      16.057  24.814  -3.703  1.00  0.00    -0.003 C 
ATOM     18  C   UNL     1      15.694  24.650  -5.177  1.00  0.00     0.004 C 
ENDBRANCH  16  17
ENDBRANCH  15  16
ENDBRANCH  14  15
ENDBRANCH  13  14
ENDBRANCH  12  13
ENDBRANCH  10  11
ENDBRANCH   1  10
TORSDOF 13
ENDMDL
MODEL 9
REMARK VINA RESULT:    -2.874      2.373      4.163
REMARK INTER + INTRA:          -6.786
REMARK INTER:                  -5.771
REMARK INTRA:                  -1.015
REMARK UNBOUND:                -1.728
REMARK SMILES CCCCCCC=CCCCCCCCC(=O)[O-]
REMARK SMILES IDX 10 1 11 2 12 3 13 4 14 5 15 6 16 7 17 8 18 9 9 10 8 11 7 12
REMARK SMILES IDX 6 13 5 14 4 15 3 16 2 17 1 18
REMARK H PARENT
REMARK Flexibility Score: inf
ROOT
ATOM      1  C   UNL     1      17.067  23.723   2.399  1.00  0.00     0.004 C 
ENDROOT
BRANCH   1   2
ATOM      2  C   UNL     1      16.078  24.220   1.331  1.00  0.00     0.000 C 
BRANCH   2   3
ATOM      3  C   UNL     1      15.575  23.082   0.426  1.00  0.00     0.000 C 
BRANCH   3   4
ATOM      4  C   UNL     1      15.438  23.498  -1.049  1.00  0.00     0.000 C 
BRANCH   4   5
ATOM      5  C   UNL     1      16.254  24.742  -1.458  1.00  0.00     0.006 C 
BRANCH   5   6
ATOM      6  C   UNL     1      17.577  24.433  -2.178  1.00  0.00     0.053 C 
BRANCH   6   7
ATOM      7  C   UNL     1      17.505  24.730  -3.644  1.00  0.00     0.041 C 
ATOM      8  O   UNL     1      16.388  24.804  -4.222  1.00  0.00    -0.550 OA
ATOM      9  O   UNL     1      18.671  24.944  -4.368  1.00  0.00    -0.550 OA
ENDBRANCH   6   7
ENDBRANCH   5   6
ENDBRANCH   4   5
ENDBRANCH   3   4
ENDBRANCH   2   3
ENDBRANCH   1   2
BRANCH   1  10
ATOM     10  C   UNL     1      16.678  22.353   2.973  1.00  0.00     0.027 C 
BRANCH  10  11
ATOM     11  C   UNL     1      17.515  22.018   4.183  1.00  0.00    -0.031 C 
ATOM     12  C   UNL     1      17.297  22.509   5.419  1.00  0.00    -0.031 C 
BRANCH  12  13
ATOM     13  C   UNL     1      16.153  23.422   5.782  1.00  0.00     0.027 C 
BRANCH  13  14
ATOM     14  C   UNL     1      16.396  24.095   7.141  1.00  0.00     0.004 C 
BRANCH  14  15
ATOM     15  C   UNL     1      17.099  23.164   8.143  1.00  0.00     0.000 C 
BRANCH  15  16
ATOM     16  C   UNL     1      16.123  22.181   8.810  1.00  0.00    -0.000 C 
BRANCH  16  17
ATOM     17  C   UNL     1      16.527  20.728   8.541  1.00  0.00    -0.003 C 
ATOM     18  C   UNL     1      15.384  19.954   7.889  1.00  0.00     0.004 C 
ENDBRANCH  16  17
ENDBRANCH  15  16
ENDBRANCH  14  15
ENDBRANCH  13  14
ENDBRANCH  12  13
ENDBRANCH  10  11
ENDBRANCH   1  10
TORSDOF 13
ENDMDL
