MODEL 1
REMARK VINA RESULT:    -3.587      0.000      0.000
REMARK INTER + INTRA:          -5.531
REMARK INTER:                  -5.474
REMARK INTRA:                  -0.058
REMARK UNBOUND:                -0.058
REMARK SMILES CC1=CCC[C@@H](C)C(=O)C[C@H](C(C)C)C(=O)C1
REMARK SMILES IDX 8 1 9 2 6 3 7 4 5 5 4 6 3 7 2 8 1 9 10 11 11 12 15 13 16 14
REMARK SMILES IDX 17 15 12 17 13 18 14 19
REMARK H PARENT
REMARK Flexibility Score: 70.00
ROOT
ATOM      1  C   UNL     1      -2.185   7.466  -9.794  1.00  0.00     0.136 C 
ATOM      2  O   UNL     1      -2.131   6.269  -9.543  1.00  0.00    -0.299 OA
ENDROOT
BRANCH   1   3
ATOM      3  C   UNL     1      -3.442   8.041 -10.418  1.00  0.00     0.053 C 
ATOM      4  C   UNL     1      -3.552   7.618 -11.890  1.00  0.00     0.016 C 
BRANCH   3   5
ATOM      5  C   UNL     1      -3.457   9.582 -10.284  1.00  0.00     0.015 C 
BRANCH   5   6
ATOM      6  C   UNL     1      -3.326  10.272 -11.655  1.00  0.00     0.028 C 
BRANCH   6   7
ATOM      7  C   UNL     1      -2.587  11.587 -11.594  1.00  0.00    -0.028 C 
ATOM      8  C   UNL     1      -1.246  11.744 -11.720  1.00  0.00    -0.070 CG0
ATOM      9  C   UNL     1      -0.684  13.131 -11.525  1.00  0.00     0.039 C 
ATOM     10  G   UNL     1      -0.293  10.615 -12.095  1.00  0.00     0.000 G0
ENDBRANCH   6   7
ENDBRANCH   5   6
ENDBRANCH   3   5
ENDBRANCH   1   3
BRANCH   1  11
ATOM     11  C   UNL     1      -0.993   8.338  -9.464  1.00  0.00     0.087 C 
BRANCH  11  12
ATOM     12  C   UNL     1      -0.003   8.447 -10.651  1.00  0.00     0.066 C 
BRANCH  12  13
ATOM     13  C   UNL     1       0.366   9.898 -10.927  1.00  0.00     0.140 C 
ATOM     14  O   UNL     1       1.182  10.476 -10.226  1.00  0.00    -0.299 OA
BRANCH  13  15
ATOM     15  C   UNL     1      -0.257  10.618 -12.098  1.00  0.00     0.106 CG0
ATOM     16  G   UNL     1      -1.216  11.735 -11.701  1.00  0.00     0.000 G0
ENDBRANCH  13  15
ENDBRANCH  12  13
BRANCH  12  17
ATOM     17  C   UNL     1       1.223   7.494 -10.492  1.00  0.00    -0.006 C 
ATOM     18  C   UNL     1       2.083   7.757  -9.242  1.00  0.00     0.008 C 
ATOM     19  C   UNL     1       2.101   7.486 -11.754  1.00  0.00     0.008 C 
ENDBRANCH  12  17
ENDBRANCH  11  12
ENDBRANCH   1  11
TORSDOF 1
ENDMDL
MODEL 2
REMARK VINA RESULT:    -3.217      1.836      4.059
REMARK INTER + INTRA:          -4.968
REMARK INTER:                  -5.090
REMARK INTRA:                   0.123
REMARK UNBOUND:                -0.058
REMARK SMILES CC1=CCC[C@@H](C)C(=O)C[C@H](C(C)C)C(=O)C1
REMARK SMILES IDX 8 1 9 2 6 3 7 4 5 5 4 6 3 7 2 8 1 9 10 11 11 12 15 13 16 14
REMARK SMILES IDX 17 15 12 17 13 18 14 19
REMARK H PARENT
REMARK Flexibility Score: 70.00
ROOT
ATOM      1  C   UNL     1      -0.088   7.469  -9.032  1.00  0.00     0.136 C 
ATOM      2  O   UNL     1      -0.959   7.392  -8.176  1.00  0.00    -0.299 OA
ENDROOT
BRANCH   1   3
ATOM      3  C   UNL     1       1.365   7.288  -8.635  1.00  0.00     0.053 C 
ATOM      4  C   UNL     1       1.514   7.343  -7.108  1.00  0.00     0.016 C 
BRANCH   3   5
ATOM      5  C   UNL     1       2.249   8.360  -9.315  1.00  0.00     0.015 C 
BRANCH   5   6
ATOM      6  C   UNL     1       1.864   9.782  -8.864  1.00  0.00     0.028 C 
BRANCH   6   7
ATOM      7  C   UNL     1       2.212  10.845  -9.878  1.00  0.00    -0.028 C 
ATOM      8  C   UNL     1       1.818  10.857 -11.175  1.00  0.00    -0.070 CG0
ATOM      9  C   UNL     1       2.356  11.954 -12.059  1.00  0.00     0.039 C 
ATOM     10  G   UNL     1       0.828   9.860 -11.768  1.00  0.00     0.000 G0
ENDBRANCH   6   7
ENDBRANCH   5   6
ENDBRANCH   3   5
ENDBRANCH   1   3
BRANCH   1  11
ATOM     11  C   UNL     1      -0.491   7.733 -10.467  1.00  0.00     0.087 C 
BRANCH  11  12
ATOM     12  C   UNL     1      -1.344   9.019 -10.605  1.00  0.00     0.066 C 
BRANCH  12  13
ATOM     13  C   UNL     1      -0.602  10.089 -11.394  1.00  0.00     0.140 C 
ATOM     14  O   UNL     1      -1.154  11.138 -11.691  1.00  0.00    -0.299 OA
BRANCH  13  15
ATOM     15  C   UNL     1       0.839   9.865 -11.785  1.00  0.00     0.106 CG0
ATOM     16  G   UNL     1       1.812  10.863 -11.166  1.00  0.00     0.000 G0
ENDBRANCH  13  15
ENDBRANCH  12  13
BRANCH  12  17
ATOM     17  C   UNL     1      -2.785   8.724 -11.127  1.00  0.00    -0.006 C 
ATOM     18  C   UNL     1      -3.916   9.244 -10.220  1.00  0.00     0.008 C 
ATOM     19  C   UNL     1      -2.984   7.230 -11.428  1.00  0.00     0.008 C 
ENDBRANCH  12  17
ENDBRANCH  11  12
ENDBRANCH   1  11
TORSDOF 1
ENDMDL
MODEL 3
REMARK VINA RESULT:    -3.085      9.967     12.025
REMARK INTER + INTRA:          -4.766
REMARK INTER:                  -4.883
REMARK INTRA:                   0.117
REMARK UNBOUND:                -0.058
REMARK SMILES CC1=CCC[C@@H](C)C(=O)C[C@H](C(C)C)C(=O)C1
REMARK SMILES IDX 8 1 9 2 6 3 7 4 5 5 4 6 3 7 2 8 1 9 10 11 11 12 15 13 16 14
REMARK SMILES IDX 17 15 12 17 13 18 14 19
REMARK H PARENT
REMARK Flexibility Score: 70.00
ROOT
ATOM      1  C   UNL     1      11.567   8.933  -6.971  1.00  0.00     0.136 C 
ATOM      2  O   UNL     1      11.693   7.746  -7.241  1.00  0.00    -0.299 OA
ENDROOT
BRANCH   1   3
ATOM      3  C   UNL     1      11.163   9.338  -5.566  1.00  0.00     0.053 C 
ATOM      4  C   UNL     1      11.260   8.139  -4.613  1.00  0.00     0.016 C 
BRANCH   3   5
ATOM      5  C   UNL     1       9.734   9.931  -5.563  1.00  0.00     0.015 C 
BRANCH   5   6
ATOM      6  C   UNL     1       9.759  11.471  -5.607  1.00  0.00     0.028 C 
BRANCH   6   7
ATOM      7  C   UNL     1       8.590  12.066  -6.354  1.00  0.00    -0.028 C 
ATOM      8  C   UNL     1       8.565  12.353  -7.679  1.00  0.00    -0.070 CG0
ATOM      9  C   UNL     1       7.338  13.043  -8.221  1.00  0.00     0.039 C 
ATOM     10  G   UNL     1       9.678  11.972  -8.648  1.00  0.00     0.000 G0
ENDBRANCH   6   7
ENDBRANCH   5   6
ENDBRANCH   3   5
ENDBRANCH   1   3
BRANCH   1  11
ATOM     11  C   UNL     1      11.827   9.962  -8.049  1.00  0.00     0.087 C 
BRANCH  11  12
ATOM     12  C   UNL     1      10.919   9.752  -9.286  1.00  0.00     0.066 C 
BRANCH  12  13
ATOM     13  C   UNL     1       9.632  10.558  -9.167  1.00  0.00     0.140 C 
ATOM     14  O   UNL     1       8.556  10.058  -9.456  1.00  0.00    -0.299 OA
BRANCH  13  15
ATOM     15  C   UNL     1       9.683  11.977  -8.654  1.00  0.00     0.106 CG0
ATOM     16  G   UNL     1       8.543  12.336  -7.708  1.00  0.00     0.000 G0
ENDBRANCH  13  15
ENDBRANCH  12  13
BRANCH  12  17
ATOM     17  C   UNL     1      11.684   9.967 -10.630  1.00  0.00    -0.006 C 
ATOM     18  C   UNL     1      10.779  10.190 -11.856  1.00  0.00     0.008 C 
ATOM     19  C   UNL     1      12.682   8.830 -10.902  1.00  0.00     0.008 C 
ENDBRANCH  12  17
ENDBRANCH  11  12
ENDBRANCH   1  11
TORSDOF 1
ENDMDL
MODEL 4
REMARK VINA RESULT:    -2.998     10.935     12.868
REMARK INTER + INTRA:          -4.632
REMARK INTER:                  -4.979
REMARK INTRA:                   0.346
REMARK UNBOUND:                -0.058
REMARK SMILES CC1=CCC[C@@H](C)C(=O)C[C@H](C(C)C)C(=O)C1
REMARK SMILES IDX 8 1 9 2 6 3 7 4 5 5 4 6 3 7 2 8 1 9 10 11 11 12 15 13 16 14
REMARK SMILES IDX 17 15 12 17 13 18 14 19
REMARK H PARENT
REMARK Flexibility Score: 70.00
ROOT
ATOM      1  C   UNL     1      10.898   9.321  -5.378  1.00  0.00     0.136 C 
ATOM      2  O   UNL     1      11.106   8.115  -5.378  1.00  0.00    -0.299 OA
ENDROOT
BRANCH   1   3
ATOM      3  C   UNL     1      12.051  10.277  -5.141  1.00  0.00     0.053 C 
ATOM      4  C   UNL     1      11.578  11.502  -4.346  1.00  0.00     0.016 C 
BRANCH   3   5
ATOM      5  C   UNL     1      12.685  10.704  -6.487  1.00  0.00     0.015 C 
BRANCH   5   6
ATOM      6  C   UNL     1      12.905   9.497  -7.418  1.00  0.00     0.028 C 
BRANCH   6   7
ATOM      7  C   UNL     1      12.512   9.768  -8.850  1.00  0.00    -0.028 C 
ATOM      8  C   UNL     1      11.275   9.588  -9.376  1.00  0.00    -0.070 CG0
ATOM      9  C   UNL     1      11.106   9.816 -10.857  1.00  0.00     0.039 C 
ATOM     10  G   UNL     1      10.049   9.223  -8.548  1.00  0.00     0.000 G0
ENDBRANCH   6   7
ENDBRANCH   5   6
ENDBRANCH   3   5
ENDBRANCH   1   3
BRANCH   1  11
ATOM     11  C   UNL     1       9.491   9.821  -5.625  1.00  0.00     0.087 C 
BRANCH  11  12
ATOM     12  C   UNL     1       9.453  10.960  -6.674  1.00  0.00     0.066 C 
BRANCH  12  13
ATOM     13  C   UNL     1       9.231  10.409  -8.076  1.00  0.00     0.140 C 
ATOM     14  O   UNL     1       8.422  10.931  -8.828  1.00  0.00    -0.299 OA
BRANCH  13  15
ATOM     15  C   UNL     1      10.040   9.227  -8.552  1.00  0.00     0.106 CG0
ATOM     16  G   UNL     1      11.274   9.606  -9.363  1.00  0.00     0.000 G0
ENDBRANCH  13  15
ENDBRANCH  12  13
BRANCH  12  17
ATOM     17  C   UNL     1       8.470  12.105  -6.274  1.00  0.00    -0.006 C 
ATOM     18  C   UNL     1       9.105  13.506  -6.216  1.00  0.00     0.008 C 
ATOM     19  C   UNL     1       7.740  11.792  -4.958  1.00  0.00     0.008 C 
ENDBRANCH  12  17
ENDBRANCH  11  12
ENDBRANCH   1  11
TORSDOF 1
ENDMDL
MODEL 5
REMARK VINA RESULT:    -2.915      1.834      2.872
REMARK INTER + INTRA:          -4.507
REMARK INTER:                  -4.129
REMARK INTRA:                  -0.378
REMARK UNBOUND:                -0.058
REMARK SMILES CC1=CCC[C@@H](C)C(=O)C[C@H](C(C)C)C(=O)C1
REMARK SMILES IDX 8 1 9 2 6 3 7 4 5 5 4 6 3 7 2 8 1 9 10 11 11 12 15 13 16 14
REMARK SMILES IDX 17 15 12 17 13 18 14 19
REMARK H PARENT
REMARK Flexibility Score: 70.00
ROOT
ATOM      1  C   UNL     1       0.410   7.546  -9.625  1.00  0.00     0.136 C 
ATOM      2  O   UNL     1       1.465   7.170  -9.134  1.00  0.00    -0.299 OA
ENDROOT
BRANCH   1   3
ATOM      3  C   UNL     1      -0.492   6.541 -10.316  1.00  0.00     0.053 C 
ATOM      4  C   UNL     1      -0.303   6.609 -11.838  1.00  0.00     0.016 C 
BRANCH   3   5
ATOM      5  C   UNL     1      -1.970   6.786  -9.932  1.00  0.00     0.015 C 
BRANCH   5   6
ATOM      6  C   UNL     1      -2.782   7.333 -11.122  1.00  0.00     0.028 C 
BRANCH   6   7
ATOM      7  C   UNL     1      -3.514   8.615 -10.806  1.00  0.00    -0.028 C 
ATOM      8  C   UNL     1      -3.087   9.864 -11.119  1.00  0.00    -0.070 CG0
ATOM      9  C   UNL     1      -3.911  11.027 -10.625  1.00  0.00     0.039 C 
ATOM     10  G   UNL     1      -1.861  10.149 -11.978  1.00  0.00     0.000 G0
ENDBRANCH   6   7
ENDBRANCH   5   6
ENDBRANCH   3   5
ENDBRANCH   1   3
BRANCH   1  11
ATOM     11  C   UNL     1       0.032   9.008  -9.517  1.00  0.00     0.087 C 
BRANCH  11  12
ATOM     12  C   UNL     1       0.432   9.808 -10.781  1.00  0.00     0.066 C 
BRANCH  12  13
ATOM     13  C   UNL     1      -0.694  10.732 -11.228  1.00  0.00     0.140 C 
ATOM     14  O   UNL     1      -0.638  11.931 -11.007  1.00  0.00    -0.299 OA
BRANCH  13  15
ATOM     15  C   UNL     1      -1.874  10.163 -11.978  1.00  0.00     0.106 CG0
ATOM     16  G   UNL     1      -3.081   9.860 -11.098  1.00  0.00     0.000 G0
ENDBRANCH  13  15
ENDBRANCH  12  13
BRANCH  12  17
ATOM     17  C   UNL     1       1.815  10.516 -10.625  1.00  0.00    -0.006 C 
ATOM     18  C   UNL     1       2.993   9.779 -11.287  1.00  0.00     0.008 C 
ATOM     19  C   UNL     1       2.133  10.818  -9.151  1.00  0.00     0.008 C 
ENDBRANCH  12  17
ENDBRANCH  11  12
ENDBRANCH   1  11
TORSDOF 1
ENDMDL
MODEL 6
REMARK VINA RESULT:    -2.912     10.428     12.274
REMARK INTER + INTRA:          -4.501
REMARK INTER:                  -4.358
REMARK INTRA:                  -0.143
REMARK UNBOUND:                -0.058
REMARK SMILES CC1=CCC[C@@H](C)C(=O)C[C@H](C(C)C)C(=O)C1
REMARK SMILES IDX 8 1 9 2 6 3 7 4 5 5 4 6 3 7 2 8 1 9 10 11 11 12 15 13 16 14
REMARK SMILES IDX 17 15 12 17 13 18 14 19
REMARK H PARENT
REMARK Flexibility Score: 70.00
ROOT
ATOM      1  C   UNL     1      10.379  10.267  -5.501  1.00  0.00     0.136 C 
ATOM      2  O   UNL     1      11.208  11.064  -5.083  1.00  0.00    -0.299 OA
ENDROOT
BRANCH   1   3
ATOM      3  C   UNL     1      10.800   8.842  -5.804  1.00  0.00     0.053 C 
ATOM      4  C   UNL     1      11.307   8.150  -4.531  1.00  0.00     0.016 C 
BRANCH   3   5
ATOM      5  C   UNL     1      11.880   8.821  -6.912  1.00  0.00     0.015 C 
BRANCH   5   6
ATOM      6  C   UNL     1      11.263   9.016  -8.310  1.00  0.00     0.028 C 
BRANCH   6   7
ATOM      7  C   UNL     1      11.427  10.418  -8.844  1.00  0.00    -0.028 C 
ATOM      8  C   UNL     1      10.418  11.287  -9.102  1.00  0.00    -0.070 CG0
ATOM      9  C   UNL     1      10.778  12.609  -9.733  1.00  0.00     0.039 C 
ATOM     10  G   UNL     1       8.960  11.021  -8.744  1.00  0.00     0.000 G0
ENDBRANCH   6   7
ENDBRANCH   5   6
ENDBRANCH   3   5
ENDBRANCH   1   3
BRANCH   1  11
ATOM     11  C   UNL     1       8.951  10.730  -5.694  1.00  0.00     0.087 C 
BRANCH  11  12
ATOM     12  C   UNL     1       8.875  12.121  -6.371  1.00  0.00     0.066 C 
BRANCH  12  13
ATOM     13  C   UNL     1       8.342  12.012  -7.794  1.00  0.00     0.140 C 
ATOM     14  O   UNL     1       7.441  12.741  -8.178  1.00  0.00    -0.299 OA
BRANCH  13  15
ATOM     15  C   UNL     1       8.955  11.015  -8.747  1.00  0.00     0.106 CG0
ATOM     16  G   UNL     1      10.410  11.305  -9.097  1.00  0.00     0.000 G0
ENDBRANCH  13  15
ENDBRANCH  12  13
BRANCH  12  17
ATOM     17  C   UNL     1       8.132  13.174  -5.490  1.00  0.00    -0.006 C 
ATOM     18  C   UNL     1       9.014  13.864  -4.433  1.00  0.00     0.008 C 
ATOM     19  C   UNL     1       6.877  12.577  -4.832  1.00  0.00     0.008 C 
ENDBRANCH  12  17
ENDBRANCH  11  12
ENDBRANCH   1  11
TORSDOF 1
ENDMDL
MODEL 7
REMARK VINA RESULT:    -2.861     10.035     11.520
REMARK INTER + INTRA:          -4.424
REMARK INTER:                  -4.140
REMARK INTRA:                  -0.284
REMARK UNBOUND:                -0.058
REMARK SMILES CC1=CCC[C@@H](C)C(=O)C[C@H](C(C)C)C(=O)C1
REMARK SMILES IDX 8 1 9 2 6 3 7 4 5 5 4 6 3 7 2 8 1 9 10 11 11 12 15 13 16 14
REMARK SMILES IDX 17 15 12 17 13 18 14 19
REMARK H PARENT
REMARK Flexibility Score: 70.00
ROOT
ATOM      1  C   UNL     1       9.787  10.690  -9.384  1.00  0.00     0.136 C 
ATOM      2  O   UNL     1      10.885  10.911  -9.877  1.00  0.00    -0.299 OA
ENDROOT
BRANCH   1   3
ATOM      3  C   UNL     1       8.586  11.493  -9.846  1.00  0.00     0.053 C 
ATOM      4  C   UNL     1       8.228  11.137 -11.296  1.00  0.00     0.016 C 
BRANCH   3   5
ATOM      5  C   UNL     1       8.862  13.009  -9.703  1.00  0.00     0.015 C 
BRANCH   5   6
ATOM      6  C   UNL     1       9.259  13.379  -8.261  1.00  0.00     0.028 C 
BRANCH   6   7
ATOM      7  C   UNL     1       8.103  13.332  -7.292  1.00  0.00    -0.028 C 
ATOM      8  C   UNL     1       8.077  12.636  -6.128  1.00  0.00    -0.070 CG0
ATOM      9  C   UNL     1       6.788  12.631  -5.345  1.00  0.00     0.039 C 
ATOM     10  G   UNL     1       9.286  11.908  -5.550  1.00  0.00     0.000 G0
ENDBRANCH   6   7
ENDBRANCH   5   6
ENDBRANCH   3   5
ENDBRANCH   1   3
BRANCH   1  11
ATOM     11  C   UNL     1       9.661   9.610  -8.331  1.00  0.00     0.087 C 
BRANCH  11  12
ATOM     12  C   UNL     1      10.367  10.001  -7.009  1.00  0.00     0.066 C 
BRANCH  12  13
ATOM     13  C   UNL     1       9.359  10.441  -5.955  1.00  0.00     0.140 C 
ATOM     14  O   UNL     1       8.624   9.626  -5.420  1.00  0.00    -0.299 OA
BRANCH  13  15
ATOM     15  C   UNL     1       9.290  11.892  -5.547  1.00  0.00     0.106 CG0
ATOM     16  G   UNL     1       8.088  12.640  -6.113  1.00  0.00     0.000 G0
ENDBRANCH  13  15
ENDBRANCH  12  13
BRANCH  12  17
ATOM     17  C   UNL     1      11.364   8.903  -6.520  1.00  0.00    -0.006 C 
ATOM     18  C   UNL     1      12.395   9.388  -5.484  1.00  0.00     0.008 C 
ATOM     19  C   UNL     1      12.072   8.215  -7.698  1.00  0.00     0.008 C 
ENDBRANCH  12  17
ENDBRANCH  11  12
ENDBRANCH   1  11
TORSDOF 1
ENDMDL
MODEL 8
REMARK VINA RESULT:    -2.656     10.686     13.256
REMARK INTER + INTRA:          -4.111
REMARK INTER:                  -3.884
REMARK INTRA:                  -0.227
REMARK UNBOUND:                -0.058
REMARK SMILES CC1=CCC[C@@H](C)C(=O)C[C@H](C(C)C)C(=O)C1
REMARK SMILES IDX 8 1 9 2 6 3 7 4 5 5 4 6 3 7 2 8 1 9 10 11 11 12 15 13 16 14
REMARK SMILES IDX 17 15 12 17 13 18 14 19
REMARK H PARENT
REMARK Flexibility Score: 70.00
ROOT
ATOM      1  C   UNL     1       9.512  10.300  -5.807  1.00  0.00     0.136 C 
ATOM      2  O   UNL     1       8.714   9.653  -5.142  1.00  0.00    -0.299 OA
ENDROOT
BRANCH   1   3
ATOM      3  C   UNL     1      10.997  10.026  -5.663  1.00  0.00     0.053 C 
ATOM      4  C   UNL     1      11.249   8.523  -5.477  1.00  0.00     0.016 C 
BRANCH   3   5
ATOM      5  C   UNL     1      11.585  10.834  -4.483  1.00  0.00     0.015 C 
BRANCH   5   6
ATOM      6  C   UNL     1      12.657  11.834  -4.958  1.00  0.00     0.028 C 
BRANCH   6   7
ATOM      7  C   UNL     1      13.006  11.685  -6.419  1.00  0.00    -0.028 C 
ATOM      8  C   UNL     1      12.530  12.459  -7.426  1.00  0.00    -0.070 CG0
ATOM      9  C   UNL     1      12.917  12.087  -8.836  1.00  0.00     0.039 C 
ATOM     10  G   UNL     1      11.677  13.703  -7.206  1.00  0.00     0.000 G0
ENDBRANCH   6   7
ENDBRANCH   5   6
ENDBRANCH   3   5
ENDBRANCH   1   3
BRANCH   1  11
ATOM     11  C   UNL     1       8.988  11.350  -6.763  1.00  0.00     0.087 C 
BRANCH  11  12
ATOM     12  C   UNL     1       9.378  12.783  -6.324  1.00  0.00     0.066 C 
BRANCH  12  13
ATOM     13  C   UNL     1      10.191  13.487  -7.403  1.00  0.00     0.140 C 
ATOM     14  O   UNL     1       9.651  13.898  -8.419  1.00  0.00    -0.299 OA
BRANCH  13  15
ATOM     15  C   UNL     1      11.671  13.705  -7.201  1.00  0.00     0.106 CG0
ATOM     16  G   UNL     1      12.519  12.461  -7.437  1.00  0.00     0.000 G0
ENDBRANCH  13  15
ENDBRANCH  12  13
BRANCH  12  17
ATOM     17  C   UNL     1       8.152  13.603  -5.812  1.00  0.00    -0.006 C 
ATOM     18  C   UNL     1       8.111  13.810  -4.286  1.00  0.00     0.008 C 
ATOM     19  C   UNL     1       6.825  13.008  -6.308  1.00  0.00     0.008 C 
ENDBRANCH  12  17
ENDBRANCH  11  12
ENDBRANCH   1  11
TORSDOF 1
ENDMDL
MODEL 9
REMARK VINA RESULT:    -2.652     11.513     12.881
REMARK INTER + INTRA:          -4.104
REMARK INTER:                  -3.953
REMARK INTRA:                  -0.151
REMARK UNBOUND:                -0.058
REMARK SMILES CC1=CCC[C@@H](C)C(=O)C[C@H](C(C)C)C(=O)C1
REMARK SMILES IDX 8 1 9 2 6 3 7 4 5 5 4 6 3 7 2 8 1 9 10 11 11 12 15 13 16 14
REMARK SMILES IDX 17 15 12 17 13 18 14 19
REMARK H PARENT
REMARK Flexibility Score: 70.00
ROOT
ATOM      1  C   UNL     1      11.626   8.958  -7.089  1.00  0.00     0.136 C 
ATOM      2  O   UNL     1      11.651   7.745  -7.248  1.00  0.00    -0.299 OA
ENDROOT
BRANCH   1   3
ATOM      3  C   UNL     1      10.918   9.537  -5.879  1.00  0.00     0.053 C 
ATOM      4  C   UNL     1      11.159   8.657  -4.645  1.00  0.00     0.016 C 
BRANCH   3   5
ATOM      5  C   UNL     1       9.404   9.691  -6.159  1.00  0.00     0.015 C 
BRANCH   5   6
ATOM      6  C   UNL     1       8.935  11.145  -5.957  1.00  0.00     0.028 C 
BRANCH   6   7
ATOM      7  C   UNL     1      10.034  12.068  -5.490  1.00  0.00    -0.028 C 
ATOM      8  C   UNL     1      10.813  12.835  -6.291  1.00  0.00    -0.070 CG0
ATOM      9  C   UNL     1      11.930  13.614  -5.642  1.00  0.00     0.039 C 
ATOM     10  G   UNL     1      10.589  12.991  -7.791  1.00  0.00     0.000 G0
ENDBRANCH   6   7
ENDBRANCH   5   6
ENDBRANCH   3   5
ENDBRANCH   1   3
BRANCH   1  11
ATOM     11  C   UNL     1      12.313   9.844  -8.105  1.00  0.00     0.087 C 
BRANCH  11  12
ATOM     12  C   UNL     1      11.305  10.718  -8.893  1.00  0.00     0.066 C 
BRANCH  12  13
ATOM     13  C   UNL     1      11.559  12.201  -8.655  1.00  0.00     0.140 C 
ATOM     14  O   UNL     1      12.517  12.758  -9.167  1.00  0.00    -0.299 OA
BRANCH  13  15
ATOM     15  C   UNL     1      10.598  12.996  -7.804  1.00  0.00     0.106 CG0
ATOM     16  G   UNL     1      10.806  12.819  -6.304  1.00  0.00     0.000 G0
ENDBRANCH  13  15
ENDBRANCH  12  13
BRANCH  12  17
ATOM     17  C   UNL     1      11.222  10.318 -10.400  1.00  0.00    -0.006 C 
ATOM     18  C   UNL     1       9.815  10.426 -11.016  1.00  0.00     0.008 C 
ATOM     19  C   UNL     1      11.810   8.920 -10.649  1.00  0.00     0.008 C 
ENDBRANCH  12  17
ENDBRANCH  11  12
ENDBRANCH   1  11
TORSDOF 1
ENDMDL
