MODEL 1
REMARK VINA RESULT:    -6.665      0.000      0.000
REMARK INTER + INTRA:          -8.216
REMARK INTER:                  -8.029
REMARK INTRA:                  -0.187
REMARK UNBOUND:                -0.187
REMARK SMILES O=c1c(O)c(-c2ccc(O)c(O)c2)oc2cc(O)cc(O)c12
REMARK SMILES IDX 5 1 3 2 2 3 1 4 22 5 20 6 19 7 17 8 16 9 15 10 14 11 6 12
REMARK SMILES IDX 7 13 8 14 9 15 13 16 11 17 10 18 12 20 4 22 21 24 18 26
REMARK H PARENT 10 19 12 21 4 23 21 25 18 27
REMARK Flexibility Score: inf
ROOT
ATOM      1  C   UNL     1     -27.321   9.749 -23.579  1.00  0.00     0.180 A 
ATOM      2  C   UNL     1     -26.930   8.445 -23.929  1.00  0.00     0.208 A 
ATOM      3  C   UNL     1     -26.965   7.438 -22.951  1.00  0.00     0.238 A 
ATOM      4  O   UNL     1     -26.667   6.262 -23.284  1.00  0.00    -0.285 OA
ATOM      5  C   UNL     1     -27.375   7.751 -21.632  1.00  0.00     0.111 A 
ATOM      6  C   UNL     1     -27.410   6.818 -20.552  1.00  0.00     0.134 A 
ATOM      7  C   UNL     1     -27.956   7.207 -19.323  1.00  0.00     0.093 A 
ATOM      8  C   UNL     1     -28.408   8.512 -19.115  1.00  0.00     0.123 A 
ATOM      9  C   UNL     1     -28.322   9.445 -20.145  1.00  0.00     0.094 A 
ATOM     10  C   UNL     1     -27.817   9.078 -21.394  1.00  0.00     0.146 A 
ATOM     11  O   UNL     1     -27.763   9.997 -22.351  1.00  0.00    -0.452 OA
ENDROOT
BRANCH   1  12
ATOM     12  C   UNL     1     -27.288  10.868 -24.548  1.00  0.00     0.025 A 
ATOM     13  C   UNL     1     -28.153  10.904 -25.655  1.00  0.00     0.016 A 
ATOM     14  C   UNL     1     -28.087  11.959 -26.570  1.00  0.00     0.051 A 
ATOM     15  C   UNL     1     -27.148  12.984 -26.399  1.00  0.00     0.157 A 
ATOM     16  C   UNL     1     -26.335  11.890 -24.393  1.00  0.00     0.062 A 
ATOM     17  C   UNL     1     -26.269  12.948 -25.311  1.00  0.00     0.158 A 
BRANCH  15  18
ATOM     18  O   UNL     1     -27.080  14.039 -27.308  1.00  0.00    -0.504 OA
ATOM     19  H   UNL     1     -27.005  13.874 -28.305  1.00  0.00     0.293 HD
ENDBRANCH  15  18
BRANCH  17  20
ATOM     20  O   UNL     1     -25.330  13.966 -25.146  1.00  0.00    -0.504 OA
ATOM     21  H   UNL     1     -25.492  14.738 -24.510  1.00  0.00     0.293 HD
ENDBRANCH  17  20
ENDBRANCH   1  12
BRANCH   2  22
ATOM     22  O   UNL     1     -26.551   8.153 -25.243  1.00  0.00    -0.502 OA
ATOM     23  H   UNL     1     -26.932   8.647 -26.041  1.00  0.00     0.293 HD
ENDBRANCH   2  22
BRANCH   6  24
ATOM     24  O   UNL     1     -26.900   5.518 -20.626  1.00  0.00    -0.507 OA
ATOM     25  H   UNL     1     -26.087   5.249 -21.160  1.00  0.00     0.293 HD
ENDBRANCH   6  24
BRANCH   8  26
ATOM     26  O   UNL     1     -28.935   8.894 -17.882  1.00  0.00    -0.508 OA
ATOM     27  H   UNL     1     -29.557   8.288 -17.361  1.00  0.00     0.293 HD
ENDBRANCH   8  26
TORSDOF 6
ENDMDL
MODEL 2
REMARK VINA RESULT:    -6.312      1.746      3.232
REMARK INTER + INTRA:          -7.790
REMARK INTER:                  -7.546
REMARK INTRA:                  -0.244
REMARK UNBOUND:                -0.187
REMARK SMILES O=c1c(O)c(-c2ccc(O)c(O)c2)oc2cc(O)cc(O)c12
REMARK SMILES IDX 5 1 3 2 2 3 1 4 22 5 20 6 19 7 17 8 16 9 15 10 14 11 6 12
REMARK SMILES IDX 7 13 8 14 9 15 13 16 11 17 10 18 12 20 4 22 21 24 18 26
REMARK H PARENT 10 19 12 21 4 23 21 25 18 27
REMARK Flexibility Score: inf
ROOT
ATOM      1  C   UNL     1     -27.137  10.821 -23.745  1.00  0.00     0.180 A 
ATOM      2  C   UNL     1     -28.173  10.883 -22.798  1.00  0.00     0.208 A 
ATOM      3  C   UNL     1     -28.222   9.919 -21.777  1.00  0.00     0.238 A 
ATOM      4  O   UNL     1     -29.120  10.013 -20.900  1.00  0.00    -0.285 OA
ATOM      5  C   UNL     1     -27.245   8.896 -21.727  1.00  0.00     0.111 A 
ATOM      6  C   UNL     1     -27.222   7.845 -20.762  1.00  0.00     0.134 A 
ATOM      7  C   UNL     1     -26.134   6.964 -20.728  1.00  0.00     0.093 A 
ATOM      8  C   UNL     1     -25.102   7.055 -21.666  1.00  0.00     0.123 A 
ATOM      9  C   UNL     1     -25.147   8.041 -22.649  1.00  0.00     0.094 A 
ATOM     10  C   UNL     1     -26.200   8.958 -22.686  1.00  0.00     0.146 A 
ATOM     11  O   UNL     1     -26.198   9.888 -23.633  1.00  0.00    -0.452 OA
ENDROOT
BRANCH   1  12
ATOM     12  C   UNL     1     -27.033  11.785 -24.863  1.00  0.00     0.025 A 
ATOM     13  C   UNL     1     -26.070  12.809 -24.860  1.00  0.00     0.016 A 
ATOM     14  C   UNL     1     -26.005  13.724 -25.914  1.00  0.00     0.051 A 
ATOM     15  C   UNL     1     -26.910  13.635 -26.981  1.00  0.00     0.157 A 
ATOM     16  C   UNL     1     -27.950  11.715 -25.926  1.00  0.00     0.062 A 
ATOM     17  C   UNL     1     -27.885  12.632 -26.985  1.00  0.00     0.158 A 
BRANCH  15  18
ATOM     18  O   UNL     1     -26.848  14.545 -28.036  1.00  0.00    -0.504 OA
ATOM     19  H   UNL     1     -26.276  15.379 -27.983  1.00  0.00     0.293 HD
ENDBRANCH  15  18
BRANCH  17  20
ATOM     20  O   UNL     1     -28.789  12.551 -28.044  1.00  0.00    -0.504 OA
ATOM     21  H   UNL     1     -29.004  11.666 -28.490  1.00  0.00     0.293 HD
ENDBRANCH  17  20
ENDBRANCH   1  12
BRANCH   2  22
ATOM     22  O   UNL     1     -29.115  11.915 -22.852  1.00  0.00    -0.502 OA
ATOM     23  H   UNL     1     -29.731  12.130 -22.078  1.00  0.00     0.293 HD
ENDBRANCH   2  22
BRANCH   6  24
ATOM     24  O   UNL     1     -28.245   7.608 -19.840  1.00  0.00    -0.507 OA
ATOM     25  H   UNL     1     -28.907   6.849 -19.899  1.00  0.00     0.293 HD
ENDBRANCH   6  24
BRANCH   8  26
ATOM     26  O   UNL     1     -24.032   6.163 -21.635  1.00  0.00    -0.508 OA
ATOM     27  H   UNL     1     -23.712   5.748 -20.768  1.00  0.00     0.293 HD
ENDBRANCH   8  26
TORSDOF 6
ENDMDL
MODEL 3
REMARK VINA RESULT:    -6.224     18.196     19.952
REMARK INTER + INTRA:          -7.684
REMARK INTER:                  -7.414
REMARK INTRA:                  -0.270
REMARK UNBOUND:                -0.187
REMARK SMILES O=c1c(O)c(-c2ccc(O)c(O)c2)oc2cc(O)cc(O)c12
REMARK SMILES IDX 5 1 3 2 2 3 1 4 22 5 20 6 19 7 17 8 16 9 15 10 14 11 6 12
REMARK SMILES IDX 7 13 8 14 9 15 13 16 11 17 10 18 12 20 4 22 21 24 18 26
REMARK H PARENT 10 19 12 21 4 23 21 25 18 27
REMARK Flexibility Score: inf
ROOT
ATOM      1  C   UNL     1     -12.150   2.519 -12.349  1.00  0.00     0.180 A 
ATOM      2  C   UNL     1     -11.134   2.027 -11.512  1.00  0.00     0.208 A 
ATOM      3  C   UNL     1     -11.487   1.247 -10.398  1.00  0.00     0.238 A 
ATOM      4  O   UNL     1     -10.570   0.763  -9.685  1.00  0.00    -0.285 OA
ATOM      5  C   UNL     1     -12.851   0.983 -10.127  1.00  0.00     0.111 A 
ATOM      6  C   UNL     1     -13.324   0.240  -9.004  1.00  0.00     0.134 A 
ATOM      7  C   UNL     1     -14.687  -0.069  -8.907  1.00  0.00     0.093 A 
ATOM      8  C   UNL     1     -15.601   0.394  -9.856  1.00  0.00     0.123 A 
ATOM      9  C   UNL     1     -15.156   1.171 -10.923  1.00  0.00     0.094 A 
ATOM     10  C   UNL     1     -13.798   1.465 -11.068  1.00  0.00     0.146 A 
ATOM     11  O   UNL     1     -13.416   2.200 -12.105  1.00  0.00    -0.452 OA
ENDROOT
BRANCH   1  12
ATOM     12  C   UNL     1     -11.858   3.368 -13.527  1.00  0.00     0.025 A 
ATOM     13  C   UNL     1     -11.473   4.712 -13.383  1.00  0.00     0.016 A 
ATOM     14  C   UNL     1     -11.226   5.502 -14.509  1.00  0.00     0.051 A 
ATOM     15  C   UNL     1     -11.373   4.963 -15.794  1.00  0.00     0.157 A 
ATOM     16  C   UNL     1     -12.024   2.840 -14.819  1.00  0.00     0.062 A 
ATOM     17  C   UNL     1     -11.775   3.632 -15.949  1.00  0.00     0.158 A 
BRANCH  15  18
ATOM     18  O   UNL     1     -11.126   5.747 -16.921  1.00  0.00    -0.504 OA
ATOM     19  H   UNL     1     -10.211   6.141 -17.101  1.00  0.00     0.293 HD
ENDBRANCH  15  18
BRANCH  17  20
ATOM     20  O   UNL     1     -11.928   3.100 -17.229  1.00  0.00    -0.504 OA
ATOM     21  H   UNL     1     -12.845   2.934 -17.628  1.00  0.00     0.293 HD
ENDBRANCH  17  20
ENDBRANCH   1  12
BRANCH   2  22
ATOM     22  O   UNL     1      -9.792   2.280 -11.811  1.00  0.00    -0.502 OA
ATOM     23  H   UNL     1      -9.091   1.548 -11.829  1.00  0.00     0.293 HD
ENDBRANCH   2  22
BRANCH   6  24
ATOM     24  O   UNL     1     -12.510  -0.191  -7.953  1.00  0.00    -0.507 OA
ATOM     25  H   UNL     1     -12.795  -0.837  -7.233  1.00  0.00     0.293 HD
ENDBRANCH   6  24
BRANCH   8  26
ATOM     26  O   UNL     1     -16.958   0.095  -9.742  1.00  0.00    -0.508 OA
ATOM     27  H   UNL     1     -17.357  -0.730 -10.173  1.00  0.00     0.293 HD
ENDBRANCH   8  26
TORSDOF 6
ENDMDL
MODEL 4
REMARK VINA RESULT:    -6.082      1.292      2.909
REMARK INTER + INTRA:          -7.513
REMARK INTER:                  -7.227
REMARK INTRA:                  -0.285
REMARK UNBOUND:                -0.187
REMARK SMILES O=c1c(O)c(-c2ccc(O)c(O)c2)oc2cc(O)cc(O)c12
REMARK SMILES IDX 5 1 3 2 2 3 1 4 22 5 20 6 19 7 17 8 16 9 15 10 14 11 6 12
REMARK SMILES IDX 7 13 8 14 9 15 13 16 11 17 10 18 12 20 4 22 21 24 18 26
REMARK H PARENT 10 19 12 21 4 23 21 25 18 27
REMARK Flexibility Score: inf
ROOT
ATOM      1  C   UNL     1     -27.538  10.151 -23.482  1.00  0.00     0.180 A 
ATOM      2  C   UNL     1     -28.146  10.428 -22.246  1.00  0.00     0.208 A 
ATOM      3  C   UNL     1     -28.330   9.381 -21.327  1.00  0.00     0.238 A 
ATOM      4  O   UNL     1     -28.824   9.646 -20.200  1.00  0.00    -0.285 OA
ATOM      5  C   UNL     1     -27.919   8.069 -21.664  1.00  0.00     0.111 A 
ATOM      6  C   UNL     1     -28.093   6.926 -20.827  1.00  0.00     0.134 A 
ATOM      7  C   UNL     1     -27.530   5.701 -21.206  1.00  0.00     0.093 A 
ATOM      8  C   UNL     1     -26.857   5.562 -22.423  1.00  0.00     0.123 A 
ATOM      9  C   UNL     1     -26.735   6.658 -23.273  1.00  0.00     0.094 A 
ATOM     10  C   UNL     1     -27.253   7.903 -22.906  1.00  0.00     0.146 A 
ATOM     11  O   UNL     1     -27.104   8.923 -23.742  1.00  0.00    -0.452 OA
ENDROOT
BRANCH   1  12
ATOM     12  C   UNL     1     -27.333  11.196 -24.510  1.00  0.00     0.025 A 
ATOM     13  C   UNL     1     -28.168  11.287 -25.638  1.00  0.00     0.016 A 
ATOM     14  C   UNL     1     -27.941  12.267 -26.608  1.00  0.00     0.051 A 
ATOM     15  C   UNL     1     -26.870  13.160 -26.472  1.00  0.00     0.157 A 
ATOM     16  C   UNL     1     -26.249  12.082 -24.391  1.00  0.00     0.062 A 
ATOM     17  C   UNL     1     -26.021  13.066 -25.364  1.00  0.00     0.158 A 
BRANCH  15  18
ATOM     18  O   UNL     1     -26.641  14.140 -27.438  1.00  0.00    -0.504 OA
ATOM     19  H   UNL     1     -26.381  13.898 -28.387  1.00  0.00     0.293 HD
ENDBRANCH  15  18
BRANCH  17  20
ATOM     20  O   UNL     1     -24.952  13.951 -25.235  1.00  0.00    -0.504 OA
ATOM     21  H   UNL     1     -24.940  14.842 -25.719  1.00  0.00     0.293 HD
ENDBRANCH  17  20
ENDBRANCH   1  12
BRANCH   2  22
ATOM     22  O   UNL     1     -28.524  11.735 -21.924  1.00  0.00    -0.502 OA
ATOM     23  H   UNL     1     -29.310  11.941 -21.319  1.00  0.00     0.293 HD
ENDBRANCH   2  22
BRANCH   6  24
ATOM     24  O   UNL     1     -28.827   6.934 -19.637  1.00  0.00    -0.507 OA
ATOM     25  H   UNL     1     -29.820   6.768 -19.573  1.00  0.00     0.293 HD
ENDBRANCH   6  24
BRANCH   8  26
ATOM     26  O   UNL     1     -26.315   4.335 -22.799  1.00  0.00    -0.508 OA
ATOM     27  H   UNL     1     -25.814   4.223 -23.673  1.00  0.00     0.293 HD
ENDBRANCH   8  26
TORSDOF 6
ENDMDL
MODEL 5
REMARK VINA RESULT:    -5.959     18.450     20.612
REMARK INTER + INTRA:          -7.365
REMARK INTER:                  -7.062
REMARK INTRA:                  -0.303
REMARK UNBOUND:                -0.187
REMARK SMILES O=c1c(O)c(-c2ccc(O)c(O)c2)oc2cc(O)cc(O)c12
REMARK SMILES IDX 5 1 3 2 2 3 1 4 22 5 20 6 19 7 17 8 16 9 15 10 14 11 6 12
REMARK SMILES IDX 7 13 8 14 9 15 13 16 11 17 10 18 12 20 4 22 21 24 18 26
REMARK H PARENT 10 19 12 21 4 23 21 25 18 27
REMARK Flexibility Score: inf
ROOT
ATOM      1  C   UNL     1     -12.072   2.436 -12.294  1.00  0.00     0.180 A 
ATOM      2  C   UNL     1     -13.372   2.190 -11.820  1.00  0.00     0.208 A 
ATOM      3  C   UNL     1     -13.546   1.329 -10.724  1.00  0.00     0.238 A 
ATOM      4  O   UNL     1     -14.707   1.157 -10.270  1.00  0.00    -0.285 OA
ATOM      5  C   UNL     1     -12.420   0.712 -10.128  1.00  0.00     0.111 A 
ATOM      6  C   UNL     1     -12.484  -0.209  -9.039  1.00  0.00     0.134 A 
ATOM      7  C   UNL     1     -11.298  -0.656  -8.444  1.00  0.00     0.093 A 
ATOM      8  C   UNL     1     -10.050  -0.267  -8.941  1.00  0.00     0.123 A 
ATOM      9  C   UNL     1      -9.980   0.584 -10.040  1.00  0.00     0.094 A 
ATOM     10  C   UNL     1     -11.145   1.077 -10.632  1.00  0.00     0.146 A 
ATOM     11  O   UNL     1     -11.031   1.894 -11.672  1.00  0.00    -0.452 OA
ENDROOT
BRANCH   1  12
ATOM     12  C   UNL     1     -11.811   3.311 -13.459  1.00  0.00     0.025 A 
ATOM     13  C   UNL     1     -11.455   4.662 -13.296  1.00  0.00     0.016 A 
ATOM     14  C   UNL     1     -11.237   5.476 -14.410  1.00  0.00     0.051 A 
ATOM     15  C   UNL     1     -11.383   4.956 -15.703  1.00  0.00     0.157 A 
ATOM     16  C   UNL     1     -11.975   2.802 -14.759  1.00  0.00     0.062 A 
ATOM     17  C   UNL     1     -11.756   3.618 -15.878  1.00  0.00     0.158 A 
BRANCH  15  18
ATOM     18  O   UNL     1     -11.165   5.764 -16.818  1.00  0.00    -0.504 OA
ATOM     19  H   UNL     1     -10.928   5.369 -17.721  1.00  0.00     0.293 HD
ENDBRANCH  15  18
BRANCH  17  20
ATOM     20  O   UNL     1     -11.908   3.106 -17.165  1.00  0.00    -0.504 OA
ATOM     21  H   UNL     1     -12.405   2.239 -17.335  1.00  0.00     0.293 HD
ENDBRANCH  17  20
ENDBRANCH   1  12
BRANCH   2  22
ATOM     22  O   UNL     1     -14.468   2.828 -12.410  1.00  0.00    -0.502 OA
ATOM     23  H   UNL     1     -15.203   3.261 -11.864  1.00  0.00     0.293 HD
ENDBRANCH   2  22
BRANCH   6  24
ATOM     24  O   UNL     1     -13.675  -0.732  -8.527  1.00  0.00    -0.507 OA
ATOM     25  H   UNL     1     -14.453  -0.177  -8.202  1.00  0.00     0.293 HD
ENDBRANCH   6  24
BRANCH   8  26
ATOM     26  O   UNL     1      -8.875  -0.731  -8.353  1.00  0.00    -0.508 OA
ATOM     27  H   UNL     1      -8.224  -0.100  -7.900  1.00  0.00     0.293 HD
ENDBRANCH   8  26
TORSDOF 6
ENDMDL
MODEL 6
REMARK VINA RESULT:    -5.925     17.939     19.658
REMARK INTER + INTRA:          -7.324
REMARK INTER:                  -7.002
REMARK INTRA:                  -0.323
REMARK UNBOUND:                -0.187
REMARK SMILES O=c1c(O)c(-c2ccc(O)c(O)c2)oc2cc(O)cc(O)c12
REMARK SMILES IDX 5 1 3 2 2 3 1 4 22 5 20 6 19 7 17 8 16 9 15 10 14 11 6 12
REMARK SMILES IDX 7 13 8 14 9 15 13 16 11 17 10 18 12 20 4 22 21 24 18 26
REMARK H PARENT 10 19 12 21 4 23 21 25 18 27
REMARK Flexibility Score: inf
ROOT
ATOM      1  C   UNL     1     -11.575   3.361 -13.745  1.00  0.00     0.180 A 
ATOM      2  C   UNL     1     -10.367   2.653 -13.871  1.00  0.00     0.208 A 
ATOM      3  C   UNL     1      -9.934   1.851 -12.802  1.00  0.00     0.238 A 
ATOM      4  O   UNL     1      -8.881   1.176 -12.941  1.00  0.00    -0.285 OA
ATOM      5  C   UNL     1     -10.705   1.781 -11.617  1.00  0.00     0.111 A 
ATOM      6  C   UNL     1     -10.341   1.033 -10.457  1.00  0.00     0.134 A 
ATOM      7  C   UNL     1     -11.243   0.931  -9.390  1.00  0.00     0.093 A 
ATOM      8  C   UNL     1     -12.467   1.605  -9.414  1.00  0.00     0.123 A 
ATOM      9  C   UNL     1     -12.804   2.386 -10.517  1.00  0.00     0.094 A 
ATOM     10  C   UNL     1     -11.942   2.477 -11.612  1.00  0.00     0.146 A 
ATOM     11  O   UNL     1     -12.308   3.224 -12.647  1.00  0.00    -0.452 OA
ENDROOT
BRANCH   1  12
ATOM     12  C   UNL     1     -12.083   4.246 -14.818  1.00  0.00     0.025 A 
ATOM     13  C   UNL     1     -12.943   3.763 -15.820  1.00  0.00     0.016 A 
ATOM     14  C   UNL     1     -13.392   4.610 -16.836  1.00  0.00     0.051 A 
ATOM     15  C   UNL     1     -12.978   5.948 -16.874  1.00  0.00     0.157 A 
ATOM     16  C   UNL     1     -11.656   5.584 -14.873  1.00  0.00     0.062 A 
ATOM     17  C   UNL     1     -12.106   6.434 -15.893  1.00  0.00     0.158 A 
BRANCH  15  18
ATOM     18  O   UNL     1     -13.425   6.797 -17.886  1.00  0.00    -0.504 OA
ATOM     19  H   UNL     1     -12.776   7.316 -18.465  1.00  0.00     0.293 HD
ENDBRANCH  15  18
BRANCH  17  20
ATOM     20  O   UNL     1     -11.690   7.764 -15.937  1.00  0.00    -0.504 OA
ATOM     21  H   UNL     1     -12.297   8.499 -16.285  1.00  0.00     0.293 HD
ENDBRANCH  17  20
ENDBRANCH   1  12
BRANCH   2  22
ATOM     22  O   UNL     1      -9.633   2.718 -15.059  1.00  0.00    -0.502 OA
ATOM     23  H   UNL     1     -10.074   2.717 -15.971  1.00  0.00     0.293 HD
ENDBRANCH   2  22
BRANCH   6  24
ATOM     24  O   UNL     1      -9.106   0.398 -10.292  1.00  0.00    -0.507 OA
ATOM     25  H   UNL     1      -8.213   0.867 -10.309  1.00  0.00     0.293 HD
ENDBRANCH   6  24
BRANCH   8  26
ATOM     26  O   UNL     1     -13.351   1.511  -8.341  1.00  0.00    -0.508 OA
ATOM     27  H   UNL     1     -13.072   1.100  -7.458  1.00  0.00     0.293 HD
ENDBRANCH   8  26
TORSDOF 6
ENDMDL
MODEL 7
REMARK VINA RESULT:    -5.891      3.254      4.821
REMARK INTER + INTRA:          -7.282
REMARK INTER:                  -6.959
REMARK INTRA:                  -0.323
REMARK UNBOUND:                -0.187
REMARK SMILES O=c1c(O)c(-c2ccc(O)c(O)c2)oc2cc(O)cc(O)c12
REMARK SMILES IDX 5 1 3 2 2 3 1 4 22 5 20 6 19 7 17 8 16 9 15 10 14 11 6 12
REMARK SMILES IDX 7 13 8 14 9 15 13 16 11 17 10 18 12 20 4 22 21 24 18 26
REMARK H PARENT 10 19 12 21 4 23 21 25 18 27
REMARK Flexibility Score: inf
ROOT
ATOM      1  C   UNL     1     -27.478   5.665 -22.060  1.00  0.00     0.180 A 
ATOM      2  C   UNL     1     -27.284   4.628 -22.988  1.00  0.00     0.208 A 
ATOM      3  C   UNL     1     -27.442   3.297 -22.567  1.00  0.00     0.238 A 
ATOM      4  O   UNL     1     -27.322   2.376 -23.416  1.00  0.00    -0.285 OA
ATOM      5  C   UNL     1     -27.777   3.021 -21.219  1.00  0.00     0.111 A 
ATOM      6  C   UNL     1     -27.922   1.710 -20.673  1.00  0.00     0.134 A 
ATOM      7  C   UNL     1     -28.382   1.557 -19.360  1.00  0.00     0.093 A 
ATOM      8  C   UNL     1     -28.639   2.667 -18.551  1.00  0.00     0.123 A 
ATOM      9  C   UNL     1     -28.443   3.950 -19.057  1.00  0.00     0.094 A 
ATOM     10  C   UNL     1     -28.020   4.136 -20.375  1.00  0.00     0.146 A 
ATOM     11  O   UNL     1     -27.855   5.376 -20.820  1.00  0.00    -0.452 OA
ENDROOT
BRANCH   1  12
ATOM     12  C   UNL     1     -27.305   7.090 -22.423  1.00  0.00     0.025 A 
ATOM     13  C   UNL     1     -28.377   7.856 -22.912  1.00  0.00     0.016 A 
ATOM     14  C   UNL     1     -28.186   9.193 -23.271  1.00  0.00     0.051 A 
ATOM     15  C   UNL     1     -26.918   9.778 -23.159  1.00  0.00     0.157 A 
ATOM     16  C   UNL     1     -26.032   7.677 -22.333  1.00  0.00     0.062 A 
ATOM     17  C   UNL     1     -25.839   9.019 -22.693  1.00  0.00     0.158 A 
BRANCH  15  18
ATOM     18  O   UNL     1     -26.722  11.112 -23.515  1.00  0.00    -0.504 OA
ATOM     19  H   UNL     1     -26.998  11.463 -24.425  1.00  0.00     0.293 HD
ENDBRANCH  15  18
BRANCH  17  20
ATOM     20  O   UNL     1     -24.576   9.602 -22.589  1.00  0.00    -0.504 OA
ATOM     21  H   UNL     1     -24.195   9.885 -21.694  1.00  0.00     0.293 HD
ENDBRANCH  17  20
ENDBRANCH   1  12
BRANCH   2  22
ATOM     22  O   UNL     1     -26.977   4.924 -24.320  1.00  0.00    -0.502 OA
ATOM     23  H   UNL     1     -26.957   4.216 -25.044  1.00  0.00     0.293 HD
ENDBRANCH   2  22
BRANCH   6  24
ATOM     24  O   UNL     1     -27.604   0.536 -21.364  1.00  0.00    -0.507 OA
ATOM     25  H   UNL     1     -26.812  -0.054 -21.160  1.00  0.00     0.293 HD
ENDBRANCH   6  24
BRANCH   8  26
ATOM     26  O   UNL     1     -29.081   2.505 -17.240  1.00  0.00    -0.508 OA
ATOM     27  H   UNL     1     -30.044   2.270 -17.030  1.00  0.00     0.293 HD
ENDBRANCH   8  26
TORSDOF 6
ENDMDL
MODEL 8
REMARK VINA RESULT:    -5.856     18.327     20.909
REMARK INTER + INTRA:          -7.241
REMARK INTER:                  -6.971
REMARK INTRA:                  -0.270
REMARK UNBOUND:                -0.187
REMARK SMILES O=c1c(O)c(-c2ccc(O)c(O)c2)oc2cc(O)cc(O)c12
REMARK SMILES IDX 5 1 3 2 2 3 1 4 22 5 20 6 19 7 17 8 16 9 15 10 14 11 6 12
REMARK SMILES IDX 7 13 8 14 9 15 13 16 11 17 10 18 12 20 4 22 21 24 18 26
REMARK H PARENT 10 19 12 21 4 23 21 25 18 27
REMARK Flexibility Score: inf
ROOT
ATOM      1  C   UNL     1     -12.712   2.491 -11.461  1.00  0.00     0.180 A 
ATOM      2  C   UNL     1     -12.129   3.660 -10.943  1.00  0.00     0.208 A 
ATOM      3  C   UNL     1     -11.525   4.569 -11.827  1.00  0.00     0.238 A 
ATOM      4  O   UNL     1     -11.054   5.640 -11.364  1.00  0.00    -0.285 OA
ATOM      5  C   UNL     1     -11.498   4.289 -13.215  1.00  0.00     0.111 A 
ATOM      6  C   UNL     1     -10.877   5.120 -14.196  1.00  0.00     0.134 A 
ATOM      7  C   UNL     1     -11.024   4.811 -15.554  1.00  0.00     0.093 A 
ATOM      8  C   UNL     1     -11.714   3.665 -15.963  1.00  0.00     0.123 A 
ATOM      9  C   UNL     1     -12.271   2.818 -15.009  1.00  0.00     0.094 A 
ATOM     10  C   UNL     1     -12.173   3.119 -13.648  1.00  0.00     0.146 A 
ATOM     11  O   UNL     1     -12.727   2.288 -12.773  1.00  0.00    -0.452 OA
ENDROOT
BRANCH   1  12
ATOM     12  C   UNL     1     -13.344   1.474 -10.590  1.00  0.00     0.025 A 
ATOM     13  C   UNL     1     -12.573   0.611  -9.793  1.00  0.00     0.016 A 
ATOM     14  C   UNL     1     -13.190  -0.358  -8.997  1.00  0.00     0.051 A 
ATOM     15  C   UNL     1     -14.585  -0.486  -8.997  1.00  0.00     0.157 A 
ATOM     16  C   UNL     1     -14.742   1.326 -10.601  1.00  0.00     0.062 A 
ATOM     17  C   UNL     1     -15.362   0.355  -9.802  1.00  0.00     0.158 A 
BRANCH  15  18
ATOM     18  O   UNL     1     -15.206  -1.450  -8.203  1.00  0.00    -0.504 OA
ATOM     19  H   UNL     1     -14.946  -2.428  -8.257  1.00  0.00     0.293 HD
ENDBRANCH  15  18
BRANCH  17  20
ATOM     20  O   UNL     1     -16.750   0.220  -9.805  1.00  0.00    -0.504 OA
ATOM     21  H   UNL     1     -17.348   0.910 -10.246  1.00  0.00     0.293 HD
ENDBRANCH  17  20
ENDBRANCH   1  12
BRANCH   2  22
ATOM     22  O   UNL     1     -12.188   3.928  -9.572  1.00  0.00    -0.502 OA
ATOM     23  H   UNL     1     -11.664   4.681  -9.142  1.00  0.00     0.293 HD
ENDBRANCH   2  22
BRANCH   6  24
ATOM     24  O   UNL     1     -10.090   6.234 -13.892  1.00  0.00    -0.507 OA
ATOM     25  H   UNL     1      -9.081   6.235 -13.865  1.00  0.00     0.293 HD
ENDBRANCH   6  24
BRANCH   8  26
ATOM     26  O   UNL     1     -11.841   3.357 -17.316  1.00  0.00    -0.508 OA
ATOM     27  H   UNL     1     -11.212   3.745 -18.009  1.00  0.00     0.293 HD
ENDBRANCH   8  26
TORSDOF 6
ENDMDL
MODEL 9
REMARK VINA RESULT:    -5.810      1.586      6.889
REMARK INTER + INTRA:          -7.185
REMARK INTER:                  -7.004
REMARK INTRA:                  -0.181
REMARK UNBOUND:                -0.187
REMARK SMILES O=c1c(O)c(-c2ccc(O)c(O)c2)oc2cc(O)cc(O)c12
REMARK SMILES IDX 5 1 3 2 2 3 1 4 22 5 20 6 19 7 17 8 16 9 15 10 14 11 6 12
REMARK SMILES IDX 7 13 8 14 9 15 13 16 11 17 10 18 12 20 4 22 21 24 18 26
REMARK H PARENT 10 19 12 21 4 23 21 25 18 27
REMARK Flexibility Score: inf
ROOT
ATOM      1  C   UNL     1     -27.344   9.550 -23.917  1.00  0.00     0.180 A 
ATOM      2  C   UNL     1     -28.120   9.540 -25.089  1.00  0.00     0.208 A 
ATOM      3  C   UNL     1     -28.094  10.663 -25.933  1.00  0.00     0.238 A 
ATOM      4  O   UNL     1     -28.747  10.626 -27.008  1.00  0.00    -0.285 OA
ATOM      5  C   UNL     1     -27.307  11.787 -25.585  1.00  0.00     0.111 A 
ATOM      6  C   UNL     1     -27.238  12.994 -26.344  1.00  0.00     0.134 A 
ATOM      7  C   UNL     1     -26.326  13.990 -25.974  1.00  0.00     0.093 A 
ATOM      8  C   UNL     1     -25.528  13.851 -24.835  1.00  0.00     0.123 A 
ATOM      9  C   UNL     1     -25.632  12.703 -24.055  1.00  0.00     0.094 A 
ATOM     10  C   UNL     1     -26.506  11.675 -24.418  1.00  0.00     0.146 A 
ATOM     11  O   UNL     1     -26.566  10.593 -23.652  1.00  0.00    -0.452 OA
ENDROOT
BRANCH   1  12
ATOM     12  C   UNL     1     -27.338   8.414 -22.967  1.00  0.00     0.025 A 
ATOM     13  C   UNL     1     -27.852   8.546 -21.666  1.00  0.00     0.016 A 
ATOM     14  C   UNL     1     -27.815   7.468 -20.777  1.00  0.00     0.051 A 
ATOM     15  C   UNL     1     -27.252   6.248 -21.173  1.00  0.00     0.157 A 
ATOM     16  C   UNL     1     -26.757   7.194 -23.351  1.00  0.00     0.062 A 
ATOM     17  C   UNL     1     -26.719   6.111 -22.460  1.00  0.00     0.158 A 
BRANCH  15  18
ATOM     18  O   UNL     1     -27.214   5.169 -20.290  1.00  0.00    -0.504 OA
ATOM     19  H   UNL     1     -26.338   4.820 -19.918  1.00  0.00     0.293 HD
ENDBRANCH  15  18
BRANCH  17  20
ATOM     20  O   UNL     1     -26.153   4.898 -22.848  1.00  0.00    -0.504 OA
ATOM     21  H   UNL     1     -25.653   4.803 -23.725  1.00  0.00     0.293 HD
ENDBRANCH  17  20
ENDBRANCH   1  12
BRANCH   2  22
ATOM     22  O   UNL     1     -28.872   8.411 -25.426  1.00  0.00    -0.502 OA
ATOM     23  H   UNL     1     -29.096   7.686 -24.754  1.00  0.00     0.293 HD
ENDBRANCH   2  22
BRANCH   6  24
ATOM     24  O   UNL     1     -28.055  13.273 -27.443  1.00  0.00    -0.507 OA
ATOM     25  H   UNL     1     -29.038  13.495 -27.387  1.00  0.00     0.293 HD
ENDBRANCH   6  24
BRANCH   8  26
ATOM     26  O   UNL     1     -24.635  14.855 -24.466  1.00  0.00    -0.508 OA
ATOM     27  H   UNL     1     -24.588  15.199 -23.514  1.00  0.00     0.293 HD
ENDBRANCH   8  26
TORSDOF 6
ENDMDL
