MODEL 1
REMARK VINA RESULT:    -3.432      0.000      0.000
REMARK INTER + INTRA:          -7.043
REMARK INTER:                  -5.840
REMARK INTRA:                  -1.203
REMARK UNBOUND:                -1.203
REMARK SMILES CCCCCCCCCCCCCC(=O)[O-]
REMARK SMILES IDX 8 1 9 2 10 3 11 4 12 5 13 6 14 7 15 8 16 9 7 10 6 11 5 12
REMARK SMILES IDX 4 13 3 14 2 15 1 16
REMARK H PARENT
REMARK Flexibility Score: inf
ROOT
ATOM      1  C   UNL     1     -99.107 -40.029  93.590  1.00  0.00     0.000 C 
ENDROOT
BRANCH   1   2
ATOM      2  C   UNL     1     -97.876 -40.775  93.053  1.00  0.00     0.000 C 
BRANCH   2   3
ATOM      3  C   UNL     1     -98.158 -41.516  91.735  1.00  0.00     0.000 C 
BRANCH   3   4
ATOM      4  C   UNL     1     -97.244 -41.051  90.588  1.00  0.00     0.000 C 
BRANCH   4   5
ATOM      5  C   UNL     1     -98.015 -40.308  89.484  1.00  0.00     0.006 C 
BRANCH   5   6
ATOM      6  C   UNL     1     -97.187 -40.125  88.205  1.00  0.00     0.053 C 
BRANCH   6   7
ATOM      7  C   UNL     1     -97.056 -41.427  87.479  1.00  0.00     0.041 C 
ATOM      8  O   UNL     1     -98.070 -41.975  86.972  1.00  0.00    -0.550 OA
ATOM      9  O   UNL     1     -95.822 -42.061  87.404  1.00  0.00    -0.550 OA
ENDBRANCH   6   7
ENDBRANCH   5   6
ENDBRANCH   4   5
ENDBRANCH   3   4
ENDBRANCH   2   3
ENDBRANCH   1   2
BRANCH   1  10
ATOM     10  C   UNL     1    -100.167 -39.862  92.490  1.00  0.00     0.000 C 
BRANCH  10  11
ATOM     11  C   UNL     1    -100.214 -38.434  91.921  1.00  0.00    -0.000 C 
BRANCH  11  12
ATOM     12  C   UNL     1    -101.332 -37.584  92.549  1.00  0.00    -0.000 C 
BRANCH  12  13
ATOM     13  C   UNL     1    -100.898 -36.133  92.827  1.00  0.00    -0.000 C 
BRANCH  13  14
ATOM     14  C   UNL     1    -100.376 -35.868  94.251  1.00  0.00    -0.000 C 
BRANCH  14  15
ATOM     15  C   UNL     1    -101.090 -36.711  95.318  1.00  0.00    -0.003 C 
ATOM     16  C   UNL     1    -100.091 -37.514  96.145  1.00  0.00     0.004 C 
ENDBRANCH  14  15
ENDBRANCH  13  14
ENDBRANCH  12  13
ENDBRANCH  11  12
ENDBRANCH  10  11
ENDBRANCH   1  10
TORSDOF 12
ENDMDL
MODEL 2
REMARK VINA RESULT:    -3.282      1.348      2.646
REMARK INTER + INTRA:          -6.787
REMARK INTER:                  -5.388
REMARK INTRA:                  -1.399
REMARK UNBOUND:                -1.203
REMARK SMILES CCCCCCCCCCCCCC(=O)[O-]
REMARK SMILES IDX 8 1 9 2 10 3 11 4 12 5 13 6 14 7 15 8 16 9 7 10 6 11 5 12
REMARK SMILES IDX 4 13 3 14 2 15 1 16
REMARK H PARENT
REMARK Flexibility Score: inf
ROOT
ATOM      1  C   UNL     1     -96.333 -40.931  93.670  1.00  0.00     0.000 C 
ENDROOT
BRANCH   1   2
ATOM      2  C   UNL     1     -96.526 -41.866  92.466  1.00  0.00     0.000 C 
BRANCH   2   3
ATOM      3  C   UNL     1     -96.450 -41.126  91.120  1.00  0.00     0.000 C 
BRANCH   3   4
ATOM      4  C   UNL     1     -97.711 -41.331  90.262  1.00  0.00     0.000 C 
BRANCH   4   5
ATOM      5  C   UNL     1     -97.973 -40.152  89.310  1.00  0.00     0.006 C 
BRANCH   5   6
ATOM      6  C   UNL     1     -97.094 -40.200  88.053  1.00  0.00     0.053 C 
BRANCH   6   7
ATOM      7  C   UNL     1     -97.124 -41.569  87.449  1.00  0.00     0.041 C 
ATOM      8  O   UNL     1     -96.067 -42.249  87.369  1.00  0.00    -0.550 OA
ATOM      9  O   UNL     1     -98.308 -42.075  86.928  1.00  0.00    -0.550 OA
ENDBRANCH   6   7
ENDBRANCH   5   6
ENDBRANCH   4   5
ENDBRANCH   3   4
ENDBRANCH   2   3
ENDBRANCH   1   2
BRANCH   1  10
ATOM     10  C   UNL     1     -97.649 -40.757  94.443  1.00  0.00     0.000 C 
BRANCH  10  11
ATOM     11  C   UNL     1     -98.780 -41.646  93.898  1.00  0.00    -0.000 C 
BRANCH  11  12
ATOM     12  C   UNL     1     -99.955 -40.828  93.335  1.00  0.00    -0.000 C 
BRANCH  12  13
ATOM     13  C   UNL     1     -99.639 -39.325  93.223  1.00  0.00    -0.000 C 
BRANCH  13  14
ATOM     14  C   UNL     1    -100.159 -38.640  91.946  1.00  0.00    -0.000 C 
BRANCH  14  15
ATOM     15  C   UNL     1    -100.824 -37.283  92.223  1.00  0.00    -0.003 C 
ATOM     16  C   UNL     1    -101.775 -37.368  93.413  1.00  0.00     0.004 C 
ENDBRANCH  14  15
ENDBRANCH  13  14
ENDBRANCH  12  13
ENDBRANCH  11  12
ENDBRANCH  10  11
ENDBRANCH   1  10
TORSDOF 12
ENDMDL
MODEL 3
REMARK VINA RESULT:    -3.276      1.204      1.626
REMARK INTER + INTRA:          -6.777
REMARK INTER:                  -5.571
REMARK INTRA:                  -1.206
REMARK UNBOUND:                -1.203
REMARK SMILES CCCCCCCCCCCCCC(=O)[O-]
REMARK SMILES IDX 8 1 9 2 10 3 11 4 12 5 13 6 14 7 15 8 16 9 7 10 6 11 5 12
REMARK SMILES IDX 4 13 3 14 2 15 1 16
REMARK H PARENT
REMARK Flexibility Score: inf
ROOT
ATOM      1  C   UNL     1     -98.655 -40.268  93.792  1.00  0.00     0.000 C 
ENDROOT
BRANCH   1   2
ATOM      2  C   UNL     1     -97.888 -41.598  93.745  1.00  0.00     0.000 C 
BRANCH   2   3
ATOM      3  C   UNL     1     -96.532 -41.478  93.030  1.00  0.00     0.000 C 
BRANCH   3   4
ATOM      4  C   UNL     1     -96.587 -41.970  91.573  1.00  0.00     0.000 C 
BRANCH   4   5
ATOM      5  C   UNL     1     -96.500 -40.818  90.558  1.00  0.00     0.006 C 
BRANCH   5   6
ATOM      6  C   UNL     1     -97.705 -40.774  89.609  1.00  0.00     0.053 C 
BRANCH   6   7
ATOM      7  C   UNL     1     -97.307 -40.190  88.290  1.00  0.00     0.041 C 
ATOM      8  O   UNL     1     -96.895 -39.002  88.221  1.00  0.00    -0.550 OA
ATOM      9  O   UNL     1     -97.439 -40.940  87.128  1.00  0.00    -0.550 OA
ENDBRANCH   6   7
ENDBRANCH   5   6
ENDBRANCH   4   5
ENDBRANCH   3   4
ENDBRANCH   2   3
ENDBRANCH   1   2
BRANCH   1  10
ATOM     10  C   UNL     1     -99.827 -40.279  92.797  1.00  0.00     0.000 C 
BRANCH  10  11
ATOM     11  C   UNL     1     -99.933 -38.973  91.991  1.00  0.00    -0.000 C 
BRANCH  11  12
ATOM     12  C   UNL     1    -101.388 -38.502  91.821  1.00  0.00    -0.000 C 
BRANCH  12  13
ATOM     13  C   UNL     1    -101.594 -37.032  92.234  1.00  0.00    -0.000 C 
BRANCH  13  14
ATOM     14  C   UNL     1    -100.387 -36.372  92.925  1.00  0.00    -0.000 C 
BRANCH  14  15
ATOM     15  C   UNL     1    -100.766 -35.639  94.220  1.00  0.00    -0.003 C 
ATOM     16  C   UNL     1    -100.497 -36.508  95.444  1.00  0.00     0.004 C 
ENDBRANCH  14  15
ENDBRANCH  13  14
ENDBRANCH  12  13
ENDBRANCH  11  12
ENDBRANCH  10  11
ENDBRANCH   1  10
TORSDOF 12
ENDMDL
MODEL 4
REMARK VINA RESULT:    -3.253      4.024      7.275
REMARK INTER + INTRA:          -6.738
REMARK INTER:                  -5.540
REMARK INTRA:                  -1.198
REMARK UNBOUND:                -1.203
REMARK SMILES CCCCCCCCCCCCCC(=O)[O-]
REMARK SMILES IDX 8 1 9 2 10 3 11 4 12 5 13 6 14 7 15 8 16 9 7 10 6 11 5 12
REMARK SMILES IDX 4 13 3 14 2 15 1 16
REMARK H PARENT
REMARK Flexibility Score: inf
ROOT
ATOM      1  C   UNL     1     -98.885 -41.049  93.225  1.00  0.00     0.000 C 
ENDROOT
BRANCH   1   2
ATOM      2  C   UNL     1     -99.620 -39.701  93.267  1.00  0.00     0.000 C 
BRANCH   2   3
ATOM      3  C   UNL     1     -99.848 -39.104  91.868  1.00  0.00     0.000 C 
BRANCH   3   4
ATOM      4  C   UNL     1    -100.474 -37.699  91.919  1.00  0.00     0.000 C 
BRANCH   4   5
ATOM      5  C   UNL     1    -101.094 -37.380  93.289  1.00  0.00     0.006 C 
BRANCH   5   6
ATOM      6  C   UNL     1    -100.546 -36.082  93.898  1.00  0.00     0.053 C 
BRANCH   6   7
ATOM      7  C   UNL     1    -100.678 -36.110  95.388  1.00  0.00     0.041 C 
ATOM      8  O   UNL     1    -101.295 -35.190  95.987  1.00  0.00    -0.550 OA
ATOM      9  O   UNL     1    -100.077 -37.126  96.121  1.00  0.00    -0.550 OA
ENDBRANCH   6   7
ENDBRANCH   5   6
ENDBRANCH   4   5
ENDBRANCH   3   4
ENDBRANCH   2   3
ENDBRANCH   1   2
BRANCH   1  10
ATOM     10  C   UNL     1     -97.381 -40.843  92.986  1.00  0.00     0.000 C 
BRANCH  10  11
ATOM     11  C   UNL     1     -96.905 -41.436  91.649  1.00  0.00    -0.000 C 
BRANCH  11  12
ATOM     12  C   UNL     1     -97.987 -42.286  90.962  1.00  0.00    -0.000 C 
BRANCH  12  13
ATOM     13  C   UNL     1     -98.432 -41.707  89.606  1.00  0.00    -0.000 C 
BRANCH  13  14
ATOM     14  C   UNL     1     -97.753 -40.385  89.204  1.00  0.00    -0.000 C 
BRANCH  14  15
ATOM     15  C   UNL     1     -97.133 -40.432  87.800  1.00  0.00    -0.003 C 
ATOM     16  C   UNL     1     -96.446 -41.770  87.546  1.00  0.00     0.004 C 
ENDBRANCH  14  15
ENDBRANCH  13  14
ENDBRANCH  12  13
ENDBRANCH  11  12
ENDBRANCH  10  11
ENDBRANCH   1  10
TORSDOF 12
ENDMDL
MODEL 5
REMARK VINA RESULT:    -3.226      3.024      6.462
REMARK INTER + INTRA:          -6.692
REMARK INTER:                  -5.242
REMARK INTRA:                  -1.449
REMARK UNBOUND:                -1.203
REMARK SMILES CCCCCCCCCCCCCC(=O)[O-]
REMARK SMILES IDX 8 1 9 2 10 3 11 4 12 5 13 6 14 7 15 8 16 9 7 10 6 11 5 12
REMARK SMILES IDX 4 13 3 14 2 15 1 16
REMARK H PARENT
REMARK Flexibility Score: inf
ROOT
ATOM      1  C   UNL     1     -96.014 -42.865  92.532  1.00  0.00     0.000 C 
ENDROOT
BRANCH   1   2
ATOM      2  C   UNL     1     -95.763 -41.837  93.645  1.00  0.00     0.000 C 
BRANCH   2   3
ATOM      3  C   UNL     1     -96.842 -40.743  93.699  1.00  0.00     0.000 C 
BRANCH   3   4
ATOM      4  C   UNL     1     -97.986 -41.088  94.667  1.00  0.00     0.000 C 
BRANCH   4   5
ATOM      5  C   UNL     1     -99.247 -40.244  94.414  1.00  0.00     0.006 C 
BRANCH   5   6
ATOM      6  C   UNL     1     -99.398 -39.833  92.944  1.00  0.00     0.053 C 
BRANCH   6   7
ATOM      7  C   UNL     1    -100.147 -38.542  92.838  1.00  0.00     0.041 C 
ATOM      8  O   UNL     1    -100.143 -37.894  91.758  1.00  0.00    -0.550 OA
ATOM      9  O   UNL     1    -100.809 -38.029  93.946  1.00  0.00    -0.550 OA
ENDBRANCH   6   7
ENDBRANCH   5   6
ENDBRANCH   4   5
ENDBRANCH   3   4
ENDBRANCH   2   3
ENDBRANCH   1   2
BRANCH   1  10
ATOM     10  C   UNL     1     -96.453 -42.168  91.234  1.00  0.00     0.000 C 
BRANCH  10  11
ATOM     11  C   UNL     1     -97.816 -42.666  90.724  1.00  0.00    -0.000 C 
BRANCH  11  12
ATOM     12  C   UNL     1     -98.577 -41.591  89.928  1.00  0.00    -0.000 C 
BRANCH  12  13
ATOM     13  C   UNL     1     -97.730 -40.333  89.660  1.00  0.00    -0.000 C 
BRANCH  13  14
ATOM     14  C   UNL     1     -97.272 -40.151  88.202  1.00  0.00    -0.000 C 
BRANCH  14  15
ATOM     15  C   UNL     1     -97.333 -41.452  87.388  1.00  0.00    -0.003 C 
ATOM     16  C   UNL     1     -96.003 -42.198  87.441  1.00  0.00     0.004 C 
ENDBRANCH  14  15
ENDBRANCH  13  14
ENDBRANCH  12  13
ENDBRANCH  11  12
ENDBRANCH  10  11
ENDBRANCH   1  10
TORSDOF 12
ENDMDL
MODEL 6
REMARK VINA RESULT:    -3.220     14.363     16.417
REMARK INTER + INTRA:          -6.681
REMARK INTER:                  -4.742
REMARK INTRA:                  -1.939
REMARK UNBOUND:                -1.203
REMARK SMILES CCCCCCCCCCCCCC(=O)[O-]
REMARK SMILES IDX 8 1 9 2 10 3 11 4 12 5 13 6 14 7 15 8 16 9 7 10 6 11 5 12
REMARK SMILES IDX 4 13 3 14 2 15 1 16
REMARK H PARENT
REMARK Flexibility Score: inf
ROOT
ATOM      1  C   UNL     1     -99.773 -29.474  80.073  1.00  0.00     0.000 C 
ENDROOT
BRANCH   1   2
ATOM      2  C   UNL     1     -99.792 -28.367  81.138  1.00  0.00     0.000 C 
BRANCH   2   3
ATOM      3  C   UNL     1     -98.527 -28.363  82.012  1.00  0.00     0.000 C 
BRANCH   3   4
ATOM      4  C   UNL     1     -98.252 -26.988  82.647  1.00  0.00     0.000 C 
BRANCH   4   5
ATOM      5  C   UNL     1     -96.855 -26.902  83.284  1.00  0.00     0.006 C 
BRANCH   5   6
ATOM      6  C   UNL     1     -96.248 -28.283  83.567  1.00  0.00     0.053 C 
BRANCH   6   7
ATOM      7  C   UNL     1     -96.178 -28.529  85.041  1.00  0.00     0.041 C 
ATOM      8  O   UNL     1     -96.111 -27.560  85.843  1.00  0.00    -0.550 OA
ATOM      9  O   UNL     1     -96.136 -29.829  85.528  1.00  0.00    -0.550 OA
ENDBRANCH   6   7
ENDBRANCH   5   6
ENDBRANCH   4   5
ENDBRANCH   3   4
ENDBRANCH   2   3
ENDBRANCH   1   2
BRANCH   1  10
ATOM     10  C   UNL     1     -98.927 -29.052  78.861  1.00  0.00     0.000 C 
BRANCH  10  11
ATOM     11  C   UNL     1     -97.715 -29.971  78.634  1.00  0.00    -0.000 C 
BRANCH  11  12
ATOM     12  C   UNL     1     -96.396 -29.339  79.111  1.00  0.00    -0.000 C 
BRANCH  12  13
ATOM     13  C   UNL     1     -96.227 -27.882  78.642  1.00  0.00    -0.000 C 
BRANCH  13  14
ATOM     14  C   UNL     1     -95.860 -26.876  79.749  1.00  0.00    -0.000 C 
BRANCH  14  15
ATOM     15  C   UNL     1     -96.417 -25.469  79.489  1.00  0.00    -0.003 C 
ATOM     16  C   UNL     1     -97.923 -25.509  79.246  1.00  0.00     0.004 C 
ENDBRANCH  14  15
ENDBRANCH  13  14
ENDBRANCH  12  13
ENDBRANCH  11  12
ENDBRANCH  10  11
ENDBRANCH   1  10
TORSDOF 12
ENDMDL
MODEL 7
REMARK VINA RESULT:    -3.205     14.802     16.828
REMARK INTER + INTRA:          -6.656
REMARK INTER:                  -4.677
REMARK INTRA:                  -1.979
REMARK UNBOUND:                -1.203
REMARK SMILES CCCCCCCCCCCCCC(=O)[O-]
REMARK SMILES IDX 8 1 9 2 10 3 11 4 12 5 13 6 14 7 15 8 16 9 7 10 6 11 5 12
REMARK SMILES IDX 4 13 3 14 2 15 1 16
REMARK H PARENT
REMARK Flexibility Score: inf
ROOT
ATOM      1  C   UNL     1     -96.169 -26.131  78.693  1.00  0.00     0.000 C 
ENDROOT
BRANCH   1   2
ATOM      2  C   UNL     1     -94.828 -26.235  79.433  1.00  0.00     0.000 C 
BRANCH   2   3
ATOM      3  C   UNL     1     -94.863 -25.578  80.823  1.00  0.00     0.000 C 
BRANCH   3   4
ATOM      4  C   UNL     1     -96.184 -25.840  81.568  1.00  0.00     0.000 C 
BRANCH   4   5
ATOM      5  C   UNL     1     -96.166 -27.162  82.353  1.00  0.00     0.006 C 
BRANCH   5   6
ATOM      6  C   UNL     1     -96.617 -26.990  83.810  1.00  0.00     0.053 C 
BRANCH   6   7
ATOM      7  C   UNL     1     -97.015 -28.310  84.391  1.00  0.00     0.041 C 
ATOM      8  O   UNL     1     -98.226 -28.658  84.404  1.00  0.00    -0.550 OA
ATOM      9  O   UNL     1     -96.056 -29.136  84.964  1.00  0.00    -0.550 OA
ENDBRANCH   6   7
ENDBRANCH   5   6
ENDBRANCH   4   5
ENDBRANCH   3   4
ENDBRANCH   2   3
ENDBRANCH   1   2
BRANCH   1  10
ATOM     10  C   UNL     1     -96.559 -27.483  78.075  1.00  0.00     0.000 C 
BRANCH  10  11
ATOM     11  C   UNL     1     -96.272 -28.669  79.012  1.00  0.00    -0.000 C 
BRANCH  11  12
ATOM     12  C   UNL     1     -97.437 -29.672  79.069  1.00  0.00    -0.000 C 
BRANCH  12  13
ATOM     13  C   UNL     1     -98.788 -29.003  79.384  1.00  0.00    -0.000 C 
BRANCH  13  14
ATOM     14  C   UNL     1     -99.100 -28.831  80.882  1.00  0.00    -0.000 C 
BRANCH  14  15
ATOM     15  C   UNL     1     -99.600 -27.422  81.232  1.00  0.00    -0.003 C 
ATOM     16  C   UNL     1     -99.654 -26.533  79.993  1.00  0.00     0.004 C 
ENDBRANCH  14  15
ENDBRANCH  13  14
ENDBRANCH  12  13
ENDBRANCH  11  12
ENDBRANCH  10  11
ENDBRANCH   1  10
TORSDOF 12
ENDMDL
MODEL 8
REMARK VINA RESULT:    -3.144     14.499     16.209
REMARK INTER + INTRA:          -6.553
REMARK INTER:                  -5.163
REMARK INTRA:                  -1.390
REMARK UNBOUND:                -1.203
REMARK SMILES CCCCCCCCCCCCCC(=O)[O-]
REMARK SMILES IDX 8 1 9 2 10 3 11 4 12 5 13 6 14 7 15 8 16 9 7 10 6 11 5 12
REMARK SMILES IDX 4 13 3 14 2 15 1 16
REMARK H PARENT
REMARK Flexibility Score: inf
ROOT
ATOM      1  C   UNL     1     -96.045 -25.763  79.123  1.00  0.00     0.000 C 
ENDROOT
BRANCH   1   2
ATOM      2  C   UNL     1     -95.384 -27.001  78.499  1.00  0.00     0.000 C 
BRANCH   2   3
ATOM      3  C   UNL     1     -96.384 -28.137  78.230  1.00  0.00     0.000 C 
BRANCH   3   4
ATOM      4  C   UNL     1     -96.701 -28.957  79.492  1.00  0.00     0.000 C 
BRANCH   4   5
ATOM      5  C   UNL     1     -98.212 -29.135  79.716  1.00  0.00     0.006 C 
BRANCH   5   6
ATOM      6  C   UNL     1     -98.662 -30.596  79.581  1.00  0.00     0.053 C 
BRANCH   6   7
ATOM      7  C   UNL     1     -99.257 -30.835  78.229  1.00  0.00     0.041 C 
ATOM      8  O   UNL     1    -100.485 -31.088  78.113  1.00  0.00    -0.550 OA
ATOM      9  O   UNL     1     -98.447 -30.828  77.101  1.00  0.00    -0.550 OA
ENDBRANCH   6   7
ENDBRANCH   5   6
ENDBRANCH   4   5
ENDBRANCH   3   4
ENDBRANCH   2   3
ENDBRANCH   1   2
BRANCH   1  10
ATOM     10  C   UNL     1     -95.272 -25.299  80.367  1.00  0.00     0.000 C 
BRANCH  10  11
ATOM     11  C   UNL     1     -95.598 -26.135  81.616  1.00  0.00    -0.000 C 
BRANCH  11  12
ATOM     12  C   UNL     1     -97.074 -26.016  82.037  1.00  0.00    -0.000 C 
BRANCH  12  13
ATOM     13  C   UNL     1     -97.581 -27.253  82.800  1.00  0.00    -0.000 C 
BRANCH  13  14
ATOM     14  C   UNL     1     -96.481 -28.180  83.349  1.00  0.00    -0.000 C 
BRANCH  14  15
ATOM     15  C   UNL     1     -96.504 -28.295  84.880  1.00  0.00    -0.003 C 
ATOM     16  C   UNL     1     -95.782 -29.555  85.349  1.00  0.00     0.004 C 
ENDBRANCH  14  15
ENDBRANCH  13  14
ENDBRANCH  12  13
ENDBRANCH  11  12
ENDBRANCH  10  11
ENDBRANCH   1  10
TORSDOF 12
ENDMDL
MODEL 9
REMARK VINA RESULT:    -3.141     15.355     17.362
REMARK INTER + INTRA:          -6.548
REMARK INTER:                  -4.964
REMARK INTRA:                  -1.584
REMARK UNBOUND:                -1.203
REMARK SMILES CCCCCCCCCCCCCC(=O)[O-]
REMARK SMILES IDX 8 1 9 2 10 3 11 4 12 5 13 6 14 7 15 8 16 9 7 10 6 11 5 12
REMARK SMILES IDX 4 13 3 14 2 15 1 16
REMARK H PARENT
REMARK Flexibility Score: inf
ROOT
ATOM      1  C   UNL     1     -97.883 -28.934  79.848  1.00  0.00     0.000 C 
ENDROOT
BRANCH   1   2
ATOM      2  C   UNL     1     -97.957 -28.312  81.251  1.00  0.00     0.000 C 
BRANCH   2   3
ATOM      3  C   UNL     1     -96.573 -28.132  81.895  1.00  0.00     0.000 C 
BRANCH   3   4
ATOM      4  C   UNL     1     -96.617 -28.235  83.430  1.00  0.00     0.000 C 
BRANCH   4   5
ATOM      5  C   UNL     1     -96.646 -26.859  84.113  1.00  0.00     0.006 C 
BRANCH   5   6
ATOM      6  C   UNL     1     -97.983 -26.571  84.809  1.00  0.00     0.053 C 
BRANCH   6   7
ATOM      7  C   UNL     1     -98.744 -25.522  84.063  1.00  0.00     0.041 C 
ATOM      8  O   UNL     1     -99.841 -25.095  84.512  1.00  0.00    -0.550 OA
ATOM      9  O   UNL     1     -98.269 -25.051  82.846  1.00  0.00    -0.550 OA
ENDBRANCH   6   7
ENDBRANCH   5   6
ENDBRANCH   4   5
ENDBRANCH   3   4
ENDBRANCH   2   3
ENDBRANCH   1   2
BRANCH   1  10
ATOM     10  C   UNL     1     -96.456 -28.840  79.284  1.00  0.00     0.000 C 
BRANCH  10  11
ATOM     11  C   UNL     1     -96.302 -27.722  78.239  1.00  0.00    -0.000 C 
BRANCH  11  12
ATOM     12  C   UNL     1     -95.338 -26.614  78.698  1.00  0.00    -0.000 C 
BRANCH  12  13
ATOM     13  C   UNL     1     -96.065 -25.410  79.323  1.00  0.00    -0.000 C 
BRANCH  13  14
ATOM     14  C   UNL     1     -95.451 -24.881  80.632  1.00  0.00    -0.000 C 
BRANCH  14  15
ATOM     15  C   UNL     1     -94.136 -25.583  81.003  1.00  0.00    -0.003 C 
ATOM     16  C   UNL     1     -93.081 -24.576  81.451  1.00  0.00     0.004 C 
ENDBRANCH  14  15
ENDBRANCH  13  14
ENDBRANCH  12  13
ENDBRANCH  11  12
ENDBRANCH  10  11
ENDBRANCH   1  10
TORSDOF 12
ENDMDL
