MODEL 1
REMARK VINA RESULT:    -6.467      0.000      0.000
REMARK INTER + INTRA:          -9.184
REMARK INTER:                  -8.735
REMARK INTRA:                  -0.448
REMARK UNBOUND:                -0.448
REMARK SMILES COc1ccc(-c2cc(=O)c3c(OC)c(OC)c(OC)c(OC)c3o2)cc1
REMARK SMILES IDX 7 1 8 2 9 3 10 4 11 5 24 6 25 7 21 8 18 9 15 10 12 11 6 12
REMARK SMILES IDX 3 13 4 14 27 15 5 16 26 17 2 18 1 19 22 20 23 21 13 22 14 23
REMARK SMILES IDX 19 24 20 25 16 26 17 27
REMARK H PARENT
REMARK Flexibility Score: inf
ROOT
ATOM      1  C   UNL     1      12.889   4.060 141.488  1.00  0.00     0.138 A 
ATOM      2  C   UNL     1      13.034   2.679 141.671  1.00  0.00     0.100 A 
ATOM      3  C   UNL     1      11.898   1.877 141.732  1.00  0.00     0.197 A 
ATOM      4  O   UNL     1      12.043   0.636 141.903  1.00  0.00    -0.289 OA
ATOM      5  C   UNL     1      10.619   2.462 141.608  1.00  0.00     0.115 A 
ATOM      6  C   UNL     1      10.549   3.861 141.402  1.00  0.00     0.188 A 
ATOM      7  O   UNL     1      11.671   4.578 141.352  1.00  0.00    -0.452 OA
ATOM      8  C   UNL     1       9.292   4.494 141.254  1.00  0.00     0.209 A 
ATOM      9  C   UNL     1       8.112   3.743 141.362  1.00  0.00     0.211 A 
ATOM     10  C   UNL     1       8.177   2.352 141.611  1.00  0.00     0.208 A 
ATOM     11  C   UNL     1       9.428   1.706 141.666  1.00  0.00     0.179 A 
ENDROOT
BRANCH   1  12
ATOM     12  C   UNL     1      14.067   4.963 141.438  1.00  0.00     0.018 A 
ATOM     13  C   UNL     1      16.335   6.640 141.303  1.00  0.00     0.118 A 
ATOM     14  C   UNL     1      15.041   7.192 141.291  1.00  0.00     0.047 A 
ATOM     15  C   UNL     1      16.483   5.252 141.376  1.00  0.00     0.047 A 
ATOM     16  C   UNL     1      13.918   6.361 141.355  1.00  0.00     0.016 A 
ATOM     17  C   UNL     1      15.362   4.420 141.441  1.00  0.00     0.016 A 
BRANCH  13  18
ATOM     18  O   UNL     1      17.492   7.432 141.243  1.00  0.00    -0.497 OA
ATOM     19  C   UNL     1      18.401   7.443 140.148  1.00  0.00     0.278 C 
ENDBRANCH  13  18
ENDBRANCH   1  12
BRANCH   8  20
ATOM     20  O   UNL     1       9.140   5.873 141.010  1.00  0.00    -0.490 OA
ATOM     21  C   UNL     1       9.392   6.932 141.926  1.00  0.00     0.278 C 
ENDBRANCH   8  20
BRANCH  11  22
ATOM     22  O   UNL     1       9.494   0.311 141.772  1.00  0.00    -0.492 OA
ATOM     23  C   UNL     1       9.373  -0.542 140.639  1.00  0.00     0.278 C 
ENDBRANCH  11  22
BRANCH   9  24
ATOM     24  O   UNL     1       6.902   4.452 141.219  1.00  0.00    -0.490 OA
ATOM     25  C   UNL     1       6.092   4.531 140.051  1.00  0.00     0.279 C 
ENDBRANCH   9  24
BRANCH  10  26
ATOM     26  O   UNL     1       7.002   1.621 141.809  1.00  0.00    -0.490 OA
ATOM     27  C   UNL     1       6.257   1.059 140.732  1.00  0.00     0.278 C 
ENDBRANCH  10  26
TORSDOF 6
ENDMDL
MODEL 2
REMARK VINA RESULT:    -6.436      0.941      3.556
REMARK INTER + INTRA:          -9.142
REMARK INTER:                  -8.631
REMARK INTRA:                  -0.510
REMARK UNBOUND:                -0.448
REMARK SMILES COc1ccc(-c2cc(=O)c3c(OC)c(OC)c(OC)c(OC)c3o2)cc1
REMARK SMILES IDX 7 1 8 2 9 3 10 4 11 5 24 6 25 7 21 8 18 9 15 10 12 11 6 12
REMARK SMILES IDX 3 13 4 14 27 15 5 16 26 17 2 18 1 19 22 20 23 21 13 22 14 23
REMARK SMILES IDX 19 24 20 25 16 26 17 27
REMARK H PARENT
REMARK Flexibility Score: inf
ROOT
ATOM      1  C   UNL     1      12.459   4.939 141.472  1.00  0.00     0.138 A 
ATOM      2  C   UNL     1      11.336   5.775 141.434  1.00  0.00     0.100 A 
ATOM      3  C   UNL     1      10.064   5.210 141.452  1.00  0.00     0.197 A 
ATOM      4  O   UNL     1       9.062   5.974 141.410  1.00  0.00    -0.289 OA
ATOM      5  C   UNL     1       9.922   3.806 141.511  1.00  0.00     0.115 A 
ATOM      6  C   UNL     1      11.100   3.024 141.572  1.00  0.00     0.188 A 
ATOM      7  O   UNL     1      12.291   3.621 141.552  1.00  0.00    -0.452 OA
ATOM      8  C   UNL     1      11.012   1.614 141.650  1.00  0.00     0.209 A 
ATOM      9  C   UNL     1       9.757   0.986 141.617  1.00  0.00     0.211 A 
ATOM     10  C   UNL     1       8.579   1.763 141.512  1.00  0.00     0.208 A 
ATOM     11  C   UNL     1       8.661   3.170 141.528  1.00  0.00     0.179 A 
ENDROOT
BRANCH   1  12
ATOM     12  C   UNL     1      13.837   5.489 141.433  1.00  0.00     0.018 A 
ATOM     13  C   UNL     1      16.441   6.583 141.396  1.00  0.00     0.118 A 
ATOM     14  C   UNL     1      16.255   5.190 141.470  1.00  0.00     0.047 A 
ATOM     15  C   UNL     1      15.321   7.417 141.349  1.00  0.00     0.047 A 
ATOM     16  C   UNL     1      14.966   4.649 141.491  1.00  0.00     0.016 A 
ATOM     17  C   UNL     1      14.031   6.879 141.368  1.00  0.00     0.016 A 
BRANCH  13  18
ATOM     18  O   UNL     1      17.714   7.172 141.371  1.00  0.00    -0.497 OA
ATOM     19  C   UNL     1      18.457   7.429 140.185  1.00  0.00     0.278 C 
ENDBRANCH  13  18
ENDBRANCH   1  12
BRANCH   8  20
ATOM     20  O   UNL     1      12.134   0.768 141.751  1.00  0.00    -0.490 OA
ATOM     21  C   UNL     1      13.039   0.429 140.707  1.00  0.00     0.278 C 
ENDBRANCH   8  20
BRANCH  11  22
ATOM     22  O   UNL     1       7.493   3.941 141.567  1.00  0.00    -0.492 OA
ATOM     23  C   UNL     1       6.617   4.049 140.450  1.00  0.00     0.278 C 
ENDBRANCH  11  22
BRANCH   9  24
ATOM     24  O   UNL     1       9.757  -0.421 141.683  1.00  0.00    -0.490 OA
ATOM     25  C   UNL     1       9.655  -1.327 140.590  1.00  0.00     0.279 C 
ENDBRANCH   9  24
BRANCH  10  26
ATOM     26  O   UNL     1       7.336   1.136 141.388  1.00  0.00    -0.490 OA
ATOM     27  C   UNL     1       6.626   0.609 142.505  1.00  0.00     0.278 C 
ENDBRANCH  10  26
TORSDOF 6
ENDMDL
MODEL 3
REMARK VINA RESULT:    -6.435      2.181      8.596
REMARK INTER + INTRA:          -9.141
REMARK INTER:                  -8.549
REMARK INTRA:                  -0.592
REMARK UNBOUND:                -0.448
REMARK SMILES COc1ccc(-c2cc(=O)c3c(OC)c(OC)c(OC)c(OC)c3o2)cc1
REMARK SMILES IDX 7 1 8 2 9 3 10 4 11 5 24 6 25 7 21 8 18 9 15 10 12 11 6 12
REMARK SMILES IDX 3 13 4 14 27 15 5 16 26 17 2 18 1 19 22 20 23 21 13 22 14 23
REMARK SMILES IDX 19 24 20 25 16 26 17 27
REMARK H PARENT
REMARK Flexibility Score: inf
ROOT
ATOM      1  C   UNL     1      12.930   5.069 141.305  1.00  0.00     0.138 A 
ATOM      2  C   UNL     1      13.442   6.368 141.417  1.00  0.00     0.100 A 
ATOM      3  C   UNL     1      14.818   6.567 141.349  1.00  0.00     0.197 A 
ATOM      4  O   UNL     1      15.266   7.740 141.458  1.00  0.00    -0.289 OA
ATOM      5  C   UNL     1      15.678   5.461 141.168  1.00  0.00     0.115 A 
ATOM      6  C   UNL     1      15.089   4.179 141.039  1.00  0.00     0.188 A 
ATOM      7  O   UNL     1      13.765   4.052 141.111  1.00  0.00    -0.452 OA
ATOM      8  C   UNL     1      15.905   3.041 140.838  1.00  0.00     0.209 A 
ATOM      9  C   UNL     1      17.302   3.175 140.816  1.00  0.00     0.211 A 
ATOM     10  C   UNL     1      17.895   4.447 140.989  1.00  0.00     0.208 A 
ATOM     11  C   UNL     1      17.082   5.593 141.096  1.00  0.00     0.179 A 
ENDROOT
BRANCH   1  12
ATOM     12  C   UNL     1      11.473   4.800 141.391  1.00  0.00     0.018 A 
ATOM     13  C   UNL     1       8.690   4.336 141.516  1.00  0.00     0.118 A 
ATOM     14  C   UNL     1       9.591   3.255 141.488  1.00  0.00     0.047 A 
ATOM     15  C   UNL     1       9.190   5.640 141.475  1.00  0.00     0.047 A 
ATOM     16  C   UNL     1      10.968   3.486 141.423  1.00  0.00     0.016 A 
ATOM     17  C   UNL     1      10.566   5.873 141.412  1.00  0.00     0.016 A 
BRANCH  13  18
ATOM     18  O   UNL     1       7.300   4.155 141.582  1.00  0.00    -0.497 OA
ATOM     19  C   UNL     1       6.408   4.380 140.496  1.00  0.00     0.278 C 
ENDBRANCH  13  18
ENDBRANCH   1  12
BRANCH   8  20
ATOM     20  O   UNL     1      15.396   1.739 140.664  1.00  0.00    -0.490 OA
ATOM     21  C   UNL     1      14.948   0.858 141.686  1.00  0.00     0.278 C 
ENDBRANCH   8  20
BRANCH  11  22
ATOM     22  O   UNL     1      17.663   6.867 141.125  1.00  0.00    -0.492 OA
ATOM     23  C   UNL     1      18.144   7.509 139.949  1.00  0.00     0.278 C 
ENDBRANCH  11  22
BRANCH   9  24
ATOM     24  O   UNL     1      18.042   1.990 140.628  1.00  0.00    -0.490 OA
ATOM     25  C   UNL     1      18.711   1.232 141.631  1.00  0.00     0.279 C 
ENDBRANCH   9  24
BRANCH  10  26
ATOM     26  O   UNL     1      19.286   4.568 141.059  1.00  0.00    -0.490 OA
ATOM     27  C   UNL     1      20.121   4.508 139.906  1.00  0.00     0.278 C 
ENDBRANCH  10  26
TORSDOF 6
ENDMDL
MODEL 4
REMARK VINA RESULT:    -6.332      1.764      4.163
REMARK INTER + INTRA:          -9.001
REMARK INTER:                  -8.468
REMARK INTRA:                  -0.534
REMARK UNBOUND:                -0.448
REMARK SMILES COc1ccc(-c2cc(=O)c3c(OC)c(OC)c(OC)c(OC)c3o2)cc1
REMARK SMILES IDX 7 1 8 2 9 3 10 4 11 5 24 6 25 7 21 8 18 9 15 10 12 11 6 12
REMARK SMILES IDX 3 13 4 14 27 15 5 16 26 17 2 18 1 19 22 20 23 21 13 22 14 23
REMARK SMILES IDX 19 24 20 25 16 26 17 27
REMARK H PARENT
REMARK Flexibility Score: inf
ROOT
ATOM      1  C   UNL     1      14.730   5.193 141.540  1.00  0.00     0.138 A 
ATOM      2  C   UNL     1      13.720   6.126 141.805  1.00  0.00     0.100 A 
ATOM      3  C   UNL     1      12.388   5.727 141.735  1.00  0.00     0.197 A 
ATOM      4  O   UNL     1      11.489   6.579 141.970  1.00  0.00    -0.289 OA
ATOM      5  C   UNL     1      12.073   4.392 141.401  1.00  0.00     0.115 A 
ATOM      6  C   UNL     1      13.146   3.497 141.170  1.00  0.00     0.188 A 
ATOM      7  O   UNL     1      14.401   3.937 141.252  1.00  0.00    -0.452 OA
ATOM      8  C   UNL     1      12.884   2.144 140.850  1.00  0.00     0.209 A 
ATOM      9  C   UNL     1      11.560   1.699 140.712  1.00  0.00     0.211 A 
ATOM     10  C   UNL     1      10.487   2.601 140.900  1.00  0.00     0.208 A 
ATOM     11  C   UNL     1      10.744   3.925 141.309  1.00  0.00     0.179 A 
ENDROOT
BRANCH   1  12
ATOM     12  C   UNL     1      16.165   5.572 141.580  1.00  0.00     0.018 A 
ATOM     13  C   UNL     1      18.903   6.268 141.598  1.00  0.00     0.118 A 
ATOM     14  C   UNL     1      17.942   7.145 142.135  1.00  0.00     0.047 A 
ATOM     15  C   UNL     1      18.484   5.052 141.051  1.00  0.00     0.047 A 
ATOM     16  C   UNL     1      16.587   6.801 142.123  1.00  0.00     0.016 A 
ATOM     17  C   UNL     1      17.130   4.705 141.039  1.00  0.00     0.016 A 
BRANCH  13  18
ATOM     18  O   UNL     1      20.273   6.567 141.588  1.00  0.00    -0.497 OA
ATOM     19  C   UNL     1      21.302   5.633 141.897  1.00  0.00     0.278 C 
ENDBRANCH  13  18
ENDBRANCH   1  12
BRANCH   8  20
ATOM     20  O   UNL     1      13.895   1.184 140.642  1.00  0.00    -0.490 OA
ATOM     21  C   UNL     1      14.652   0.517 141.644  1.00  0.00     0.278 C 
ENDBRANCH   8  20
BRANCH  11  22
ATOM     22  O   UNL     1       9.683   4.779 141.632  1.00  0.00    -0.492 OA
ATOM     23  C   UNL     1       8.808   5.311 140.643  1.00  0.00     0.278 C 
ENDBRANCH  11  22
BRANCH   9  24
ATOM     24  O   UNL     1      11.387   0.341 140.375  1.00  0.00    -0.490 OA
ATOM     25  C   UNL     1      11.105  -0.730 141.268  1.00  0.00     0.279 C 
ENDBRANCH   9  24
BRANCH  10  26
ATOM     26  O   UNL     1       9.173   2.181 140.674  1.00  0.00    -0.490 OA
ATOM     27  C   UNL     1       8.344   1.661 141.709  1.00  0.00     0.278 C 
ENDBRANCH  10  26
TORSDOF 6
ENDMDL
MODEL 5
REMARK VINA RESULT:    -6.280      3.646      9.369
REMARK INTER + INTRA:          -8.931
REMARK INTER:                  -8.447
REMARK INTRA:                  -0.484
REMARK UNBOUND:                -0.448
REMARK SMILES COc1ccc(-c2cc(=O)c3c(OC)c(OC)c(OC)c(OC)c3o2)cc1
REMARK SMILES IDX 7 1 8 2 9 3 10 4 11 5 24 6 25 7 21 8 18 9 15 10 12 11 6 12
REMARK SMILES IDX 3 13 4 14 27 15 5 16 26 17 2 18 1 19 22 20 23 21 13 22 14 23
REMARK SMILES IDX 19 24 20 25 16 26 17 27
REMARK H PARENT
REMARK Flexibility Score: inf
ROOT
ATOM      1  C   UNL     1      15.502   4.700 141.261  1.00  0.00     0.138 A 
ATOM      2  C   UNL     1      16.321   5.809 141.018  1.00  0.00     0.100 A 
ATOM      3  C   UNL     1      17.701   5.641 140.964  1.00  0.00     0.197 A 
ATOM      4  O   UNL     1      18.426   6.650 140.750  1.00  0.00    -0.289 OA
ATOM      5  C   UNL     1      18.258   4.357 141.155  1.00  0.00     0.115 A 
ATOM      6  C   UNL     1      17.369   3.276 141.374  1.00  0.00     0.188 A 
ATOM      7  O   UNL     1      16.056   3.500 141.413  1.00  0.00    -0.452 OA
ATOM      8  C   UNL     1      17.876   1.967 141.553  1.00  0.00     0.209 A 
ATOM      9  C   UNL     1      19.262   1.746 141.564  1.00  0.00     0.211 A 
ATOM     10  C   UNL     1      20.153   2.830 141.390  1.00  0.00     0.208 A 
ATOM     11  C   UNL     1      19.649   4.119 141.119  1.00  0.00     0.179 A 
ENDROOT
BRANCH   1  12
ATOM     12  C   UNL     1      14.026   4.829 141.349  1.00  0.00     0.018 A 
ATOM     13  C   UNL     1      11.221   5.132 141.490  1.00  0.00     0.118 A 
ATOM     14  C   UNL     1      11.786   3.899 141.114  1.00  0.00     0.047 A 
ATOM     15  C   UNL     1      12.067   6.205 141.786  1.00  0.00     0.047 A 
ATOM     16  C   UNL     1      13.174   3.751 141.041  1.00  0.00     0.016 A 
ATOM     17  C   UNL     1      13.455   6.059 141.716  1.00  0.00     0.016 A 
BRANCH  13  18
ATOM     18  O   UNL     1       9.835   5.330 141.579  1.00  0.00    -0.497 OA
ATOM     19  C   UNL     1       9.215   6.597 141.769  1.00  0.00     0.278 C 
ENDBRANCH  13  18
ENDBRANCH   1  12
BRANCH   8  20
ATOM     20  O   UNL     1      17.057   0.835 141.738  1.00  0.00    -0.490 OA
ATOM     21  C   UNL     1      16.568   0.334 142.976  1.00  0.00     0.278 C 
ENDBRANCH   8  20
BRANCH  11  22
ATOM     22  O   UNL     1      20.526   5.165 140.807  1.00  0.00    -0.492 OA
ATOM     23  C   UNL     1      21.353   5.781 141.788  1.00  0.00     0.278 C 
ENDBRANCH  11  22
BRANCH   9  24
ATOM     24  O   UNL     1      19.683   0.417 141.765  1.00  0.00    -0.490 OA
ATOM     25  C   UNL     1      19.989  -0.543 140.760  1.00  0.00     0.279 C 
ENDBRANCH   9  24
BRANCH  10  26
ATOM     26  O   UNL     1      21.532   2.626 141.492  1.00  0.00    -0.490 OA
ATOM     27  C   UNL     1      22.336   2.245 140.379  1.00  0.00     0.278 C 
ENDBRANCH  10  26
TORSDOF 6
ENDMDL
MODEL 6
REMARK VINA RESULT:    -6.235      2.328      8.935
REMARK INTER + INTRA:          -8.871
REMARK INTER:                  -8.228
REMARK INTRA:                  -0.643
REMARK UNBOUND:                -0.448
REMARK SMILES COc1ccc(-c2cc(=O)c3c(OC)c(OC)c(OC)c(OC)c3o2)cc1
REMARK SMILES IDX 7 1 8 2 9 3 10 4 11 5 24 6 25 7 21 8 18 9 15 10 12 11 6 12
REMARK SMILES IDX 3 13 4 14 27 15 5 16 26 17 2 18 1 19 22 20 23 21 13 22 14 23
REMARK SMILES IDX 19 24 20 25 16 26 17 27
REMARK H PARENT
REMARK Flexibility Score: inf
ROOT
ATOM      1  C   UNL     1      13.378   4.345 141.397  1.00  0.00     0.138 A 
ATOM      2  C   UNL     1      13.572   5.732 141.429  1.00  0.00     0.100 A 
ATOM      3  C   UNL     1      14.863   6.243 141.325  1.00  0.00     0.197 A 
ATOM      4  O   UNL     1      15.024   7.493 141.362  1.00  0.00    -0.289 OA
ATOM      5  C   UNL     1      15.957   5.360 141.189  1.00  0.00     0.115 A 
ATOM      6  C   UNL     1      15.684   3.971 141.141  1.00  0.00     0.188 A 
ATOM      7  O   UNL     1      14.427   3.542 141.244  1.00  0.00    -0.452 OA
ATOM      8  C   UNL     1      16.743   3.045 140.988  1.00  0.00     0.209 A 
ATOM      9  C   UNL     1      18.070   3.500 140.933  1.00  0.00     0.211 A 
ATOM     10  C   UNL     1      18.349   4.884 141.025  1.00  0.00     0.208 A 
ATOM     11  C   UNL     1      17.290   5.812 141.085  1.00  0.00     0.179 A 
ENDROOT
BRANCH   1  12
ATOM     12  C   UNL     1      12.025   3.749 141.525  1.00  0.00     0.018 A 
ATOM     13  C   UNL     1       9.431   2.648 141.720  1.00  0.00     0.118 A 
ATOM     14  C   UNL     1      10.565   1.837 141.916  1.00  0.00     0.047 A 
ATOM     15  C   UNL     1       9.606   4.002 141.421  1.00  0.00     0.047 A 
ATOM     16  C   UNL     1      11.848   2.382 141.816  1.00  0.00     0.016 A 
ATOM     17  C   UNL     1      10.888   4.549 141.323  1.00  0.00     0.016 A 
BRANCH  13  18
ATOM     18  O   UNL     1       8.123   2.148 141.810  1.00  0.00    -0.497 OA
ATOM     19  C   UNL     1       7.021   2.640 141.055  1.00  0.00     0.278 C 
ENDBRANCH  13  18
ENDBRANCH   1  12
BRANCH   8  20
ATOM     20  O   UNL     1      16.552   1.653 140.894  1.00  0.00    -0.490 OA
ATOM     21  C   UNL     1      16.280   0.758 141.965  1.00  0.00     0.278 C 
ENDBRANCH   8  20
BRANCH  11  22
ATOM     22  O   UNL     1      17.557   7.186 141.033  1.00  0.00    -0.492 OA
ATOM     23  C   UNL     1      18.103   7.810 139.877  1.00  0.00     0.278 C 
ENDBRANCH  11  22
BRANCH   9  24
ATOM     24  O   UNL     1      19.066   2.513 140.796  1.00  0.00    -0.490 OA
ATOM     25  C   UNL     1      19.860   1.951 141.835  1.00  0.00     0.279 C 
ENDBRANCH   9  24
BRANCH  10  26
ATOM     26  O   UNL     1      19.673   5.330 141.063  1.00  0.00    -0.490 OA
ATOM     27  C   UNL     1      20.375   5.551 142.283  1.00  0.00     0.278 C 
ENDBRANCH  10  26
TORSDOF 6
ENDMDL
MODEL 7
REMARK VINA RESULT:    -6.204      3.525      9.101
REMARK INTER + INTRA:          -8.829
REMARK INTER:                  -8.320
REMARK INTRA:                  -0.509
REMARK UNBOUND:                -0.448
REMARK SMILES COc1ccc(-c2cc(=O)c3c(OC)c(OC)c(OC)c(OC)c3o2)cc1
REMARK SMILES IDX 7 1 8 2 9 3 10 4 11 5 24 6 25 7 21 8 18 9 15 10 12 11 6 12
REMARK SMILES IDX 3 13 4 14 27 15 5 16 26 17 2 18 1 19 22 20 23 21 13 22 14 23
REMARK SMILES IDX 19 24 20 25 16 26 17 27
REMARK H PARENT
REMARK Flexibility Score: inf
ROOT
ATOM      1  C   UNL     1      15.413   3.788 141.101  1.00  0.00     0.138 A 
ATOM      2  C   UNL     1      15.564   2.412 140.893  1.00  0.00     0.100 A 
ATOM      3  C   UNL     1      16.838   1.887 140.695  1.00  0.00     0.197 A 
ATOM      4  O   UNL     1      16.959   0.647 140.503  1.00  0.00    -0.289 OA
ATOM      5  C   UNL     1      17.959   2.747 140.706  1.00  0.00     0.115 A 
ATOM      6  C   UNL     1      17.734   4.124 140.946  1.00  0.00     0.188 A 
ATOM      7  O   UNL     1      16.492   4.567 141.130  1.00  0.00    -0.452 OA
ATOM      8  C   UNL     1      18.825   5.024 140.985  1.00  0.00     0.209 A 
ATOM      9  C   UNL     1      20.127   4.560 140.737  1.00  0.00     0.211 A 
ATOM     10  C   UNL     1      20.349   3.193 140.455  1.00  0.00     0.208 A 
ATOM     11  C   UNL     1      19.277   2.280 140.507  1.00  0.00     0.179 A 
ENDROOT
BRANCH   1  12
ATOM     12  C   UNL     1      14.075   4.401 141.296  1.00  0.00     0.018 A 
ATOM     13  C   UNL     1      11.551   5.620 141.641  1.00  0.00     0.118 A 
ATOM     14  C   UNL     1      11.642   4.270 141.255  1.00  0.00     0.047 A 
ATOM     15  C   UNL     1      12.725   6.350 141.845  1.00  0.00     0.047 A 
ATOM     16  C   UNL     1      12.892   3.668 141.081  1.00  0.00     0.016 A 
ATOM     17  C   UNL     1      13.975   5.751 141.674  1.00  0.00     0.016 A 
BRANCH  13  18
ATOM     18  O   UNL     1      10.320   6.267 141.829  1.00  0.00    -0.497 OA
ATOM     19  C   UNL     1       9.066   5.752 141.396  1.00  0.00     0.278 C 
ENDBRANCH  13  18
ENDBRANCH   1  12
BRANCH   8  20
ATOM     20  O   UNL     1      18.689   6.401 141.253  1.00  0.00    -0.490 OA
ATOM     21  C   UNL     1      18.347   7.418 140.320  1.00  0.00     0.278 C 
ENDBRANCH   8  20
BRANCH  11  22
ATOM     22  O   UNL     1      19.515   0.907 140.368  1.00  0.00    -0.492 OA
ATOM     23  C   UNL     1      19.958   0.100 141.453  1.00  0.00     0.278 C 
ENDBRANCH  11  22
BRANCH   9  24
ATOM     24  O   UNL     1      21.154   5.524 140.779  1.00  0.00    -0.490 OA
ATOM     25  C   UNL     1      21.900   5.929 141.922  1.00  0.00     0.279 C 
ENDBRANCH   9  24
BRANCH  10  26
ATOM     26  O   UNL     1      21.631   2.747 140.119  1.00  0.00    -0.490 OA
ATOM     27  C   UNL     1      22.640   2.502 141.095  1.00  0.00     0.278 C 
ENDBRANCH  10  26
TORSDOF 6
ENDMDL
MODEL 8
REMARK VINA RESULT:    -6.171      1.938      4.466
REMARK INTER + INTRA:          -8.784
REMARK INTER:                  -8.194
REMARK INTRA:                  -0.590
REMARK UNBOUND:                -0.448
REMARK SMILES COc1ccc(-c2cc(=O)c3c(OC)c(OC)c(OC)c(OC)c3o2)cc1
REMARK SMILES IDX 7 1 8 2 9 3 10 4 11 5 24 6 25 7 21 8 18 9 15 10 12 11 6 12
REMARK SMILES IDX 3 13 4 14 27 15 5 16 26 17 2 18 1 19 22 20 23 21 13 22 14 23
REMARK SMILES IDX 19 24 20 25 16 26 17 27
REMARK H PARENT
REMARK Flexibility Score: inf
ROOT
ATOM      1  C   UNL     1      11.665   3.277 141.357  1.00  0.00     0.138 A 
ATOM      2  C   UNL     1      10.309   3.619 141.433  1.00  0.00     0.100 A 
ATOM      3  C   UNL     1       9.357   2.612 141.552  1.00  0.00     0.197 A 
ATOM      4  O   UNL     1       8.139   2.934 141.612  1.00  0.00    -0.289 OA
ATOM      5  C   UNL     1       9.767   1.261 141.595  1.00  0.00     0.115 A 
ATOM      6  C   UNL     1      11.156   0.990 141.538  1.00  0.00     0.188 A 
ATOM      7  O   UNL     1      12.021   1.996 141.425  1.00  0.00    -0.452 OA
ATOM      8  C   UNL     1      11.620  -0.346 141.596  1.00  0.00     0.209 A 
ATOM      9  C   UNL     1      10.702  -1.406 141.660  1.00  0.00     0.211 A 
ATOM     10  C   UNL     1       9.313  -1.140 141.674  1.00  0.00     0.208 A 
ATOM     11  C   UNL     1       8.852   0.192 141.710  1.00  0.00     0.179 A 
ENDROOT
BRANCH   1  12
ATOM     12  C   UNL     1      12.719   4.311 141.208  1.00  0.00     0.018 A 
ATOM     13  C   UNL     1      14.714   6.299 140.983  1.00  0.00     0.118 A 
ATOM     14  C   UNL     1      14.915   5.023 140.426  1.00  0.00     0.047 A 
ATOM     15  C   UNL     1      13.518   6.567 141.655  1.00  0.00     0.047 A 
ATOM     16  C   UNL     1      13.928   4.038 140.540  1.00  0.00     0.016 A 
ATOM     17  C   UNL     1      12.530   5.585 141.769  1.00  0.00     0.016 A 
BRANCH  13  18
ATOM     18  O   UNL     1      15.672   7.319 140.894  1.00  0.00    -0.497 OA
ATOM     19  C   UNL     1      17.017   7.124 140.470  1.00  0.00     0.278 C 
ENDBRANCH  13  18
ENDBRANCH   1  12
BRANCH   8  20
ATOM     20  O   UNL     1      12.985  -0.696 141.581  1.00  0.00    -0.490 OA
ATOM     21  C   UNL     1      13.839  -0.738 140.445  1.00  0.00     0.278 C 
ENDBRANCH   8  20
BRANCH  11  22
ATOM     22  O   UNL     1       7.487   0.459 141.866  1.00  0.00    -0.492 OA
ATOM     23  C   UNL     1       6.831   0.353 143.125  1.00  0.00     0.278 C 
ENDBRANCH  11  22
BRANCH   9  24
ATOM     24  O   UNL     1      11.246  -2.705 141.698  1.00  0.00    -0.490 OA
ATOM     25  C   UNL     1      11.354  -3.618 140.612  1.00  0.00     0.279 C 
ENDBRANCH   9  24
BRANCH  10  26
ATOM     26  O   UNL     1       8.398  -2.196 141.647  1.00  0.00    -0.490 OA
ATOM     27  C   UNL     1       8.137  -3.016 142.782  1.00  0.00     0.278 C 
ENDBRANCH  10  26
TORSDOF 6
ENDMDL
MODEL 9
REMARK VINA RESULT:    -5.855      3.001      6.246
REMARK INTER + INTRA:          -8.357
REMARK INTER:                  -7.916
REMARK INTRA:                  -0.441
REMARK UNBOUND:                -0.448
REMARK SMILES COc1ccc(-c2cc(=O)c3c(OC)c(OC)c(OC)c(OC)c3o2)cc1
REMARK SMILES IDX 7 1 8 2 9 3 10 4 11 5 24 6 25 7 21 8 18 9 15 10 12 11 6 12
REMARK SMILES IDX 3 13 4 14 27 15 5 16 26 17 2 18 1 19 22 20 23 21 13 22 14 23
REMARK SMILES IDX 19 24 20 25 16 26 17 27
REMARK H PARENT
REMARK Flexibility Score: inf
ROOT
ATOM      1  C   UNL     1      17.728   4.915 141.114  1.00  0.00     0.138 A 
ATOM      2  C   UNL     1      16.949   6.069 140.967  1.00  0.00     0.100 A 
ATOM      3  C   UNL     1      15.561   5.959 140.958  1.00  0.00     0.197 A 
ATOM      4  O   UNL     1      14.872   7.005 140.819  1.00  0.00    -0.289 OA
ATOM      5  C   UNL     1      14.959   4.689 141.098  1.00  0.00     0.115 A 
ATOM      6  C   UNL     1      15.808   3.569 141.267  1.00  0.00     0.188 A 
ATOM      7  O   UNL     1      17.130   3.737 141.268  1.00  0.00    -0.452 OA
ATOM      8  C   UNL     1      15.254   2.277 141.429  1.00  0.00     0.209 A 
ATOM      9  C   UNL     1      13.863   2.098 141.374  1.00  0.00     0.211 A 
ATOM     10  C   UNL     1      13.014   3.209 141.162  1.00  0.00     0.208 A 
ATOM     11  C   UNL     1      13.559   4.508 141.093  1.00  0.00     0.179 A 
ENDROOT
BRANCH   1  12
ATOM     12  C   UNL     1      19.212   4.976 141.108  1.00  0.00     0.018 A 
ATOM     13  C   UNL     1      22.032   5.120 141.153  1.00  0.00     0.118 A 
ATOM     14  C   UNL     1      21.386   3.964 140.678  1.00  0.00     0.047 A 
ATOM     15  C   UNL     1      21.260   6.193 141.609  1.00  0.00     0.047 A 
ATOM     16  C   UNL     1      19.990   3.892 140.659  1.00  0.00     0.016 A 
ATOM     17  C   UNL     1      19.864   6.124 141.589  1.00  0.00     0.016 A 
BRANCH  13  18
ATOM     18  O   UNL     1      23.429   5.240 141.191  1.00  0.00    -0.497 OA
ATOM     19  C   UNL     1      24.125   6.363 141.723  1.00  0.00     0.278 C 
ENDBRANCH  13  18
ENDBRANCH   1  12
BRANCH   8  20
ATOM     20  O   UNL     1      16.029   1.119 141.639  1.00  0.00    -0.490 OA
ATOM     21  C   UNL     1      16.523   0.641 142.884  1.00  0.00     0.278 C 
ENDBRANCH   8  20
BRANCH  11  22
ATOM     22  O   UNL     1      12.713   5.621 141.025  1.00  0.00    -0.492 OA
ATOM     23  C   UNL     1      12.061   6.150 142.174  1.00  0.00     0.278 C 
ENDBRANCH  11  22
BRANCH   9  24
ATOM     24  O   UNL     1      13.394   0.778 141.528  1.00  0.00    -0.490 OA
ATOM     25  C   UNL     1      13.267  -0.207 140.509  1.00  0.00     0.279 C 
ENDBRANCH   9  24
BRANCH  10  26
ATOM     26  O   UNL     1      11.637   3.020 141.016  1.00  0.00    -0.490 OA
ATOM     27  C   UNL     1      10.814   2.524 142.068  1.00  0.00     0.278 C 
ENDBRANCH  10  26
TORSDOF 6
ENDMDL
