MODEL 1
REMARK VINA RESULT:    18.856      0.000      0.000
REMARK INTER + INTRA:          20.317
REMARK INTER:                  20.510
REMARK INTRA:                  -0.193
REMARK UNBOUND:                -0.193
REMARK SMILES C[C@@H]1[C@H](C)CC[C@]2(C(=O)[O-])CC[C@@]3(C)C(=CC[C@@H]4[C@@]5(C)CC[C@@H](O)C(C)(C)[C@H]5CC[C@@]43C)[C@H]12
REMARK SMILES IDX 7 1 6 2 11 3 33 4 5 5 12 6 15 7 2 8 3 9 13 10 16 11 1 12
REMARK SMILES IDX 4 13 14 14 31 15 17 16 18 17 30 18 32 19 19 20 29 21 28 22
REMARK SMILES IDX 21 23 20 24 25 25 22 26 23 27 26 28 27 29 8 30 9 31 10 32
REMARK SMILES IDX 24 33
REMARK H PARENT 24 34
REMARK Flexibility Score: inf
ROOT
ATOM      1  C   UNL     1      62.997  23.793  22.831  1.00  0.00     0.017 C 
ATOM      2  C   UNL     1      64.125  22.905  22.192  1.00  0.00     0.014 C 
ATOM      3  C   UNL     1      62.798  23.362  24.350  1.00  0.00     0.014 C 
ATOM      4  C   UNL     1      61.647  23.764  21.947  1.00  0.00     0.030 C 
ATOM      5  C   UNL     1      63.547  21.682  21.480  1.00  0.00     0.004 C 
ATOM      6  C   UNL     1      61.449  22.758  24.812  1.00  0.00     0.013 C 
ATOM      7  C   UNL     1      60.492  23.020  22.645  1.00  0.00    -0.063 C 
ATOM      8  C   UNL     1      61.956  23.411  20.438  1.00  0.00    -0.003 C 
ATOM      9  C   UNL     1      62.842  22.129  20.188  1.00  0.00    -0.011 C 
ATOM     10  C   UNL     1      60.201  23.370  24.112  1.00  0.00    -0.006 C 
ATOM     11  C   UNL     1      60.011  21.865  22.152  1.00  0.00    -0.027 C 
ATOM     12  C   UNL     1      60.770  23.612  19.463  1.00  0.00     0.008 C 
ATOM     13  C   UNL     1      62.198  20.917  19.486  1.00  0.00     0.008 C 
ATOM     14  C   UNL     1      60.268  24.917  24.371  1.00  0.00     0.017 C 
ATOM     15  C   UNL     1      58.752  22.775  24.650  1.00  0.00    -0.020 C 
ATOM     16  C   UNL     1      59.306  20.876  23.012  1.00  0.00     0.032 C 
ATOM     17  C   UNL     1      58.172  21.555  23.784  1.00  0.00     0.006 C 
ATOM     18  C   UNL     1      57.639  23.852  24.720  1.00  0.00     0.008 C 
ATOM     19  C   UNL     1      58.912  22.287  26.124  1.00  0.00     0.012 C 
ATOM     20  C   UNL     1      56.744  21.699  22.986  1.00  0.00    -0.025 C 
ATOM     21  C   UNL     1      57.171  24.244  23.330  1.00  0.00     0.005 C 
ATOM     22  C   UNL     1      56.207  23.192  22.767  1.00  0.00     0.003 C 
ATOM     23  C   UNL     1      55.691  20.876  23.787  1.00  0.00     0.010 C 
ATOM     24  C   UNL     1      56.819  21.038  21.570  1.00  0.00     0.012 C 
ATOM     25  C   UNL     1      54.664  23.481  23.075  1.00  0.00    -0.006 C 
ATOM     26  C   UNL     1      54.255  20.901  23.247  1.00  0.00     0.033 C 
ATOM     27  C   UNL     1      53.815  22.255  22.633  1.00  0.00     0.120 C 
ATOM     28  C   UNL     1      54.354  23.845  24.554  1.00  0.00     0.014 C 
ATOM     29  C   UNL     1      54.194  24.695  22.222  1.00  0.00     0.014 C 
ENDROOT
BRANCH   1  30
ATOM     30  C   UNL     1      63.584  25.215  22.823  1.00  0.00     0.048 C 
ATOM     31  O   UNL     1      64.067  25.713  21.775  1.00  0.00    -0.550 OA
ATOM     32  O   UNL     1      63.682  25.954  23.998  1.00  0.00    -0.550 OA
ENDBRANCH   1  30
BRANCH  27  33
ATOM     33  O   UNL     1      52.433  22.482  22.840  1.00  0.00    -0.393 OA
ATOM     34  H   UNL     1      52.323  23.094  23.614  1.00  0.00     0.210 HD
ENDBRANCH  27  33
TORSDOF 2
ENDMDL
