MODEL 1
REMARK VINA RESULT:    -4.740      0.000      0.000
REMARK INTER + INTRA:         -10.545
REMARK INTER:                  -9.173
REMARK INTRA:                  -1.372
REMARK UNBOUND:                -1.372
REMARK SMILES CCCCCCCCCCCCCCCCCC(=O)[O-]
REMARK SMILES IDX 10 1 11 2 12 3 13 4 14 5 15 6 16 7 17 8 18 9 19 10 20 11
REMARK SMILES IDX 9 12 8 13 7 14 6 15 5 16 4 17 3 18 2 19 1 20
REMARK H PARENT
REMARK Flexibility Score: inf
ROOT
ATOM      1  C   UNL     1      -5.148  -3.442  -4.770  1.00  0.00     0.000 C 
ENDROOT
BRANCH   1   2
ATOM      2  C   UNL     1      -4.236  -3.055  -5.947  1.00  0.00     0.000 C 
BRANCH   2   3
ATOM      3  C   UNL     1      -4.599  -1.688  -6.552  1.00  0.00     0.000 C 
BRANCH   3   4
ATOM      4  C   UNL     1      -3.548  -0.610  -6.245  1.00  0.00     0.000 C 
BRANCH   4   5
ATOM      5  C   UNL     1      -3.792   0.091  -4.897  1.00  0.00     0.000 C 
BRANCH   5   6
ATOM      6  C   UNL     1      -4.039   1.599  -5.051  1.00  0.00     0.000 C 
BRANCH   6   7
ATOM      7  C   UNL     1      -4.623   1.964  -6.425  1.00  0.00     0.006 C 
BRANCH   7   8
ATOM      8  C   UNL     1      -4.084   3.314  -6.907  1.00  0.00     0.053 C 
BRANCH   8   9
ATOM      9  C   UNL     1      -2.593   3.275  -7.019  1.00  0.00     0.041 C 
ATOM     10  O   UNL     1      -1.889   4.106  -6.389  1.00  0.00    -0.550 OA
ATOM     11  O   UNL     1      -1.983   2.351  -7.858  1.00  0.00    -0.550 OA
ENDBRANCH   8   9
ENDBRANCH   7   8
ENDBRANCH   6   7
ENDBRANCH   5   6
ENDBRANCH   4   5
ENDBRANCH   3   4
ENDBRANCH   2   3
ENDBRANCH   1   2
BRANCH   1  12
ATOM     12  C   UNL     1      -4.405  -3.455  -3.423  1.00  0.00     0.000 C 
BRANCH  12  13
ATOM     13  C   UNL     1      -5.208  -4.160  -2.317  1.00  0.00    -0.000 C 
BRANCH  13  14
ATOM     14  C   UNL     1      -4.684  -3.829  -0.908  1.00  0.00    -0.000 C 
BRANCH  14  15
ATOM     15  C   UNL     1      -5.411  -2.634  -0.263  1.00  0.00    -0.000 C 
BRANCH  15  16
ATOM     16  C   UNL     1      -6.608  -3.006   0.631  1.00  0.00    -0.000 C 
BRANCH  16  17
ATOM     17  C   UNL     1      -7.878  -3.327  -0.174  1.00  0.00    -0.000 C 
BRANCH  17  18
ATOM     18  C   UNL     1      -8.650  -4.536   0.386  1.00  0.00    -0.000 C 
BRANCH  18  19
ATOM     19  C   UNL     1      -7.764  -5.704   0.852  1.00  0.00    -0.003 C 
ATOM     20  C   UNL     1      -7.449  -6.700  -0.263  1.00  0.00     0.004 C 
ENDBRANCH  18  19
ENDBRANCH  17  18
ENDBRANCH  16  17
ENDBRANCH  15  16
ENDBRANCH  14  15
ENDBRANCH  13  14
ENDBRANCH  12  13
ENDBRANCH   1  12
TORSDOF 16
ENDMDL
MODEL 2
REMARK VINA RESULT:    -4.670      2.386      3.883
REMARK INTER + INTRA:         -10.409
REMARK INTER:                  -7.856
REMARK INTRA:                  -2.554
REMARK UNBOUND:                -1.372
REMARK SMILES CCCCCCCCCCCCCCCCCC(=O)[O-]
REMARK SMILES IDX 10 1 11 2 12 3 13 4 14 5 15 6 16 7 17 8 18 9 19 10 20 11
REMARK SMILES IDX 9 12 8 13 7 14 6 15 5 16 4 17 3 18 2 19 1 20
REMARK H PARENT
REMARK Flexibility Score: inf
ROOT
ATOM      1  C   UNL     1      -3.492  -1.497  -2.220  1.00  0.00     0.000 C 
ENDROOT
BRANCH   1   2
ATOM      2  C   UNL     1      -2.433  -2.288  -3.006  1.00  0.00     0.000 C 
BRANCH   2   3
ATOM      3  C   UNL     1      -3.004  -3.561  -3.654  1.00  0.00     0.000 C 
BRANCH   3   4
ATOM      4  C   UNL     1      -4.540  -3.602  -3.617  1.00  0.00     0.000 C 
BRANCH   4   5
ATOM      5  C   UNL     1      -5.171  -3.499  -5.018  1.00  0.00     0.000 C 
BRANCH   5   6
ATOM      6  C   UNL     1      -4.309  -2.687  -5.996  1.00  0.00     0.000 C 
BRANCH   6   7
ATOM      7  C   UNL     1      -4.952  -1.345  -6.377  1.00  0.00     0.006 C 
BRANCH   7   8
ATOM      8  C   UNL     1      -4.198  -0.176  -5.738  1.00  0.00     0.053 C 
BRANCH   8   9
ATOM      9  C   UNL     1      -5.027   1.069  -5.779  1.00  0.00     0.041 C 
ATOM     10  O   UNL     1      -4.645   2.104  -5.173  1.00  0.00    -0.550 OA
ATOM     11  O   UNL     1      -6.245   1.072  -6.446  1.00  0.00    -0.550 OA
ENDBRANCH   8   9
ENDBRANCH   7   8
ENDBRANCH   6   7
ENDBRANCH   5   6
ENDBRANCH   4   5
ENDBRANCH   3   4
ENDBRANCH   2   3
ENDBRANCH   1   2
BRANCH   1  12
ATOM     12  C   UNL     1      -2.872  -0.466  -1.261  1.00  0.00     0.000 C 
BRANCH  12  13
ATOM     13  C   UNL     1      -1.685  -1.040  -0.470  1.00  0.00    -0.000 C 
BRANCH  13  14
ATOM     14  C   UNL     1      -2.131  -1.994   0.652  1.00  0.00    -0.000 C 
BRANCH  14  15
ATOM     15  C   UNL     1      -1.661  -3.444   0.429  1.00  0.00    -0.000 C 
BRANCH  15  16
ATOM     16  C   UNL     1      -2.792  -4.472   0.237  1.00  0.00    -0.000 C 
BRANCH  16  17
ATOM     17  C   UNL     1      -4.096  -4.064   0.941  1.00  0.00    -0.000 C 
BRANCH  17  18
ATOM     18  C   UNL     1      -5.296  -3.989  -0.022  1.00  0.00    -0.000 C 
BRANCH  18  19
ATOM     19  C   UNL     1      -6.196  -2.756   0.170  1.00  0.00    -0.003 C 
ATOM     20  C   UNL     1      -7.674  -3.046  -0.088  1.00  0.00     0.004 C 
ENDBRANCH  18  19
ENDBRANCH  17  18
ENDBRANCH  16  17
ENDBRANCH  15  16
ENDBRANCH  14  15
ENDBRANCH  13  14
ENDBRANCH  12  13
ENDBRANCH   1  12
TORSDOF 16
ENDMDL
MODEL 3
REMARK VINA RESULT:    -4.591      3.676      6.647
REMARK INTER + INTRA:         -10.256
REMARK INTER:                  -8.696
REMARK INTRA:                  -1.560
REMARK UNBOUND:                -1.372
REMARK SMILES CCCCCCCCCCCCCCCCCC(=O)[O-]
REMARK SMILES IDX 10 1 11 2 12 3 13 4 14 5 15 6 16 7 17 8 18 9 19 10 20 11
REMARK SMILES IDX 9 12 8 13 7 14 6 15 5 16 4 17 3 18 2 19 1 20
REMARK H PARENT
REMARK Flexibility Score: inf
ROOT
ATOM      1  C   UNL     1      -2.350   2.649  -7.564  1.00  0.00     0.000 C 
ENDROOT
BRANCH   1   2
ATOM      2  C   UNL     1      -1.619   1.328  -7.863  1.00  0.00     0.000 C 
BRANCH   2   3
ATOM      3  C   UNL     1      -0.522   1.487  -8.930  1.00  0.00     0.000 C 
BRANCH   3   4
ATOM      4  C   UNL     1      -0.293   2.955  -9.325  1.00  0.00     0.000 C 
BRANCH   4   5
ATOM      5  C   UNL     1      -0.414   3.188 -10.842  1.00  0.00     0.000 C 
BRANCH   5   6
ATOM      6  C   UNL     1      -1.747   2.683 -11.413  1.00  0.00     0.000 C 
BRANCH   6   7
ATOM      7  C   UNL     1      -2.830   3.772 -11.439  1.00  0.00     0.006 C 
BRANCH   7   8
ATOM      8  C   UNL     1      -3.819   3.532 -12.583  1.00  0.00     0.053 C 
BRANCH   8   9
ATOM      9  C   UNL     1      -3.978   4.770 -13.409  1.00  0.00     0.041 C 
ATOM     10  O   UNL     1      -4.332   4.685 -14.614  1.00  0.00    -0.550 OA
ATOM     11  O   UNL     1      -3.689   6.013 -12.862  1.00  0.00    -0.550 OA
ENDBRANCH   8   9
ENDBRANCH   7   8
ENDBRANCH   6   7
ENDBRANCH   5   6
ENDBRANCH   4   5
ENDBRANCH   3   4
ENDBRANCH   2   3
ENDBRANCH   1   2
BRANCH   1  12
ATOM     12  C   UNL     1      -3.081   2.629  -6.210  1.00  0.00     0.000 C 
BRANCH  12  13
ATOM     13  C   UNL     1      -2.738   1.382  -5.378  1.00  0.00    -0.000 C 
BRANCH  13  14
ATOM     14  C   UNL     1      -3.994   0.628  -4.903  1.00  0.00    -0.000 C 
BRANCH  14  15
ATOM     15  C   UNL     1      -5.031   0.425  -6.024  1.00  0.00    -0.000 C 
BRANCH  15  16
ATOM     16  C   UNL     1      -5.401  -1.042  -6.309  1.00  0.00    -0.000 C 
BRANCH  16  17
ATOM     17  C   UNL     1      -4.171  -1.933  -6.547  1.00  0.00    -0.000 C 
BRANCH  17  18
ATOM     18  C   UNL     1      -4.235  -3.260  -5.768  1.00  0.00    -0.000 C 
BRANCH  18  19
ATOM     19  C   UNL     1      -5.381  -3.349  -4.745  1.00  0.00    -0.003 C 
ATOM     20  C   UNL     1      -4.893  -3.601  -3.318  1.00  0.00     0.004 C 
ENDBRANCH  18  19
ENDBRANCH  17  18
ENDBRANCH  16  17
ENDBRANCH  15  16
ENDBRANCH  14  15
ENDBRANCH  13  14
ENDBRANCH  12  13
ENDBRANCH   1  12
TORSDOF 16
ENDMDL
MODEL 4
REMARK VINA RESULT:    -4.553      4.696      8.199
REMARK INTER + INTRA:         -10.183
REMARK INTER:                  -8.408
REMARK INTRA:                  -1.775
REMARK UNBOUND:                -1.372
REMARK SMILES CCCCCCCCCCCCCCCCCC(=O)[O-]
REMARK SMILES IDX 10 1 11 2 12 3 13 4 14 5 15 6 16 7 17 8 18 9 19 10 20 11
REMARK SMILES IDX 9 12 8 13 7 14 6 15 5 16 4 17 3 18 2 19 1 20
REMARK H PARENT
REMARK Flexibility Score: inf
ROOT
ATOM      1  C   UNL     1      -1.294   1.860  -8.472  1.00  0.00     0.000 C 
ENDROOT
BRANCH   1   2
ATOM      2  C   UNL     1      -0.979   1.910  -9.977  1.00  0.00     0.000 C 
BRANCH   2   3
ATOM      3  C   UNL     1      -0.467   3.288 -10.430  1.00  0.00     0.000 C 
BRANCH   3   4
ATOM      4  C   UNL     1      -1.140   3.769 -11.725  1.00  0.00     0.000 C 
BRANCH   4   5
ATOM      5  C   UNL     1      -2.215   2.792 -12.235  1.00  0.00     0.000 C 
BRANCH   5   6
ATOM      6  C   UNL     1      -3.621   3.410 -12.238  1.00  0.00     0.000 C 
BRANCH   6   7
ATOM      7  C   UNL     1      -3.641   4.831 -12.821  1.00  0.00     0.006 C 
BRANCH   7   8
ATOM      8  C   UNL     1      -4.149   4.822 -14.266  1.00  0.00     0.053 C 
BRANCH   8   9
ATOM      9  C   UNL     1      -3.118   5.392 -15.188  1.00  0.00     0.041 C 
ATOM     10  O   UNL     1      -1.905   5.401 -14.853  1.00  0.00    -0.550 OA
ATOM     11  O   UNL     1      -3.502   5.958 -16.397  1.00  0.00    -0.550 OA
ENDBRANCH   8   9
ENDBRANCH   7   8
ENDBRANCH   6   7
ENDBRANCH   5   6
ENDBRANCH   4   5
ENDBRANCH   3   4
ENDBRANCH   2   3
ENDBRANCH   1   2
BRANCH   1  12
ATOM     12  C   UNL     1      -1.904   3.173  -7.950  1.00  0.00     0.000 C 
BRANCH  12  13
ATOM     13  C   UNL     1      -3.353   3.376  -8.424  1.00  0.00    -0.000 C 
BRANCH  13  14
ATOM     14  C   UNL     1      -4.367   3.292  -7.269  1.00  0.00    -0.000 C 
BRANCH  14  15
ATOM     15  C   UNL     1      -3.718   2.895  -5.929  1.00  0.00    -0.000 C 
BRANCH  15  16
ATOM     16  C   UNL     1      -4.362   1.684  -5.229  1.00  0.00    -0.000 C 
BRANCH  16  17
ATOM     17  C   UNL     1      -4.784   0.580  -6.213  1.00  0.00    -0.000 C 
BRANCH  17  18
ATOM     18  C   UNL     1      -3.704  -0.502  -6.395  1.00  0.00    -0.000 C 
BRANCH  18  19
ATOM     19  C   UNL     1      -4.246  -1.935  -6.534  1.00  0.00    -0.003 C 
ATOM     20  C   UNL     1      -5.189  -2.332  -5.399  1.00  0.00     0.004 C 
ENDBRANCH  18  19
ENDBRANCH  17  18
ENDBRANCH  16  17
ENDBRANCH  15  16
ENDBRANCH  14  15
ENDBRANCH  13  14
ENDBRANCH  12  13
ENDBRANCH   1  12
TORSDOF 16
ENDMDL
MODEL 5
REMARK VINA RESULT:    -4.533      5.077     11.362
REMARK INTER + INTRA:         -10.144
REMARK INTER:                  -8.451
REMARK INTRA:                  -1.693
REMARK UNBOUND:                -1.372
REMARK SMILES CCCCCCCCCCCCCCCCCC(=O)[O-]
REMARK SMILES IDX 10 1 11 2 12 3 13 4 14 5 15 6 16 7 17 8 18 9 19 10 20 11
REMARK SMILES IDX 9 12 8 13 7 14 6 15 5 16 4 17 3 18 2 19 1 20
REMARK H PARENT
REMARK Flexibility Score: inf
ROOT
ATOM      1  C   UNL     1      -2.185   3.751  -9.851  1.00  0.00     0.000 C 
ENDROOT
BRANCH   1   2
ATOM      2  C   UNL     1      -2.353   3.100  -8.468  1.00  0.00     0.000 C 
BRANCH   2   3
ATOM      3  C   UNL     1      -3.699   3.449  -7.809  1.00  0.00     0.000 C 
BRANCH   3   4
ATOM      4  C   UNL     1      -3.695   3.197  -6.293  1.00  0.00     0.000 C 
BRANCH   4   5
ATOM      5  C   UNL     1      -4.483   1.935  -5.897  1.00  0.00     0.000 C 
BRANCH   5   6
ATOM      6  C   UNL     1      -3.821   1.162  -4.746  1.00  0.00     0.000 C 
BRANCH   6   7
ATOM      7  C   UNL     1      -3.064  -0.084  -5.230  1.00  0.00     0.006 C 
BRANCH   7   8
ATOM      8  C   UNL     1      -3.649  -0.603  -6.546  1.00  0.00     0.053 C 
BRANCH   8   9
ATOM      9  C   UNL     1      -4.527  -1.789  -6.299  1.00  0.00     0.041 C 
ATOM     10  O   UNL     1      -5.691  -1.631  -5.847  1.00  0.00    -0.550 OA
ATOM     11  O   UNL     1      -4.043  -3.071  -6.523  1.00  0.00    -0.550 OA
ENDBRANCH   8   9
ENDBRANCH   7   8
ENDBRANCH   6   7
ENDBRANCH   5   6
ENDBRANCH   4   5
ENDBRANCH   3   4
ENDBRANCH   2   3
ENDBRANCH   1   2
BRANCH   1  12
ATOM     12  C   UNL     1      -1.507   2.816 -10.868  1.00  0.00     0.000 C 
BRANCH  12  13
ATOM     13  C   UNL     1      -2.230   2.804 -12.226  1.00  0.00    -0.000 C 
BRANCH  13  14
ATOM     14  C   UNL     1      -3.650   3.392 -12.142  1.00  0.00    -0.000 C 
BRANCH  14  15
ATOM     15  C   UNL     1      -3.964   4.368 -13.292  1.00  0.00    -0.000 C 
BRANCH  15  16
ATOM     16  C   UNL     1      -3.137   5.667 -13.286  1.00  0.00    -0.000 C 
BRANCH  16  17
ATOM     17  C   UNL     1      -3.397   6.535 -12.044  1.00  0.00    -0.000 C 
BRANCH  17  18
ATOM     18  C   UNL     1      -2.345   7.644 -11.859  1.00  0.00    -0.000 C 
BRANCH  18  19
ATOM     19  C   UNL     1      -0.905   7.227 -12.205  1.00  0.00    -0.003 C 
ATOM     20  C   UNL     1      -0.232   6.416 -11.098  1.00  0.00     0.004 C 
ENDBRANCH  18  19
ENDBRANCH  17  18
ENDBRANCH  16  17
ENDBRANCH  15  16
ENDBRANCH  14  15
ENDBRANCH  13  14
ENDBRANCH  12  13
ENDBRANCH   1  12
TORSDOF 16
ENDMDL
MODEL 6
REMARK VINA RESULT:    -4.497      4.559      7.658
REMARK INTER + INTRA:         -10.074
REMARK INTER:                  -8.083
REMARK INTRA:                  -1.991
REMARK UNBOUND:                -1.372
REMARK SMILES CCCCCCCCCCCCCCCCCC(=O)[O-]
REMARK SMILES IDX 10 1 11 2 12 3 13 4 14 5 15 6 16 7 17 8 18 9 19 10 20 11
REMARK SMILES IDX 9 12 8 13 7 14 6 15 5 16 4 17 3 18 2 19 1 20
REMARK H PARENT
REMARK Flexibility Score: inf
ROOT
ATOM      1  C   UNL     1      -4.401  -2.600  -6.219  1.00  0.00     0.000 C 
ENDROOT
BRANCH   1   2
ATOM      2  C   UNL     1      -5.133  -3.412  -5.137  1.00  0.00     0.000 C 
BRANCH   2   3
ATOM      3  C   UNL     1      -4.168  -4.175  -4.215  1.00  0.00     0.000 C 
BRANCH   3   4
ATOM      4  C   UNL     1      -4.156  -3.615  -2.783  1.00  0.00     0.000 C 
BRANCH   4   5
ATOM      5  C   UNL     1      -5.476  -3.872  -2.034  1.00  0.00     0.000 C 
BRANCH   5   6
ATOM      6  C   UNL     1      -5.319  -3.767  -0.509  1.00  0.00     0.000 C 
BRANCH   6   7
ATOM      7  C   UNL     1      -6.417  -2.910   0.140  1.00  0.00     0.006 C 
BRANCH   7   8
ATOM      8  C   UNL     1      -7.804  -3.499  -0.134  1.00  0.00     0.053 C 
BRANCH   8   9
ATOM      9  C   UNL     1      -8.243  -4.362   1.006  1.00  0.00     0.041 C 
ATOM     10  O   UNL     1      -9.420  -4.806   1.047  1.00  0.00    -0.550 OA
ATOM     11  O   UNL     1      -7.367  -4.635   2.049  1.00  0.00    -0.550 OA
ENDBRANCH   8   9
ENDBRANCH   7   8
ENDBRANCH   6   7
ENDBRANCH   5   6
ENDBRANCH   4   5
ENDBRANCH   3   4
ENDBRANCH   2   3
ENDBRANCH   1   2
BRANCH   1  12
ATOM     12  C   UNL     1      -5.047  -1.226  -6.468  1.00  0.00     0.000 C 
BRANCH  12  13
ATOM     13  C   UNL     1      -4.110  -0.062  -6.102  1.00  0.00    -0.000 C 
BRANCH  13  14
ATOM     14  C   UNL     1      -2.632  -0.490  -6.054  1.00  0.00    -0.000 C 
BRANCH  14  15
ATOM     15  C   UNL     1      -1.967  -0.198  -4.696  1.00  0.00    -0.000 C 
BRANCH  15  16
ATOM     16  C   UNL     1      -2.944  -0.016  -3.519  1.00  0.00    -0.000 C 
BRANCH  16  17
ATOM     17  C   UNL     1      -2.261  -0.150  -2.149  1.00  0.00    -0.000 C 
BRANCH  17  18
ATOM     18  C   UNL     1      -3.198  -0.719  -1.067  1.00  0.00    -0.000 C 
BRANCH  18  19
ATOM     19  C   UNL     1      -2.484  -1.469   0.071  1.00  0.00    -0.003 C 
ATOM     20  C   UNL     1      -1.427  -2.453  -0.429  1.00  0.00     0.004 C 
ENDBRANCH  18  19
ENDBRANCH  17  18
ENDBRANCH  16  17
ENDBRANCH  15  16
ENDBRANCH  14  15
ENDBRANCH  13  14
ENDBRANCH  12  13
ENDBRANCH   1  12
TORSDOF 16
ENDMDL
MODEL 7
REMARK VINA RESULT:    -4.472      1.357      2.396
REMARK INTER + INTRA:         -10.026
REMARK INTER:                  -8.161
REMARK INTRA:                  -1.865
REMARK UNBOUND:                -1.372
REMARK SMILES CCCCCCCCCCCCCCCCCC(=O)[O-]
REMARK SMILES IDX 10 1 11 2 12 3 13 4 14 5 15 6 16 7 17 8 18 9 19 10 20 11
REMARK SMILES IDX 9 12 8 13 7 14 6 15 5 16 4 17 3 18 2 19 1 20
REMARK H PARENT
REMARK Flexibility Score: inf
ROOT
ATOM      1  C   UNL     1      -3.435  -3.670  -2.873  1.00  0.00     0.000 C 
ENDROOT
BRANCH   1   2
ATOM      2  C   UNL     1      -4.281  -4.300  -3.993  1.00  0.00     0.000 C 
BRANCH   2   3
ATOM      3  C   UNL     1      -5.015  -3.249  -4.843  1.00  0.00     0.000 C 
BRANCH   3   4
ATOM      4  C   UNL     1      -4.250  -2.891  -6.127  1.00  0.00     0.000 C 
BRANCH   4   5
ATOM      5  C   UNL     1      -4.260  -1.380  -6.423  1.00  0.00     0.000 C 
BRANCH   5   6
ATOM      6  C   UNL     1      -3.141  -0.628  -5.687  1.00  0.00     0.000 C 
BRANCH   6   7
ATOM      7  C   UNL     1      -3.675   0.518  -4.814  1.00  0.00     0.006 C 
BRANCH   7   8
ATOM      8  C   UNL     1      -4.642   1.404  -5.604  1.00  0.00     0.053 C 
BRANCH   8   9
ATOM      9  C   UNL     1      -3.908   2.536  -6.250  1.00  0.00     0.041 C 
ATOM     10  O   UNL     1      -2.751   2.843  -5.861  1.00  0.00    -0.550 OA
ATOM     11  O   UNL     1      -4.520   3.282  -7.249  1.00  0.00    -0.550 OA
ENDBRANCH   8   9
ENDBRANCH   7   8
ENDBRANCH   6   7
ENDBRANCH   5   6
ENDBRANCH   4   5
ENDBRANCH   3   4
ENDBRANCH   2   3
ENDBRANCH   1   2
BRANCH   1  12
ATOM     12  C   UNL     1      -3.981  -2.308  -2.412  1.00  0.00     0.000 C 
BRANCH  12  13
ATOM     13  C   UNL     1      -3.471  -1.914  -1.016  1.00  0.00    -0.000 C 
BRANCH  13  14
ATOM     14  C   UNL     1      -2.673  -3.043  -0.340  1.00  0.00    -0.000 C 
BRANCH  14  15
ATOM     15  C   UNL     1      -3.404  -3.653   0.870  1.00  0.00    -0.000 C 
BRANCH  15  16
ATOM     16  C   UNL     1      -4.658  -4.478   0.525  1.00  0.00    -0.000 C 
BRANCH  16  17
ATOM     17  C   UNL     1      -5.917  -3.987   1.258  1.00  0.00    -0.000 C 
BRANCH  17  18
ATOM     18  C   UNL     1      -6.657  -2.874   0.495  1.00  0.00    -0.000 C 
BRANCH  18  19
ATOM     19  C   UNL     1      -7.839  -3.359  -0.362  1.00  0.00    -0.003 C 
ATOM     20  C   UNL     1      -8.639  -4.481   0.299  1.00  0.00     0.004 C 
ENDBRANCH  18  19
ENDBRANCH  17  18
ENDBRANCH  16  17
ENDBRANCH  15  16
ENDBRANCH  14  15
ENDBRANCH  13  14
ENDBRANCH  12  13
ENDBRANCH   1  12
TORSDOF 16
ENDMDL
MODEL 8
REMARK VINA RESULT:    -4.422      1.503      2.495
REMARK INTER + INTRA:          -9.929
REMARK INTER:                  -7.994
REMARK INTRA:                  -1.936
REMARK UNBOUND:                -1.372
REMARK SMILES CCCCCCCCCCCCCCCCCC(=O)[O-]
REMARK SMILES IDX 10 1 11 2 12 3 13 4 14 5 15 6 16 7 17 8 18 9 19 10 20 11
REMARK SMILES IDX 9 12 8 13 7 14 6 15 5 16 4 17 3 18 2 19 1 20
REMARK H PARENT
REMARK Flexibility Score: inf
ROOT
ATOM      1  C   UNL     1      -4.082  -3.627  -3.605  1.00  0.00     0.000 C 
ENDROOT
BRANCH   1   2
ATOM      2  C   UNL     1      -4.650  -3.663  -5.035  1.00  0.00     0.000 C 
BRANCH   2   3
ATOM      3  C   UNL     1      -5.488  -2.418  -5.370  1.00  0.00     0.000 C 
BRANCH   3   4
ATOM      4  C   UNL     1      -4.892  -1.601  -6.528  1.00  0.00     0.000 C 
BRANCH   4   5
ATOM      5  C   UNL     1      -4.132  -0.353  -6.044  1.00  0.00     0.000 C 
BRANCH   5   6
ATOM      6  C   UNL     1      -5.040   0.879  -5.917  1.00  0.00     0.000 C 
BRANCH   6   7
ATOM      7  C   UNL     1      -4.280   2.128  -5.446  1.00  0.00     0.006 C 
BRANCH   7   8
ATOM      8  C   UNL     1      -4.084   3.117  -6.598  1.00  0.00     0.053 C 
BRANCH   8   9
ATOM      9  C   UNL     1      -2.706   2.994  -7.168  1.00  0.00     0.041 C 
ATOM     10  O   UNL     1      -2.483   3.329  -8.361  1.00  0.00    -0.550 OA
ATOM     11  O   UNL     1      -1.680   2.463  -6.398  1.00  0.00    -0.550 OA
ENDBRANCH   8   9
ENDBRANCH   7   8
ENDBRANCH   6   7
ENDBRANCH   5   6
ENDBRANCH   4   5
ENDBRANCH   3   4
ENDBRANCH   2   3
ENDBRANCH   1   2
BRANCH   1  12
ATOM     12  C   UNL     1      -2.544  -3.654  -3.577  1.00  0.00     0.000 C 
BRANCH  12  13
ATOM     13  C   UNL     1      -1.948  -2.403  -2.909  1.00  0.00    -0.000 C 
BRANCH  13  14
ATOM     14  C   UNL     1      -3.001  -1.305  -2.671  1.00  0.00    -0.000 C 
BRANCH  14  15
ATOM     15  C   UNL     1      -3.325  -1.099  -1.180  1.00  0.00    -0.000 C 
BRANCH  15  16
ATOM     16  C   UNL     1      -2.824  -2.216  -0.245  1.00  0.00    -0.000 C 
BRANCH  16  17
ATOM     17  C   UNL     1      -3.942  -3.175   0.194  1.00  0.00    -0.000 C 
BRANCH  17  18
ATOM     18  C   UNL     1      -5.349  -2.640  -0.132  1.00  0.00    -0.000 C 
BRANCH  18  19
ATOM     19  C   UNL     1      -6.337  -3.702  -0.646  1.00  0.00    -0.003 C 
ATOM     20  C   UNL     1      -7.781  -3.432  -0.225  1.00  0.00     0.004 C 
ENDBRANCH  18  19
ENDBRANCH  17  18
ENDBRANCH  16  17
ENDBRANCH  15  16
ENDBRANCH  14  15
ENDBRANCH  13  14
ENDBRANCH  12  13
ENDBRANCH   1  12
TORSDOF 16
ENDMDL
MODEL 9
REMARK VINA RESULT:    -4.389      4.515      8.196
REMARK INTER + INTRA:          -9.865
REMARK INTER:                  -7.666
REMARK INTRA:                  -2.199
REMARK UNBOUND:                -1.372
REMARK SMILES CCCCCCCCCCCCCCCCCC(=O)[O-]
REMARK SMILES IDX 10 1 11 2 12 3 13 4 14 5 15 6 16 7 17 8 18 9 19 10 20 11
REMARK SMILES IDX 9 12 8 13 7 14 6 15 5 16 4 17 3 18 2 19 1 20
REMARK H PARENT
REMARK Flexibility Score: inf
ROOT
ATOM      1  C   UNL     1      -2.398  -0.555  -2.090  1.00  0.00     0.000 C 
ENDROOT
BRANCH   1   2
ATOM      2  C   UNL     1      -3.517  -1.206  -1.259  1.00  0.00     0.000 C 
BRANCH   2   3
ATOM      3  C   UNL     1      -3.017  -2.395  -0.421  1.00  0.00     0.000 C 
BRANCH   3   4
ATOM      4  C   UNL     1      -4.168  -3.196   0.209  1.00  0.00     0.000 C 
BRANCH   4   5
ATOM      5  C   UNL     1      -5.488  -3.056  -0.572  1.00  0.00     0.000 C 
BRANCH   5   6
ATOM      6  C   UNL     1      -6.669  -2.670   0.330  1.00  0.00     0.000 C 
BRANCH   6   7
ATOM      7  C   UNL     1      -7.423  -3.895   0.871  1.00  0.00     0.006 C 
BRANCH   7   8
ATOM      8  C   UNL     1      -7.342  -5.066  -0.112  1.00  0.00     0.053 C 
BRANCH   8   9
ATOM      9  C   UNL     1      -6.788  -6.280   0.562  1.00  0.00     0.041 C 
ATOM     10  O   UNL     1      -5.546  -6.488   0.570  1.00  0.00    -0.550 OA
ATOM     11  O   UNL     1      -7.645  -7.208   1.140  1.00  0.00    -0.550 OA
ENDBRANCH   8   9
ENDBRANCH   7   8
ENDBRANCH   6   7
ENDBRANCH   5   6
ENDBRANCH   4   5
ENDBRANCH   3   4
ENDBRANCH   2   3
ENDBRANCH   1   2
BRANCH   1  12
ATOM     12  C   UNL     1      -2.862  -0.157  -3.502  1.00  0.00     0.000 C 
BRANCH  12  13
ATOM     13  C   UNL     1      -1.836  -0.532  -4.584  1.00  0.00    -0.000 C 
BRANCH  13  14
ATOM     14  C   UNL     1      -2.423  -0.453  -6.004  1.00  0.00    -0.000 C 
BRANCH  14  15
ATOM     15  C   UNL     1      -3.946  -0.223  -6.012  1.00  0.00    -0.000 C 
BRANCH  15  16
ATOM     16  C   UNL     1      -4.781  -1.413  -6.519  1.00  0.00    -0.000 C 
BRANCH  16  17
ATOM     17  C   UNL     1      -4.227  -2.771  -6.059  1.00  0.00    -0.000 C 
BRANCH  17  18
ATOM     18  C   UNL     1      -5.139  -3.471  -5.034  1.00  0.00    -0.000 C 
BRANCH  18  19
ATOM     19  C   UNL     1      -4.396  -4.130  -3.858  1.00  0.00    -0.003 C 
ATOM     20  C   UNL     1      -2.877  -3.993  -3.956  1.00  0.00     0.004 C 
ENDBRANCH  18  19
ENDBRANCH  17  18
ENDBRANCH  16  17
ENDBRANCH  15  16
ENDBRANCH  14  15
ENDBRANCH  13  14
ENDBRANCH  12  13
ENDBRANCH   1  12
TORSDOF 16
ENDMDL
