MODEL 1
REMARK VINA RESULT:    -7.696      0.000      0.000
REMARK INTER + INTRA:          -8.371
REMARK INTER:                  -8.371
REMARK INTRA:                   0.000
REMARK UNBOUND:                 0.000
REMARK SMILES Cc1cc(O)c2c(c1)C(=O)c1cc(O)cc(O)c1C2=O
REMARK SMILES IDX 1 1 2 2 8 3 7 4 6 5 4 6 3 7 19 8 20 9 18 10 11 11 9 12 10 13
REMARK SMILES IDX 12 14 13 15 15 16 16 17 5 18 17 20 14 22
REMARK H PARENT 5 19 17 21 14 23
REMARK Flexibility Score: inf
ROOT
ATOM      1  C   UNL     1      43.994  69.002   4.465  1.00  0.00     0.044 C 
ATOM      2  C   UNL     1      44.865  67.828   4.124  1.00  0.00    -0.047 A 
ATOM      3  C   UNL     1      46.189  68.028   3.719  1.00  0.00     0.016 A 
ATOM      4  C   UNL     1      47.003  66.937   3.371  1.00  0.00     0.038 A 
ATOM      5  C   UNL     1      46.483  65.625   3.427  1.00  0.00     0.076 A 
ATOM      6  C   UNL     1      45.116  65.436   3.756  1.00  0.00     0.127 A 
ATOM      7  C   UNL     1      44.331  66.535   4.119  1.00  0.00     0.050 A 
ATOM      8  C   UNL     1      47.413  64.490   3.195  1.00  0.00     0.201 C 
ATOM      9  O   UNL     1      47.205  63.383   3.762  1.00  0.00    -0.288 OA
ATOM     10  C   UNL     1      48.681  64.713   2.454  1.00  0.00     0.076 A 
ATOM     11  C   UNL     1      49.197  66.028   2.396  1.00  0.00     0.041 A 
ATOM     12  C   UNL     1      48.403  67.158   2.935  1.00  0.00     0.194 C 
ATOM     13  O   UNL     1      48.910  68.311   3.001  1.00  0.00    -0.289 OA
ATOM     14  C   UNL     1      50.460  66.260   1.824  1.00  0.00     0.059 A 
ATOM     15  C   UNL     1      51.203  65.204   1.297  1.00  0.00     0.120 A 
ATOM     16  C   UNL     1      50.680  63.908   1.315  1.00  0.00     0.093 A 
ATOM     17  C   UNL     1      49.417  63.655   1.860  1.00  0.00     0.131 A 
ENDROOT
BRANCH   6  18
ATOM     18  O   UNL     1      44.492  64.188   3.700  1.00  0.00    -0.507 OA
ATOM     19  H   UNL     1      43.510  64.063   3.499  1.00  0.00     0.293 HD
ENDBRANCH   6  18
BRANCH  17  20
ATOM     20  O   UNL     1      48.922  62.353   1.760  1.00  0.00    -0.507 OA
ATOM     21  H   UNL     1      49.499  61.551   1.542  1.00  0.00     0.293 HD
ENDBRANCH  17  20
BRANCH  15  22
ATOM     22  O   UNL     1      52.458  65.455   0.746  1.00  0.00    -0.508 OA
ATOM     23  H   UNL     1      53.247  64.847   0.928  1.00  0.00     0.293 HD
ENDBRANCH  15  22
TORSDOF 3
ENDMDL
MODEL 2
REMARK VINA RESULT:    -7.531      4.612      7.217
REMARK INTER + INTRA:          -8.191
REMARK INTER:                  -8.191
REMARK INTRA:                   0.000
REMARK UNBOUND:                 0.000
REMARK SMILES Cc1cc(O)c2c(c1)C(=O)c1cc(O)cc(O)c1C2=O
REMARK SMILES IDX 1 1 2 2 8 3 7 4 6 5 4 6 3 7 19 8 20 9 18 10 11 11 9 12 10 13
REMARK SMILES IDX 12 14 13 15 15 16 16 17 5 18 17 20 14 22
REMARK H PARENT 5 19 17 21 14 23
REMARK Flexibility Score: inf
ROOT
ATOM      1  C   UNL     1      50.754  60.285   7.470  1.00  0.00     0.044 C 
ATOM      2  C   UNL     1      49.459  60.153   6.724  1.00  0.00    -0.047 A 
ATOM      3  C   UNL     1      48.951  61.236   5.998  1.00  0.00     0.016 A 
ATOM      4  C   UNL     1      47.725  61.130   5.319  1.00  0.00     0.038 A 
ATOM      5  C   UNL     1      46.995  59.922   5.370  1.00  0.00     0.076 A 
ATOM      6  C   UNL     1      47.474  58.857   6.176  1.00  0.00     0.127 A 
ATOM      7  C   UNL     1      48.706  58.978   6.825  1.00  0.00     0.050 A 
ATOM      8  C   UNL     1      45.781  59.799   4.522  1.00  0.00     0.201 C 
ATOM      9  O   UNL     1      45.438  58.670   4.079  1.00  0.00    -0.288 OA
ATOM     10  C   UNL     1      45.086  61.022   4.046  1.00  0.00     0.076 A 
ATOM     11  C   UNL     1      45.818  62.230   4.000  1.00  0.00     0.041 A 
ATOM     12  C   UNL     1      47.190  62.284   4.558  1.00  0.00     0.194 C 
ATOM     13  O   UNL     1      47.893  63.322   4.407  1.00  0.00    -0.289 OA
ATOM     14  C   UNL     1      45.241  63.377   3.428  1.00  0.00     0.059 A 
ATOM     15  C   UNL     1      43.943  63.338   2.919  1.00  0.00     0.120 A 
ATOM     16  C   UNL     1      43.200  62.157   2.998  1.00  0.00     0.093 A 
ATOM     17  C   UNL     1      43.745  61.008   3.581  1.00  0.00     0.131 A 
ENDROOT
BRANCH   6  18
ATOM     18  O   UNL     1      46.745  57.685   6.389  1.00  0.00    -0.507 OA
ATOM     19  H   UNL     1      47.097  56.762   6.179  1.00  0.00     0.293 HD
ENDBRANCH   6  18
BRANCH  17  20
ATOM     20  O   UNL     1      42.912  59.894   3.708  1.00  0.00    -0.507 OA
ATOM     21  H   UNL     1      43.205  59.023   4.130  1.00  0.00     0.293 HD
ENDBRANCH  17  20
BRANCH  15  22
ATOM     22  O   UNL     1      43.395  64.483   2.345  1.00  0.00    -0.508 OA
ATOM     23  H   UNL     1      42.660  65.006   2.805  1.00  0.00     0.293 HD
ENDBRANCH  15  22
TORSDOF 3
ENDMDL
MODEL 3
REMARK VINA RESULT:    -7.473      1.542      6.584
REMARK INTER + INTRA:          -8.128
REMARK INTER:                  -8.128
REMARK INTRA:                   0.000
REMARK UNBOUND:                 0.000
REMARK SMILES Cc1cc(O)c2c(c1)C(=O)c1cc(O)cc(O)c1C2=O
REMARK SMILES IDX 1 1 2 2 8 3 7 4 6 5 4 6 3 7 19 8 20 9 18 10 11 11 9 12 10 13
REMARK SMILES IDX 12 14 13 15 15 16 16 17 5 18 17 20 14 22
REMARK H PARENT 5 19 17 21 14 23
REMARK Flexibility Score: inf
ROOT
ATOM      1  C   UNL     1      51.684  60.991  -0.963  1.00  0.00     0.044 C 
ATOM      2  C   UNL     1      51.267  62.241  -0.247  1.00  0.00    -0.047 A 
ATOM      3  C   UNL     1      50.074  62.270   0.484  1.00  0.00     0.016 A 
ATOM      4  C   UNL     1      49.661  63.445   1.135  1.00  0.00     0.038 A 
ATOM      5  C   UNL     1      50.454  64.610   1.052  1.00  0.00     0.076 A 
ATOM      6  C   UNL     1      51.618  64.599   0.240  1.00  0.00     0.127 A 
ATOM      7  C   UNL     1      52.020  63.413  -0.381  1.00  0.00     0.050 A 
ATOM      8  C   UNL     1      50.063  65.786   1.872  1.00  0.00     0.201 C 
ATOM      9  O   UNL     1      50.948  66.580   2.292  1.00  0.00    -0.288 OA
ATOM     10  C   UNL     1      48.664  65.919   2.351  1.00  0.00     0.076 A 
ATOM     11  C   UNL     1      47.871  64.751   2.430  1.00  0.00     0.041 A 
ATOM     12  C   UNL     1      48.392  63.469   1.901  1.00  0.00     0.194 C 
ATOM     13  O   UNL     1      47.743  62.401   2.082  1.00  0.00    -0.289 OA
ATOM     14  C   UNL     1      46.591  64.812   3.006  1.00  0.00     0.059 A 
ATOM     15  C   UNL     1      46.087  66.020   3.487  1.00  0.00     0.120 A 
ATOM     16  C   UNL     1      46.849  67.185   3.375  1.00  0.00     0.093 A 
ATOM     17  C   UNL     1      48.118  67.155   2.787  1.00  0.00     0.131 A 
ENDROOT
BRANCH   6  18
ATOM     18  O   UNL     1      52.378  65.745  -0.004  1.00  0.00    -0.507 OA
ATOM     19  H   UNL     1      53.383  65.738  -0.107  1.00  0.00     0.293 HD
ENDBRANCH   6  18
BRANCH  17  20
ATOM     20  O   UNL     1      48.783  68.373   2.627  1.00  0.00    -0.507 OA
ATOM     21  H   UNL     1      48.445  69.120   2.035  1.00  0.00     0.293 HD
ENDBRANCH  17  20
BRANCH  15  22
ATOM     22  O   UNL     1      44.820  66.054   4.065  1.00  0.00    -0.508 OA
ATOM     23  H   UNL     1      44.128  65.341   3.868  1.00  0.00     0.293 HD
ENDBRANCH  15  22
TORSDOF 3
ENDMDL
MODEL 4
REMARK VINA RESULT:    -7.411      7.879      9.890
REMARK INTER + INTRA:          -8.061
REMARK INTER:                  -8.061
REMARK INTRA:                   0.000
REMARK UNBOUND:                 0.000
REMARK SMILES Cc1cc(O)c2c(c1)C(=O)c1cc(O)cc(O)c1C2=O
REMARK SMILES IDX 1 1 2 2 8 3 7 4 6 5 4 6 3 7 19 8 20 9 18 10 11 11 9 12 10 13
REMARK SMILES IDX 12 14 13 15 15 16 16 17 5 18 17 20 14 22
REMARK H PARENT 5 19 17 21 14 23
REMARK Flexibility Score: inf
ROOT
ATOM      1  C   UNL     1      54.839  58.853   8.635  1.00  0.00     0.044 C 
ATOM      2  C   UNL     1      53.846  58.857   7.511  1.00  0.00    -0.047 A 
ATOM      3  C   UNL     1      52.479  58.718   7.779  1.00  0.00     0.016 A 
ATOM      4  C   UNL     1      51.544  58.692   6.730  1.00  0.00     0.038 A 
ATOM      5  C   UNL     1      51.983  58.804   5.393  1.00  0.00     0.076 A 
ATOM      6  C   UNL     1      53.375  58.859   5.124  1.00  0.00     0.127 A 
ATOM      7  C   UNL     1      54.285  58.905   6.184  1.00  0.00     0.050 A 
ATOM      8  C   UNL     1      50.957  58.921   4.324  1.00  0.00     0.201 C 
ATOM      9  O   UNL     1      51.217  59.568   3.274  1.00  0.00    -0.288 OA
ATOM     10  C   UNL     1      49.574  58.442   4.573  1.00  0.00     0.076 A 
ATOM     11  C   UNL     1      49.138  58.326   5.913  1.00  0.00     0.041 A 
ATOM     12  C   UNL     1      50.098  58.537   7.022  1.00  0.00     0.194 C 
ATOM     13  O   UNL     1      49.689  58.560   8.216  1.00  0.00    -0.289 OA
ATOM     14  C   UNL     1      47.797  58.008   6.188  1.00  0.00     0.059 A 
ATOM     15  C   UNL     1      46.893  57.790   5.149  1.00  0.00     0.120 A 
ATOM     16  C   UNL     1      47.327  57.863   3.823  1.00  0.00     0.093 A 
ATOM     17  C   UNL     1      48.662  58.156   3.523  1.00  0.00     0.131 A 
ENDROOT
BRANCH   6  18
ATOM     18  O   UNL     1      53.895  58.833   3.828  1.00  0.00    -0.507 OA
ATOM     19  H   UNL     1      54.633  59.443   3.509  1.00  0.00     0.293 HD
ENDBRANCH   6  18
BRANCH  17  20
ATOM     20  O   UNL     1      49.043  58.122   2.180  1.00  0.00    -0.507 OA
ATOM     21  H   UNL     1      48.535  58.593   1.443  1.00  0.00     0.293 HD
ENDBRANCH  17  20
BRANCH  15  22
ATOM     22  O   UNL     1      45.566  57.488   5.445  1.00  0.00    -0.508 OA
ATOM     23  H   UNL     1      44.915  58.204   5.746  1.00  0.00     0.293 HD
ENDBRANCH  15  22
TORSDOF 3
ENDMDL
MODEL 5
REMARK VINA RESULT:    -7.362      7.729      8.475
REMARK INTER + INTRA:          -8.007
REMARK INTER:                  -8.007
REMARK INTRA:                   0.000
REMARK UNBOUND:                 0.000
REMARK SMILES Cc1cc(O)c2c(c1)C(=O)c1cc(O)cc(O)c1C2=O
REMARK SMILES IDX 1 1 2 2 8 3 7 4 6 5 4 6 3 7 19 8 20 9 18 10 11 11 9 12 10 13
REMARK SMILES IDX 12 14 13 15 15 16 16 17 5 18 17 20 14 22
REMARK H PARENT 5 19 17 21 14 23
REMARK Flexibility Score: inf
ROOT
ATOM      1  C   UNL     1      47.019  57.002   1.281  1.00  0.00     0.044 C 
ATOM      2  C   UNL     1      47.537  57.506   2.596  1.00  0.00    -0.047 A 
ATOM      3  C   UNL     1      48.824  58.049   2.684  1.00  0.00     0.016 A 
ATOM      4  C   UNL     1      49.329  58.497   3.916  1.00  0.00     0.038 A 
ATOM      5  C   UNL     1      48.535  58.398   5.079  1.00  0.00     0.076 A 
ATOM      6  C   UNL     1      47.265  57.770   4.999  1.00  0.00     0.127 A 
ATOM      7  C   UNL     1      46.775  57.351   3.758  1.00  0.00     0.050 A 
ATOM      8  C   UNL     1      49.043  59.016   6.332  1.00  0.00     0.201 C 
ATOM      9  O   UNL     1      48.230  59.467   7.183  1.00  0.00    -0.288 OA
ATOM     10  C   UNL     1      50.498  59.270   6.492  1.00  0.00     0.076 A 
ATOM     11  C   UNL     1      51.291  59.364   5.326  1.00  0.00     0.041 A 
ATOM     12  C   UNL     1      50.696  59.064   4.002  1.00  0.00     0.194 C 
ATOM     13  O   UNL     1      51.363  59.268   2.949  1.00  0.00    -0.289 OA
ATOM     14  C   UNL     1      52.642  59.738   5.427  1.00  0.00     0.059 A 
ATOM     15  C   UNL     1      53.212  60.003   6.672  1.00  0.00     0.120 A 
ATOM     16  C   UNL     1      52.444  59.872   7.831  1.00  0.00     0.093 A 
ATOM     17  C   UNL     1      51.103  59.481   7.758  1.00  0.00     0.131 A 
ENDROOT
BRANCH   6  18
ATOM     18  O   UNL     1      46.479  57.510   6.124  1.00  0.00    -0.507 OA
ATOM     19  H   UNL     1      46.860  57.294   7.034  1.00  0.00     0.293 HD
ENDBRANCH   6  18
BRANCH  17  20
ATOM     20  O   UNL     1      50.424  59.282   8.963  1.00  0.00    -0.507 OA
ATOM     21  H   UNL     1      50.673  59.745   9.827  1.00  0.00     0.293 HD
ENDBRANCH  17  20
BRANCH  15  22
ATOM     22  O   UNL     1      54.550  60.385   6.747  1.00  0.00    -0.508 OA
ATOM     23  H   UNL     1      54.991  60.917   6.006  1.00  0.00     0.293 HD
ENDBRANCH  15  22
TORSDOF 3
ENDMDL
MODEL 6
REMARK VINA RESULT:    -7.333      7.174      8.601
REMARK INTER + INTRA:          -7.977
REMARK INTER:                  -7.977
REMARK INTRA:                   0.000
REMARK UNBOUND:                 0.000
REMARK SMILES Cc1cc(O)c2c(c1)C(=O)c1cc(O)cc(O)c1C2=O
REMARK SMILES IDX 1 1 2 2 8 3 7 4 6 5 4 6 3 7 19 8 20 9 18 10 11 11 9 12 10 13
REMARK SMILES IDX 12 14 13 15 15 16 16 17 5 18 17 20 14 22
REMARK H PARENT 5 19 17 21 14 23
REMARK Flexibility Score: inf
ROOT
ATOM      1  C   UNL     1      46.753  61.192   4.913  1.00  0.00     0.044 C 
ATOM      2  C   UNL     1      47.940  60.342   5.254  1.00  0.00    -0.047 A 
ATOM      3  C   UNL     1      48.978  60.861   6.036  1.00  0.00     0.016 A 
ATOM      4  C   UNL     1      50.107  60.081   6.337  1.00  0.00     0.038 A 
ATOM      5  C   UNL     1      50.201  58.760   5.845  1.00  0.00     0.076 A 
ATOM      6  C   UNL     1      49.187  58.269   4.983  1.00  0.00     0.127 A 
ATOM      7  C   UNL     1      48.062  59.056   4.715  1.00  0.00     0.050 A 
ATOM      8  C   UNL     1      51.336  57.918   6.304  1.00  0.00     0.201 C 
ATOM      9  O   UNL     1      51.193  56.669   6.395  1.00  0.00    -0.288 OA
ATOM     10  C   UNL     1      52.565  58.562   6.834  1.00  0.00     0.076 A 
ATOM     11  C   UNL     1      52.469  59.885   7.322  1.00  0.00     0.041 A 
ATOM     12  C   UNL     1      51.205  60.641   7.161  1.00  0.00     0.194 C 
ATOM     13  O   UNL     1      51.072  61.772   7.705  1.00  0.00    -0.289 OA
ATOM     14  C   UNL     1      53.574  60.479   7.955  1.00  0.00     0.059 A 
ATOM     15  C   UNL     1      54.773  59.780   8.092  1.00  0.00     0.120 A 
ATOM     16  C   UNL     1      54.887  58.487   7.575  1.00  0.00     0.093 A 
ATOM     17  C   UNL     1      53.808  57.881   6.922  1.00  0.00     0.131 A 
ENDROOT
BRANCH   6  18
ATOM     18  O   UNL     1      49.273  57.029   4.346  1.00  0.00    -0.507 OA
ATOM     19  H   UNL     1      48.468  56.501   4.039  1.00  0.00     0.293 HD
ENDBRANCH   6  18
BRANCH  17  20
ATOM     20  O   UNL     1      54.024  56.624   6.352  1.00  0.00    -0.507 OA
ATOM     21  H   UNL     1      53.930  55.756   6.862  1.00  0.00     0.293 HD
ENDBRANCH  17  20
BRANCH  15  22
ATOM     22  O   UNL     1      55.852  60.385   8.734  1.00  0.00    -0.508 OA
ATOM     23  H   UNL     1      55.737  61.232   9.277  1.00  0.00     0.293 HD
ENDBRANCH  15  22
TORSDOF 3
ENDMDL
MODEL 7
REMARK VINA RESULT:    -7.315      5.581      7.122
REMARK INTER + INTRA:          -7.957
REMARK INTER:                  -7.957
REMARK INTRA:                   0.000
REMARK UNBOUND:                 0.000
REMARK SMILES Cc1cc(O)c2c(c1)C(=O)c1cc(O)cc(O)c1C2=O
REMARK SMILES IDX 1 1 2 2 8 3 7 4 6 5 4 6 3 7 19 8 20 9 18 10 11 11 9 12 10 13
REMARK SMILES IDX 12 14 13 15 15 16 16 17 5 18 17 20 14 22
REMARK H PARENT 5 19 17 21 14 23
REMARK Flexibility Score: inf
ROOT
ATOM      1  C   UNL     1      53.008  65.508   5.220  1.00  0.00     0.044 C 
ATOM      2  C   UNL     1      52.702  64.858   3.903  1.00  0.00    -0.047 A 
ATOM      3  C   UNL     1      52.627  63.464   3.807  1.00  0.00     0.016 A 
ATOM      4  C   UNL     1      52.369  62.844   2.572  1.00  0.00     0.038 A 
ATOM      5  C   UNL     1      52.185  63.632   1.415  1.00  0.00     0.076 A 
ATOM      6  C   UNL     1      52.346  65.039   1.503  1.00  0.00     0.127 A 
ATOM      7  C   UNL     1      52.582  65.635   2.746  1.00  0.00     0.050 A 
ATOM      8  C   UNL     1      51.769  62.953   0.161  1.00  0.00     0.201 C 
ATOM      9  O   UNL     1      51.064  63.569  -0.683  1.00  0.00    -0.288 OA
ATOM     10  C   UNL     1      52.022  61.499  -0.010  1.00  0.00     0.076 A 
ATOM     11  C   UNL     1      52.209  60.713   1.150  1.00  0.00     0.041 A 
ATOM     12  C   UNL     1      52.298  61.366   2.478  1.00  0.00     0.194 C 
ATOM     13  O   UNL     1      52.339  60.664   3.525  1.00  0.00    -0.289 OA
ATOM     14  C   UNL     1      52.315  59.316   1.040  1.00  0.00     0.059 A 
ATOM     15  C   UNL     1      52.252  58.698  -0.208  1.00  0.00     0.120 A 
ATOM     16  C   UNL     1      52.107  59.472  -1.362  1.00  0.00     0.093 A 
ATOM     17  C   UNL     1      52.021  60.866  -1.280  1.00  0.00     0.131 A 
ENDROOT
BRANCH   6  18
ATOM     18  O   UNL     1      52.318  65.873   0.383  1.00  0.00    -0.507 OA
ATOM     19  H   UNL     1      53.130  66.084  -0.178  1.00  0.00     0.293 HD
ENDBRANCH   6  18
BRANCH  17  20
ATOM     20  O   UNL     1      51.971  61.579  -2.480  1.00  0.00    -0.507 OA
ATOM     21  H   UNL     1      51.187  61.543  -3.119  1.00  0.00     0.293 HD
ENDBRANCH  17  20
BRANCH  15  22
ATOM     22  O   UNL     1      52.346  57.310  -0.293  1.00  0.00    -0.508 OA
ATOM     23  H   UNL     1      52.396  56.836  -1.186  1.00  0.00     0.293 HD
ENDBRANCH  15  22
TORSDOF 3
ENDMDL
MODEL 8
REMARK VINA RESULT:    -7.269      1.339      5.490
REMARK INTER + INTRA:          -7.906
REMARK INTER:                  -7.906
REMARK INTRA:                   0.000
REMARK UNBOUND:                 0.000
REMARK SMILES Cc1cc(O)c2c(c1)C(=O)c1cc(O)cc(O)c1C2=O
REMARK SMILES IDX 1 1 2 2 8 3 7 4 6 5 4 6 3 7 19 8 20 9 18 10 11 11 9 12 10 13
REMARK SMILES IDX 12 14 13 15 15 16 16 17 5 18 17 20 14 22
REMARK H PARENT 5 19 17 21 14 23
REMARK Flexibility Score: inf
ROOT
ATOM      1  C   UNL     1      52.636  64.980   1.839  1.00  0.00     0.044 C 
ATOM      2  C   UNL     1      51.154  64.856   2.036  1.00  0.00    -0.047 A 
ATOM      3  C   UNL     1      50.388  65.987   2.343  1.00  0.00     0.016 A 
ATOM      4  C   UNL     1      49.004  65.876   2.557  1.00  0.00     0.038 A 
ATOM      5  C   UNL     1      48.376  64.615   2.463  1.00  0.00     0.076 A 
ATOM      6  C   UNL     1      49.170  63.462   2.235  1.00  0.00     0.127 A 
ATOM      7  C   UNL     1      50.542  63.599   2.004  1.00  0.00     0.050 A 
ATOM      8  C   UNL     1      46.893  64.560   2.549  1.00  0.00     0.201 C 
ATOM      9  O   UNL     1      46.263  63.658   1.934  1.00  0.00    -0.288 OA
ATOM     10  C   UNL     1      46.150  65.671   3.197  1.00  0.00     0.076 A 
ATOM     11  C   UNL     1      46.782  66.931   3.293  1.00  0.00     0.041 A 
ATOM     12  C   UNL     1      48.201  67.078   2.890  1.00  0.00     0.194 C 
ATOM     13  O   UNL     1      48.732  68.222   2.854  1.00  0.00    -0.289 OA
ATOM     14  C   UNL     1      46.065  68.039   3.774  1.00  0.00     0.059 A 
ATOM     15  C   UNL     1      44.735  67.903   4.173  1.00  0.00     0.120 A 
ATOM     16  C   UNL     1      44.117  66.652   4.118  1.00  0.00     0.093 A 
ATOM     17  C   UNL     1      44.817  65.529   3.663  1.00  0.00     0.131 A 
ENDROOT
BRANCH   6  18
ATOM     18  O   UNL     1      48.647  62.167   2.265  1.00  0.00    -0.507 OA
ATOM     19  H   UNL     1      48.254  61.704   1.458  1.00  0.00     0.293 HD
ENDBRANCH   6  18
BRANCH  17  20
ATOM     20  O   UNL     1      44.164  64.296   3.723  1.00  0.00    -0.507 OA
ATOM     21  H   UNL     1      44.543  63.485   4.194  1.00  0.00     0.293 HD
ENDBRANCH  17  20
BRANCH  15  22
ATOM     22  O   UNL     1      44.039  69.019   4.635  1.00  0.00    -0.508 OA
ATOM     23  H   UNL     1      43.489  68.985   5.484  1.00  0.00     0.293 HD
ENDBRANCH  15  22
TORSDOF 3
ENDMDL
MODEL 9
REMARK VINA RESULT:    -7.171      6.793      9.648
REMARK INTER + INTRA:          -7.800
REMARK INTER:                  -7.800
REMARK INTRA:                   0.000
REMARK UNBOUND:                 0.000
REMARK SMILES Cc1cc(O)c2c(c1)C(=O)c1cc(O)cc(O)c1C2=O
REMARK SMILES IDX 1 1 2 2 8 3 7 4 6 5 4 6 3 7 19 8 20 9 18 10 11 11 9 12 10 13
REMARK SMILES IDX 12 14 13 15 15 16 16 17 5 18 17 20 14 22
REMARK H PARENT 5 19 17 21 14 23
REMARK Flexibility Score: inf
ROOT
ATOM      1  C   UNL     1      55.537  58.393   8.253  1.00  0.00     0.044 C 
ATOM      2  C   UNL     1      54.251  58.956   7.725  1.00  0.00    -0.047 A 
ATOM      3  C   UNL     1      53.257  58.102   7.235  1.00  0.00     0.016 A 
ATOM      4  C   UNL     1      52.060  58.621   6.713  1.00  0.00     0.038 A 
ATOM      5  C   UNL     1      51.856  60.018   6.678  1.00  0.00     0.076 A 
ATOM      6  C   UNL     1      52.901  60.881   7.097  1.00  0.00     0.127 A 
ATOM      7  C   UNL     1      54.075  60.341   7.632  1.00  0.00     0.050 A 
ATOM      8  C   UNL     1      50.523  60.523   6.257  1.00  0.00     0.201 C 
ATOM      9  O   UNL     1      50.089  61.610   6.723  1.00  0.00    -0.288 OA
ATOM     10  C   UNL     1      49.631  59.660   5.442  1.00  0.00     0.076 A 
ATOM     11  C   UNL     1      49.840  58.262   5.476  1.00  0.00     0.041 A 
ATOM     12  C   UNL     1      51.015  57.709   6.190  1.00  0.00     0.194 C 
ATOM     13  O   UNL     1      51.138  56.461   6.330  1.00  0.00    -0.289 OA
ATOM     14  C   UNL     1      48.935  57.403   4.829  1.00  0.00     0.059 A 
ATOM     15  C   UNL     1      47.839  57.919   4.139  1.00  0.00     0.120 A 
ATOM     16  C   UNL     1      47.649  59.301   4.068  1.00  0.00     0.093 A 
ATOM     17  C   UNL     1      48.547  60.178   4.685  1.00  0.00     0.131 A 
ENDROOT
BRANCH   6  18
ATOM     18  O   UNL     1      52.832  62.270   6.965  1.00  0.00    -0.507 OA
ATOM     19  H   UNL     1      53.552  62.826   6.528  1.00  0.00     0.293 HD
ENDBRANCH   6  18
BRANCH  17  20
ATOM     20  O   UNL     1      48.345  61.547   4.494  1.00  0.00    -0.507 OA
ATOM     21  H   UNL     1      48.313  61.985   3.583  1.00  0.00     0.293 HD
ENDBRANCH  17  20
BRANCH  15  22
ATOM     22  O   UNL     1      46.948  57.048   3.516  1.00  0.00    -0.508 OA
ATOM     23  H   UNL     1      46.320  57.364   2.786  1.00  0.00     0.293 HD
ENDBRANCH  15  22
TORSDOF 3
ENDMDL
