MODEL 1
REMARK VINA RESULT:    -3.224      0.000      0.000
REMARK INTER + INTRA:          -6.224
REMARK INTER:                  -4.921
REMARK INTRA:                  -1.303
REMARK UNBOUND:                -1.303
REMARK SMILES CCCCCCCCCC=CC(=O)[O-]
REMARK SMILES IDX 7 1 8 2 9 3 10 4 11 5 12 6 13 7 14 8 6 9 5 10 4 11 3 12 2 13
REMARK SMILES IDX 1 14
REMARK H PARENT
REMARK Flexibility Score: inf
ROOT
ATOM      1  C   UNL     1      24.805  -4.594 -26.788  1.00  0.00     0.000 C 
ENDROOT
BRANCH   1   2
ATOM      2  C   UNL     1      24.447  -3.920 -28.129  1.00  0.00     0.004 C 
BRANCH   2   3
ATOM      3  C   UNL     1      25.496  -4.199 -29.217  1.00  0.00     0.027 C 
BRANCH   3   4
ATOM      4  C   UNL     1      24.848  -4.421 -30.553  1.00  0.00    -0.025 C 
ATOM      5  C   UNL     1      25.570  -4.495 -31.677  1.00  0.00     0.020 C 
BRANCH   5   6
ATOM      6  C   UNL     1      24.954  -4.699 -32.998  1.00  0.00     0.064 C 
ATOM      7  O   UNL     1      25.620  -5.157 -33.963  1.00  0.00    -0.545 OA
ATOM      8  O   UNL     1      23.615  -4.380 -33.182  1.00  0.00    -0.545 OA
ENDBRANCH   5   6
ENDBRANCH   3   4
ENDBRANCH   2   3
ENDBRANCH   1   2
BRANCH   1   9
ATOM      9  C   UNL     1      24.042  -5.908 -26.526  1.00  0.00     0.000 C 
BRANCH   9  10
ATOM     10  C   UNL     1      24.823  -7.198 -26.850  1.00  0.00     0.000 C 
BRANCH  10  11
ATOM     11  C   UNL     1      24.493  -7.808 -28.228  1.00  0.00    -0.000 C 
BRANCH  11  12
ATOM     12  C   UNL     1      25.692  -7.808 -29.202  1.00  0.00    -0.000 C 
BRANCH  12  13
ATOM     13  C   UNL     1      27.055  -7.885 -28.493  1.00  0.00    -0.003 C 
ATOM     14  C   UNL     1      28.061  -6.868 -29.028  1.00  0.00     0.004 C 
ENDBRANCH  12  13
ENDBRANCH  11  12
ENDBRANCH  10  11
ENDBRANCH   9  10
ENDBRANCH   1   9
TORSDOF 9
ENDMDL
MODEL 2
REMARK VINA RESULT:    -3.198      0.803      2.630
REMARK INTER + INTRA:          -6.184
REMARK INTER:                  -4.814
REMARK INTRA:                  -1.370
REMARK UNBOUND:                -1.303
REMARK SMILES CCCCCCCCCC=CC(=O)[O-]
REMARK SMILES IDX 7 1 8 2 9 3 10 4 11 5 12 6 13 7 14 8 6 9 5 10 4 11 3 12 2 13
REMARK SMILES IDX 1 14
REMARK H PARENT
REMARK Flexibility Score: inf
ROOT
ATOM      1  C   UNL     1      28.067  -5.511 -28.326  1.00  0.00     0.000 C 
ENDROOT
BRANCH   1   2
ATOM      2  C   UNL     1      27.592  -4.265 -29.101  1.00  0.00     0.004 C 
BRANCH   2   3
ATOM      3  C   UNL     1      26.073  -4.056 -28.988  1.00  0.00     0.027 C 
BRANCH   3   4
ATOM      4  C   UNL     1      25.432  -3.981 -30.344  1.00  0.00    -0.025 C 
ATOM      5  C   UNL     1      25.651  -4.919 -31.273  1.00  0.00     0.020 C 
BRANCH   5   6
ATOM      6  C   UNL     1      25.043  -4.858 -32.612  1.00  0.00     0.064 C 
ATOM      7  O   UNL     1      25.748  -4.952 -33.652  1.00  0.00    -0.545 OA
ATOM      8  O   UNL     1      23.669  -4.693 -32.732  1.00  0.00    -0.545 OA
ENDBRANCH   5   6
ENDBRANCH   3   4
ENDBRANCH   2   3
ENDBRANCH   1   2
BRANCH   1   9
ATOM      9  C   UNL     1      28.022  -6.814 -29.148  1.00  0.00     0.000 C 
BRANCH   9  10
ATOM     10  C   UNL     1      27.092  -7.912 -28.592  1.00  0.00     0.000 C 
BRANCH  10  11
ATOM     11  C   UNL     1      25.640  -7.830 -29.103  1.00  0.00    -0.000 C 
BRANCH  11  12
ATOM     12  C   UNL     1      24.586  -7.967 -27.981  1.00  0.00    -0.000 C 
BRANCH  12  13
ATOM     13  C   UNL     1      24.815  -7.000 -26.807  1.00  0.00    -0.003 C 
ATOM     14  C   UNL     1      23.787  -5.871 -26.759  1.00  0.00     0.004 C 
ENDBRANCH  12  13
ENDBRANCH  11  12
ENDBRANCH  10  11
ENDBRANCH   9  10
ENDBRANCH   1   9
TORSDOF 9
ENDMDL
MODEL 3
REMARK VINA RESULT:    -3.173      1.302      3.047
REMARK INTER + INTRA:          -6.146
REMARK INTER:                  -4.622
REMARK INTRA:                  -1.525
REMARK UNBOUND:                -1.303
REMARK SMILES CCCCCCCCCC=CC(=O)[O-]
REMARK SMILES IDX 7 1 8 2 9 3 10 4 11 5 12 6 13 7 14 8 6 9 5 10 4 11 3 12 2 13
REMARK SMILES IDX 1 14
REMARK H PARENT
REMARK Flexibility Score: inf
ROOT
ATOM      1  C   UNL     1      27.187  -7.992 -27.466  1.00  0.00     0.000 C 
ENDROOT
BRANCH   1   2
ATOM      2  C   UNL     1      27.272  -7.551 -28.943  1.00  0.00     0.004 C 
BRANCH   2   3
ATOM      3  C   UNL     1      27.880  -6.148 -29.095  1.00  0.00     0.027 C 
BRANCH   3   4
ATOM      4  C   UNL     1      27.191  -5.371 -30.180  1.00  0.00    -0.025 C 
ATOM      5  C   UNL     1      25.880  -5.504 -30.409  1.00  0.00     0.020 C 
BRANCH   5   6
ATOM      6  C   UNL     1      25.187  -4.763 -31.475  1.00  0.00     0.064 C 
ATOM      7  O   UNL     1      24.751  -5.351 -32.500  1.00  0.00    -0.545 OA
ATOM      8  O   UNL     1      25.012  -3.390 -31.349  1.00  0.00    -0.545 OA
ENDBRANCH   5   6
ENDBRANCH   3   4
ENDBRANCH   2   3
ENDBRANCH   1   2
BRANCH   1   9
ATOM      9  C   UNL     1      25.745  -8.124 -26.936  1.00  0.00     0.000 C 
BRANCH   9  10
ATOM     10  C   UNL     1      24.638  -8.002 -28.002  1.00  0.00     0.000 C 
BRANCH  10  11
ATOM     11  C   UNL     1      23.861  -6.671 -27.957  1.00  0.00    -0.000 C 
BRANCH  11  12
ATOM     12  C   UNL     1      24.135  -5.844 -26.682  1.00  0.00    -0.000 C 
BRANCH  12  13
ATOM     13  C   UNL     1      24.837  -4.505 -26.961  1.00  0.00    -0.003 C 
ATOM     14  C   UNL     1      26.204  -4.399 -26.287  1.00  0.00     0.004 C 
ENDBRANCH  12  13
ENDBRANCH  11  12
ENDBRANCH  10  11
ENDBRANCH   9  10
ENDBRANCH   1   9
TORSDOF 9
ENDMDL
MODEL 4
REMARK VINA RESULT:    -3.160      0.978      1.722
REMARK INTER + INTRA:          -6.125
REMARK INTER:                  -4.586
REMARK INTRA:                  -1.539
REMARK UNBOUND:                -1.303
REMARK SMILES CCCCCCCCCC=CC(=O)[O-]
REMARK SMILES IDX 7 1 8 2 9 3 10 4 11 5 12 6 13 7 14 8 6 9 5 10 4 11 3 12 2 13
REMARK SMILES IDX 1 14
REMARK H PARENT
REMARK Flexibility Score: inf
ROOT
ATOM      1  C   UNL     1      24.119  -5.653 -26.940  1.00  0.00     0.000 C 
ENDROOT
BRANCH   1   2
ATOM      2  C   UNL     1      25.259  -4.640 -26.703  1.00  0.00     0.004 C 
BRANCH   2   3
ATOM      3  C   UNL     1      25.405  -3.648 -27.868  1.00  0.00     0.027 C 
BRANCH   3   4
ATOM      4  C   UNL     1      24.818  -4.205 -29.133  1.00  0.00    -0.025 C 
ATOM      5  C   UNL     1      25.590  -4.532 -30.177  1.00  0.00     0.020 C 
BRANCH   5   6
ATOM      6  C   UNL     1      25.035  -5.067 -31.430  1.00  0.00     0.064 C 
ATOM      7  O   UNL     1      24.042  -5.842 -31.425  1.00  0.00    -0.545 OA
ATOM      8  O   UNL     1      25.617  -4.711 -32.641  1.00  0.00    -0.545 OA
ENDBRANCH   5   6
ENDBRANCH   3   4
ENDBRANCH   2   3
ENDBRANCH   1   2
BRANCH   1   9
ATOM      9  C   UNL     1      24.586  -7.121 -26.986  1.00  0.00     0.000 C 
BRANCH   9  10
ATOM     10  C   UNL     1      24.545  -7.781 -28.379  1.00  0.00     0.000 C 
BRANCH  10  11
ATOM     11  C   UNL     1      25.932  -8.005 -29.014  1.00  0.00    -0.000 C 
BRANCH  11  12
ATOM     12  C   UNL     1      27.085  -8.003 -27.986  1.00  0.00    -0.000 C 
BRANCH  12  13
ATOM     13  C   UNL     1      27.960  -6.739 -28.053  1.00  0.00    -0.003 C 
ATOM     14  C   UNL     1      28.628  -6.551 -29.414  1.00  0.00     0.004 C 
ENDBRANCH  12  13
ENDBRANCH  11  12
ENDBRANCH  10  11
ENDBRANCH   9  10
ENDBRANCH   1   9
TORSDOF 9
ENDMDL
MODEL 5
REMARK VINA RESULT:    -3.144     11.500     13.357
REMARK INTER + INTRA:          -6.101
REMARK INTER:                  -5.659
REMARK INTRA:                  -0.442
REMARK UNBOUND:                -1.303
REMARK SMILES CCCCCCCCCC=CC(=O)[O-]
REMARK SMILES IDX 7 1 8 2 9 3 10 4 11 5 12 6 13 7 14 8 6 9 5 10 4 11 3 12 2 13
REMARK SMILES IDX 1 14
REMARK H PARENT
REMARK Flexibility Score: inf
ROOT
ATOM      1  C   UNL     1      32.386   1.535 -34.542  1.00  0.00     0.000 C 
ENDROOT
BRANCH   1   2
ATOM      2  C   UNL     1      33.735   0.825 -34.783  1.00  0.00     0.004 C 
BRANCH   2   3
ATOM      3  C   UNL     1      33.735   0.007 -36.085  1.00  0.00     0.027 C 
BRANCH   3   4
ATOM      4  C   UNL     1      32.427   0.137 -36.809  1.00  0.00    -0.025 C 
ATOM      5  C   UNL     1      32.374   0.472 -38.104  1.00  0.00     0.020 C 
BRANCH   5   6
ATOM      6  C   UNL     1      31.103   0.618 -38.829  1.00  0.00     0.064 C 
ATOM      7  O   UNL     1      30.872   1.630 -39.542  1.00  0.00    -0.545 OA
ATOM      8  O   UNL     1      30.139  -0.377 -38.726  1.00  0.00    -0.545 OA
ENDBRANCH   5   6
ENDBRANCH   3   4
ENDBRANCH   2   3
ENDBRANCH   1   2
BRANCH   1   9
ATOM      9  C   UNL     1      32.492   2.797 -33.665  1.00  0.00     0.000 C 
BRANCH   9  10
ATOM     10  C   UNL     1      33.925   3.324 -33.440  1.00  0.00     0.000 C 
BRANCH  10  11
ATOM     11  C   UNL     1      34.002   4.830 -33.119  1.00  0.00    -0.000 C 
BRANCH  11  12
ATOM     12  C   UNL     1      35.433   5.404 -33.215  1.00  0.00    -0.000 C 
BRANCH  12  13
ATOM     13  C   UNL     1      35.846   6.225 -31.982  1.00  0.00    -0.003 C 
ATOM     14  C   UNL     1      34.773   7.220 -31.545  1.00  0.00     0.004 C 
ENDBRANCH  12  13
ENDBRANCH  11  12
ENDBRANCH  10  11
ENDBRANCH   9  10
ENDBRANCH   1   9
TORSDOF 9
ENDMDL
MODEL 6
REMARK VINA RESULT:    -3.142     13.543     14.872
REMARK INTER + INTRA:          -6.097
REMARK INTER:                  -4.637
REMARK INTRA:                  -1.460
REMARK UNBOUND:                -1.303
REMARK SMILES CCCCCCCCCC=CC(=O)[O-]
REMARK SMILES IDX 7 1 8 2 9 3 10 4 11 5 12 6 13 7 14 8 6 9 5 10 4 11 3 12 2 13
REMARK SMILES IDX 1 14
REMARK H PARENT
REMARK Flexibility Score: inf
ROOT
ATOM      1  C   UNL     1      34.668   4.266 -33.093  1.00  0.00     0.000 C 
ENDROOT
BRANCH   1   2
ATOM      2  C   UNL     1      35.361   5.634 -33.259  1.00  0.00     0.004 C 
BRANCH   2   3
ATOM      3  C   UNL     1      35.701   6.280 -31.907  1.00  0.00     0.027 C 
BRANCH   3   4
ATOM      4  C   UNL     1      34.728   7.372 -31.567  1.00  0.00    -0.025 C 
ATOM      5  C   UNL     1      33.770   7.195 -30.650  1.00  0.00     0.020 C 
BRANCH   5   6
ATOM      6  C   UNL     1      32.798   8.247 -30.311  1.00  0.00     0.064 C 
ATOM      7  O   UNL     1      31.671   8.297 -30.869  1.00  0.00    -0.545 OA
ATOM      8  O   UNL     1      33.131   9.202 -29.359  1.00  0.00    -0.545 OA
ENDBRANCH   5   6
ENDBRANCH   3   4
ENDBRANCH   2   3
ENDBRANCH   1   2
BRANCH   1   9
ATOM      9  C   UNL     1      33.129   4.345 -33.060  1.00  0.00     0.000 C 
BRANCH   9  10
ATOM     10  C   UNL     1      32.479   3.957 -31.716  1.00  0.00     0.000 C 
BRANCH  10  11
ATOM     11  C   UNL     1      33.360   3.062 -30.822  1.00  0.00    -0.000 C 
BRANCH  11  12
ATOM     12  C   UNL     1      33.667   3.687 -29.443  1.00  0.00    -0.000 C 
BRANCH  12  13
ATOM     13  C   UNL     1      35.128   3.503 -29.000  1.00  0.00    -0.003 C 
ATOM     14  C   UNL     1      35.754   4.792 -28.470  1.00  0.00     0.004 C 
ENDBRANCH  12  13
ENDBRANCH  11  12
ENDBRANCH  10  11
ENDBRANCH   9  10
ENDBRANCH   1   9
TORSDOF 9
ENDMDL
MODEL 7
REMARK VINA RESULT:    -3.118     14.652     16.118
REMARK INTER + INTRA:          -6.062
REMARK INTER:                  -5.116
REMARK INTRA:                  -0.946
REMARK UNBOUND:                -1.303
REMARK SMILES CCCCCCCCCC=CC(=O)[O-]
REMARK SMILES IDX 7 1 8 2 9 3 10 4 11 5 12 6 13 7 14 8 6 9 5 10 4 11 3 12 2 13
REMARK SMILES IDX 1 14
REMARK H PARENT
REMARK Flexibility Score: inf
ROOT
ATOM      1  C   UNL     1      35.003   7.296 -31.500  1.00  0.00     0.000 C 
ENDROOT
BRANCH   1   2
ATOM      2  C   UNL     1      33.880   7.220 -30.445  1.00  0.00     0.004 C 
BRANCH   2   3
ATOM      3  C   UNL     1      32.724   8.184 -30.757  1.00  0.00     0.027 C 
BRANCH   3   4
ATOM      4  C   UNL     1      32.755   9.382 -29.851  1.00  0.00    -0.025 C 
ATOM      5  C   UNL     1      32.742   9.252 -28.519  1.00  0.00     0.020 C 
BRANCH   5   6
ATOM      6  C   UNL     1      32.759  10.411 -27.614  1.00  0.00     0.064 C 
ATOM      7  O   UNL     1      33.839  10.856 -27.144  1.00  0.00    -0.545 OA
ATOM      8  O   UNL     1      31.561  11.026 -27.270  1.00  0.00    -0.545 OA
ENDBRANCH   5   6
ENDBRANCH   3   4
ENDBRANCH   2   3
ENDBRANCH   1   2
BRANCH   1   9
ATOM      9  C   UNL     1      35.603   5.927 -31.875  1.00  0.00     0.000 C 
BRANCH   9  10
ATOM     10  C   UNL     1      35.191   5.384 -33.258  1.00  0.00     0.000 C 
BRANCH  10  11
ATOM     11  C   UNL     1      34.283   4.139 -33.205  1.00  0.00    -0.000 C 
BRANCH  11  12
ATOM     12  C   UNL     1      32.798   4.474 -32.942  1.00  0.00    -0.000 C 
BRANCH  12  13
ATOM     13  C   UNL     1      32.299   4.001 -31.566  1.00  0.00    -0.003 C 
ATOM     14  C   UNL     1      31.075   4.774 -31.081  1.00  0.00     0.004 C 
ENDBRANCH  12  13
ENDBRANCH  11  12
ENDBRANCH  10  11
ENDBRANCH   9  10
ENDBRANCH   1   9
TORSDOF 9
ENDMDL
MODEL 8
REMARK VINA RESULT:    -3.086     16.052     17.561
REMARK INTER + INTRA:          -6.012
REMARK INTER:                  -5.339
REMARK INTRA:                  -0.673
REMARK UNBOUND:                -1.303
REMARK SMILES CCCCCCCCCC=CC(=O)[O-]
REMARK SMILES IDX 7 1 8 2 9 3 10 4 11 5 12 6 13 7 14 8 6 9 5 10 4 11 3 12 2 13
REMARK SMILES IDX 1 14
REMARK H PARENT
REMARK Flexibility Score: inf
ROOT
ATOM      1  C   UNL     1      32.708   8.848 -28.359  1.00  0.00     0.000 C 
ENDROOT
BRANCH   1   2
ATOM      2  C   UNL     1      32.277   9.788 -29.505  1.00  0.00     0.004 C 
BRANCH   2   3
ATOM      3  C   UNL     1      32.952   9.424 -30.838  1.00  0.00     0.027 C 
BRANCH   3   4
ATOM      4  C   UNL     1      33.549   8.048 -30.786  1.00  0.00    -0.025 C 
ATOM      5  C   UNL     1      34.617   7.721 -31.524  1.00  0.00     0.020 C 
BRANCH   5   6
ATOM      6  C   UNL     1      35.211   6.375 -31.499  1.00  0.00     0.064 C 
ATOM      7  O   UNL     1      35.120   5.642 -30.479  1.00  0.00    -0.545 OA
ATOM      8  O   UNL     1      35.885   5.906 -32.619  1.00  0.00    -0.545 OA
ENDBRANCH   5   6
ENDBRANCH   3   4
ENDBRANCH   2   3
ENDBRANCH   1   2
BRANCH   1   9
ATOM      9  C   UNL     1      33.016   9.577 -27.036  1.00  0.00     0.000 C 
BRANCH   9  10
ATOM     10  C   UNL     1      33.686  10.958 -27.186  1.00  0.00     0.000 C 
BRANCH  10  11
ATOM     11  C   UNL     1      33.618  11.835 -25.919  1.00  0.00    -0.000 C 
BRANCH  11  12
ATOM     12  C   UNL     1      33.282  11.038 -24.639  1.00  0.00    -0.000 C 
BRANCH  12  13
ATOM     13  C   UNL     1      32.056  11.581 -23.886  1.00  0.00    -0.003 C 
ATOM     14  C   UNL     1      30.744  10.963 -24.364  1.00  0.00     0.004 C 
ENDBRANCH  12  13
ENDBRANCH  11  12
ENDBRANCH  10  11
ENDBRANCH   9  10
ENDBRANCH   1   9
TORSDOF 9
ENDMDL
