MODEL 1
REMARK VINA RESULT:     7.408      0.000      0.000
REMARK INTER + INTRA:           7.408
REMARK INTER:                   7.408
REMARK INTRA:                   0.000
REMARK UNBOUND:                 0.000
REMARK SMILES CC1=CC[C@@]23C[C@@H]1C(C)(C)[C@@H]2CC[C@H]3C
REMARK SMILES IDX 15 1 14 2 13 3 12 4 11 5 5 6 4 7 3 8 2 9 7 10 6 11 8 12 9 13
REMARK SMILES IDX 10 14 1 15
REMARK H PARENT
REMARK Flexibility Score: inf
ROOT
ATOM      1  C   UNL     1     -15.213  -1.717  21.333  1.00  0.00     0.008 C 
ATOM      2  C   UNL     1     -14.594  -2.556  20.205  1.00  0.00    -0.007 C 
ATOM      3  C   UNL     1     -13.069  -2.464  20.219  1.00  0.00     0.004 C 
ATOM      4  C   UNL     1     -12.644  -2.788  18.800  1.00  0.00     0.005 C 
ATOM      5  C   UNL     1     -13.715  -2.125  17.924  1.00  0.00     0.002 C 
ATOM      6  C   UNL     1     -15.022  -2.184  18.750  1.00  0.00    -0.020 C 
ATOM      7  C   UNL     1     -15.822  -0.847  18.591  1.00  0.00     0.035 C 
ATOM      8  C   UNL     1     -16.375  -0.665  17.186  1.00  0.00    -0.027 C 
ATOM      9  C   UNL     1     -16.348  -1.668  16.276  1.00  0.00    -0.074 C 
ATOM     10  C   UNL     1     -15.588  -2.959  16.589  1.00  0.00     0.021 C 
ATOM     11  C   UNL     1     -15.833  -3.290  18.060  1.00  0.00     0.016 C 
ATOM     12  C   UNL     1     -14.043  -2.755  16.525  1.00  0.00    -0.025 C 
ATOM     13  C   UNL     1     -13.605  -1.804  15.382  1.00  0.00     0.012 C 
ATOM     14  C   UNL     1     -13.360  -4.122  16.258  1.00  0.00     0.012 C 
ATOM     15  C   UNL     1     -17.019  -1.485  14.943  1.00  0.00     0.039 C 
ENDROOT
TORSDOF 0
ENDMDL
MODEL 2
REMARK VINA RESULT:     8.242      1.216      4.386
REMARK INTER + INTRA:           8.242
REMARK INTER:                   8.242
REMARK INTRA:                   0.000
REMARK UNBOUND:                 0.000
REMARK SMILES CC1=CC[C@@]23C[C@@H]1C(C)(C)[C@@H]2CC[C@H]3C
REMARK SMILES IDX 15 1 14 2 13 3 12 4 11 5 5 6 4 7 3 8 2 9 7 10 6 11 8 12 9 13
REMARK SMILES IDX 10 14 1 15
REMARK H PARENT
REMARK Flexibility Score: inf
ROOT
ATOM      1  C   UNL     1     -14.814  -5.266  15.623  1.00  0.00     0.008 C 
ATOM      2  C   UNL     1     -15.735  -4.120  16.066  1.00  0.00    -0.007 C 
ATOM      3  C   UNL     1     -16.168  -3.265  14.875  1.00  0.00     0.004 C 
ATOM      4  C   UNL     1     -16.521  -1.915  15.469  1.00  0.00     0.005 C 
ATOM      5  C   UNL     1     -15.477  -1.704  16.573  1.00  0.00     0.002 C 
ATOM      6  C   UNL     1     -15.144  -3.117  17.107  1.00  0.00    -0.020 C 
ATOM      7  C   UNL     1     -13.607  -3.242  17.382  1.00  0.00     0.035 C 
ATOM      8  C   UNL     1     -13.155  -2.379  18.549  1.00  0.00    -0.027 C 
ATOM      9  C   UNL     1     -14.044  -1.765  19.366  1.00  0.00    -0.074 C 
ATOM     10  C   UNL     1     -15.534  -1.782  19.018  1.00  0.00     0.021 C 
ATOM     11  C   UNL     1     -15.860  -3.167  18.464  1.00  0.00     0.016 C 
ATOM     12  C   UNL     1     -15.862  -0.836  17.822  1.00  0.00    -0.025 C 
ATOM     13  C   UNL     1     -15.042   0.480  17.847  1.00  0.00     0.012 C 
ATOM     14  C   UNL     1     -17.359  -0.433  17.888  1.00  0.00     0.012 C 
ATOM     15  C   UNL     1     -13.555  -1.026  20.581  1.00  0.00     0.039 C 
ENDROOT
TORSDOF 0
ENDMDL
MODEL 3
REMARK VINA RESULT:     9.297      1.411      3.278
REMARK INTER + INTRA:           9.297
REMARK INTER:                   9.297
REMARK INTRA:                   0.000
REMARK UNBOUND:                 0.000
REMARK SMILES CC1=CC[C@@]23C[C@@H]1C(C)(C)[C@@H]2CC[C@H]3C
REMARK SMILES IDX 15 1 14 2 13 3 12 4 11 5 5 6 4 7 3 8 2 9 7 10 6 11 8 12 9 13
REMARK SMILES IDX 10 14 1 15
REMARK H PARENT
REMARK Flexibility Score: inf
ROOT
ATOM      1  C   UNL     1     -18.019   0.627  16.705  1.00  0.00     0.008 C 
ATOM      2  C   UNL     1     -16.875   0.026  17.536  1.00  0.00    -0.007 C 
ATOM      3  C   UNL     1     -15.731   1.025  17.708  1.00  0.00     0.004 C 
ATOM      4  C   UNL     1     -14.505   0.174  17.975  1.00  0.00     0.005 C 
ATOM      5  C   UNL     1     -14.687  -1.047  17.064  1.00  0.00     0.002 C 
ATOM      6  C   UNL     1     -16.215  -1.272  16.970  1.00  0.00    -0.020 C 
ATOM      7  C   UNL     1     -16.614  -1.662  15.508  1.00  0.00     0.035 C 
ATOM      8  C   UNL     1     -16.095  -3.036  15.112  1.00  0.00    -0.027 C 
ATOM      9  C   UNL     1     -15.551  -3.880  16.020  1.00  0.00    -0.074 C 
ATOM     10  C   UNL     1     -15.279  -3.391  17.445  1.00  0.00     0.021 C 
ATOM     11  C   UNL     1     -16.452  -2.503  17.856  1.00  0.00     0.016 C 
ATOM     12  C   UNL     1     -14.062  -2.417  17.504  1.00  0.00    -0.025 C 
ATOM     13  C   UNL     1     -12.913  -2.825  16.546  1.00  0.00     0.012 C 
ATOM     14  C   UNL     1     -13.473  -2.425  18.939  1.00  0.00     0.012 C 
ATOM     15  C   UNL     1     -15.168  -5.274  15.609  1.00  0.00     0.039 C 
ENDROOT
TORSDOF 0
ENDMDL
MODEL 4
REMARK VINA RESULT:     9.458      0.467      0.467
REMARK INTER + INTRA:           9.458
REMARK INTER:                   9.458
REMARK INTRA:                   0.000
REMARK UNBOUND:                 0.000
REMARK SMILES CC1=CC[C@@]23C[C@@H]1C(C)(C)[C@@H]2CC[C@H]3C
REMARK SMILES IDX 15 1 14 2 13 3 12 4 11 5 5 6 4 7 3 8 2 9 7 10 6 11 8 12 9 13
REMARK SMILES IDX 10 14 1 15
REMARK H PARENT
REMARK Flexibility Score: inf
ROOT
ATOM      1  C   UNL     1     -14.677  -1.376  21.457  1.00  0.00     0.008 C 
ATOM      2  C   UNL     1     -14.400  -2.416  20.361  1.00  0.00    -0.007 C 
ATOM      3  C   UNL     1     -12.903  -2.684  20.215  1.00  0.00     0.004 C 
ATOM      4  C   UNL     1     -12.733  -3.201  18.800  1.00  0.00     0.005 C 
ATOM      5  C   UNL     1     -13.724  -2.371  17.974  1.00  0.00     0.002 C 
ATOM      6  C   UNL     1     -14.903  -2.062  18.926  1.00  0.00    -0.020 C 
ATOM      7  C   UNL     1     -15.395  -0.590  18.716  1.00  0.00     0.035 C 
ATOM      8  C   UNL     1     -16.055  -0.386  17.362  1.00  0.00    -0.027 C 
ATOM      9  C   UNL     1     -16.362  -1.431  16.556  1.00  0.00    -0.074 C 
ATOM     10  C   UNL     1     -15.881  -2.838  16.918  1.00  0.00     0.021 C 
ATOM     11  C   UNL     1     -16.018  -2.994  18.431  1.00  0.00     0.016 C 
ATOM     12  C   UNL     1     -14.348  -3.006  16.682  1.00  0.00    -0.025 C 
ATOM     13  C   UNL     1     -13.846  -2.270  15.414  1.00  0.00     0.012 C 
ATOM     14  C   UNL     1     -14.026  -4.511  16.485  1.00  0.00     0.012 C 
ATOM     15  C   UNL     1     -17.129  -1.193  15.285  1.00  0.00     0.039 C 
ENDROOT
TORSDOF 0
ENDMDL
MODEL 5
REMARK VINA RESULT:    10.162      1.174      3.071
REMARK INTER + INTRA:          10.162
REMARK INTER:                  10.162
REMARK INTRA:                   0.000
REMARK UNBOUND:                 0.000
REMARK SMILES CC1=CC[C@@]23C[C@@H]1C(C)(C)[C@@H]2CC[C@H]3C
REMARK SMILES IDX 15 1 14 2 13 3 12 4 11 5 5 6 4 7 3 8 2 9 7 10 6 11 8 12 9 13
REMARK SMILES IDX 10 14 1 15
REMARK H PARENT
REMARK Flexibility Score: inf
ROOT
ATOM      1  C   UNL     1     -13.183  -2.377  21.507  1.00  0.00     0.008 C 
ATOM      2  C   UNL     1     -14.293  -1.925  20.547  1.00  0.00    -0.007 C 
ATOM      3  C   UNL     1     -15.628  -2.584  20.892  1.00  0.00     0.004 C 
ATOM      4  C   UNL     1     -16.425  -2.556  19.603  1.00  0.00     0.005 C 
ATOM      5  C   UNL     1     -15.384  -2.832  18.510  1.00  0.00     0.002 C 
ATOM      6  C   UNL     1     -14.062  -2.220  19.030  1.00  0.00    -0.020 C 
ATOM      7  C   UNL     1     -12.859  -3.164  18.691  1.00  0.00     0.035 C 
ATOM      8  C   UNL     1     -12.578  -3.232  17.199  1.00  0.00    -0.027 C 
ATOM      9  C   UNL     1     -13.175  -2.388  16.323  1.00  0.00    -0.074 C 
ATOM     10  C   UNL     1     -14.292  -1.459  16.804  1.00  0.00     0.021 C 
ATOM     11  C   UNL     1     -13.899  -0.947  18.188  1.00  0.00     0.016 C 
ATOM     12  C   UNL     1     -15.617  -2.236  17.077  1.00  0.00    -0.025 C 
ATOM     13  C   UNL     1     -15.878  -3.368  16.051  1.00  0.00     0.012 C 
ATOM     14  C   UNL     1     -16.813  -1.254  16.976  1.00  0.00     0.012 C 
ATOM     15  C   UNL     1     -12.772  -2.408  14.875  1.00  0.00     0.039 C 
ENDROOT
TORSDOF 0
ENDMDL
