MODEL 1
REMARK VINA RESULT:    -4.245      0.000      0.000
REMARK INTER + INTRA:          -4.927
REMARK INTER:                  -4.866
REMARK INTRA:                  -0.062
REMARK UNBOUND:                -0.062
REMARK SMILES CC(C)[C@H]([NH3+])C(=O)[O-]
REMARK SMILES IDX 4 1 5 2 6 6 7 7 8 8 2 9 1 10 3 11
REMARK H PARENT 5 3 5 4 5 5
REMARK Flexibility Score: inf
ROOT
ATOM      1  C   UNL     1      18.406  13.583  12.754  1.00  0.00     0.230 C 
ENDROOT
BRANCH   1   2
ATOM      2  N   UNL     1      18.445  13.626  11.285  1.00  0.00    -0.350 N 
ATOM      3  H   UNL     1      18.905  14.513  10.975  1.00  0.00     0.345 HD
ATOM      4  H   UNL     1      18.981  12.819  10.893  1.00  0.00     0.345 HD
ATOM      5  H   UNL     1      17.473  13.612  10.901  1.00  0.00     0.345 HD
ENDBRANCH   1   2
BRANCH   1   6
ATOM      6  C   UNL     1      19.736  13.131  13.309  1.00  0.00     0.099 C 
ATOM      7  O   UNL     1      20.284  12.089  12.861  1.00  0.00    -0.544 OA
ATOM      8  O   UNL     1      20.381  13.870  14.293  1.00  0.00    -0.544 OA
ENDBRANCH   1   6
BRANCH   1   9
ATOM      9  C   UNL     1      17.214  12.724  13.274  1.00  0.00     0.047 C 
ATOM     10  C   UNL     1      17.214  12.529  14.801  1.00  0.00     0.014 C 
ATOM     11  C   UNL     1      15.866  13.303  12.818  1.00  0.00     0.014 C 
ENDBRANCH   1   9
TORSDOF 3
ENDMDL
MODEL 2
REMARK VINA RESULT:    -4.244      1.717      2.433
REMARK INTER + INTRA:          -4.926
REMARK INTER:                  -4.874
REMARK INTRA:                  -0.052
REMARK UNBOUND:                -0.062
REMARK SMILES CC(C)[C@H]([NH3+])C(=O)[O-]
REMARK SMILES IDX 4 1 5 2 6 6 7 7 8 8 2 9 1 10 3 11
REMARK H PARENT 5 3 5 4 5 5
REMARK Flexibility Score: inf
ROOT
ATOM      1  C   UNL     1      19.007  12.522  13.566  1.00  0.00     0.230 C 
ENDROOT
BRANCH   1   2
ATOM      2  N   UNL     1      18.198  12.281  14.768  1.00  0.00    -0.350 N 
ATOM      3  H   UNL     1      17.717  11.355  14.685  1.00  0.00     0.345 HD
ATOM      4  H   UNL     1      18.787  12.273  15.631  1.00  0.00     0.345 HD
ATOM      5  H   UNL     1      17.464  13.020  14.860  1.00  0.00     0.345 HD
ENDBRANCH   1   2
BRANCH   1   6
ATOM      6  C   UNL     1      20.353  13.100  13.936  1.00  0.00     0.099 C 
ATOM      7  O   UNL     1      20.418  14.123  14.669  1.00  0.00    -0.544 OA
ATOM      8  O   UNL     1      21.526  12.498  13.502  1.00  0.00    -0.544 OA
ENDBRANCH   1   6
BRANCH   1   9
ATOM      9  C   UNL     1      18.245  13.395  12.522  1.00  0.00     0.047 C 
ATOM     10  C   UNL     1      18.652  13.111  11.066  1.00  0.00     0.014 C 
ATOM     11  C   UNL     1      16.724  13.253  12.681  1.00  0.00     0.014 C 
ENDBRANCH   1   9
TORSDOF 3
ENDMDL
MODEL 3
REMARK VINA RESULT:    -4.191     19.695     20.523
REMARK INTER + INTRA:          -4.866
REMARK INTER:                  -4.853
REMARK INTRA:                  -0.013
REMARK UNBOUND:                -0.062
REMARK SMILES CC(C)[C@H]([NH3+])C(=O)[O-]
REMARK SMILES IDX 4 1 5 2 6 6 7 7 8 8 2 9 1 10 3 11
REMARK H PARENT 5 3 5 4 5 5
REMARK Flexibility Score: inf
ROOT
ATOM      1  C   UNL     1      12.786  -4.703  22.689  1.00  0.00     0.230 C 
ENDROOT
BRANCH   1   2
ATOM      2  N   UNL     1      12.013  -4.541  23.928  1.00  0.00    -0.350 N 
ATOM      3  H   UNL     1      12.667  -4.385  24.729  1.00  0.00     0.345 HD
ATOM      4  H   UNL     1      11.361  -3.726  23.869  1.00  0.00     0.345 HD
ATOM      5  H   UNL     1      11.462  -5.408  24.123  1.00  0.00     0.345 HD
ENDBRANCH   1   2
BRANCH   1   6
ATOM      6  C   UNL     1      14.268  -4.701  22.982  1.00  0.00     0.099 C 
ATOM      7  O   UNL     1      14.750  -3.858  23.784  1.00  0.00    -0.544 OA
ATOM      8  O   UNL     1      15.106  -5.642  22.397  1.00  0.00    -0.544 OA
ENDBRANCH   1   6
BRANCH   1   9
ATOM      9  C   UNL     1      12.385  -3.645  21.616  1.00  0.00     0.047 C 
ATOM     10  C   UNL     1      13.397  -3.520  20.464  1.00  0.00     0.014 C 
ATOM     11  C   UNL     1      10.982  -3.923  21.055  1.00  0.00     0.014 C 
ENDBRANCH   1   9
TORSDOF 3
ENDMDL
MODEL 4
REMARK VINA RESULT:    -4.168      2.840      3.634
REMARK INTER + INTRA:          -4.838
REMARK INTER:                  -4.812
REMARK INTRA:                  -0.027
REMARK UNBOUND:                -0.062
REMARK SMILES CC(C)[C@H]([NH3+])C(=O)[O-]
REMARK SMILES IDX 4 1 5 2 6 6 7 7 8 8 2 9 1 10 3 11
REMARK H PARENT 5 3 5 4 5 5
REMARK Flexibility Score: inf
ROOT
ATOM      1  C   UNL     1      17.830  12.924  14.254  1.00  0.00     0.230 C 
ENDROOT
BRANCH   1   2
ATOM      2  N   UNL     1      17.988  11.706  15.062  1.00  0.00    -0.350 N 
ATOM      3  H   UNL     1      17.045  11.311  15.283  1.00  0.00     0.345 HD
ATOM      4  H   UNL     1      18.541  10.980  14.555  1.00  0.00     0.345 HD
ATOM      5  H   UNL     1      18.464  11.934  15.964  1.00  0.00     0.345 HD
ENDBRANCH   1   2
BRANCH   1   6
ATOM      6  C   UNL     1      16.546  12.875  13.461  1.00  0.00     0.099 C 
ATOM      7  O   UNL     1      16.403  13.609  12.447  1.00  0.00    -0.544 OA
ATOM      8  O   UNL     1      15.524  12.006  13.822  1.00  0.00    -0.544 OA
ENDBRANCH   1   6
BRANCH   1   9
ATOM      9  C   UNL     1      19.079  13.187  13.358  1.00  0.00     0.047 C 
ATOM     10  C   UNL     1      20.329  13.609  14.150  1.00  0.00     0.014 C 
ATOM     11  C   UNL     1      19.401  11.971  12.476  1.00  0.00     0.014 C 
ENDBRANCH   1   9
TORSDOF 3
ENDMDL
MODEL 5
REMARK VINA RESULT:    -4.114     20.171     20.595
REMARK INTER + INTRA:          -4.777
REMARK INTER:                  -4.728
REMARK INTRA:                  -0.049
REMARK UNBOUND:                -0.062
REMARK SMILES CC(C)[C@H]([NH3+])C(=O)[O-]
REMARK SMILES IDX 4 1 5 2 6 6 7 7 8 8 2 9 1 10 3 11
REMARK H PARENT 5 3 5 4 5 5
REMARK Flexibility Score: inf
ROOT
ATOM      1  C   UNL     1      14.251  -4.113  22.472  1.00  0.00     0.230 C 
ENDROOT
BRANCH   1   2
ATOM      2  N   UNL     1      14.250  -4.031  21.005  1.00  0.00    -0.350 N 
ATOM      3  H   UNL     1      15.035  -3.416  20.690  1.00  0.00     0.345 HD
ATOM      4  H   UNL     1      14.370  -4.973  20.569  1.00  0.00     0.345 HD
ATOM      5  H   UNL     1      13.354  -3.610  20.670  1.00  0.00     0.345 HD
ENDBRANCH   1   2
BRANCH   1   6
ATOM      6  C   UNL     1      15.361  -5.017  22.955  1.00  0.00     0.099 C 
ATOM      7  O   UNL     1      15.560  -6.125  22.390  1.00  0.00    -0.544 OA
ATOM      8  O   UNL     1      16.189  -4.626  24.000  1.00  0.00    -0.544 OA
ENDBRANCH   1   6
BRANCH   1   9
ATOM      9  C   UNL     1      12.855  -4.527  23.028  1.00  0.00     0.047 C 
ATOM     10  C   UNL     1      12.507  -3.871  24.376  1.00  0.00     0.014 C 
ATOM     11  C   UNL     1      11.742  -4.249  22.006  1.00  0.00     0.014 C 
ENDBRANCH   1   9
TORSDOF 3
ENDMDL
MODEL 6
REMARK VINA RESULT:    -4.063     18.951     19.707
REMARK INTER + INTRA:          -4.718
REMARK INTER:                  -4.683
REMARK INTRA:                  -0.035
REMARK UNBOUND:                -0.062
REMARK SMILES CC(C)[C@H]([NH3+])C(=O)[O-]
REMARK SMILES IDX 4 1 5 2 6 6 7 7 8 8 2 9 1 10 3 11
REMARK H PARENT 5 3 5 4 5 5
REMARK Flexibility Score: inf
ROOT
ATOM      1  C   UNL     1      13.314  -3.905  20.753  1.00  0.00     0.230 C 
ENDROOT
BRANCH   1   2
ATOM      2  N   UNL     1      14.267  -2.850  20.379  1.00  0.00    -0.350 N 
ATOM      3  H   UNL     1      14.206  -2.674  19.350  1.00  0.00     0.345 HD
ATOM      4  H   UNL     1      14.065  -1.957  20.882  1.00  0.00     0.345 HD
ATOM      5  H   UNL     1      15.243  -3.155  20.598  1.00  0.00     0.345 HD
ENDBRANCH   1   2
BRANCH   1   6
ATOM      6  C   UNL     1      11.893  -3.417  20.601  1.00  0.00     0.099 C 
ATOM      7  O   UNL     1      11.645  -2.415  19.880  1.00  0.00    -0.544 OA
ATOM      8  O   UNL     1      10.846  -4.081  21.228  1.00  0.00    -0.544 OA
ENDBRANCH   1   6
BRANCH   1   9
ATOM      9  C   UNL     1      13.607  -4.470  22.176  1.00  0.00     0.047 C 
ATOM     10  C   UNL     1      14.955  -5.205  22.283  1.00  0.00     0.014 C 
ATOM     11  C   UNL     1      13.524  -3.367  23.243  1.00  0.00     0.014 C 
ENDBRANCH   1   9
TORSDOF 3
ENDMDL
MODEL 7
REMARK VINA RESULT:    -4.045     19.864     20.545
REMARK INTER + INTRA:          -4.697
REMARK INTER:                  -4.688
REMARK INTRA:                  -0.009
REMARK UNBOUND:                -0.062
REMARK SMILES CC(C)[C@H]([NH3+])C(=O)[O-]
REMARK SMILES IDX 4 1 5 2 6 6 7 7 8 8 2 9 1 10 3 11
REMARK H PARENT 5 3 5 4 5 5
REMARK Flexibility Score: inf
ROOT
ATOM      1  C   UNL     1      13.014  -3.914  22.909  1.00  0.00     0.230 C 
ENDROOT
BRANCH   1   2
ATOM      2  N   UNL     1      12.252  -4.954  23.615  1.00  0.00    -0.350 N 
ATOM      3  H   UNL     1      11.313  -4.577  23.881  1.00  0.00     0.345 HD
ATOM      4  H   UNL     1      12.113  -5.799  23.017  1.00  0.00     0.345 HD
ATOM      5  H   UNL     1      12.750  -5.230  24.491  1.00  0.00     0.345 HD
ENDBRANCH   1   2
BRANCH   1   6
ATOM      6  C   UNL     1      12.531  -3.775  21.484  1.00  0.00     0.099 C 
ATOM      7  O   UNL     1      11.311  -3.934  21.215  1.00  0.00    -0.544 OA
ATOM      8  O   UNL     1      13.416  -3.443  20.466  1.00  0.00    -0.544 OA
ENDBRANCH   1   6
BRANCH   1   9
ATOM      9  C   UNL     1      14.550  -4.162  23.001  1.00  0.00     0.047 C 
ATOM     10  C   UNL     1      15.147  -3.832  24.380  1.00  0.00     0.014 C 
ATOM     11  C   UNL     1      14.909  -5.603  22.604  1.00  0.00     0.014 C 
ENDBRANCH   1   9
TORSDOF 3
ENDMDL
MODEL 8
REMARK VINA RESULT:    -4.004     20.105     20.758
REMARK INTER + INTRA:          -4.651
REMARK INTER:                  -4.595
REMARK INTRA:                  -0.056
REMARK UNBOUND:                -0.062
REMARK SMILES CC(C)[C@H]([NH3+])C(=O)[O-]
REMARK SMILES IDX 4 1 5 2 6 6 7 7 8 8 2 9 1 10 3 11
REMARK H PARENT 5 3 5 4 5 5
REMARK Flexibility Score: inf
ROOT
ATOM      1  C   UNL     1      14.450  -3.580  23.666  1.00  0.00     0.230 C 
ENDROOT
BRANCH   1   2
ATOM      2  N   UNL     1      15.692  -3.827  24.413  1.00  0.00    -0.350 N 
ATOM      3  H   UNL     1      15.485  -4.427  25.244  1.00  0.00     0.345 HD
ATOM      4  H   UNL     1      16.404  -4.312  23.822  1.00  0.00     0.345 HD
ATOM      5  H   UNL     1      16.089  -2.923  24.756  1.00  0.00     0.345 HD
ENDBRANCH   1   2
BRANCH   1   6
ATOM      6  C   UNL     1      13.285  -3.411  24.611  1.00  0.00     0.099 C 
ATOM      7  O   UNL     1      12.184  -3.970  24.360  1.00  0.00    -0.544 OA
ATOM      8  O   UNL     1      13.420  -2.665  25.776  1.00  0.00    -0.544 OA
ENDBRANCH   1   6
BRANCH   1   9
ATOM      9  C   UNL     1      14.197  -4.679  22.589  1.00  0.00     0.047 C 
ATOM     10  C   UNL     1      13.856  -4.114  21.199  1.00  0.00     0.014 C 
ATOM     11  C   UNL     1      15.386  -5.646  22.487  1.00  0.00     0.014 C 
ENDBRANCH   1   9
TORSDOF 3
ENDMDL
MODEL 9
REMARK VINA RESULT:    -3.947      2.193      3.253
REMARK INTER + INTRA:          -4.585
REMARK INTER:                  -4.607
REMARK INTRA:                   0.022
REMARK UNBOUND:                -0.062
REMARK SMILES CC(C)[C@H]([NH3+])C(=O)[O-]
REMARK SMILES IDX 4 1 5 2 6 6 7 7 8 8 2 9 1 10 3 11
REMARK H PARENT 5 3 5 4 5 5
REMARK Flexibility Score: inf
ROOT
ATOM      1  C   UNL     1      18.287  12.788  12.426  1.00  0.00     0.230 C 
ENDROOT
BRANCH   1   2
ATOM      2  N   UNL     1      18.444  13.998  11.607  1.00  0.00    -0.350 N 
ATOM      3  H   UNL     1      18.562  14.829  12.233  1.00  0.00     0.345 HD
ATOM      4  H   UNL     1      19.279  13.932  10.983  1.00  0.00     0.345 HD
ATOM      5  H   UNL     1      17.590  14.150  11.025  1.00  0.00     0.345 HD
ENDBRANCH   1   2
BRANCH   1   6
ATOM      6  C   UNL     1      17.084  12.910  13.331  1.00  0.00     0.099 C 
ATOM      7  O   UNL     1      15.997  13.357  12.878  1.00  0.00    -0.544 OA
ATOM      8  O   UNL     1      17.153  12.505  14.658  1.00  0.00    -0.544 OA
ENDBRANCH   1   6
BRANCH   1   9
ATOM      9  C   UNL     1      19.593  12.444  13.204  1.00  0.00     0.047 C 
ATOM     10  C   UNL     1      20.675  11.783  12.333  1.00  0.00     0.014 C 
ATOM     11  C   UNL     1      20.167  13.683  13.907  1.00  0.00     0.014 C 
ENDBRANCH   1   9
TORSDOF 3
ENDMDL
