MODEL 1
REMARK VINA RESULT:    -6.329      0.000      0.000
REMARK INTER + INTRA:         -11.577
REMARK INTER:                 -10.770
REMARK INTRA:                  -0.808
REMARK UNBOUND:                -0.808
REMARK SMILES CCCCCCCCCCCCCC(=O)[O-]
REMARK SMILES IDX 8 1 9 2 10 3 11 4 12 5 13 6 14 7 15 8 16 9 7 10 6 11 5 12
REMARK SMILES IDX 4 13 3 14 2 15 1 16
REMARK H PARENT
REMARK Flexibility Score: inf
ROOT
ATOM      1  C   UNL     1      94.191 122.295 121.253  1.00  0.00     0.000 C 
ENDROOT
BRANCH   1   2
ATOM      2  C   UNL     1      93.110 122.275 122.346  1.00  0.00     0.000 C 
BRANCH   2   3
ATOM      3  C   UNL     1      93.215 123.476 123.301  1.00  0.00     0.000 C 
BRANCH   3   4
ATOM      4  C   UNL     1      93.362 123.057 124.775  1.00  0.00     0.000 C 
BRANCH   4   5
ATOM      5  C   UNL     1      94.813 122.891 125.270  1.00  0.00     0.006 C 
BRANCH   5   6
ATOM      6  C   UNL     1      95.800 123.930 124.717  1.00  0.00     0.053 C 
BRANCH   6   7
ATOM      7  C   UNL     1      96.951 124.160 125.647  1.00  0.00     0.041 C 
ATOM      8  O   UNL     1      97.598 123.184 126.110  1.00  0.00    -0.550 OA
ATOM      9  O   UNL     1      97.287 125.453 126.029  1.00  0.00    -0.550 OA
ENDBRANCH   6   7
ENDBRANCH   5   6
ENDBRANCH   4   5
ENDBRANCH   3   4
ENDBRANCH   2   3
ENDBRANCH   1   2
BRANCH   1  10
ATOM     10  C   UNL     1      94.221 121.004 120.422  1.00  0.00     0.000 C 
BRANCH  10  11
ATOM     11  C   UNL     1      94.410 121.316 118.930  1.00  0.00    -0.000 C 
BRANCH  11  12
ATOM     12  C   UNL     1      94.153 122.795 118.599  1.00  0.00    -0.000 C 
BRANCH  12  13
ATOM     13  C   UNL     1      92.668 123.087 118.315  1.00  0.00    -0.000 C 
BRANCH  13  14
ATOM     14  C   UNL     1      91.978 121.946 117.550  1.00  0.00    -0.000 C 
BRANCH  14  15
ATOM     15  C   UNL     1      92.209 122.029 116.035  1.00  0.00    -0.003 C 
ATOM     16  C   UNL     1      92.925 120.784 115.519  1.00  0.00     0.004 C 
ENDBRANCH  14  15
ENDBRANCH  13  14
ENDBRANCH  12  13
ENDBRANCH  11  12
ENDBRANCH  10  11
ENDBRANCH   1  10
TORSDOF 12
ENDMDL
MODEL 2
REMARK VINA RESULT:    -6.054      3.921      7.902
REMARK INTER + INTRA:         -11.109
REMARK INTER:                 -10.132
REMARK INTRA:                  -0.977
REMARK UNBOUND:                -0.808
REMARK SMILES CCCCCCCCCCCCCC(=O)[O-]
REMARK SMILES IDX 8 1 9 2 10 3 11 4 12 5 13 6 14 7 15 8 16 9 7 10 6 11 5 12
REMARK SMILES IDX 4 13 3 14 2 15 1 16
REMARK H PARENT
REMARK Flexibility Score: inf
ROOT
ATOM      1  C   UNL     1      93.143 123.417 122.420  1.00  0.00     0.000 C 
ENDROOT
BRANCH   1   2
ATOM      2  C   UNL     1      92.998 121.892 122.299  1.00  0.00     0.000 C 
BRANCH   2   3
ATOM      3  C   UNL     1      93.471 121.361 120.935  1.00  0.00     0.000 C 
BRANCH   3   4
ATOM      4  C   UNL     1      94.591 122.216 120.315  1.00  0.00     0.000 C 
BRANCH   4   5
ATOM      5  C   UNL     1      94.368 122.624 118.844  1.00  0.00     0.006 C 
BRANCH   5   6
ATOM      6  C   UNL     1      92.917 122.987 118.494  1.00  0.00     0.053 C 
BRANCH   6   7
ATOM      7  C   UNL     1      92.367 122.112 117.410  1.00  0.00     0.041 C 
ATOM      8  O   UNL     1      92.303 120.865 117.572  1.00  0.00    -0.550 OA
ATOM      9  O   UNL     1      91.956 122.672 116.206  1.00  0.00    -0.550 OA
ENDBRANCH   6   7
ENDBRANCH   5   6
ENDBRANCH   4   5
ENDBRANCH   3   4
ENDBRANCH   2   3
ENDBRANCH   1   2
BRANCH   1  10
ATOM     10  C   UNL     1      93.319 123.884 123.873  1.00  0.00     0.000 C 
BRANCH  10  11
ATOM     11  C   UNL     1      93.324 122.688 124.836  1.00  0.00    -0.000 C 
BRANCH  11  12
ATOM     12  C   UNL     1      94.574 122.653 125.730  1.00  0.00    -0.000 C 
BRANCH  12  13
ATOM     13  C   UNL     1      95.689 123.586 125.223  1.00  0.00    -0.000 C 
BRANCH  13  14
ATOM     14  C   UNL     1      97.049 123.287 125.873  1.00  0.00    -0.000 C 
BRANCH  14  15
ATOM     15  C   UNL     1      97.908 124.548 126.047  1.00  0.00    -0.003 C 
ATOM     16  C   UNL     1      97.341 125.714 125.243  1.00  0.00     0.004 C 
ENDBRANCH  14  15
ENDBRANCH  13  14
ENDBRANCH  12  13
ENDBRANCH  11  12
ENDBRANCH  10  11
ENDBRANCH   1  10
TORSDOF 12
ENDMDL
MODEL 3
REMARK VINA RESULT:    -6.040      3.843      7.948
REMARK INTER + INTRA:         -11.085
REMARK INTER:                 -10.344
REMARK INTRA:                  -0.742
REMARK UNBOUND:                -0.808
REMARK SMILES CCCCCCCCCCCCCC(=O)[O-]
REMARK SMILES IDX 8 1 9 2 10 3 11 4 12 5 13 6 14 7 15 8 16 9 7 10 6 11 5 12
REMARK SMILES IDX 4 13 3 14 2 15 1 16
REMARK H PARENT
REMARK Flexibility Score: inf
ROOT
ATOM      1  C   UNL     1      92.735 122.260 122.574  1.00  0.00     0.000 C 
ENDROOT
BRANCH   1   2
ATOM      2  C   UNL     1      93.006 122.423 121.070  1.00  0.00     0.000 C 
BRANCH   2   3
ATOM      3  C   UNL     1      94.461 122.093 120.693  1.00  0.00     0.000 C 
BRANCH   3   4
ATOM      4  C   UNL     1      94.575 120.881 119.751  1.00  0.00     0.000 C 
BRANCH   4   5
ATOM      5  C   UNL     1      94.404 121.197 118.250  1.00  0.00     0.006 C 
BRANCH   5   6
ATOM      6  C   UNL     1      92.954 121.144 117.747  1.00  0.00     0.053 C 
BRANCH   6   7
ATOM      7  C   UNL     1      92.516 122.450 117.161  1.00  0.00     0.041 C 
ATOM      8  O   UNL     1      91.912 122.480 116.057  1.00  0.00    -0.550 OA
ATOM      9  O   UNL     1      92.805 123.639 117.820  1.00  0.00    -0.550 OA
ENDBRANCH   6   7
ENDBRANCH   5   6
ENDBRANCH   4   5
ENDBRANCH   3   4
ENDBRANCH   2   3
ENDBRANCH   1   2
BRANCH   1  10
ATOM     10  C   UNL     1      93.608 123.183 123.439  1.00  0.00     0.000 C 
BRANCH  10  11
ATOM     11  C   UNL     1      93.682 122.669 124.885  1.00  0.00    -0.000 C 
BRANCH  11  12
ATOM     12  C   UNL     1      95.014 123.016 125.568  1.00  0.00    -0.000 C 
BRANCH  12  13
ATOM     13  C   UNL     1      96.106 123.420 124.562  1.00  0.00    -0.000 C 
BRANCH  13  14
ATOM     14  C   UNL     1      96.624 124.848 124.795  1.00  0.00    -0.000 C 
BRANCH  14  15
ATOM     15  C   UNL     1      97.395 124.987 126.116  1.00  0.00    -0.003 C 
ATOM     16  C   UNL     1      98.461 123.903 126.245  1.00  0.00     0.004 C 
ENDBRANCH  14  15
ENDBRANCH  13  14
ENDBRANCH  12  13
ENDBRANCH  11  12
ENDBRANCH  10  11
ENDBRANCH   1  10
TORSDOF 12
ENDMDL
MODEL 4
REMARK VINA RESULT:    -5.937      0.906      1.553
REMARK INTER + INTRA:         -10.910
REMARK INTER:                 -10.249
REMARK INTRA:                  -0.660
REMARK UNBOUND:                -0.808
REMARK SMILES CCCCCCCCCCCCCC(=O)[O-]
REMARK SMILES IDX 8 1 9 2 10 3 11 4 12 5 13 6 14 7 15 8 16 9 7 10 6 11 5 12
REMARK SMILES IDX 4 13 3 14 2 15 1 16
REMARK H PARENT
REMARK Flexibility Score: inf
ROOT
ATOM      1  C   UNL     1      93.057 122.361 122.392  1.00  0.00     0.000 C 
ENDROOT
BRANCH   1   2
ATOM      2  C   UNL     1      93.123 123.501 123.421  1.00  0.00     0.000 C 
BRANCH   2   3
ATOM      3  C   UNL     1      93.275 122.987 124.863  1.00  0.00     0.000 C 
BRANCH   3   4
ATOM      4  C   UNL     1      94.739 122.707 125.247  1.00  0.00     0.000 C 
BRANCH   4   5
ATOM      5  C   UNL     1      95.780 123.644 124.600  1.00  0.00     0.006 C 
BRANCH   5   6
ATOM      6  C   UNL     1      97.073 123.819 125.410  1.00  0.00     0.053 C 
BRANCH   6   7
ATOM      7  C   UNL     1      97.295 125.245 125.809  1.00  0.00     0.041 C 
ATOM      8  O   UNL     1      97.290 125.572 127.025  1.00  0.00    -0.550 OA
ATOM      9  O   UNL     1      97.474 126.219 124.835  1.00  0.00    -0.550 OA
ENDBRANCH   6   7
ENDBRANCH   5   6
ENDBRANCH   4   5
ENDBRANCH   3   4
ENDBRANCH   2   3
ENDBRANCH   1   2
BRANCH   1  10
ATOM     10  C   UNL     1      94.017 122.569 121.211  1.00  0.00     0.000 C 
BRANCH  10  11
ATOM     11  C   UNL     1      94.244 121.253 120.451  1.00  0.00    -0.000 C 
BRANCH  11  12
ATOM     12  C   UNL     1      94.756 121.477 119.020  1.00  0.00    -0.000 C 
BRANCH  12  13
ATOM     13  C   UNL     1      93.783 120.942 117.954  1.00  0.00    -0.000 C 
BRANCH  13  14
ATOM     14  C   UNL     1      92.520 121.808 117.820  1.00  0.00    -0.000 C 
BRANCH  14  15
ATOM     15  C   UNL     1      92.173 122.122 116.358  1.00  0.00    -0.003 C 
ATOM     16  C   UNL     1      92.735 121.057 115.420  1.00  0.00     0.004 C 
ENDBRANCH  14  15
ENDBRANCH  13  14
ENDBRANCH  12  13
ENDBRANCH  11  12
ENDBRANCH  10  11
ENDBRANCH   1  10
TORSDOF 12
ENDMDL
MODEL 5
REMARK VINA RESULT:    -5.731      3.700      7.929
REMARK INTER + INTRA:         -10.558
REMARK INTER:                  -9.965
REMARK INTRA:                  -0.593
REMARK UNBOUND:                -0.808
REMARK SMILES CCCCCCCCCCCCCC(=O)[O-]
REMARK SMILES IDX 8 1 9 2 10 3 11 4 12 5 13 6 14 7 15 8 16 9 7 10 6 11 5 12
REMARK SMILES IDX 4 13 3 14 2 15 1 16
REMARK H PARENT
REMARK Flexibility Score: inf
ROOT
ATOM      1  C   UNL     1      93.475 122.443 121.119  1.00  0.00     0.000 C 
ENDROOT
BRANCH   1   2
ATOM      2  C   UNL     1      93.700 121.130 120.353  1.00  0.00     0.000 C 
BRANCH   2   3
ATOM      3  C   UNL     1      94.568 121.321 119.097  1.00  0.00     0.000 C 
BRANCH   3   4
ATOM      4  C   UNL     1      93.844 120.913 117.801  1.00  0.00     0.000 C 
BRANCH   4   5
ATOM      5  C   UNL     1      92.407 121.454 117.652  1.00  0.00     0.006 C 
BRANCH   5   6
ATOM      6  C   UNL     1      92.211 122.435 116.487  1.00  0.00     0.053 C 
BRANCH   6   7
ATOM      7  C   UNL     1      92.527 123.844 116.883  1.00  0.00     0.041 C 
ATOM      8  O   UNL     1      93.039 124.088 118.007  1.00  0.00    -0.550 OA
ATOM      9  O   UNL     1      92.225 124.892 116.022  1.00  0.00    -0.550 OA
ENDBRANCH   6   7
ENDBRANCH   5   6
ENDBRANCH   4   5
ENDBRANCH   3   4
ENDBRANCH   2   3
ENDBRANCH   1   2
BRANCH   1  10
ATOM     10  C   UNL     1      93.041 122.215 122.575  1.00  0.00     0.000 C 
BRANCH  10  11
ATOM     11  C   UNL     1      93.555 123.342 123.483  1.00  0.00    -0.000 C 
BRANCH  11  12
ATOM     12  C   UNL     1      93.773 122.881 124.933  1.00  0.00    -0.000 C 
BRANCH  12  13
ATOM     13  C   UNL     1      95.264 122.799 125.308  1.00  0.00    -0.000 C 
BRANCH  13  14
ATOM     14  C   UNL     1      96.139 123.731 124.455  1.00  0.00    -0.000 C 
BRANCH  14  15
ATOM     15  C   UNL     1      96.920 124.745 125.303  1.00  0.00    -0.003 C 
ATOM     16  C   UNL     1      97.849 124.038 126.286  1.00  0.00     0.004 C 
ENDBRANCH  14  15
ENDBRANCH  13  14
ENDBRANCH  12  13
ENDBRANCH  11  12
ENDBRANCH  10  11
ENDBRANCH   1  10
TORSDOF 12
ENDMDL
MODEL 6
REMARK VINA RESULT:    -4.903      3.994      8.171
REMARK INTER + INTRA:          -9.150
REMARK INTER:                  -8.618
REMARK INTRA:                  -0.532
REMARK UNBOUND:                -0.808
REMARK SMILES CCCCCCCCCCCCCC(=O)[O-]
REMARK SMILES IDX 8 1 9 2 10 3 11 4 12 5 13 6 14 7 15 8 16 9 7 10 6 11 5 12
REMARK SMILES IDX 4 13 3 14 2 15 1 16
REMARK H PARENT
REMARK Flexibility Score: inf
ROOT
ATOM      1  C   UNL     1      94.991 124.125 124.285  1.00  0.00     0.000 C 
ENDROOT
BRANCH   1   2
ATOM      2  C   UNL     1      94.080 123.043 124.885  1.00  0.00     0.000 C 
BRANCH   2   3
ATOM      3  C   UNL     1      93.166 122.391 123.833  1.00  0.00     0.000 C 
BRANCH   3   4
ATOM      4  C   UNL     1      93.436 122.902 122.406  1.00  0.00     0.000 C 
BRANCH   4   5
ATOM      5  C   UNL     1      93.109 121.902 121.277  1.00  0.00     0.006 C 
BRANCH   5   6
ATOM      6  C   UNL     1      92.789 122.551 119.922  1.00  0.00     0.053 C 
BRANCH   6   7
ATOM      7  C   UNL     1      93.400 121.796 118.782  1.00  0.00     0.041 C 
ATOM      8  O   UNL     1      92.777 121.675 117.695  1.00  0.00    -0.550 OA
ATOM      9  O   UNL     1      94.645 121.198 118.933  1.00  0.00    -0.550 OA
ENDBRANCH   6   7
ENDBRANCH   5   6
ENDBRANCH   4   5
ENDBRANCH   3   4
ENDBRANCH   2   3
ENDBRANCH   1   2
BRANCH   1  10
ATOM     10  C   UNL     1      96.484 123.835 124.503  1.00  0.00     0.000 C 
BRANCH  10  11
ATOM     11  C   UNL     1      96.954 124.376 125.862  1.00  0.00    -0.000 C 
BRANCH  11  12
ATOM     12  C   UNL     1      98.342 123.850 126.260  1.00  0.00    -0.000 C 
BRANCH  12  13
ATOM     13  C   UNL     1      98.419 122.313 126.238  1.00  0.00    -0.000 C 
BRANCH  13  14
ATOM     14  C   UNL     1      99.842 121.798 125.968  1.00  0.00    -0.000 C 
BRANCH  14  15
ATOM     15  C   UNL     1     100.047 120.355 126.449  1.00  0.00    -0.003 C 
ATOM     16  C   UNL     1     101.271 119.725 125.789  1.00  0.00     0.004 C 
ENDBRANCH  14  15
ENDBRANCH  13  14
ENDBRANCH  12  13
ENDBRANCH  11  12
ENDBRANCH  10  11
ENDBRANCH   1  10
TORSDOF 12
ENDMDL
MODEL 7
REMARK VINA RESULT:    -4.870      1.473      2.423
REMARK INTER + INTRA:          -9.094
REMARK INTER:                  -8.090
REMARK INTRA:                  -1.004
REMARK UNBOUND:                -0.808
REMARK SMILES CCCCCCCCCCCCCC(=O)[O-]
REMARK SMILES IDX 8 1 9 2 10 3 11 4 12 5 13 6 14 7 15 8 16 9 7 10 6 11 5 12
REMARK SMILES IDX 4 13 3 14 2 15 1 16
REMARK H PARENT
REMARK Flexibility Score: inf
ROOT
ATOM      1  C   UNL     1      94.394 121.069 119.933  1.00  0.00     0.000 C 
ENDROOT
BRANCH   1   2
ATOM      2  C   UNL     1      94.454 122.224 120.945  1.00  0.00     0.000 C 
BRANCH   2   3
ATOM      3  C   UNL     1      93.083 122.535 121.568  1.00  0.00     0.000 C 
BRANCH   3   4
ATOM      4  C   UNL     1      93.011 122.181 123.065  1.00  0.00     0.000 C 
BRANCH   4   5
ATOM      5  C   UNL     1      92.823 123.381 124.016  1.00  0.00     0.006 C 
BRANCH   5   6
ATOM      6  C   UNL     1      94.079 124.242 124.213  1.00  0.00     0.053 C 
BRANCH   6   7
ATOM      7  C   UNL     1      95.249 123.429 124.677  1.00  0.00     0.041 C 
ATOM      8  O   UNL     1      96.264 123.301 123.943  1.00  0.00    -0.550 OA
ATOM      9  O   UNL     1      95.202 122.783 125.907  1.00  0.00    -0.550 OA
ENDBRANCH   6   7
ENDBRANCH   5   6
ENDBRANCH   4   5
ENDBRANCH   3   4
ENDBRANCH   2   3
ENDBRANCH   1   2
BRANCH   1  10
ATOM     10  C   UNL     1      94.698 121.520 118.497  1.00  0.00     0.000 C 
BRANCH  10  11
ATOM     11  C   UNL     1      94.210 120.476 117.480  1.00  0.00    -0.000 C 
BRANCH  11  12
ATOM     12  C   UNL     1      92.900 120.890 116.791  1.00  0.00    -0.000 C 
BRANCH  12  13
ATOM     13  C   UNL     1      92.401 122.271 117.252  1.00  0.00    -0.000 C 
BRANCH  13  14
ATOM     14  C   UNL     1      91.961 123.161 116.078  1.00  0.00    -0.000 C 
BRANCH  14  15
ATOM     15  C   UNL     1      92.374 124.628 116.265  1.00  0.00    -0.003 C 
ATOM     16  C   UNL     1      93.335 124.782 117.440  1.00  0.00     0.004 C 
ENDBRANCH  14  15
ENDBRANCH  13  14
ENDBRANCH  12  13
ENDBRANCH  11  12
ENDBRANCH  10  11
ENDBRANCH   1  10
TORSDOF 12
ENDMDL
MODEL 8
REMARK VINA RESULT:    -4.764      2.336      3.920
REMARK INTER + INTRA:          -8.914
REMARK INTER:                  -8.462
REMARK INTRA:                  -0.451
REMARK UNBOUND:                -0.808
REMARK SMILES CCCCCCCCCCCCCC(=O)[O-]
REMARK SMILES IDX 8 1 9 2 10 3 11 4 12 5 13 6 14 7 15 8 16 9 7 10 6 11 5 12
REMARK SMILES IDX 4 13 3 14 2 15 1 16
REMARK H PARENT
REMARK Flexibility Score: inf
ROOT
ATOM      1  C   UNL     1      94.318 123.039 124.659  1.00  0.00     0.000 C 
ENDROOT
BRANCH   1   2
ATOM      2  C   UNL     1      95.812 123.378 124.544  1.00  0.00     0.000 C 
BRANCH   2   3
ATOM      3  C   UNL     1      96.381 123.986 125.838  1.00  0.00     0.000 C 
BRANCH   3   4
ATOM      4  C   UNL     1      97.907 123.823 125.956  1.00  0.00     0.000 C 
BRANCH   4   5
ATOM      5  C   UNL     1      98.393 122.395 126.278  1.00  0.00     0.006 C 
BRANCH   5   6
ATOM      6  C   UNL     1      99.876 122.140 125.969  1.00  0.00     0.053 C 
BRANCH   6   7
ATOM      7  C   UNL     1     100.226 120.687 126.066  1.00  0.00     0.041 C 
ATOM      8  O   UNL     1      99.745 119.978 126.988  1.00  0.00    -0.550 OA
ATOM      9  O   UNL     1     101.113 120.124 125.156  1.00  0.00    -0.550 OA
ENDBRANCH   6   7
ENDBRANCH   5   6
ENDBRANCH   4   5
ENDBRANCH   3   4
ENDBRANCH   2   3
ENDBRANCH   1   2
BRANCH   1  10
ATOM     10  C   UNL     1      93.490 123.594 123.490  1.00  0.00     0.000 C 
BRANCH  10  11
ATOM     11  C   UNL     1      93.080 122.470 122.527  1.00  0.00    -0.000 C 
BRANCH  11  12
ATOM     12  C   UNL     1      94.064 122.303 121.358  1.00  0.00    -0.000 C 
BRANCH  12  13
ATOM     13  C   UNL     1      93.392 122.501 119.988  1.00  0.00    -0.000 C 
BRANCH  13  14
ATOM     14  C   UNL     1      94.210 121.893 118.837  1.00  0.00    -0.000 C 
BRANCH  14  15
ATOM     15  C   UNL     1      93.325 121.395 117.684  1.00  0.00    -0.003 C 
ATOM     16  C   UNL     1      91.859 121.737 117.931  1.00  0.00     0.004 C 
ENDBRANCH  14  15
ENDBRANCH  13  14
ENDBRANCH  12  13
ENDBRANCH  11  12
ENDBRANCH  10  11
ENDBRANCH   1  10
TORSDOF 12
ENDMDL
MODEL 9
REMARK VINA RESULT:    -4.563     11.400     14.105
REMARK INTER + INTRA:          -8.571
REMARK INTER:                  -6.403
REMARK INTRA:                  -2.168
REMARK UNBOUND:                -0.808
REMARK SMILES CCCCCCCCCCCCCC(=O)[O-]
REMARK SMILES IDX 8 1 9 2 10 3 11 4 12 5 13 6 14 7 15 8 16 9 7 10 6 11 5 12
REMARK SMILES IDX 4 13 3 14 2 15 1 16
REMARK H PARENT
REMARK Flexibility Score: inf
ROOT
ATOM      1  C   UNL     1      83.611 127.128 130.222  1.00  0.00     0.000 C 
ENDROOT
BRANCH   1   2
ATOM      2  C   UNL     1      85.138 127.185 130.067  1.00  0.00     0.000 C 
BRANCH   2   3
ATOM      3  C   UNL     1      85.590 127.027 128.605  1.00  0.00     0.000 C 
BRANCH   3   4
ATOM      4  C   UNL     1      85.756 125.555 128.185  1.00  0.00     0.000 C 
BRANCH   4   5
ATOM      5  C   UNL     1      84.570 124.958 127.399  1.00  0.00     0.006 C 
BRANCH   5   6
ATOM      6  C   UNL     1      84.719 123.469 127.053  1.00  0.00     0.053 C 
BRANCH   6   7
ATOM      7  C   UNL     1      84.292 123.175 125.648  1.00  0.00     0.041 C 
ATOM      8  O   UNL     1      84.544 122.056 125.129  1.00  0.00    -0.550 OA
ATOM      9  O   UNL     1      83.646 124.151 124.900  1.00  0.00    -0.550 OA
ENDBRANCH   6   7
ENDBRANCH   5   6
ENDBRANCH   4   5
ENDBRANCH   3   4
ENDBRANCH   2   3
ENDBRANCH   1   2
BRANCH   1  10
ATOM     10  C   UNL     1      83.148 125.997 131.153  1.00  0.00     0.000 C 
BRANCH  10  11
ATOM     11  C   UNL     1      82.427 124.896 130.359  1.00  0.00    -0.000 C 
BRANCH  11  12
ATOM     12  C   UNL     1      83.092 123.520 130.518  1.00  0.00    -0.000 C 
BRANCH  12  13
ATOM     13  C   UNL     1      84.311 123.559 131.457  1.00  0.00    -0.000 C 
BRANCH  13  14
ATOM     14  C   UNL     1      85.607 123.113 130.760  1.00  0.00    -0.000 C 
BRANCH  14  15
ATOM     15  C   UNL     1      86.840 123.877 131.265  1.00  0.00    -0.003 C 
ATOM     16  C   UNL     1      86.466 124.847 132.381  1.00  0.00     0.004 C 
ENDBRANCH  14  15
ENDBRANCH  13  14
ENDBRANCH  12  13
ENDBRANCH  11  12
ENDBRANCH  10  11
ENDBRANCH   1  10
TORSDOF 12
ENDMDL
