MODEL 1
REMARK VINA RESULT:    -3.979      0.000      0.000
REMARK INTER + INTRA:          -6.926
REMARK INTER:                  -6.073
REMARK INTRA:                  -0.853
REMARK UNBOUND:                -0.853
REMARK SMILES O=C([O-])CCCCCCCCC(=O)[O-]
REMARK SMILES IDX 7 1 6 2 5 3 4 4 2 5 1 6 3 7 8 8 9 9 10 10 11 11 12 12 13 13
REMARK SMILES IDX 14 14
REMARK H PARENT
REMARK Flexibility Score: inf
ROOT
ATOM      1  C   UNL     1      26.830  27.262 -18.858  1.00  0.00     0.000 C 
ENDROOT
BRANCH   1   2
ATOM      2  C   UNL     1      25.326  26.948 -18.896  1.00  0.00     0.000 C 
BRANCH   2   3
ATOM      3  C   UNL     1      24.509  27.494 -17.708  1.00  0.00     0.006 C 
BRANCH   3   4
ATOM      4  C   UNL     1      25.341  27.737 -16.434  1.00  0.00     0.053 C 
BRANCH   4   5
ATOM      5  C   UNL     1      25.015  29.044 -15.778  1.00  0.00     0.041 C 
ATOM      6  O   UNL     1      24.656  30.031 -16.472  1.00  0.00    -0.550 OA
ATOM      7  O   UNL     1      25.069  29.163 -14.394  1.00  0.00    -0.550 OA
ENDBRANCH   4   5
ENDBRANCH   3   4
ENDBRANCH   2   3
ENDBRANCH   1   2
BRANCH   1   8
ATOM      8  C   UNL     1      27.319  28.013 -20.105  1.00  0.00     0.000 C 
BRANCH   8   9
ATOM      9  C   UNL     1      27.583  29.489 -19.789  1.00  0.00     0.000 C 
BRANCH   9  10
ATOM     10  C   UNL     1      27.879  29.690 -18.295  1.00  0.00     0.006 C 
BRANCH  10  11
ATOM     11  C   UNL     1      27.654  31.139 -17.848  1.00  0.00     0.053 C 
BRANCH  11  12
ATOM     12  C   UNL     1      28.892  31.968 -18.006  1.00  0.00     0.041 C 
ATOM     13  O   UNL     1      28.863  33.029 -18.684  1.00  0.00    -0.550 OA
ATOM     14  O   UNL     1      30.086  31.549 -17.434  1.00  0.00    -0.550 OA
ENDBRANCH  11  12
ENDBRANCH  10  11
ENDBRANCH   9  10
ENDBRANCH   8   9
ENDBRANCH   1   8
TORSDOF 9
ENDMDL
MODEL 2
REMARK VINA RESULT:    -3.724      0.584      4.660
REMARK INTER + INTRA:          -6.536
REMARK INTER:                  -5.798
REMARK INTRA:                  -0.738
REMARK UNBOUND:                -0.853
REMARK SMILES O=C([O-])CCCCCCCCC(=O)[O-]
REMARK SMILES IDX 7 1 6 2 5 3 4 4 2 5 1 6 3 7 8 8 9 9 10 10 11 11 12 12 13 13
REMARK SMILES IDX 14 14
REMARK H PARENT
REMARK Flexibility Score: inf
ROOT
ATOM      1  C   UNL     1      27.540  28.047 -18.821  1.00  0.00     0.000 C 
ENDROOT
BRANCH   1   2
ATOM      2  C   UNL     1      27.153  29.041 -19.930  1.00  0.00     0.000 C 
BRANCH   2   3
ATOM      3  C   UNL     1      27.381  30.527 -19.590  1.00  0.00     0.006 C 
BRANCH   3   4
ATOM      4  C   UNL     1      27.663  30.793 -18.099  1.00  0.00     0.053 C 
BRANCH   4   5
ATOM      5  C   UNL     1      28.740  31.814 -17.893  1.00  0.00     0.041 C 
ATOM      6  O   UNL     1      28.468  33.043 -17.942  1.00  0.00    -0.550 OA
ATOM      7  O   UNL     1      30.038  31.411 -17.606  1.00  0.00    -0.550 OA
ENDBRANCH   4   5
ENDBRANCH   3   4
ENDBRANCH   2   3
ENDBRANCH   1   2
BRANCH   1   8
ATOM      8  C   UNL     1      26.463  26.982 -18.567  1.00  0.00     0.000 C 
BRANCH   8   9
ATOM      9  C   UNL     1      25.065  27.533 -18.867  1.00  0.00     0.000 C 
BRANCH   9  10
ATOM     10  C   UNL     1      24.205  27.576 -17.595  1.00  0.00     0.006 C 
BRANCH  10  11
ATOM     11  C   UNL     1      25.055  27.666 -16.322  1.00  0.00     0.053 C 
BRANCH  11  12
ATOM     12  C   UNL     1      24.962  29.019 -15.686  1.00  0.00     0.041 C 
ATOM     13  O   UNL     1      25.145  29.152 -14.447  1.00  0.00    -0.550 OA
ATOM     14  O   UNL     1      24.640  30.129 -16.458  1.00  0.00    -0.550 OA
ENDBRANCH  11  12
ENDBRANCH  10  11
ENDBRANCH   9  10
ENDBRANCH   8   9
ENDBRANCH   1   8
TORSDOF 9
ENDMDL
MODEL 3
REMARK VINA RESULT:    -3.556     22.270     23.795
REMARK INTER + INTRA:          -6.280
REMARK INTER:                  -5.754
REMARK INTRA:                  -0.526
REMARK UNBOUND:                -0.853
REMARK SMILES O=C([O-])CCCCCCCCC(=O)[O-]
REMARK SMILES IDX 7 1 6 2 5 3 4 4 2 5 1 6 3 7 8 8 9 9 10 10 11 11 12 12 13 13
REMARK SMILES IDX 14 14
REMARK H PARENT
REMARK Flexibility Score: inf
ROOT
ATOM      1  C   UNL     1      36.165  14.982  -4.278  1.00  0.00     0.000 C 
ENDROOT
BRANCH   1   2
ATOM      2  C   UNL     1      36.817  13.662  -4.724  1.00  0.00     0.000 C 
BRANCH   2   3
ATOM      3  C   UNL     1      38.082  13.257  -3.942  1.00  0.00     0.006 C 
BRANCH   3   4
ATOM      4  C   UNL     1      38.604  14.346  -2.985  1.00  0.00     0.053 C 
BRANCH   4   5
ATOM      5  C   UNL     1      39.878  14.970  -3.468  1.00  0.00     0.041 C 
ATOM      6  O   UNL     1      40.591  14.380  -4.321  1.00  0.00    -0.550 OA
ATOM      7  O   UNL     1      40.259  16.225  -3.008  1.00  0.00    -0.550 OA
ENDBRANCH   4   5
ENDBRANCH   3   4
ENDBRANCH   2   3
ENDBRANCH   1   2
BRANCH   1   8
ATOM      8  C   UNL     1      34.994  14.776  -3.308  1.00  0.00     0.000 C 
BRANCH   8   9
ATOM      9  C   UNL     1      34.272  13.454  -3.591  1.00  0.00     0.000 C 
BRANCH   9  10
ATOM     10  C   UNL     1      33.306  13.098  -2.451  1.00  0.00     0.006 C 
BRANCH  10  11
ATOM     11  C   UNL     1      33.289  14.165  -1.349  1.00  0.00     0.053 C 
BRANCH  11  12
ATOM     12  C   UNL     1      31.920  14.343  -0.769  1.00  0.00     0.041 C 
ATOM     13  O   UNL     1      31.179  13.344  -0.572  1.00  0.00    -0.550 OA
ATOM     14  O   UNL     1      31.448  15.617  -0.479  1.00  0.00    -0.550 OA
ENDBRANCH  11  12
ENDBRANCH  10  11
ENDBRANCH   9  10
ENDBRANCH   8   9
ENDBRANCH   1   8
TORSDOF 9
ENDMDL
MODEL 4
REMARK VINA RESULT:    -3.528     13.262     14.984
REMARK INTER + INTRA:          -6.237
REMARK INTER:                  -5.578
REMARK INTRA:                  -0.660
REMARK UNBOUND:                -0.853
REMARK SMILES O=C([O-])CCCCCCCCC(=O)[O-]
REMARK SMILES IDX 7 1 6 2 5 3 4 4 2 5 1 6 3 7 8 8 9 9 10 10 11 11 12 12 13 13
REMARK SMILES IDX 14 14
REMARK H PARENT
REMARK Flexibility Score: inf
ROOT
ATOM      1  C   UNL     1      33.516  14.087 -16.032  1.00  0.00     0.000 C 
ENDROOT
BRANCH   1   2
ATOM      2  C   UNL     1      34.677  14.913 -16.610  1.00  0.00     0.000 C 
BRANCH   2   3
ATOM      3  C   UNL     1      34.361  15.665 -17.918  1.00  0.00     0.006 C 
BRANCH   3   4
ATOM      4  C   UNL     1      34.641  17.178 -17.854  1.00  0.00     0.053 C 
BRANCH   4   5
ATOM      5  C   UNL     1      33.651  17.978 -18.646  1.00  0.00     0.041 C 
ATOM      6  O   UNL     1      33.083  17.472 -19.649  1.00  0.00    -0.550 OA
ATOM      7  O   UNL     1      33.324  19.270 -18.253  1.00  0.00    -0.550 OA
ENDBRANCH   4   5
ENDBRANCH   3   4
ENDBRANCH   2   3
ENDBRANCH   1   2
BRANCH   1   8
ATOM      8  C   UNL     1      32.211  14.248 -16.825  1.00  0.00     0.000 C 
BRANCH   8   9
ATOM      9  C   UNL     1      30.993  14.182 -15.897  1.00  0.00     0.000 C 
BRANCH   9  10
ATOM     10  C   UNL     1      29.882  15.128 -16.378  1.00  0.00     0.006 C 
BRANCH  10  11
ATOM     11  C   UNL     1      30.177  15.714 -17.764  1.00  0.00     0.053 C 
BRANCH  11  12
ATOM     12  C   UNL     1      29.384  16.958 -18.022  1.00  0.00     0.041 C 
ATOM     13  O   UNL     1      29.855  17.872 -18.749  1.00  0.00    -0.550 OA
ATOM     14  O   UNL     1      28.138  17.122 -17.430  1.00  0.00    -0.550 OA
ENDBRANCH  11  12
ENDBRANCH  10  11
ENDBRANCH   9  10
ENDBRANCH   8   9
ENDBRANCH   1   8
TORSDOF 9
ENDMDL
MODEL 5
REMARK VINA RESULT:    -3.526     13.205     14.386
REMARK INTER + INTRA:          -6.234
REMARK INTER:                  -5.528
REMARK INTRA:                  -0.705
REMARK UNBOUND:                -0.853
REMARK SMILES O=C([O-])CCCCCCCCC(=O)[O-]
REMARK SMILES IDX 7 1 6 2 5 3 4 4 2 5 1 6 3 7 8 8 9 9 10 10 11 11 12 12 13 13
REMARK SMILES IDX 14 14
REMARK H PARENT
REMARK Flexibility Score: inf
ROOT
ATOM      1  C   UNL     1      32.234  14.152 -16.821  1.00  0.00     0.000 C 
ENDROOT
BRANCH   1   2
ATOM      2  C   UNL     1      31.029  14.290 -15.875  1.00  0.00     0.000 C 
BRANCH   2   3
ATOM      3  C   UNL     1      29.879  15.173 -16.400  1.00  0.00     0.006 C 
BRANCH   3   4
ATOM      4  C   UNL     1      30.189  15.881 -17.733  1.00  0.00     0.053 C 
BRANCH   4   5
ATOM      5  C   UNL     1      29.321  17.080 -17.960  1.00  0.00     0.041 C 
ATOM      6  O   UNL     1      29.500  17.812 -18.969  1.00  0.00    -0.550 OA
ATOM      7  O   UNL     1      28.284  17.369 -17.080  1.00  0.00    -0.550 OA
ENDBRANCH   4   5
ENDBRANCH   3   4
ENDBRANCH   2   3
ENDBRANCH   1   2
BRANCH   1   8
ATOM      8  C   UNL     1      33.565  13.976 -16.077  1.00  0.00     0.000 C 
BRANCH   8   9
ATOM      9  C   UNL     1      34.610  14.981 -16.573  1.00  0.00     0.000 C 
BRANCH   9  10
ATOM     10  C   UNL     1      34.156  15.646 -17.882  1.00  0.00     0.006 C 
BRANCH  10  11
ATOM     11  C   UNL     1      34.560  17.124 -17.952  1.00  0.00     0.053 C 
BRANCH  11  12
ATOM     12  C   UNL     1      33.491  17.962 -18.583  1.00  0.00     0.041 C 
ATOM     13  O   UNL     1      32.785  17.495 -19.515  1.00  0.00    -0.550 OA
ATOM     14  O   UNL     1      33.298  19.273 -18.163  1.00  0.00    -0.550 OA
ENDBRANCH  11  12
ENDBRANCH  10  11
ENDBRANCH   9  10
ENDBRANCH   8   9
ENDBRANCH   1   8
TORSDOF 9
ENDMDL
MODEL 6
REMARK VINA RESULT:    -3.469      1.330      1.776
REMARK INTER + INTRA:          -6.147
REMARK INTER:                  -5.161
REMARK INTRA:                  -0.986
REMARK UNBOUND:                -0.853
REMARK SMILES O=C([O-])CCCCCCCCC(=O)[O-]
REMARK SMILES IDX 7 1 6 2 5 3 4 4 2 5 1 6 3 7 8 8 9 9 10 10 11 11 12 12 13 13
REMARK SMILES IDX 14 14
REMARK H PARENT
REMARK Flexibility Score: inf
ROOT
ATOM      1  C   UNL     1      26.389  27.465 -17.455  1.00  0.00     0.000 C 
ENDROOT
BRANCH   1   2
ATOM      2  C   UNL     1      25.328  27.405 -18.566  1.00  0.00     0.000 C 
BRANCH   2   3
ATOM      3  C   UNL     1      23.977  28.063 -18.222  1.00  0.00     0.006 C 
BRANCH   3   4
ATOM      4  C   UNL     1      23.937  29.582 -18.475  1.00  0.00     0.053 C 
BRANCH   4   5
ATOM      5  C   UNL     1      23.742  30.367 -17.214  1.00  0.00     0.041 C 
ATOM      6  O   UNL     1      24.586  30.293 -16.282  1.00  0.00    -0.550 OA
ATOM      7  O   UNL     1      22.649  31.215 -17.081  1.00  0.00    -0.550 OA
ENDBRANCH   4   5
ENDBRANCH   3   4
ENDBRANCH   2   3
ENDBRANCH   1   2
BRANCH   1   8
ATOM      8  C   UNL     1      27.658  28.220 -17.876  1.00  0.00     0.000 C 
BRANCH   8   9
ATOM      9  C   UNL     1      27.549  28.712 -19.324  1.00  0.00     0.000 C 
BRANCH   9  10
ATOM     10  C   UNL     1      27.456  30.244 -19.381  1.00  0.00     0.006 C 
BRANCH  10  11
ATOM     11  C   UNL     1      27.578  30.885 -17.993  1.00  0.00     0.053 C 
BRANCH  11  12
ATOM     12  C   UNL     1      28.788  31.762 -17.890  1.00  0.00     0.041 C 
ATOM     13  O   UNL     1      28.684  33.008 -18.040  1.00  0.00    -0.550 OA
ATOM     14  O   UNL     1      30.037  31.197 -17.662  1.00  0.00    -0.550 OA
ENDBRANCH  11  12
ENDBRANCH  10  11
ENDBRANCH   9  10
ENDBRANCH   8   9
ENDBRANCH   1   8
TORSDOF 9
ENDMDL
MODEL 7
REMARK VINA RESULT:    -3.441     13.799     15.191
REMARK INTER + INTRA:          -6.105
REMARK INTER:                  -5.277
REMARK INTRA:                  -0.828
REMARK UNBOUND:                -0.853
REMARK SMILES O=C([O-])CCCCCCCCC(=O)[O-]
REMARK SMILES IDX 7 1 6 2 5 3 4 4 2 5 1 6 3 7 8 8 9 9 10 10 11 11 12 12 13 13
REMARK SMILES IDX 14 14
REMARK H PARENT
REMARK Flexibility Score: inf
ROOT
ATOM      1  C   UNL     1      33.225  18.438 -18.638  1.00  0.00     0.000 C 
ENDROOT
BRANCH   1   2
ATOM      2  C   UNL     1      32.165  17.648 -19.423  1.00  0.00     0.000 C 
BRANCH   2   3
ATOM      3  C   UNL     1      30.841  17.399 -18.673  1.00  0.00     0.006 C 
BRANCH   3   4
ATOM      4  C   UNL     1      30.688  15.966 -18.130  1.00  0.00     0.053 C 
BRANCH   4   5
ATOM      5  C   UNL     1      29.513  15.825 -17.211  1.00  0.00     0.041 C 
ATOM      6  O   UNL     1      28.588  16.679 -17.226  1.00  0.00    -0.550 OA
ATOM      7  O   UNL     1      29.418  14.727 -16.364  1.00  0.00    -0.550 OA
ENDBRANCH   4   5
ENDBRANCH   3   4
ENDBRANCH   2   3
ENDBRANCH   1   2
BRANCH   1   8
ATOM      8  C   UNL     1      34.401  17.567 -18.173  1.00  0.00     0.000 C 
BRANCH   8   9
ATOM      9  C   UNL     1      34.616  16.383 -19.121  1.00  0.00     0.000 C 
BRANCH   9  10
ATOM     10  C   UNL     1      34.439  15.046 -18.385  1.00  0.00     0.006 C 
BRANCH  10  11
ATOM     11  C   UNL     1      34.567  15.200 -16.864  1.00  0.00     0.053 C 
BRANCH  11  12
ATOM     12  C   UNL     1      33.911  14.069 -16.134  1.00  0.00     0.041 C 
ATOM     13  O   UNL     1      32.671  14.092 -15.911  1.00  0.00    -0.550 OA
ATOM     14  O   UNL     1      34.674  13.005 -15.670  1.00  0.00    -0.550 OA
ENDBRANCH  11  12
ENDBRANCH  10  11
ENDBRANCH   9  10
ENDBRANCH   8   9
ENDBRANCH   1   8
TORSDOF 9
ENDMDL
MODEL 8
REMARK VINA RESULT:    -3.413      1.902      2.625
REMARK INTER + INTRA:          -6.061
REMARK INTER:                  -5.011
REMARK INTRA:                  -1.051
REMARK UNBOUND:                -0.853
REMARK SMILES O=C([O-])CCCCCCCCC(=O)[O-]
REMARK SMILES IDX 7 1 6 2 5 3 4 4 2 5 1 6 3 7 8 8 9 9 10 10 11 11 12 12 13 13
REMARK SMILES IDX 14 14
REMARK H PARENT
REMARK Flexibility Score: inf
ROOT
ATOM      1  C   UNL     1      26.313  27.543 -17.207  1.00  0.00     0.000 C 
ENDROOT
BRANCH   1   2
ATOM      2  C   UNL     1      24.798  27.518 -16.947  1.00  0.00     0.000 C 
BRANCH   2   3
ATOM      3  C   UNL     1      23.937  27.021 -18.125  1.00  0.00     0.006 C 
BRANCH   3   4
ATOM      4  C   UNL     1      22.859  28.022 -18.581  1.00  0.00     0.053 C 
BRANCH   4   5
ATOM      5  C   UNL     1      23.410  29.398 -18.796  1.00  0.00     0.041 C 
ATOM      6  O   UNL     1      24.212  29.621 -19.741  1.00  0.00    -0.550 OA
ATOM      7  O   UNL     1      23.007  30.448 -17.979  1.00  0.00    -0.550 OA
ENDBRANCH   4   5
ENDBRANCH   3   4
ENDBRANCH   2   3
ENDBRANCH   1   2
BRANCH   1   8
ATOM      8  C   UNL     1      26.681  27.172 -18.650  1.00  0.00     0.000 C 
BRANCH   8   9
ATOM      9  C   UNL     1      27.421  28.323 -19.342  1.00  0.00     0.000 C 
BRANCH   9  10
ATOM     10  C   UNL     1      27.868  29.382 -18.323  1.00  0.00     0.006 C 
BRANCH  10  11
ATOM     11  C   UNL     1      27.578  30.809 -18.804  1.00  0.00     0.053 C 
BRANCH  11  12
ATOM     12  C   UNL     1      26.581  31.500 -17.924  1.00  0.00     0.041 C 
ATOM     13  O   UNL     1      26.226  32.682 -18.174  1.00  0.00    -0.550 OA
ATOM     14  O   UNL     1      26.072  30.849 -16.808  1.00  0.00    -0.550 OA
ENDBRANCH  11  12
ENDBRANCH  10  11
ENDBRANCH   9  10
ENDBRANCH   8   9
ENDBRANCH   1   8
TORSDOF 9
ENDMDL
MODEL 9
REMARK VINA RESULT:    -3.399     13.776     15.424
REMARK INTER + INTRA:          -6.040
REMARK INTER:                  -5.202
REMARK INTRA:                  -0.838
REMARK UNBOUND:                -0.853
REMARK SMILES O=C([O-])CCCCCCCCC(=O)[O-]
REMARK SMILES IDX 7 1 6 2 5 3 4 4 2 5 1 6 3 7 8 8 9 9 10 10 11 11 12 12 13 13
REMARK SMILES IDX 14 14
REMARK H PARENT
REMARK Flexibility Score: inf
ROOT
ATOM      1  C   UNL     1      34.327  17.590 -18.241  1.00  0.00     0.000 C 
ENDROOT
BRANCH   1   2
ATOM      2  C   UNL     1      34.440  16.340 -19.129  1.00  0.00     0.000 C 
BRANCH   2   3
ATOM      3  C   UNL     1      34.357  14.993 -18.382  1.00  0.00     0.006 C 
BRANCH   3   4
ATOM      4  C   UNL     1      34.495  15.114 -16.853  1.00  0.00     0.053 C 
BRANCH   4   5
ATOM      5  C   UNL     1      33.861  13.967 -16.128  1.00  0.00     0.041 C 
ATOM      6  O   UNL     1      34.573  13.039 -15.661  1.00  0.00    -0.550 OA
ATOM      7  O   UNL     1      32.486  13.939 -15.931  1.00  0.00    -0.550 OA
ENDBRANCH   4   5
ENDBRANCH   3   4
ENDBRANCH   2   3
ENDBRANCH   1   2
BRANCH   1   8
ATOM      8  C   UNL     1      33.125  18.476 -18.600  1.00  0.00     0.000 C 
BRANCH   8   9
ATOM      9  C   UNL     1      32.104  17.701 -19.440  1.00  0.00     0.000 C 
BRANCH   9  10
ATOM     10  C   UNL     1      30.810  17.457 -18.648  1.00  0.00     0.006 C 
BRANCH  10  11
ATOM     11  C   UNL     1      30.710  16.017 -18.130  1.00  0.00     0.053 C 
BRANCH  11  12
ATOM     12  C   UNL     1      29.438  15.787 -17.372  1.00  0.00     0.041 C 
ATOM     13  O   UNL     1      29.088  14.618 -17.060  1.00  0.00    -0.550 OA
ATOM     14  O   UNL     1      28.622  16.861 -17.041  1.00  0.00    -0.550 OA
ENDBRANCH  11  12
ENDBRANCH  10  11
ENDBRANCH   9  10
ENDBRANCH   8   9
ENDBRANCH   1   8
TORSDOF 9
ENDMDL
