MODEL 1
REMARK VINA RESULT:    73.978      0.000      0.000
REMARK INTER + INTRA:         110.785
REMARK INTER:                 110.738
REMARK INTRA:                   0.047
REMARK UNBOUND:                 0.047
REMARK SMILES C=C(CC[C@@H](C(=O)[O-])[C@@H]1[C@@H](O)C[C@@]2(C)C3=C(CC[C@@]12C)[C@]1(C)CC[C@@H](OC(C)=O)C(C)(C)[C@@H]1CC3)C(C)C
REMARK SMILES IDX 4 1 5 2 6 3 7 4 8 5 9 6 10 7 19 8 12 9 13 10 18 11 20 12
REMARK SMILES IDX 14 13 15 14 17 15 16 16 35 17 21 18 34 19 33 20 23 21 22 22
REMARK SMILES IDX 30 23 24 24 25 25 31 26 32 27 11 28 26 30 27 31 29 32 28 33
REMARK SMILES IDX 3 34 2 35 1 36 36 37 37 38 38 39
REMARK H PARENT 11 29
REMARK Flexibility Score: inf
ROOT
ATOM      1  C   UNL     1       9.140  67.721   6.873  1.00  0.00     0.014 C 
ENDROOT
BRANCH   1   2
ATOM      2  C   UNL     1       8.856  68.287   5.452  1.00  0.00     0.042 C 
BRANCH   2   3
ATOM      3  C   UNL     1       7.474  67.936   4.931  1.00  0.00     0.045 C 
ATOM      4  O   UNL     1       7.120  66.729   4.792  1.00  0.00    -0.550 OA
ATOM      5  O   UNL     1       6.590  68.939   4.547  1.00  0.00    -0.550 OA
ENDBRANCH   2   3
BRANCH   2   6
ATOM      6  C   UNL     1       9.369  69.734   5.064  1.00  0.00     0.033 C 
ATOM      7  C   UNL     1      10.322  69.752   3.867  1.00  0.00     0.119 C 
ATOM      8  C   UNL     1       9.944  70.798   6.101  1.00  0.00    -0.017 C 
ATOM      9  C   UNL     1      10.862  71.179   3.817  1.00  0.00     0.043 C 
ATOM     10  C   UNL     1      11.085  71.590   5.297  1.00  0.00    -0.003 C 
ATOM     11  C   UNL     1       8.791  71.771   6.545  1.00  0.00     0.012 C 
ATOM     12  C   UNL     1      10.483  70.173   7.413  1.00  0.00     0.013 C 
ATOM     13  C   UNL     1      12.535  71.133   5.663  1.00  0.00     0.017 C 
ATOM     14  C   UNL     1      10.943  73.136   5.395  1.00  0.00    -0.064 C 
ATOM     15  C   UNL     1       8.484  72.861   5.504  1.00  0.00     0.032 C 
ATOM     16  C   UNL     1       9.717  73.723   5.270  1.00  0.00    -0.064 C 
ATOM     17  C   UNL     1      12.146  74.060   5.516  1.00  0.00     0.032 C 
ATOM     18  C   UNL     1       9.632  75.178   4.717  1.00  0.00    -0.008 C 
ATOM     19  C   UNL     1      11.725  75.315   6.277  1.00  0.00     0.009 C 
ATOM     20  C   UNL     1      10.670  76.144   5.474  1.00  0.00     0.009 C 
ATOM     21  C   UNL     1       9.926  75.043   3.187  1.00  0.00     0.015 C 
ATOM     22  C   UNL     1       8.184  75.737   4.878  1.00  0.00     0.016 C 
ATOM     23  C   UNL     1      11.267  77.369   4.616  1.00  0.00     0.005 C 
ATOM     24  C   UNL     1      10.247  76.355   2.493  1.00  0.00     0.047 C 
ATOM     25  C   UNL     1      11.489  76.986   3.116  1.00  0.00     0.182 C 
ATOM     26  C   UNL     1      12.640  77.858   5.169  1.00  0.00     0.015 C 
ATOM     27  C   UNL     1      10.325  78.602   4.726  1.00  0.00     0.015 C 
BRANCH   7  28
ATOM     28  O   UNL     1       9.690  69.381   2.661  1.00  0.00    -0.393 OA
ATOM     29  H   UNL     1      10.388  69.247   1.964  1.00  0.00     0.210 HD
ENDBRANCH   7  28
BRANCH  25  30
ATOM     30  O   UNL     1      11.843  78.130   2.331  1.00  0.00    -0.462 OA
BRANCH  30  31
ATOM     31  C   UNL     1      12.327  78.068   1.020  1.00  0.00     0.302 C 
ATOM     32  O   UNL     1      12.542  76.957   0.451  1.00  0.00    -0.253 OA
ATOM     33  C   UNL     1      12.670  79.342   0.325  1.00  0.00     0.139 C 
ENDBRANCH  30  31
ENDBRANCH  25  30
ENDBRANCH   2   6
ENDBRANCH   1   2
BRANCH   1  34
ATOM     34  C   UNL     1       8.489  66.371   7.228  1.00  0.00     0.031 C 
BRANCH  34  35
ATOM     35  C   UNL     1       9.485  65.441   7.916  1.00  0.00    -0.075 C 
ATOM     36  C   UNL     1       9.135  64.158   8.146  1.00  0.00     0.008 C 
BRANCH  35  37
ATOM     37  C   UNL     1      10.873  65.950   8.296  1.00  0.00     0.008 C 
ATOM     38  C   UNL     1      11.094  65.914   9.815  1.00  0.00     0.012 C 
ATOM     39  C   UNL     1      11.972  65.168   7.561  1.00  0.00     0.012 C 
ENDBRANCH  35  37
ENDBRANCH  34  35
ENDBRANCH   1  34
TORSDOF 9
ENDMDL
