MODEL 1
REMARK VINA RESULT:    -2.896      0.000      0.000
REMARK INTER + INTRA:          -3.300
REMARK INTER:                  -3.150
REMARK INTRA:                  -0.150
REMARK UNBOUND:                -0.150
REMARK SMILES CC(=O)[C@@H]1CC[C@@H]2[C@H]3CC=C4C[C@H](O)CC[C@]4(C)[C@H]3CC[C@]21C
REMARK SMILES IDX 4 1 5 2 6 3 7 4 22 5 21 6 20 7 19 8 8 9 9 10 10 11 11 12
REMARK SMILES IDX 17 13 16 14 15 15 13 16 12 17 18 18 23 19 2 20 1 21 3 22
REMARK SMILES IDX 14 23
REMARK H PARENT 14 24
REMARK Flexibility Score: inf
ROOT
ATOM      1  C   UNL     1       3.084  41.093  12.898  1.00  0.00     0.062 C 
ATOM      2  C   UNL     1       1.621  40.768  13.287  1.00  0.00     0.012 C 
ATOM      3  C   UNL     1       0.759  41.923  12.750  1.00  0.00     0.005 C 
ATOM      4  C   UNL     1       1.759  42.903  12.143  1.00  0.00    -0.001 C 
ATOM      5  C   UNL     1       2.943  42.039  11.678  1.00  0.00    -0.020 C 
ATOM      6  C   UNL     1       4.177  42.954  11.417  1.00  0.00     0.008 C 
ATOM      7  C   UNL     1       3.809  44.432  11.120  1.00  0.00     0.005 C 
ATOM      8  C   UNL     1       2.461  44.616  10.352  1.00  0.00     0.003 C 
ATOM      9  C   UNL     1       1.255  43.861  11.039  1.00  0.00     0.000 C 
ATOM     10  C   UNL     1       0.195  44.818  11.592  1.00  0.00     0.031 C 
ATOM     11  C   UNL     1      -0.231  45.775  10.523  1.00  0.00    -0.027 C 
ATOM     12  C   UNL     1       0.671  46.364   9.714  1.00  0.00    -0.065 C 
ATOM     13  C   UNL     1       2.173  46.132   9.941  1.00  0.00    -0.008 C 
ATOM     14  C   UNL     1       2.967  46.440   8.629  1.00  0.00     0.014 C 
ATOM     15  C   UNL     1       2.522  47.724   7.917  1.00  0.00     0.033 C 
ATOM     16  C   UNL     1       1.035  47.659   7.559  1.00  0.00     0.118 C 
ATOM     17  C   UNL     1       0.187  47.497   8.826  1.00  0.00     0.063 C 
ATOM     18  C   UNL     1       2.631  47.130  11.041  1.00  0.00     0.016 C 
ATOM     19  C   UNL     1       2.615  41.213  10.391  1.00  0.00     0.012 C 
ENDROOT
BRANCH   1  20
ATOM     20  C   UNL     1       3.995  39.892  12.682  1.00  0.00     0.133 C 
ATOM     21  C   UNL     1       3.475  38.495  12.470  1.00  0.00     0.088 C 
ATOM     22  O   UNL     1       5.205  40.057  12.719  1.00  0.00    -0.300 OA
ENDBRANCH   1  20
BRANCH  16  23
ATOM     23  O   UNL     1       0.802  46.596   6.672  1.00  0.00    -0.393 OA
ATOM     24  H   UNL     1      -0.182  46.476   6.618  1.00  0.00     0.210 HD
ENDBRANCH  16  23
TORSDOF 2
ENDMDL
MODEL 2
REMARK VINA RESULT:    -2.642      1.317      6.974
REMARK INTER + INTRA:          -3.023
REMARK INTER:                  -3.753
REMARK INTRA:                   0.730
REMARK UNBOUND:                -0.150
REMARK SMILES CC(=O)[C@@H]1CC[C@@H]2[C@H]3CC=C4C[C@H](O)CC[C@]4(C)[C@H]3CC[C@]21C
REMARK SMILES IDX 4 1 5 2 6 3 7 4 22 5 21 6 20 7 19 8 8 9 9 10 10 11 11 12
REMARK SMILES IDX 17 13 16 14 15 15 13 16 12 17 18 18 23 19 2 20 1 21 3 22
REMARK SMILES IDX 14 23
REMARK H PARENT 14 24
REMARK Flexibility Score: inf
ROOT
ATOM      1  C   UNL     1       0.662  47.352   8.566  1.00  0.00     0.062 C 
ATOM      2  C   UNL     1       2.023  47.640   7.887  1.00  0.00     0.012 C 
ATOM      3  C   UNL     1       3.041  46.677   8.522  1.00  0.00     0.005 C 
ATOM      4  C   UNL     1       2.251  45.928   9.591  1.00  0.00    -0.001 C 
ATOM      5  C   UNL     1       0.802  45.895   9.076  1.00  0.00    -0.020 C 
ATOM      6  C   UNL     1      -0.154  45.521  10.250  1.00  0.00     0.008 C 
ATOM      7  C   UNL     1       0.543  44.748  11.401  1.00  0.00     0.005 C 
ATOM      8  C   UNL     1       1.695  43.801  10.934  1.00  0.00     0.003 C 
ATOM      9  C   UNL     1       2.758  44.533  10.022  1.00  0.00     0.000 C 
ATOM     10  C   UNL     1       4.136  44.636  10.684  1.00  0.00     0.031 C 
ATOM     11  C   UNL     1       4.577  43.284  11.148  1.00  0.00    -0.027 C 
ATOM     12  C   UNL     1       3.727  42.451  11.779  1.00  0.00    -0.065 C 
ATOM     13  C   UNL     1       2.302  42.918  12.117  1.00  0.00    -0.008 C 
ATOM     14  C   UNL     1       1.369  41.681  12.331  1.00  0.00     0.014 C 
ATOM     15  C   UNL     1       1.995  40.566  13.177  1.00  0.00     0.033 C 
ATOM     16  C   UNL     1       3.294  40.066  12.540  1.00  0.00     0.118 C 
ATOM     17  C   UNL     1       4.310  41.208  12.429  1.00  0.00     0.063 C 
ATOM     18  C   UNL     1       2.384  43.711  13.452  1.00  0.00     0.016 C 
ATOM     19  C   UNL     1       0.606  44.889   7.895  1.00  0.00     0.012 C 
ENDROOT
BRANCH   1  20
ATOM     20  C   UNL     1      -0.573  47.623   7.717  1.00  0.00     0.133 C 
ATOM     21  C   UNL     1      -1.123  46.631   6.728  1.00  0.00     0.088 C 
ATOM     22  O   UNL     1      -1.125  48.710   7.810  1.00  0.00    -0.300 OA
ENDBRANCH   1  20
BRANCH  16  23
ATOM     23  O   UNL     1       3.028  39.521  11.273  1.00  0.00    -0.393 OA
ATOM     24  H   UNL     1       3.893  39.487  10.786  1.00  0.00     0.210 HD
ENDBRANCH  16  23
TORSDOF 2
ENDMDL
MODEL 3
REMARK VINA RESULT:    -1.941      2.152      7.301
REMARK INTER + INTRA:          -2.261
REMARK INTER:                  -2.925
REMARK INTRA:                   0.664
REMARK UNBOUND:                -0.150
REMARK SMILES CC(=O)[C@@H]1CC[C@@H]2[C@H]3CC=C4C[C@H](O)CC[C@]4(C)[C@H]3CC[C@]21C
REMARK SMILES IDX 4 1 5 2 6 3 7 4 22 5 21 6 20 7 19 8 8 9 9 10 10 11 11 12
REMARK SMILES IDX 17 13 16 14 15 15 13 16 12 17 18 18 23 19 2 20 1 21 3 22
REMARK SMILES IDX 14 23
REMARK H PARENT 14 24
REMARK Flexibility Score: inf
ROOT
ATOM      1  C   UNL     1      -0.222  48.495   7.249  1.00  0.00     0.062 C 
ATOM      2  C   UNL     1      -1.120  47.510   6.461  1.00  0.00     0.012 C 
ATOM      3  C   UNL     1      -0.659  46.095   6.845  1.00  0.00     0.005 C 
ATOM      4  C   UNL     1       0.530  46.313   7.775  1.00  0.00    -0.001 C 
ATOM      5  C   UNL     1       0.264  47.663   8.463  1.00  0.00    -0.020 C 
ATOM      6  C   UNL     1       1.583  48.176   9.118  1.00  0.00     0.008 C 
ATOM      7  C   UNL     1       2.605  47.052   9.429  1.00  0.00     0.005 C 
ATOM      8  C   UNL     1       1.958  45.685   9.825  1.00  0.00     0.003 C 
ATOM      9  C   UNL     1       0.878  45.193   8.782  1.00  0.00     0.000 C 
ATOM     10  C   UNL     1       1.300  43.916   8.050  1.00  0.00     0.031 C 
ATOM     11  C   UNL     1       1.691  42.868   9.045  1.00  0.00    -0.027 C 
ATOM     12  C   UNL     1       2.459  43.169  10.110  1.00  0.00    -0.065 C 
ATOM     13  C   UNL     1       3.027  44.588  10.271  1.00  0.00    -0.008 C 
ATOM     14  C   UNL     1       3.400  44.849  11.767  1.00  0.00     0.014 C 
ATOM     15  C   UNL     1       4.135  43.683  12.441  1.00  0.00     0.033 C 
ATOM     16  C   UNL     1       3.293  42.406  12.385  1.00  0.00     0.118 C 
ATOM     17  C   UNL     1       3.009  42.015  10.930  1.00  0.00     0.063 C 
ATOM     18  C   UNL     1       4.326  44.661   9.420  1.00  0.00     0.016 C 
ATOM     19  C   UNL     1      -0.863  47.575   9.543  1.00  0.00     0.012 C 
ENDROOT
BRANCH   1  20
ATOM     20  C   UNL     1      -0.856  49.836   7.598  1.00  0.00     0.133 C 
ATOM     21  C   UNL     1      -1.125  50.907   6.576  1.00  0.00     0.088 C 
ATOM     22  O   UNL     1      -1.124  50.073   8.766  1.00  0.00    -0.300 OA
ENDBRANCH   1  20
BRANCH  16  23
ATOM     23  O   UNL     1       2.091  42.593  13.087  1.00  0.00    -0.393 OA
ATOM     24  H   UNL     1       2.169  43.458  13.568  1.00  0.00     0.210 HD
ENDBRANCH  16  23
TORSDOF 2
ENDMDL
MODEL 4
REMARK VINA RESULT:    -1.820      1.419      7.079
REMARK INTER + INTRA:          -2.129
REMARK INTER:                  -2.044
REMARK INTRA:                  -0.086
REMARK UNBOUND:                -0.150
REMARK SMILES CC(=O)[C@@H]1CC[C@@H]2[C@H]3CC=C4C[C@H](O)CC[C@]4(C)[C@H]3CC[C@]21C
REMARK SMILES IDX 4 1 5 2 6 3 7 4 22 5 21 6 20 7 19 8 8 9 9 10 10 11 11 12
REMARK SMILES IDX 17 13 16 14 15 15 13 16 12 17 18 18 23 19 2 20 1 21 3 22
REMARK SMILES IDX 14 23
REMARK H PARENT 14 24
REMARK Flexibility Score: inf
ROOT
ATOM      1  C   UNL     1       2.073  46.251  10.126  1.00  0.00     0.062 C 
ATOM      2  C   UNL     1       3.583  46.411   9.824  1.00  0.00     0.012 C 
ATOM      3  C   UNL     1       4.280  45.170  10.408  1.00  0.00     0.005 C 
ATOM      4  C   UNL     1       3.164  44.384  11.089  1.00  0.00    -0.001 C 
ATOM      5  C   UNL     1       1.889  44.722  10.298  1.00  0.00    -0.020 C 
ATOM      6  C   UNL     1       0.639  44.306  11.133  1.00  0.00     0.008 C 
ATOM      7  C   UNL     1       0.930  43.205  12.187  1.00  0.00     0.005 C 
ATOM      8  C   UNL     1       2.021  42.173  11.755  1.00  0.00     0.003 C 
ATOM      9  C   UNL     1       3.360  42.862  11.274  1.00  0.00     0.000 C 
ATOM     10  C   UNL     1       4.541  42.576  12.207  1.00  0.00     0.031 C 
ATOM     11  C   UNL     1       4.671  41.100  12.421  1.00  0.00    -0.027 C 
ATOM     12  C   UNL     1       3.590  40.330  12.653  1.00  0.00    -0.065 C 
ATOM     13  C   UNL     1       2.203  40.977  12.796  1.00  0.00    -0.008 C 
ATOM     14  C   UNL     1       1.086  39.916  12.520  1.00  0.00     0.014 C 
ATOM     15  C   UNL     1       1.336  38.559  13.189  1.00  0.00     0.033 C 
ATOM     16  C   UNL     1       2.669  37.964  12.730  1.00  0.00     0.118 C 
ATOM     17  C   UNL     1       3.827  38.898  13.099  1.00  0.00     0.063 C 
ATOM     18  C   UNL     1       2.071  41.460  14.267  1.00  0.00     0.016 C 
ATOM     19  C   UNL     1       1.846  44.023   8.899  1.00  0.00     0.012 C 
ENDROOT
BRANCH   1  20
ATOM     20  C   UNL     1       1.125  46.908   9.132  1.00  0.00     0.133 C 
ATOM     21  C   UNL     1       1.601  47.695   7.941  1.00  0.00     0.088 C 
ATOM     22  O   UNL     1      -0.079  46.828   9.326  1.00  0.00    -0.300 OA
ENDBRANCH   1  20
BRANCH  16  23
ATOM     23  O   UNL     1       2.642  37.739  11.344  1.00  0.00    -0.393 OA
ATOM     24  H   UNL     1       3.568  37.511  11.070  1.00  0.00     0.210 HD
ENDBRANCH  16  23
TORSDOF 2
ENDMDL
MODEL 5
REMARK VINA RESULT:    -0.950      1.818      3.580
REMARK INTER + INTRA:          -1.183
REMARK INTER:                  -1.723
REMARK INTRA:                   0.540
REMARK UNBOUND:                -0.150
REMARK SMILES CC(=O)[C@@H]1CC[C@@H]2[C@H]3CC=C4C[C@H](O)CC[C@]4(C)[C@H]3CC[C@]21C
REMARK SMILES IDX 4 1 5 2 6 3 7 4 22 5 21 6 20 7 19 8 8 9 9 10 10 11 11 12
REMARK SMILES IDX 17 13 16 14 15 15 13 16 12 17 18 18 23 19 2 20 1 21 3 22
REMARK SMILES IDX 14 23
REMARK H PARENT 14 24
REMARK Flexibility Score: inf
ROOT
ATOM      1  C   UNL     1       2.773  42.432  11.170  1.00  0.00     0.062 C 
ATOM      2  C   UNL     1       4.297  42.699  11.135  1.00  0.00     0.012 C 
ATOM      3  C   UNL     1       4.496  43.994  10.330  1.00  0.00     0.005 C 
ATOM      4  C   UNL     1       3.095  44.382   9.867  1.00  0.00    -0.001 C 
ATOM      5  C   UNL     1       2.146  43.832  10.945  1.00  0.00    -0.020 C 
ATOM      6  C   UNL     1       0.690  43.811  10.387  1.00  0.00     0.008 C 
ATOM      7  C   UNL     1       0.451  44.811   9.225  1.00  0.00     0.005 C 
ATOM      8  C   UNL     1       1.281  46.131   9.332  1.00  0.00     0.003 C 
ATOM      9  C   UNL     1       2.826  45.869   9.543  1.00  0.00     0.000 C 
ATOM     10  C   UNL     1       3.672  46.328   8.352  1.00  0.00     0.031 C 
ATOM     11  C   UNL     1       3.348  47.750   8.018  1.00  0.00    -0.027 C 
ATOM     12  C   UNL     1       2.074  48.186   7.985  1.00  0.00    -0.065 C 
ATOM     13  C   UNL     1       0.917  47.197   8.201  1.00  0.00    -0.008 C 
ATOM     14  C   UNL     1      -0.369  47.965   8.650  1.00  0.00     0.014 C 
ATOM     15  C   UNL     1      -0.640  49.248   7.854  1.00  0.00     0.033 C 
ATOM     16  C   UNL     1       0.543  50.213   7.962  1.00  0.00     0.118 C 
ATOM     17  C   UNL     1       1.815  49.565   7.405  1.00  0.00     0.063 C 
ATOM     18  C   UNL     1       0.633  46.518   6.831  1.00  0.00     0.016 C 
ATOM     19  C   UNL     1       2.193  44.663  12.268  1.00  0.00     0.012 C 
ENDROOT
BRANCH   1  20
ATOM     20  C   UNL     1       2.259  41.684  12.393  1.00  0.00     0.133 C 
ATOM     21  C   UNL     1       2.850  40.385  12.870  1.00  0.00     0.088 C 
ATOM     22  O   UNL     1       1.296  42.135  12.997  1.00  0.00    -0.300 OA
ENDBRANCH   1  20
BRANCH  16  23
ATOM     23  O   UNL     1       0.732  50.593   9.301  1.00  0.00    -0.393 OA
ATOM     24  H   UNL     1       1.254  51.437   9.291  1.00  0.00     0.210 HD
ENDBRANCH  16  23
TORSDOF 2
ENDMDL
MODEL 6
REMARK VINA RESULT:    -0.519      1.641      2.628
REMARK INTER + INTRA:          -0.714
REMARK INTER:                  -1.378
REMARK INTRA:                   0.665
REMARK UNBOUND:                -0.150
REMARK SMILES CC(=O)[C@@H]1CC[C@@H]2[C@H]3CC=C4C[C@H](O)CC[C@]4(C)[C@H]3CC[C@]21C
REMARK SMILES IDX 4 1 5 2 6 3 7 4 22 5 21 6 20 7 19 8 8 9 9 10 10 11 11 12
REMARK SMILES IDX 17 13 16 14 15 15 13 16 12 17 18 18 23 19 2 20 1 21 3 22
REMARK SMILES IDX 14 23
REMARK H PARENT 14 24
REMARK Flexibility Score: inf
ROOT
ATOM      1  C   UNL     1       3.897  41.554  11.943  1.00  0.00     0.062 C 
ATOM      2  C   UNL     1       4.723  42.396  12.946  1.00  0.00     0.012 C 
ATOM      3  C   UNL     1       4.520  43.869  12.553  1.00  0.00     0.005 C 
ATOM      4  C   UNL     1       3.653  43.818  11.298  1.00  0.00    -0.001 C 
ATOM      5  C   UNL     1       2.812  42.539  11.437  1.00  0.00    -0.020 C 
ATOM      6  C   UNL     1       2.196  42.174  10.052  1.00  0.00     0.008 C 
ATOM      7  C   UNL     1       2.073  43.381   9.085  1.00  0.00     0.005 C 
ATOM      8  C   UNL     1       1.779  44.744   9.792  1.00  0.00     0.003 C 
ATOM      9  C   UNL     1       2.794  45.059  10.962  1.00  0.00     0.000 C 
ATOM     10  C   UNL     1       3.682  46.271  10.665  1.00  0.00     0.031 C 
ATOM     11  C   UNL     1       2.831  47.440  10.281  1.00  0.00    -0.027 C 
ATOM     12  C   UNL     1       1.793  47.300   9.433  1.00  0.00    -0.065 C 
ATOM     13  C   UNL     1       1.523  45.941   8.769  1.00  0.00    -0.008 C 
ATOM     14  C   UNL     1       0.035  45.865   8.291  1.00  0.00     0.014 C 
ATOM     15  C   UNL     1      -0.462  47.136   7.592  1.00  0.00     0.033 C 
ATOM     16  C   UNL     1      -0.329  48.350   8.514  1.00  0.00     0.118 C 
ATOM     17  C   UNL     1       1.136  48.565   8.908  1.00  0.00     0.063 C 
ATOM     18  C   UNL     1       2.446  45.849   7.521  1.00  0.00     0.016 C 
ATOM     19  C   UNL     1       1.675  42.680  12.501  1.00  0.00     0.012 C 
ENDROOT
BRANCH   1  20
ATOM     20  C   UNL     1       3.369  40.226  12.469  1.00  0.00     0.133 C 
ATOM     21  C   UNL     1       4.184  38.960  12.469  1.00  0.00     0.088 C 
ATOM     22  O   UNL     1       2.218  40.170  12.875  1.00  0.00    -0.300 OA
ENDBRANCH   1  20
BRANCH  16  23
ATOM     23  O   UNL     1      -1.125  48.173   9.658  1.00  0.00    -0.393 OA
ATOM     24  H   UNL     1      -1.215  47.195   9.798  1.00  0.00     0.210 HD
ENDBRANCH  16  23
TORSDOF 2
ENDMDL
MODEL 7
REMARK VINA RESULT:    -0.285      2.270      3.734
REMARK INTER + INTRA:          -0.460
REMARK INTER:                  -0.653
REMARK INTRA:                   0.193
REMARK UNBOUND:                -0.150
REMARK SMILES CC(=O)[C@@H]1CC[C@@H]2[C@H]3CC=C4C[C@H](O)CC[C@]4(C)[C@H]3CC[C@]21C
REMARK SMILES IDX 4 1 5 2 6 3 7 4 22 5 21 6 20 7 19 8 8 9 9 10 10 11 11 12
REMARK SMILES IDX 17 13 16 14 15 15 13 16 12 17 18 18 23 19 2 20 1 21 3 22
REMARK SMILES IDX 14 23
REMARK H PARENT 14 24
REMARK Flexibility Score: inf
ROOT
ATOM      1  C   UNL     1       0.426  40.875  13.760  1.00  0.00     0.062 C 
ATOM      2  C   UNL     1       1.607  39.885  13.612  1.00  0.00     0.012 C 
ATOM      3  C   UNL     1       2.543  40.477  12.545  1.00  0.00     0.005 C 
ATOM      4  C   UNL     1       1.834  41.739  12.065  1.00  0.00    -0.001 C 
ATOM      5  C   UNL     1       1.010  42.225  13.269  1.00  0.00    -0.020 C 
ATOM      6  C   UNL     1      -0.054  43.257  12.784  1.00  0.00     0.008 C 
ATOM      7  C   UNL     1       0.315  43.953  11.447  1.00  0.00     0.005 C 
ATOM      8  C   UNL     1       1.847  44.181  11.243  1.00  0.00     0.003 C 
ATOM      9  C   UNL     1       2.696  42.863  11.446  1.00  0.00     0.000 C 
ATOM     10  C   UNL     1       3.365  42.385  10.153  1.00  0.00     0.031 C 
ATOM     11  C   UNL     1       4.142  43.508   9.540  1.00  0.00    -0.027 C 
ATOM     12  C   UNL     1       3.630  44.751   9.465  1.00  0.00    -0.065 C 
ATOM     13  C   UNL     1       2.189  45.018   9.928  1.00  0.00    -0.008 C 
ATOM     14  C   UNL     1       2.003  46.537  10.254  1.00  0.00     0.014 C 
ATOM     15  C   UNL     1       2.627  47.479   9.217  1.00  0.00     0.033 C 
ATOM     16  C   UNL     1       4.128  47.212   9.075  1.00  0.00     0.118 C 
ATOM     17  C   UNL     1       4.373  45.769   8.618  1.00  0.00     0.063 C 
ATOM     18  C   UNL     1       1.251  44.650   8.743  1.00  0.00     0.016 C 
ATOM     19  C   UNL     1       1.897  42.866  14.386  1.00  0.00     0.012 C 
ENDROOT
BRANCH   1  20
ATOM     20  C   UNL     1      -0.235  40.919  15.132  1.00  0.00     0.133 C 
ATOM     21  C   UNL     1      -1.124  42.047  15.580  1.00  0.00     0.088 C 
ATOM     22  O   UNL     1      -0.005  40.017  15.925  1.00  0.00    -0.300 OA
ENDBRANCH   1  20
BRANCH  16  23
ATOM     23  O   UNL     1       4.777  47.457  10.296  1.00  0.00    -0.393 OA
ATOM     24  H   UNL     1       5.753  47.418  10.117  1.00  0.00     0.210 HD
ENDBRANCH  16  23
TORSDOF 2
ENDMDL
