MODEL 1
REMARK VINA RESULT:    -3.890      0.000      0.000
REMARK INTER + INTRA:          -9.366
REMARK INTER:                  -7.301
REMARK INTRA:                  -2.064
REMARK UNBOUND:                -2.064
REMARK SMILES O=C([O-])CCCCCCCCCCCCCCC(=O)[O-]
REMARK SMILES IDX 10 1 9 2 8 3 7 4 6 5 5 6 4 7 2 8 1 9 3 10 11 11 12 12 13 13
REMARK SMILES IDX 14 14 15 15 16 16 17 17 18 18 19 19 20 20
REMARK H PARENT
REMARK Flexibility Score: inf
ROOT
ATOM      1  C   UNL     1       1.839   7.395  -8.675  1.00  0.00     0.000 C 
ENDROOT
BRANCH   1   2
ATOM      2  C   UNL     1       2.434   8.363  -9.712  1.00  0.00     0.000 C 
BRANCH   2   3
ATOM      3  C   UNL     1       2.147   7.913 -11.156  1.00  0.00     0.000 C 
BRANCH   3   4
ATOM      4  C   UNL     1       1.444   8.997 -12.005  1.00  0.00     0.000 C 
BRANCH   4   5
ATOM      5  C   UNL     1       0.613   9.986 -11.170  1.00  0.00     0.000 C 
BRANCH   5   6
ATOM      6  C   UNL     1       0.674  11.419 -11.714  1.00  0.00     0.006 C 
BRANCH   6   7
ATOM      7  C   UNL     1       2.092  11.989 -11.605  1.00  0.00     0.053 C 
BRANCH   7   8
ATOM      8  C   UNL     1       2.453  12.216 -10.170  1.00  0.00     0.041 C 
ATOM      9  O   UNL     1       1.702  12.902  -9.427  1.00  0.00    -0.550 OA
ATOM     10  O   UNL     1       3.645  11.712  -9.665  1.00  0.00    -0.550 OA
ENDBRANCH   7   8
ENDBRANCH   6   7
ENDBRANCH   5   6
ENDBRANCH   4   5
ENDBRANCH   3   4
ENDBRANCH   2   3
ENDBRANCH   1   2
BRANCH   1  11
ATOM     11  C   UNL     1       0.745   8.050  -7.815  1.00  0.00     0.000 C 
BRANCH  11  12
ATOM     12  C   UNL     1      -0.646   7.960  -8.458  1.00  0.00     0.000 C 
BRANCH  12  13
ATOM     13  C   UNL     1      -0.801   6.657  -9.251  1.00  0.00     0.000 C 
BRANCH  13  14
ATOM     14  C   UNL     1      -1.391   6.925 -10.641  1.00  0.00     0.000 C 
BRANCH  14  15
ATOM     15  C   UNL     1      -2.825   7.457 -10.538  1.00  0.00     0.000 C 
BRANCH  15  16
ATOM     16  C   UNL     1      -2.956   8.824 -11.219  1.00  0.00     0.006 C 
BRANCH  16  17
ATOM     17  C   UNL     1      -4.408   9.104 -11.615  1.00  0.00     0.053 C 
BRANCH  17  18
ATOM     18  C   UNL     1      -4.994  10.167 -10.740  1.00  0.00     0.041 C 
ATOM     19  O   UNL     1      -6.240  10.346 -10.706  1.00  0.00    -0.550 OA
ATOM     20  O   UNL     1      -4.160  10.997 -10.001  1.00  0.00    -0.550 OA
ENDBRANCH  17  18
ENDBRANCH  16  17
ENDBRANCH  15  16
ENDBRANCH  14  15
ENDBRANCH  13  14
ENDBRANCH  12  13
ENDBRANCH  11  12
ENDBRANCH   1  11
TORSDOF 15
ENDMDL
MODEL 2
REMARK VINA RESULT:    -3.811      0.455      5.714
REMARK INTER + INTRA:          -9.217
REMARK INTER:                  -7.237
REMARK INTRA:                  -1.979
REMARK UNBOUND:                -2.064
REMARK SMILES O=C([O-])CCCCCCCCCCCCCCC(=O)[O-]
REMARK SMILES IDX 10 1 9 2 8 3 7 4 6 5 5 6 4 7 2 8 1 9 3 10 11 11 12 12 13 13
REMARK SMILES IDX 14 14 15 15 16 16 17 17 18 18 19 19 20 20
REMARK H PARENT
REMARK Flexibility Score: inf
ROOT
ATOM      1  C   UNL     1       0.773   8.305  -8.007  1.00  0.00     0.000 C 
ENDROOT
BRANCH   1   2
ATOM      2  C   UNL     1      -0.660   7.881  -8.373  1.00  0.00     0.000 C 
BRANCH   2   3
ATOM      3  C   UNL     1      -0.683   6.636  -9.278  1.00  0.00     0.000 C 
BRANCH   3   4
ATOM      4  C   UNL     1      -1.342   6.892 -10.653  1.00  0.00     0.000 C 
BRANCH   4   5
ATOM      5  C   UNL     1      -2.800   7.373 -10.554  1.00  0.00     0.000 C 
BRANCH   5   6
ATOM      6  C   UNL     1      -2.976   8.829 -11.003  1.00  0.00     0.006 C 
BRANCH   6   7
ATOM      7  C   UNL     1      -4.404   9.082 -11.498  1.00  0.00     0.053 C 
BRANCH   7   8
ATOM      8  C   UNL     1      -4.990  10.276 -10.811  1.00  0.00     0.041 C 
ATOM      9  O   UNL     1      -4.238  11.133 -10.276  1.00  0.00    -0.550 OA
ATOM     10  O   UNL     1      -6.369  10.418 -10.719  1.00  0.00    -0.550 OA
ENDBRANCH   7   8
ENDBRANCH   6   7
ENDBRANCH   5   6
ENDBRANCH   4   5
ENDBRANCH   3   4
ENDBRANCH   2   3
ENDBRANCH   1   2
BRANCH   1  11
ATOM     11  C   UNL     1       1.839   7.449  -8.710  1.00  0.00     0.000 C 
BRANCH  11  12
ATOM     12  C   UNL     1       2.621   8.232  -9.774  1.00  0.00     0.000 C 
BRANCH  12  13
ATOM     13  C   UNL     1       2.074   7.947 -11.178  1.00  0.00     0.000 C 
BRANCH  13  14
ATOM     14  C   UNL     1       1.736   9.249 -11.913  1.00  0.00     0.000 C 
BRANCH  14  15
ATOM     15  C   UNL     1       0.538   9.953 -11.264  1.00  0.00     0.000 C 
BRANCH  15  16
ATOM     16  C   UNL     1       0.704  11.476 -11.308  1.00  0.00     0.006 C 
BRANCH  16  17
ATOM     17  C   UNL     1       2.136  11.884 -10.951  1.00  0.00     0.053 C 
BRANCH  17  18
ATOM     18  C   UNL     1       2.232  12.243  -9.502  1.00  0.00     0.041 C 
ATOM     19  O   UNL     1       2.689  11.413  -8.672  1.00  0.00    -0.550 OA
ATOM     20  O   UNL     1       1.767  13.475  -9.058  1.00  0.00    -0.550 OA
ENDBRANCH  17  18
ENDBRANCH  16  17
ENDBRANCH  15  16
ENDBRANCH  14  15
ENDBRANCH  13  14
ENDBRANCH  12  13
ENDBRANCH  11  12
ENDBRANCH   1  11
TORSDOF 15
ENDMDL
MODEL 3
REMARK VINA RESULT:    -3.797      0.948      1.587
REMARK INTER + INTRA:          -9.190
REMARK INTER:                  -7.426
REMARK INTRA:                  -1.765
REMARK UNBOUND:                -2.064
REMARK SMILES O=C([O-])CCCCCCCCCCCCCCC(=O)[O-]
REMARK SMILES IDX 10 1 9 2 8 3 7 4 6 5 5 6 4 7 2 8 1 9 3 10 11 11 12 12 13 13
REMARK SMILES IDX 14 14 15 15 16 16 17 17 18 18 19 19 20 20
REMARK H PARENT
REMARK Flexibility Score: inf
ROOT
ATOM      1  C   UNL     1       0.756   7.642  -7.665  1.00  0.00     0.000 C 
ENDROOT
BRANCH   1   2
ATOM      2  C   UNL     1       1.841   7.171  -8.650  1.00  0.00     0.000 C 
BRANCH   2   3
ATOM      3  C   UNL     1       2.354   8.318  -9.539  1.00  0.00     0.000 C 
BRANCH   3   4
ATOM      4  C   UNL     1       2.267   8.005 -11.050  1.00  0.00     0.000 C 
BRANCH   4   5
ATOM      5  C   UNL     1       1.688   9.160 -11.884  1.00  0.00     0.000 C 
BRANCH   5   6
ATOM      6  C   UNL     1       1.318  10.380 -11.031  1.00  0.00     0.006 C 
BRANCH   6   7
ATOM      7  C   UNL     1       2.209  11.580 -11.371  1.00  0.00     0.053 C 
BRANCH   7   8
ATOM      8  C   UNL     1       3.509  11.489 -10.634  1.00  0.00     0.041 C 
ATOM      9  O   UNL     1       3.626  12.003  -9.490  1.00  0.00    -0.550 OA
ATOM     10  O   UNL     1       4.605  10.881 -11.231  1.00  0.00    -0.550 OA
ENDBRANCH   7   8
ENDBRANCH   6   7
ENDBRANCH   5   6
ENDBRANCH   4   5
ENDBRANCH   3   4
ENDBRANCH   2   3
ENDBRANCH   1   2
BRANCH   1  11
ATOM     11  C   UNL     1      -0.506   8.152  -8.379  1.00  0.00     0.000 C 
BRANCH  11  12
ATOM     12  C   UNL     1      -1.212   7.057  -9.190  1.00  0.00     0.000 C 
BRANCH  12  13
ATOM     13  C   UNL     1      -1.369   7.476 -10.657  1.00  0.00     0.000 C 
BRANCH  13  14
ATOM     14  C   UNL     1      -2.595   6.809 -11.293  1.00  0.00     0.000 C 
BRANCH  14  15
ATOM     15  C   UNL     1      -3.717   7.827 -11.528  1.00  0.00     0.000 C 
BRANCH  15  16
ATOM     16  C   UNL     1      -3.216   9.259 -11.310  1.00  0.00     0.006 C 
BRANCH  16  17
ATOM     17  C   UNL     1      -4.086   9.997 -10.289  1.00  0.00     0.053 C 
BRANCH  17  18
ATOM     18  C   UNL     1      -5.164  10.769 -10.981  1.00  0.00     0.041 C 
ATOM     19  O   UNL     1      -4.868  11.710 -11.764  1.00  0.00    -0.550 OA
ATOM     20  O   UNL     1      -6.499  10.485 -10.721  1.00  0.00    -0.550 OA
ENDBRANCH  17  18
ENDBRANCH  16  17
ENDBRANCH  15  16
ENDBRANCH  14  15
ENDBRANCH  13  14
ENDBRANCH  12  13
ENDBRANCH  11  12
ENDBRANCH   1  11
TORSDOF 15
ENDMDL
MODEL 4
REMARK VINA RESULT:    -3.777     15.496     17.954
REMARK INTER + INTRA:          -9.153
REMARK INTER:                  -8.419
REMARK INTRA:                  -0.734
REMARK UNBOUND:                -2.064
REMARK SMILES O=C([O-])CCCCCCCCCCCCCCC(=O)[O-]
REMARK SMILES IDX 10 1 9 2 8 3 7 4 6 5 5 6 4 7 2 8 1 9 3 10 11 11 12 12 13 13
REMARK SMILES IDX 14 14 15 15 16 16 17 17 18 18 19 19 20 20
REMARK H PARENT
REMARK Flexibility Score: inf
ROOT
ATOM      1  C   UNL     1      -1.105  13.466   4.363  1.00  0.00     0.000 C 
ENDROOT
BRANCH   1   2
ATOM      2  C   UNL     1      -2.584  13.406   4.785  1.00  0.00     0.000 C 
BRANCH   2   3
ATOM      3  C   UNL     1      -2.930  12.086   5.498  1.00  0.00     0.000 C 
BRANCH   3   4
ATOM      4  C   UNL     1      -4.274  11.477   5.036  1.00  0.00     0.000 C 
BRANCH   4   5
ATOM      5  C   UNL     1      -4.355   9.953   5.228  1.00  0.00     0.000 C 
BRANCH   5   6
ATOM      6  C   UNL     1      -5.726   9.379   4.850  1.00  0.00     0.006 C 
BRANCH   6   7
ATOM      7  C   UNL     1      -6.270   8.476   5.962  1.00  0.00     0.053 C 
BRANCH   7   8
ATOM      8  C   UNL     1      -6.423   7.073   5.465  1.00  0.00     0.041 C 
ATOM      9  O   UNL     1      -6.610   6.850   4.239  1.00  0.00    -0.550 OA
ATOM     10  O   UNL     1      -6.410   6.012   6.362  1.00  0.00    -0.550 OA
ENDBRANCH   7   8
ENDBRANCH   6   7
ENDBRANCH   5   6
ENDBRANCH   4   5
ENDBRANCH   3   4
ENDBRANCH   2   3
ENDBRANCH   1   2
BRANCH   1  11
ATOM     11  C   UNL     1      -0.386  12.119   4.541  1.00  0.00     0.000 C 
BRANCH  11  12
ATOM     12  C   UNL     1       1.006  12.269   5.170  1.00  0.00     0.000 C 
BRANCH  12  13
ATOM     13  C   UNL     1       1.754  13.465   4.568  1.00  0.00     0.000 C 
BRANCH  13  14
ATOM     14  C   UNL     1       3.062  13.734   5.322  1.00  0.00     0.000 C 
BRANCH  14  15
ATOM     15  C   UNL     1       3.329  12.644   6.368  1.00  0.00     0.000 C 
BRANCH  15  16
ATOM     16  C   UNL     1       4.833  12.457   6.596  1.00  0.00     0.006 C 
BRANCH  16  17
ATOM     17  C   UNL     1       5.146  11.032   7.060  1.00  0.00     0.053 C 
BRANCH  17  18
ATOM     18  C   UNL     1       5.795  10.254   5.959  1.00  0.00     0.041 C 
ATOM     19  O   UNL     1       5.237   9.225   5.495  1.00  0.00    -0.550 OA
ATOM     20  O   UNL     1       7.043  10.634   5.482  1.00  0.00    -0.550 OA
ENDBRANCH  17  18
ENDBRANCH  16  17
ENDBRANCH  15  16
ENDBRANCH  14  15
ENDBRANCH  13  14
ENDBRANCH  12  13
ENDBRANCH  11  12
ENDBRANCH   1  11
TORSDOF 15
ENDMDL
MODEL 5
REMARK VINA RESULT:    -3.686      1.184      6.172
REMARK INTER + INTRA:          -8.982
REMARK INTER:                  -7.011
REMARK INTRA:                  -1.972
REMARK UNBOUND:                -2.064
REMARK SMILES O=C([O-])CCCCCCCCCCCCCCC(=O)[O-]
REMARK SMILES IDX 10 1 9 2 8 3 7 4 6 5 5 6 4 7 2 8 1 9 3 10 11 11 12 12 13 13
REMARK SMILES IDX 14 14 15 15 16 16 17 17 18 18 19 19 20 20
REMARK H PARENT
REMARK Flexibility Score: inf
ROOT
ATOM      1  C   UNL     1       2.279   8.316  -9.572  1.00  0.00     0.000 C 
ENDROOT
BRANCH   1   2
ATOM      2  C   UNL     1       1.492   7.369  -8.650  1.00  0.00     0.000 C 
BRANCH   2   3
ATOM      3  C   UNL     1       0.399   8.108  -7.856  1.00  0.00     0.000 C 
BRANCH   3   4
ATOM      4  C   UNL     1      -1.007   7.973  -8.484  1.00  0.00     0.000 C 
BRANCH   4   5
ATOM      5  C   UNL     1      -1.153   6.751  -9.405  1.00  0.00     0.000 C 
BRANCH   5   6
ATOM      6  C   UNL     1      -1.456   7.137 -10.859  1.00  0.00     0.006 C 
BRANCH   6   7
ATOM      7  C   UNL     1      -2.959   7.060 -11.146  1.00  0.00     0.053 C 
BRANCH   7   8
ATOM      8  C   UNL     1      -3.560   8.430 -11.148  1.00  0.00     0.041 C 
ATOM      9  O   UNL     1      -2.854   9.433 -11.436  1.00  0.00    -0.550 OA
ATOM     10  O   UNL     1      -4.889   8.607 -10.784  1.00  0.00    -0.550 OA
ENDBRANCH   7   8
ENDBRANCH   6   7
ENDBRANCH   5   6
ENDBRANCH   4   5
ENDBRANCH   3   4
ENDBRANCH   2   3
ENDBRANCH   1   2
BRANCH   1  11
ATOM     11  C   UNL     1       2.180   7.915 -11.053  1.00  0.00     0.000 C 
BRANCH  11  12
ATOM     12  C   UNL     1       1.525   9.000 -11.919  1.00  0.00     0.000 C 
BRANCH  12  13
ATOM     13  C   UNL     1       0.753  10.002 -11.052  1.00  0.00     0.000 C 
BRANCH  13  14
ATOM     14  C   UNL     1       0.210  11.160 -11.898  1.00  0.00     0.000 C 
BRANCH  14  15
ATOM     15  C   UNL     1       1.195  12.335 -11.921  1.00  0.00     0.000 C 
BRANCH  15  16
ATOM     16  C   UNL     1       1.415  12.897 -10.511  1.00  0.00     0.006 C 
BRANCH  16  17
ATOM     17  C   UNL     1       2.908  13.016 -10.193  1.00  0.00     0.053 C 
BRANCH  17  18
ATOM     18  C   UNL     1       3.211  12.397  -8.866  1.00  0.00     0.041 C 
ATOM     19  O   UNL     1       4.346  12.547  -8.340  1.00  0.00    -0.550 OA
ATOM     20  O   UNL     1       2.259  11.608  -8.232  1.00  0.00    -0.550 OA
ENDBRANCH  17  18
ENDBRANCH  16  17
ENDBRANCH  15  16
ENDBRANCH  14  15
ENDBRANCH  13  14
ENDBRANCH  12  13
ENDBRANCH  11  12
ENDBRANCH   1  11
TORSDOF 15
ENDMDL
MODEL 6
REMARK VINA RESULT:    -3.577      2.787      5.167
REMARK INTER + INTRA:          -8.779
REMARK INTER:                  -7.141
REMARK INTRA:                  -1.638
REMARK UNBOUND:                -2.064
REMARK SMILES O=C([O-])CCCCCCCCCCCCCCC(=O)[O-]
REMARK SMILES IDX 10 1 9 2 8 3 7 4 6 5 5 6 4 7 2 8 1 9 3 10 11 11 12 12 13 13
REMARK SMILES IDX 14 14 15 15 16 16 17 17 18 18 19 19 20 20
REMARK H PARENT
REMARK Flexibility Score: inf
ROOT
ATOM      1  C   UNL     1      -4.126  11.286 -10.258  1.00  0.00     0.000 C 
ENDROOT
BRANCH   1   2
ATOM      2  C   UNL     1      -3.871  12.609 -11.002  1.00  0.00     0.000 C 
BRANCH   2   3
ATOM      3  C   UNL     1      -2.817  12.454 -12.114  1.00  0.00     0.000 C 
BRANCH   3   4
ATOM      4  C   UNL     1      -1.365  12.475 -11.585  1.00  0.00     0.000 C 
BRANCH   4   5
ATOM      5  C   UNL     1      -0.613  11.152 -11.806  1.00  0.00     0.000 C 
BRANCH   5   6
ATOM      6  C   UNL     1       0.660  11.044 -10.956  1.00  0.00     0.006 C 
BRANCH   6   7
ATOM      7  C   UNL     1       1.677  10.100 -11.607  1.00  0.00     0.053 C 
BRANCH   7   8
ATOM      8  C   UNL     1       2.854   9.899 -10.704  1.00  0.00     0.041 C 
ATOM      9  O   UNL     1       3.804   9.152 -11.057  1.00  0.00    -0.550 OA
ATOM     10  O   UNL     1       2.878  10.499  -9.451  1.00  0.00    -0.550 OA
ENDBRANCH   7   8
ENDBRANCH   6   7
ENDBRANCH   5   6
ENDBRANCH   4   5
ENDBRANCH   3   4
ENDBRANCH   2   3
ENDBRANCH   1   2
BRANCH   1  11
ATOM     11  C   UNL     1      -5.086  10.357 -11.019  1.00  0.00     0.000 C 
BRANCH  11  12
ATOM     12  C   UNL     1      -4.355   9.234 -11.767  1.00  0.00     0.000 C 
BRANCH  12  13
ATOM     13  C   UNL     1      -3.040   8.873 -11.066  1.00  0.00     0.000 C 
BRANCH  13  14
ATOM     14  C   UNL     1      -2.979   7.376 -10.745  1.00  0.00     0.000 C 
BRANCH  14  15
ATOM     15  C   UNL     1      -1.529   6.877 -10.711  1.00  0.00     0.000 C 
BRANCH  15  16
ATOM     16  C   UNL     1      -1.003   6.810  -9.273  1.00  0.00     0.006 C 
BRANCH  16  17
ATOM     17  C   UNL     1      -0.028   7.956  -8.990  1.00  0.00     0.053 C 
BRANCH  17  18
ATOM     18  C   UNL     1       1.103   7.482  -8.134  1.00  0.00     0.041 C 
ATOM     19  O   UNL     1       1.022   7.554  -6.879  1.00  0.00    -0.550 OA
ATOM     20  O   UNL     1       2.270   7.010  -8.722  1.00  0.00    -0.550 OA
ENDBRANCH  17  18
ENDBRANCH  16  17
ENDBRANCH  15  16
ENDBRANCH  14  15
ENDBRANCH  13  14
ENDBRANCH  12  13
ENDBRANCH  11  12
ENDBRANCH   1  11
TORSDOF 15
ENDMDL
MODEL 7
REMARK VINA RESULT:    -3.568      1.467      2.750
REMARK INTER + INTRA:          -8.762
REMARK INTER:                  -6.670
REMARK INTRA:                  -2.092
REMARK UNBOUND:                -2.064
REMARK SMILES O=C([O-])CCCCCCCCCCCCCCC(=O)[O-]
REMARK SMILES IDX 10 1 9 2 8 3 7 4 6 5 5 6 4 7 2 8 1 9 3 10 11 11 12 12 13 13
REMARK SMILES IDX 14 14 15 15 16 16 17 17 18 18 19 19 20 20
REMARK H PARENT
REMARK Flexibility Score: inf
ROOT
ATOM      1  C   UNL     1      -0.685   7.992  -8.129  1.00  0.00     0.000 C 
ENDROOT
BRANCH   1   2
ATOM      2  C   UNL     1       0.317   6.976  -8.705  1.00  0.00     0.000 C 
BRANCH   2   3
ATOM      3  C   UNL     1       1.767   7.488  -8.635  1.00  0.00     0.000 C 
BRANCH   3   4
ATOM      4  C   UNL     1       2.326   7.927 -10.007  1.00  0.00     0.000 C 
BRANCH   4   5
ATOM      5  C   UNL     1       1.320   7.767 -11.159  1.00  0.00     0.000 C 
BRANCH   5   6
ATOM      6  C   UNL     1       1.123   9.061 -11.960  1.00  0.00     0.006 C 
BRANCH   6   7
ATOM      7  C   UNL     1       0.060   9.953 -11.310  1.00  0.00     0.053 C 
BRANCH   7   8
ATOM      8  C   UNL     1       0.592  11.338 -11.113  1.00  0.00     0.041 C 
ATOM      9  O   UNL     1       1.769  11.514 -10.700  1.00  0.00    -0.550 OA
ATOM     10  O   UNL     1      -0.229  12.436 -11.338  1.00  0.00    -0.550 OA
ENDBRANCH   7   8
ENDBRANCH   6   7
ENDBRANCH   5   6
ENDBRANCH   4   5
ENDBRANCH   3   4
ENDBRANCH   2   3
ENDBRANCH   1   2
BRANCH   1  11
ATOM     11  C   UNL     1      -2.008   8.025  -8.912  1.00  0.00     0.000 C 
BRANCH  11  12
ATOM     12  C   UNL     1      -2.144   6.852  -9.893  1.00  0.00     0.000 C 
BRANCH  12  13
ATOM     13  C   UNL     1      -2.733   7.321 -11.230  1.00  0.00     0.000 C 
BRANCH  13  14
ATOM     14  C   UNL     1      -3.913   8.274 -11.008  1.00  0.00     0.000 C 
BRANCH  14  15
ATOM     15  C   UNL     1      -3.912   9.404 -12.045  1.00  0.00     0.000 C 
BRANCH  15  16
ATOM     16  C   UNL     1      -3.641  10.759 -11.381  1.00  0.00     0.006 C 
BRANCH  16  17
ATOM     17  C   UNL     1      -4.944  11.413 -10.914  1.00  0.00     0.053 C 
BRANCH  17  18
ATOM     18  C   UNL     1      -4.654  12.597 -10.047  1.00  0.00     0.041 C 
ATOM     19  O   UNL     1      -3.513  13.130 -10.060  1.00  0.00    -0.550 OA
ATOM     20  O   UNL     1      -5.629  13.080  -9.182  1.00  0.00    -0.550 OA
ENDBRANCH  17  18
ENDBRANCH  16  17
ENDBRANCH  15  16
ENDBRANCH  14  15
ENDBRANCH  13  14
ENDBRANCH  12  13
ENDBRANCH  11  12
ENDBRANCH   1  11
TORSDOF 15
ENDMDL
MODEL 8
REMARK VINA RESULT:    -3.553      9.946     12.658
REMARK INTER + INTRA:          -8.733
REMARK INTER:                  -6.688
REMARK INTRA:                  -2.045
REMARK UNBOUND:                -2.064
REMARK SMILES O=C([O-])CCCCCCCCCCCCCCC(=O)[O-]
REMARK SMILES IDX 10 1 9 2 8 3 7 4 6 5 5 6 4 7 2 8 1 9 3 10 11 11 12 12 13 13
REMARK SMILES IDX 14 14 15 15 16 16 17 17 18 18 19 19 20 20
REMARK H PARENT
REMARK Flexibility Score: inf
ROOT
ATOM      1  C   UNL     1       7.907  12.735  -4.498  1.00  0.00     0.000 C 
ENDROOT
BRANCH   1   2
ATOM      2  C   UNL     1       6.673  13.024  -5.371  1.00  0.00     0.000 C 
BRANCH   2   3
ATOM      3  C   UNL     1       7.045  13.238  -6.849  1.00  0.00     0.000 C 
BRANCH   3   4
ATOM      4  C   UNL     1       8.387  13.983  -7.039  1.00  0.00     0.000 C 
BRANCH   4   5
ATOM      5  C   UNL     1       9.428  13.176  -7.833  1.00  0.00     0.000 C 
BRANCH   5   6
ATOM      6  C   UNL     1       9.259  11.661  -7.666  1.00  0.00     0.006 C 
BRANCH   6   7
ATOM      7  C   UNL     1      10.240  10.896  -8.560  1.00  0.00     0.053 C 
BRANCH   7   8
ATOM      8  C   UNL     1       9.795   9.477  -8.728  1.00  0.00     0.041 C 
ATOM      9  O   UNL     1       8.567   9.199  -8.786  1.00  0.00    -0.550 OA
ATOM     10  O   UNL     1      10.734   8.454  -8.769  1.00  0.00    -0.550 OA
ENDBRANCH   7   8
ENDBRANCH   6   7
ENDBRANCH   5   6
ENDBRANCH   4   5
ENDBRANCH   3   4
ENDBRANCH   2   3
ENDBRANCH   1   2
BRANCH   1  11
ATOM     11  C   UNL     1       8.174  13.846  -3.469  1.00  0.00     0.000 C 
BRANCH  11  12
ATOM     12  C   UNL     1       9.654  13.948  -3.076  1.00  0.00     0.000 C 
BRANCH  12  13
ATOM     13  C   UNL     1      10.513  13.000  -3.923  1.00  0.00     0.000 C 
BRANCH  13  14
ATOM     14  C   UNL     1      11.803  12.619  -3.187  1.00  0.00     0.000 C 
BRANCH  14  15
ATOM     15  C   UNL     1      12.560  11.517  -3.937  1.00  0.00     0.000 C 
BRANCH  15  16
ATOM     16  C   UNL     1      11.780  11.055  -5.173  1.00  0.00     0.006 C 
BRANCH  16  17
ATOM     17  C   UNL     1      11.989   9.560  -5.429  1.00  0.00     0.053 C 
BRANCH  17  18
ATOM     18  C   UNL     1      10.799   8.779  -4.969  1.00  0.00     0.041 C 
ATOM     19  O   UNL     1       9.638   9.247  -5.111  1.00  0.00    -0.550 OA
ATOM     20  O   UNL     1      10.974   7.556  -4.334  1.00  0.00    -0.550 OA
ENDBRANCH  17  18
ENDBRANCH  16  17
ENDBRANCH  15  16
ENDBRANCH  14  15
ENDBRANCH  13  14
ENDBRANCH  12  13
ENDBRANCH  11  12
ENDBRANCH   1  11
TORSDOF 15
ENDMDL
MODEL 9
REMARK VINA RESULT:    -3.455     10.230     12.574
REMARK INTER + INTRA:          -8.549
REMARK INTER:                  -6.425
REMARK INTRA:                  -2.124
REMARK UNBOUND:                -2.064
REMARK SMILES O=C([O-])CCCCCCCCCCCCCCC(=O)[O-]
REMARK SMILES IDX 10 1 9 2 8 3 7 4 6 5 5 6 4 7 2 8 1 9 3 10 11 11 12 12 13 13
REMARK SMILES IDX 14 14 15 15 16 16 17 17 18 18 19 19 20 20
REMARK H PARENT
REMARK Flexibility Score: inf
ROOT
ATOM      1  C   UNL     1       6.735  12.657  -5.356  1.00  0.00     0.000 C 
ENDROOT
BRANCH   1   2
ATOM      2  C   UNL     1       8.088  12.409  -4.666  1.00  0.00     0.000 C 
BRANCH   2   3
ATOM      3  C   UNL     1       8.847  13.719  -4.389  1.00  0.00     0.000 C 
BRANCH   3   4
ATOM      4  C   UNL     1      10.360  13.509  -4.152  1.00  0.00     0.000 C 
BRANCH   4   5
ATOM      5  C   UNL     1      10.979  12.430  -5.057  1.00  0.00     0.000 C 
BRANCH   5   6
ATOM      6  C   UNL     1      11.583  11.265  -4.263  1.00  0.00     0.006 C 
BRANCH   6   7
ATOM      7  C   UNL     1      11.888  10.075  -5.179  1.00  0.00     0.053 C 
BRANCH   7   8
ATOM      8  C   UNL     1      10.879   8.988  -4.975  1.00  0.00     0.041 C 
ATOM      9  O   UNL     1      11.252   7.826  -4.665  1.00  0.00    -0.550 OA
ATOM     10  O   UNL     1       9.529   9.247  -5.176  1.00  0.00    -0.550 OA
ENDBRANCH   7   8
ENDBRANCH   6   7
ENDBRANCH   5   6
ENDBRANCH   4   5
ENDBRANCH   3   4
ENDBRANCH   2   3
ENDBRANCH   1   2
BRANCH   1  11
ATOM     11  C   UNL     1       6.861  13.567  -6.589  1.00  0.00     0.000 C 
BRANCH  11  12
ATOM     12  C   UNL     1       7.466  12.843  -7.800  1.00  0.00     0.000 C 
BRANCH  12  13
ATOM     13  C   UNL     1       8.780  13.504  -8.234  1.00  0.00     0.000 C 
BRANCH  13  14
ATOM     14  C   UNL     1       9.721  12.484  -8.886  1.00  0.00     0.000 C 
BRANCH  14  15
ATOM     15  C   UNL     1       9.655  11.133  -8.164  1.00  0.00     0.000 C 
BRANCH  15  16
ATOM     16  C   UNL     1      10.841  10.242  -8.553  1.00  0.00     0.006 C 
BRANCH  16  17
ATOM     17  C   UNL     1      10.372   8.832  -8.919  1.00  0.00     0.053 C 
BRANCH  17  18
ATOM     18  C   UNL     1      11.531   7.888  -8.957  1.00  0.00     0.041 C 
ATOM     19  O   UNL     1      11.942   7.343  -7.898  1.00  0.00    -0.550 OA
ATOM     20  O   UNL     1      12.195   7.650 -10.154  1.00  0.00    -0.550 OA
ENDBRANCH  17  18
ENDBRANCH  16  17
ENDBRANCH  15  16
ENDBRANCH  14  15
ENDBRANCH  13  14
ENDBRANCH  12  13
ENDBRANCH  11  12
ENDBRANCH   1  11
TORSDOF 15
ENDMDL
