MODEL 1
REMARK VINA RESULT:    45.834      0.000      0.000
REMARK INTER + INTRA:          65.684
REMARK INTER:                  63.251
REMARK INTRA:                   2.433
REMARK UNBOUND:                 2.433
REMARK SMILES CC[C@H](CC[C@@H](C)[C@H]1CC[C@@H]2C3=CC[C@@H]4C[C@H](O)CC[C@]4(C)[C@@H]3CC[C@]21C)C(C)C
REMARK SMILES IDX 5 1 4 2 3 3 2 4 1 5 28 6 29 7 30 8 6 9 7 10 8 11 9 12 26 13
REMARK SMILES IDX 10 14 11 15 25 16 27 17 12 18 24 19 23 20 13 21 21 22 14 23
REMARK SMILES IDX 15 24 20 25 22 26 16 27 19 28 17 29 18 30
REMARK H PARENT 18 31
REMARK Flexibility Score: inf
ROOT
ATOM      1  C   UNL     1     -27.395  28.707  -7.382  1.00  0.00     0.004 C 
ENDROOT
BRANCH   1   2
ATOM      2  C   UNL     1     -26.953  30.136  -6.964  1.00  0.00     0.004 C 
BRANCH   2   3
ATOM      3  C   UNL     1     -26.968  31.177  -8.127  1.00  0.00    -0.009 C 
BRANCH   3   4
ATOM      4  C   UNL     1     -27.486  32.544  -7.603  1.00  0.00     0.000 C 
ATOM      5  C   UNL     1     -27.169  32.795  -6.126  1.00  0.00     0.004 C 
ENDBRANCH   3   4
BRANCH   3   6
ATOM      6  C   UNL     1     -25.598  31.315  -8.885  1.00  0.00    -0.014 C 
ATOM      7  C   UNL     1     -24.755  32.499  -8.381  1.00  0.00     0.007 C 
ATOM      8  C   UNL     1     -25.723  31.387 -10.418  1.00  0.00     0.007 C 
ENDBRANCH   3   6
ENDBRANCH   2   3
ENDBRANCH   1   2
BRANCH   1   9
ATOM      9  C   UNL     1     -26.294  27.623  -7.180  1.00  0.00    -0.011 C 
ATOM     10  C   UNL     1     -26.836  26.266  -7.697  1.00  0.00     0.008 C 
BRANCH   9  11
ATOM     11  C   UNL     1     -24.957  27.974  -7.921  1.00  0.00    -0.002 C 
ATOM     12  C   UNL     1     -24.493  29.452  -7.773  1.00  0.00     0.005 C 
ATOM     13  C   UNL     1     -23.680  27.108  -7.558  1.00  0.00    -0.023 C 
ATOM     14  C   UNL     1     -22.973  29.420  -7.674  1.00  0.00     0.009 C 
ATOM     15  C   UNL     1     -22.756  28.139  -6.900  1.00  0.00     0.021 C 
ATOM     16  C   UNL     1     -23.795  25.934  -6.529  1.00  0.00     0.008 C 
ATOM     17  C   UNL     1     -23.089  26.555  -8.893  1.00  0.00     0.012 C 
ATOM     18  C   UNL     1     -21.376  27.581  -6.652  1.00  0.00    -0.067 C 
ATOM     19  C   UNL     1     -22.401  25.332  -6.173  1.00  0.00     0.009 C 
ATOM     20  C   UNL     1     -21.363  26.394  -5.689  1.00  0.00     0.021 C 
ATOM     21  C   UNL     1     -20.297  27.979  -7.356  1.00  0.00    -0.027 C 
ATOM     22  C   UNL     1     -19.902  25.886  -5.315  1.00  0.00    -0.023 C 
ATOM     23  C   UNL     1     -18.916  27.442  -7.116  1.00  0.00     0.031 C 
ATOM     24  C   UNL     1     -18.900  26.029  -6.504  1.00  0.00     0.002 C 
ATOM     25  C   UNL     1     -19.854  24.413  -4.776  1.00  0.00     0.010 C 
ATOM     26  C   UNL     1     -19.389  26.785  -4.150  1.00  0.00     0.012 C 
ATOM     27  C   UNL     1     -19.077  24.944  -7.579  1.00  0.00     0.036 C 
ATOM     28  C   UNL     1     -19.875  23.300  -5.841  1.00  0.00     0.032 C 
ATOM     29  C   UNL     1     -18.876  23.552  -6.973  1.00  0.00     0.114 C 
BRANCH  29  30
ATOM     30  O   UNL     1     -19.059  22.589  -7.979  1.00  0.00    -0.393 OA
ATOM     31  H   UNL     1     -18.518  21.791  -7.734  1.00  0.00     0.210 HD
ENDBRANCH  29  30
ENDBRANCH   9  11
ENDBRANCH   1   9
TORSDOF 7
ENDMDL
MODEL 2
REMARK VINA RESULT:    45.849      4.987      8.564
REMARK INTER + INTRA:          65.704
REMARK INTER:                  66.720
REMARK INTRA:                  -1.015
REMARK UNBOUND:                 2.433
REMARK SMILES CC[C@H](CC[C@@H](C)[C@H]1CC[C@@H]2C3=CC[C@@H]4C[C@H](O)CC[C@]4(C)[C@@H]3CC[C@]21C)C(C)C
REMARK SMILES IDX 5 1 4 2 3 3 2 4 1 5 28 6 29 7 30 8 6 9 7 10 8 11 9 12 26 13
REMARK SMILES IDX 10 14 11 15 25 16 27 17 12 18 24 19 23 20 13 21 21 22 14 23
REMARK SMILES IDX 15 24 20 25 22 26 16 27 19 28 17 29 18 30
REMARK H PARENT 18 31
REMARK Flexibility Score: inf
ROOT
ATOM      1  C   UNL     1     -30.165  31.441  -2.222  1.00  0.00     0.004 C 
ENDROOT
BRANCH   1   2
ATOM      2  C   UNL     1     -31.686  31.724  -2.355  1.00  0.00     0.004 C 
BRANCH   2   3
ATOM      3  C   UNL     1     -32.506  30.548  -2.972  1.00  0.00    -0.009 C 
BRANCH   3   4
ATOM      4  C   UNL     1     -32.208  29.236  -2.199  1.00  0.00     0.000 C 
ATOM      5  C   UNL     1     -31.636  28.121  -3.078  1.00  0.00     0.004 C 
ENDBRANCH   3   4
BRANCH   3   6
ATOM      6  C   UNL     1     -34.048  30.830  -3.087  1.00  0.00    -0.014 C 
ATOM      7  C   UNL     1     -34.861  30.160  -1.966  1.00  0.00     0.007 C 
ATOM      8  C   UNL     1     -34.661  30.472  -4.453  1.00  0.00     0.007 C 
ENDBRANCH   3   6
ENDBRANCH   2   3
ENDBRANCH   1   2
BRANCH   1   9
ATOM      9  C   UNL     1     -29.262  32.543  -2.856  1.00  0.00    -0.011 C 
ATOM     10  C   UNL     1     -29.369  33.826  -1.995  1.00  0.00     0.008 C 
BRANCH   9  11
ATOM     11  C   UNL     1     -27.761  32.104  -2.967  1.00  0.00    -0.002 C 
ATOM     12  C   UNL     1     -27.478  30.625  -2.573  1.00  0.00     0.005 C 
ATOM     13  C   UNL     1     -27.053  32.295  -4.372  1.00  0.00    -0.023 C 
ATOM     14  C   UNL     1     -26.397  30.125  -3.523  1.00  0.00     0.009 C 
ATOM     15  C   UNL     1     -26.766  30.850  -4.798  1.00  0.00     0.021 C 
ATOM     16  C   UNL     1     -27.838  32.933  -5.566  1.00  0.00     0.008 C 
ATOM     17  C   UNL     1     -25.743  33.109  -4.135  1.00  0.00     0.012 C 
ATOM     18  C   UNL     1     -25.900  30.788  -6.032  1.00  0.00    -0.067 C 
ATOM     19  C   UNL     1     -27.033  32.862  -6.899  1.00  0.00     0.009 C 
ATOM     20  C   UNL     1     -26.546  31.423  -7.263  1.00  0.00     0.021 C 
ATOM     21  C   UNL     1     -24.616  30.378  -5.994  1.00  0.00    -0.027 C 
ATOM     22  C   UNL     1     -25.700  31.242  -8.598  1.00  0.00    -0.023 C 
ATOM     23  C   UNL     1     -23.743  30.301  -7.212  1.00  0.00     0.031 C 
ATOM     24  C   UNL     1     -24.160  31.268  -8.335  1.00  0.00     0.002 C 
ATOM     25  C   UNL     1     -26.047  32.280  -9.723  1.00  0.00     0.010 C 
ATOM     26  C   UNL     1     -26.058  29.842  -9.182  1.00  0.00     0.012 C 
ATOM     27  C   UNL     1     -23.611  32.684  -8.097  1.00  0.00     0.036 C 
ATOM     28  C   UNL     1     -25.386  33.666  -9.595  1.00  0.00     0.032 C 
ATOM     29  C   UNL     1     -23.885  33.576  -9.310  1.00  0.00     0.114 C 
BRANCH  29  30
ATOM     30  O   UNL     1     -23.383  34.862  -9.052  1.00  0.00    -0.393 OA
ATOM     31  H   UNL     1     -23.829  35.201  -8.230  1.00  0.00     0.210 HD
ENDBRANCH  29  30
ENDBRANCH   9  11
ENDBRANCH   1   9
TORSDOF 7
ENDMDL
MODEL 3
REMARK VINA RESULT:    46.181      5.272      8.157
REMARK INTER + INTRA:          66.163
REMARK INTER:                  65.800
REMARK INTRA:                   0.363
REMARK UNBOUND:                 2.433
REMARK SMILES CC[C@H](CC[C@@H](C)[C@H]1CC[C@@H]2C3=CC[C@@H]4C[C@H](O)CC[C@]4(C)[C@@H]3CC[C@]21C)C(C)C
REMARK SMILES IDX 5 1 4 2 3 3 2 4 1 5 28 6 29 7 30 8 6 9 7 10 8 11 9 12 26 13
REMARK SMILES IDX 10 14 11 15 25 16 27 17 12 18 24 19 23 20 13 21 21 22 14 23
REMARK SMILES IDX 15 24 20 25 22 26 16 27 19 28 17 29 18 30
REMARK H PARENT 18 31
REMARK Flexibility Score: inf
ROOT
ATOM      1  C   UNL     1     -25.033  32.382 -10.107  1.00  0.00     0.004 C 
ENDROOT
BRANCH   1   2
ATOM      2  C   UNL     1     -24.891  33.193  -8.790  1.00  0.00     0.004 C 
BRANCH   2   3
ATOM      3  C   UNL     1     -23.584  34.041  -8.697  1.00  0.00    -0.009 C 
BRANCH   3   4
ATOM      4  C   UNL     1     -22.441  33.333  -9.473  1.00  0.00     0.000 C 
ATOM      5  C   UNL     1     -22.247  31.867  -9.078  1.00  0.00     0.004 C 
ENDBRANCH   3   4
BRANCH   3   6
ATOM      6  C   UNL     1     -23.758  35.540  -9.137  1.00  0.00    -0.014 C 
ATOM      7  C   UNL     1     -25.048  35.779  -9.939  1.00  0.00     0.007 C 
ATOM      8  C   UNL     1     -22.557  36.121  -9.905  1.00  0.00     0.007 C 
ENDBRANCH   3   6
ENDBRANCH   2   3
ENDBRANCH   1   2
BRANCH   1   9
ATOM      9  C   UNL     1     -26.139  31.284 -10.055  1.00  0.00    -0.011 C 
ATOM     10  C   UNL     1     -26.041  30.423 -11.339  1.00  0.00     0.008 C 
BRANCH   9  11
ATOM     11  C   UNL     1     -26.017  30.364  -8.791  1.00  0.00    -0.002 C 
ATOM     12  C   UNL     1     -24.564  29.956  -8.413  1.00  0.00     0.005 C 
ATOM     13  C   UNL     1     -26.655  30.899  -7.442  1.00  0.00    -0.023 C 
ATOM     14  C   UNL     1     -24.503  29.938  -6.891  1.00  0.00     0.009 C 
ATOM     15  C   UNL     1     -25.425  31.085  -6.545  1.00  0.00     0.021 C 
ATOM     16  C   UNL     1     -27.400  32.275  -7.419  1.00  0.00     0.008 C 
ATOM     17  C   UNL     1     -27.615  29.794  -6.902  1.00  0.00     0.012 C 
ATOM     18  C   UNL     1     -25.810  31.400  -5.120  1.00  0.00    -0.067 C 
ATOM     19  C   UNL     1     -27.788  32.704  -5.971  1.00  0.00     0.009 C 
ATOM     20  C   UNL     1     -26.586  32.709  -4.974  1.00  0.00     0.021 C 
ATOM     21  C   UNL     1     -25.642  30.518  -4.114  1.00  0.00    -0.027 C 
ATOM     22  C   UNL     1     -26.878  33.117  -3.463  1.00  0.00    -0.023 C 
ATOM     23  C   UNL     1     -26.010  30.817  -2.691  1.00  0.00     0.031 C 
ATOM     24  C   UNL     1     -27.120  31.875  -2.548  1.00  0.00     0.002 C 
ATOM     25  C   UNL     1     -28.068  34.125  -3.289  1.00  0.00     0.010 C 
ATOM     26  C   UNL     1     -25.610  33.856  -2.936  1.00  0.00     0.012 C 
ATOM     27  C   UNL     1     -28.518  31.258  -2.722  1.00  0.00     0.036 C 
ATOM     28  C   UNL     1     -29.482  33.513  -3.306  1.00  0.00     0.032 C 
ATOM     29  C   UNL     1     -29.602  32.288  -2.398  1.00  0.00     0.114 C 
BRANCH  29  30
ATOM     30  O   UNL     1     -30.862  31.694  -2.581  1.00  0.00    -0.393 OA
ATOM     31  H   UNL     1     -30.776  30.729  -2.357  1.00  0.00     0.210 HD
ENDBRANCH  29  30
ENDBRANCH   9  11
ENDBRANCH   1   9
TORSDOF 7
ENDMDL
MODEL 4
REMARK VINA RESULT:    46.798      1.146      2.111
REMARK INTER + INTRA:          67.015
REMARK INTER:                  67.479
REMARK INTRA:                  -0.464
REMARK UNBOUND:                 2.433
REMARK SMILES CC[C@H](CC[C@@H](C)[C@H]1CC[C@@H]2C3=CC[C@@H]4C[C@H](O)CC[C@]4(C)[C@@H]3CC[C@]21C)C(C)C
REMARK SMILES IDX 5 1 4 2 3 3 2 4 1 5 28 6 29 7 30 8 6 9 7 10 8 11 9 12 26 13
REMARK SMILES IDX 10 14 11 15 25 16 27 17 12 18 24 19 23 20 13 21 21 22 14 23
REMARK SMILES IDX 15 24 20 25 22 26 16 27 19 28 17 29 18 30
REMARK H PARENT 18 31
REMARK Flexibility Score: inf
ROOT
ATOM      1  C   UNL     1     -27.165  29.332  -7.095  1.00  0.00     0.004 C 
ENDROOT
BRANCH   1   2
ATOM      2  C   UNL     1     -27.504  29.886  -5.685  1.00  0.00     0.004 C 
BRANCH   2   3
ATOM      3  C   UNL     1     -26.644  31.116  -5.255  1.00  0.00    -0.009 C 
BRANCH   3   4
ATOM      4  C   UNL     1     -27.025  32.351  -6.117  1.00  0.00     0.000 C 
ATOM      5  C   UNL     1     -26.681  32.193  -7.601  1.00  0.00     0.004 C 
ENDBRANCH   3   4
BRANCH   3   6
ATOM      6  C   UNL     1     -26.695  31.431  -3.717  1.00  0.00    -0.014 C 
ATOM      7  C   UNL     1     -27.608  32.623  -3.382  1.00  0.00     0.007 C 
ATOM      8  C   UNL     1     -25.317  31.638  -3.063  1.00  0.00     0.007 C 
ENDBRANCH   3   6
ENDBRANCH   2   3
ENDBRANCH   1   2
BRANCH   1   9
ATOM      9  C   UNL     1     -26.223  28.090  -7.074  1.00  0.00    -0.011 C 
ATOM     10  C   UNL     1     -27.000  26.871  -7.632  1.00  0.00     0.008 C 
BRANCH   9  11
ATOM     11  C   UNL     1     -24.914  28.311  -7.910  1.00  0.00    -0.002 C 
ATOM     12  C   UNL     1     -24.354  29.762  -7.883  1.00  0.00     0.005 C 
ATOM     13  C   UNL     1     -23.673  27.387  -7.566  1.00  0.00    -0.023 C 
ATOM     14  C   UNL     1     -22.836  29.638  -7.869  1.00  0.00     0.009 C 
ATOM     15  C   UNL     1     -22.650  28.395  -7.028  1.00  0.00     0.021 C 
ATOM     16  C   UNL     1     -23.796  26.287  -6.459  1.00  0.00     0.008 C 
ATOM     17  C   UNL     1     -23.198  26.719  -8.894  1.00  0.00     0.012 C 
ATOM     18  C   UNL     1     -21.294  27.765  -6.823  1.00  0.00    -0.067 C 
ATOM     19  C   UNL     1     -22.423  25.619  -6.145  1.00  0.00     0.009 C 
ATOM     20  C   UNL     1     -21.295  26.639  -5.788  1.00  0.00     0.021 C 
ATOM     21  C   UNL     1     -20.237  28.050  -7.610  1.00  0.00    -0.027 C 
ATOM     22  C   UNL     1     -19.848  26.062  -5.466  1.00  0.00    -0.023 C 
ATOM     23  C   UNL     1     -18.880  27.441  -7.415  1.00  0.00     0.031 C 
ATOM     24  C   UNL     1     -18.912  26.070  -6.717  1.00  0.00     0.002 C 
ATOM     25  C   UNL     1     -19.856  24.624  -4.838  1.00  0.00     0.010 C 
ATOM     26  C   UNL     1     -19.211  26.995  -4.392  1.00  0.00     0.012 C 
ATOM     27  C   UNL     1     -19.219  24.935  -7.709  1.00  0.00     0.036 C 
ATOM     28  C   UNL     1     -20.008  23.453  -5.828  1.00  0.00     0.032 C 
ATOM     29  C   UNL     1     -19.066  23.572  -7.028  1.00  0.00     0.114 C 
BRANCH  29  30
ATOM     30  O   UNL     1     -19.367  22.564  -7.958  1.00  0.00    -0.393 OA
ATOM     31  H   UNL     1     -19.218  22.938  -8.868  1.00  0.00     0.210 HD
ENDBRANCH  29  30
ENDBRANCH   9  11
ENDBRANCH   1   9
TORSDOF 7
ENDMDL
MODEL 5
REMARK VINA RESULT:    46.917      5.244      8.178
REMARK INTER + INTRA:          67.178
REMARK INTER:                  65.898
REMARK INTRA:                   1.281
REMARK UNBOUND:                 2.433
REMARK SMILES CC[C@H](CC[C@@H](C)[C@H]1CC[C@@H]2C3=CC[C@@H]4C[C@H](O)CC[C@]4(C)[C@@H]3CC[C@]21C)C(C)C
REMARK SMILES IDX 5 1 4 2 3 3 2 4 1 5 28 6 29 7 30 8 6 9 7 10 8 11 9 12 26 13
REMARK SMILES IDX 10 14 11 15 25 16 27 17 12 18 24 19 23 20 13 21 21 22 14 23
REMARK SMILES IDX 15 24 20 25 22 26 16 27 19 28 17 29 18 30
REMARK H PARENT 18 31
REMARK Flexibility Score: inf
ROOT
ATOM      1  C   UNL     1     -25.648  32.840  -9.776  1.00  0.00     0.004 C 
ENDROOT
BRANCH   1   2
ATOM      2  C   UNL     1     -24.441  32.816  -8.799  1.00  0.00     0.004 C 
BRANCH   2   3
ATOM      3  C   UNL     1     -23.127  33.419  -9.388  1.00  0.00    -0.009 C 
BRANCH   3   4
ATOM      4  C   UNL     1     -22.853  34.807  -8.750  1.00  0.00     0.000 C 
ATOM      5  C   UNL     1     -23.555  35.963  -9.469  1.00  0.00     0.004 C 
ENDBRANCH   3   4
BRANCH   3   6
ATOM      6  C   UNL     1     -21.882  32.465  -9.288  1.00  0.00    -0.014 C 
ATOM      7  C   UNL     1     -21.116  32.345 -10.616  1.00  0.00     0.007 C 
ATOM      8  C   UNL     1     -22.199  31.060  -8.746  1.00  0.00     0.007 C 
ENDBRANCH   3   6
ENDBRANCH   2   3
ENDBRANCH   1   2
BRANCH   1   9
ATOM      9  C   UNL     1     -26.278  31.437 -10.032  1.00  0.00    -0.011 C 
ATOM     10  C   UNL     1     -25.570  30.792 -11.250  1.00  0.00     0.008 C 
BRANCH   9  11
ATOM     11  C   UNL     1     -26.164  30.487  -8.790  1.00  0.00    -0.002 C 
ATOM     12  C   UNL     1     -24.718  30.028  -8.444  1.00  0.00     0.005 C 
ATOM     13  C   UNL     1     -26.764  31.012  -7.420  1.00  0.00    -0.023 C 
ATOM     14  C   UNL     1     -24.634  29.976  -6.924  1.00  0.00     0.009 C 
ATOM     15  C   UNL     1     -25.515  31.143  -6.540  1.00  0.00     0.021 C 
ATOM     16  C   UNL     1     -27.468  32.409  -7.356  1.00  0.00     0.008 C 
ATOM     17  C   UNL     1     -27.749  29.924  -6.887  1.00  0.00     0.012 C 
ATOM     18  C   UNL     1     -25.868  31.438  -5.102  1.00  0.00    -0.067 C 
ATOM     19  C   UNL     1     -27.820  32.818  -5.893  1.00  0.00     0.009 C 
ATOM     20  C   UNL     1     -26.602  32.766  -4.916  1.00  0.00     0.021 C 
ATOM     21  C   UNL     1     -25.711  30.531  -4.118  1.00  0.00    -0.027 C 
ATOM     22  C   UNL     1     -26.857  33.151  -3.393  1.00  0.00    -0.023 C 
ATOM     23  C   UNL     1     -26.047  30.810  -2.682  1.00  0.00     0.031 C 
ATOM     24  C   UNL     1     -27.122  31.897  -2.499  1.00  0.00     0.002 C 
ATOM     25  C   UNL     1     -28.014  34.189  -3.178  1.00  0.00     0.010 C 
ATOM     26  C   UNL     1     -25.560  33.840  -2.871  1.00  0.00     0.012 C 
ATOM     27  C   UNL     1     -28.540  31.325  -2.664  1.00  0.00     0.036 C 
ATOM     28  C   UNL     1     -29.446  33.621  -3.185  1.00  0.00     0.032 C 
ATOM     29  C   UNL     1     -29.588  32.380  -2.300  1.00  0.00     0.114 C 
BRANCH  29  30
ATOM     30  O   UNL     1     -30.868  31.827  -2.475  1.00  0.00    -0.393 OA
ATOM     31  H   UNL     1     -30.823  31.201  -3.246  1.00  0.00     0.210 HD
ENDBRANCH  29  30
ENDBRANCH   9  11
ENDBRANCH   1   9
TORSDOF 7
ENDMDL
