MODEL 1
REMARK VINA RESULT:    -5.066      0.000      0.000
REMARK INTER + INTRA:          -8.539
REMARK INTER:                  -8.027
REMARK INTRA:                  -0.511
REMARK UNBOUND:                -0.511
REMARK SMILES CCCCCCCCCCCC(=O)[O-]
REMARK SMILES IDX 7 1 8 2 9 3 10 4 11 5 12 6 13 7 14 8 6 9 5 10 4 11 3 12 2 13
REMARK SMILES IDX 1 14
REMARK H PARENT
REMARK Flexibility Score: inf
ROOT
ATOM      1  C   UNL     1      -4.440  37.088  19.256  1.00  0.00     0.000 C 
ENDROOT
BRANCH   1   2
ATOM      2  C   UNL     1      -4.971  35.739  19.784  1.00  0.00     0.000 C 
BRANCH   2   3
ATOM      3  C   UNL     1      -5.825  35.828  21.064  1.00  0.00     0.000 C 
BRANCH   3   4
ATOM      4  C   UNL     1      -5.034  35.721  22.384  1.00  0.00     0.006 C 
BRANCH   4   5
ATOM      5  C   UNL     1      -5.016  37.010  23.220  1.00  0.00     0.053 C 
BRANCH   5   6
ATOM      6  C   UNL     1      -5.219  36.734  24.677  1.00  0.00     0.041 C 
ATOM      7  O   UNL     1      -6.011  35.827  25.048  1.00  0.00    -0.550 OA
ATOM      8  O   UNL     1      -4.509  37.458  25.628  1.00  0.00    -0.550 OA
ENDBRANCH   5   6
ENDBRANCH   4   5
ENDBRANCH   3   4
ENDBRANCH   2   3
ENDBRANCH   1   2
BRANCH   1   9
ATOM      9  C   UNL     1      -2.908  37.233  19.279  1.00  0.00     0.000 C 
BRANCH   9  10
ATOM     10  C   UNL     1      -2.302  37.365  17.872  1.00  0.00    -0.000 C 
BRANCH  10  11
ATOM     11  C   UNL     1      -3.070  36.550  16.820  1.00  0.00    -0.000 C 
BRANCH  11  12
ATOM     12  C   UNL     1      -2.188  36.146  15.627  1.00  0.00    -0.000 C 
BRANCH  12  13
ATOM     13  C   UNL     1      -2.846  36.540  14.301  1.00  0.00    -0.003 C 
ATOM     14  C   UNL     1      -3.900  37.625  14.508  1.00  0.00     0.004 C 
ENDBRANCH  12  13
ENDBRANCH  11  12
ENDBRANCH  10  11
ENDBRANCH   9  10
ENDBRANCH   1   9
TORSDOF 10
ENDMDL
MODEL 2
REMARK VINA RESULT:    -5.011      1.527      1.740
REMARK INTER + INTRA:          -8.451
REMARK INTER:                  -7.776
REMARK INTRA:                  -0.676
REMARK UNBOUND:                -0.511
REMARK SMILES CCCCCCCCCCCC(=O)[O-]
REMARK SMILES IDX 7 1 8 2 9 3 10 4 11 5 12 6 13 7 14 8 6 9 5 10 4 11 3 12 2 13
REMARK SMILES IDX 1 14
REMARK H PARENT
REMARK Flexibility Score: inf
ROOT
ATOM      1  C   UNL     1      -4.236  35.882  19.723  1.00  0.00     0.000 C 
ENDROOT
BRANCH   1   2
ATOM      2  C   UNL     1      -5.736  35.625  19.973  1.00  0.00     0.000 C 
BRANCH   2   3
ATOM      3  C   UNL     1      -6.119  35.365  21.444  1.00  0.00     0.000 C 
BRANCH   3   4
ATOM      4  C   UNL     1      -5.133  35.935  22.485  1.00  0.00     0.006 C 
BRANCH   4   5
ATOM      5  C   UNL     1      -5.689  37.104  23.312  1.00  0.00     0.053 C 
BRANCH   5   6
ATOM      6  C   UNL     1      -5.173  38.424  22.830  1.00  0.00     0.041 C 
ATOM      7  O   UNL     1      -5.234  38.722  21.608  1.00  0.00    -0.550 OA
ATOM      8  O   UNL     1      -4.653  39.341  23.737  1.00  0.00    -0.550 OA
ENDBRANCH   5   6
ENDBRANCH   4   5
ENDBRANCH   3   4
ENDBRANCH   2   3
ENDBRANCH   1   2
BRANCH   1   9
ATOM      9  C   UNL     1      -3.932  37.004  18.714  1.00  0.00     0.000 C 
BRANCH   9  10
ATOM     10  C   UNL     1      -2.425  37.205  18.483  1.00  0.00    -0.000 C 
BRANCH  10  11
ATOM     11  C   UNL     1      -2.002  36.891  17.040  1.00  0.00    -0.000 C 
BRANCH  11  12
ATOM     12  C   UNL     1      -3.129  36.241  16.223  1.00  0.00    -0.000 C 
BRANCH  12  13
ATOM     13  C   UNL     1      -2.894  36.426  14.720  1.00  0.00    -0.003 C 
ATOM     14  C   UNL     1      -3.955  37.333  14.103  1.00  0.00     0.004 C 
ENDBRANCH  12  13
ENDBRANCH  11  12
ENDBRANCH  10  11
ENDBRANCH   9  10
ENDBRANCH   1   9
TORSDOF 10
ENDMDL
MODEL 3
REMARK VINA RESULT:    -4.919      4.186      7.406
REMARK INTER + INTRA:          -8.305
REMARK INTER:                  -7.566
REMARK INTRA:                  -0.739
REMARK UNBOUND:                -0.511
REMARK SMILES CCCCCCCCCCCC(=O)[O-]
REMARK SMILES IDX 7 1 8 2 9 3 10 4 11 5 12 6 13 7 14 8 6 9 5 10 4 11 3 12 2 13
REMARK SMILES IDX 1 14
REMARK H PARENT
REMARK Flexibility Score: inf
ROOT
ATOM      1  C   UNL     1      -5.353  35.742  20.654  1.00  0.00     0.000 C 
ENDROOT
BRANCH   1   2
ATOM      2  C   UNL     1      -4.431  35.839  19.420  1.00  0.00     0.000 C 
BRANCH   2   3
ATOM      3  C   UNL     1      -3.741  37.204  19.224  1.00  0.00     0.000 C 
BRANCH   3   4
ATOM      4  C   UNL     1      -2.854  37.310  17.967  1.00  0.00     0.006 C 
BRANCH   4   5
ATOM      5  C   UNL     1      -3.182  36.285  16.870  1.00  0.00     0.053 C 
BRANCH   5   6
ATOM      6  C   UNL     1      -3.062  36.875  15.499  1.00  0.00     0.041 C 
ATOM      7  O   UNL     1      -2.427  36.265  14.599  1.00  0.00    -0.550 OA
ATOM      8  O   UNL     1      -3.679  38.086  15.207  1.00  0.00    -0.550 OA
ENDBRANCH   5   6
ENDBRANCH   4   5
ENDBRANCH   3   4
ENDBRANCH   2   3
ENDBRANCH   1   2
BRANCH   1   9
ATOM      9  C   UNL     1      -4.640  35.364  21.965  1.00  0.00     0.000 C 
BRANCH   9  10
ATOM     10  C   UNL     1      -5.602  35.278  23.162  1.00  0.00    -0.000 C 
BRANCH  10  11
ATOM     11  C   UNL     1      -6.081  36.660  23.634  1.00  0.00    -0.000 C 
BRANCH  11  12
ATOM     12  C   UNL     1      -4.966  37.471  24.312  1.00  0.00    -0.000 C 
BRANCH  12  13
ATOM     13  C   UNL     1      -4.956  38.917  23.808  1.00  0.00    -0.003 C 
ATOM     14  C   UNL     1      -4.534  38.988  22.342  1.00  0.00     0.004 C 
ENDBRANCH  12  13
ENDBRANCH  11  12
ENDBRANCH  10  11
ENDBRANCH   9  10
ENDBRANCH   1   9
TORSDOF 10
ENDMDL
MODEL 4
REMARK VINA RESULT:    -4.857      3.547      6.534
REMARK INTER + INTRA:          -8.208
REMARK INTER:                  -6.905
REMARK INTRA:                  -1.303
REMARK UNBOUND:                -0.511
REMARK SMILES CCCCCCCCCCCC(=O)[O-]
REMARK SMILES IDX 7 1 8 2 9 3 10 4 11 5 12 6 13 7 14 8 6 9 5 10 4 11 3 12 2 13
REMARK SMILES IDX 1 14
REMARK H PARENT
REMARK Flexibility Score: inf
ROOT
ATOM      1  C   UNL     1      -5.196  35.192  22.557  1.00  0.00     0.000 C 
ENDROOT
BRANCH   1   2
ATOM      2  C   UNL     1      -6.124  35.483  21.359  1.00  0.00     0.000 C 
BRANCH   2   3
ATOM      3  C   UNL     1      -5.404  35.732  20.019  1.00  0.00     0.000 C 
BRANCH   3   4
ATOM      4  C   UNL     1      -3.941  36.206  20.143  1.00  0.00     0.006 C 
BRANCH   4   5
ATOM      5  C   UNL     1      -3.607  37.456  19.316  1.00  0.00     0.053 C 
BRANCH   5   6
ATOM      6  C   UNL     1      -2.472  37.214  18.370  1.00  0.00     0.041 C 
ATOM      7  O   UNL     1      -2.686  36.709  17.236  1.00  0.00    -0.550 OA
ATOM      8  O   UNL     1      -1.178  37.575  18.728  1.00  0.00    -0.550 OA
ENDBRANCH   5   6
ENDBRANCH   4   5
ENDBRANCH   3   4
ENDBRANCH   2   3
ENDBRANCH   1   2
BRANCH   1   9
ATOM      9  C   UNL     1      -5.896  35.182  23.928  1.00  0.00     0.000 C 
BRANCH   9  10
ATOM     10  C   UNL     1      -6.021  36.587  24.541  1.00  0.00    -0.000 C 
BRANCH  10  11
ATOM     11  C   UNL     1      -4.725  37.404  24.417  1.00  0.00    -0.000 C 
BRANCH  11  12
ATOM     12  C   UNL     1      -4.982  38.858  23.992  1.00  0.00    -0.000 C 
BRANCH  12  13
ATOM     13  C   UNL     1      -4.536  39.093  22.546  1.00  0.00    -0.003 C 
ATOM     14  C   UNL     1      -5.733  39.342  21.632  1.00  0.00     0.004 C 
ENDBRANCH  12  13
ENDBRANCH  11  12
ENDBRANCH  10  11
ENDBRANCH   9  10
ENDBRANCH   1   9
TORSDOF 10
ENDMDL
MODEL 5
REMARK VINA RESULT:    -4.854      4.392      7.905
REMARK INTER + INTRA:          -8.203
REMARK INTER:                  -7.649
REMARK INTRA:                  -0.554
REMARK UNBOUND:                -0.511
REMARK SMILES CCCCCCCCCCCC(=O)[O-]
REMARK SMILES IDX 7 1 8 2 9 3 10 4 11 5 12 6 13 7 14 8 6 9 5 10 4 11 3 12 2 13
REMARK SMILES IDX 1 14
REMARK H PARENT
REMARK Flexibility Score: inf
ROOT
ATOM      1  C   UNL     1      -3.891  35.967  19.888  1.00  0.00     0.000 C 
ENDROOT
BRANCH   1   2
ATOM      2  C   UNL     1      -3.545  37.246  19.098  1.00  0.00     0.000 C 
BRANCH   2   3
ATOM      3  C   UNL     1      -2.120  37.286  18.509  1.00  0.00     0.000 C 
BRANCH   3   4
ATOM      4  C   UNL     1      -2.038  37.059  16.985  1.00  0.00     0.006 C 
BRANCH   4   5
ATOM      5  C   UNL     1      -3.395  36.822  16.305  1.00  0.00     0.053 C 
BRANCH   5   6
ATOM      6  C   UNL     1      -3.334  37.077  14.831  1.00  0.00     0.041 C 
ATOM      7  O   UNL     1      -2.542  36.419  14.105  1.00  0.00    -0.550 OA
ATOM      8  O   UNL     1      -4.176  38.019  14.252  1.00  0.00    -0.550 OA
ENDBRANCH   5   6
ENDBRANCH   4   5
ENDBRANCH   3   4
ENDBRANCH   2   3
ENDBRANCH   1   2
BRANCH   1   9
ATOM      9  C   UNL     1      -4.624  36.209  21.219  1.00  0.00     0.000 C 
BRANCH   9  10
ATOM     10  C   UNL     1      -4.741  37.702  21.571  1.00  0.00    -0.000 C 
BRANCH  10  11
ATOM     11  C   UNL     1      -5.256  37.933  23.000  1.00  0.00    -0.000 C 
BRANCH  11  12
ATOM     12  C   UNL     1      -6.020  36.721  23.555  1.00  0.00    -0.000 C 
BRANCH  12  13
ATOM     13  C   UNL     1      -5.509  36.342  24.949  1.00  0.00    -0.003 C 
ATOM     14  C   UNL     1      -4.620  37.439  25.528  1.00  0.00     0.004 C 
ENDBRANCH  12  13
ENDBRANCH  11  12
ENDBRANCH  10  11
ENDBRANCH   9  10
ENDBRANCH   1   9
TORSDOF 10
ENDMDL
MODEL 6
REMARK VINA RESULT:    -4.653      1.958      3.077
REMARK INTER + INTRA:          -7.884
REMARK INTER:                  -7.021
REMARK INTRA:                  -0.862
REMARK UNBOUND:                -0.511
REMARK SMILES CCCCCCCCCCCC(=O)[O-]
REMARK SMILES IDX 7 1 8 2 9 3 10 4 11 5 12 6 13 7 14 8 6 9 5 10 4 11 3 12 2 13
REMARK SMILES IDX 1 14
REMARK H PARENT
REMARK Flexibility Score: inf
ROOT
ATOM      1  C   UNL     1      -4.657  35.425  21.514  1.00  0.00     0.000 C 
ENDROOT
BRANCH   1   2
ATOM      2  C   UNL     1      -5.219  35.267  22.942  1.00  0.00     0.000 C 
BRANCH   2   3
ATOM      3  C   UNL     1      -5.904  36.523  23.518  1.00  0.00     0.000 C 
BRANCH   3   4
ATOM      4  C   UNL     1      -4.994  37.423  24.379  1.00  0.00     0.006 C 
BRANCH   4   5
ATOM      5  C   UNL     1      -5.027  38.910  23.995  1.00  0.00     0.053 C 
BRANCH   5   6
ATOM      6  C   UNL     1      -4.894  39.108  22.517  1.00  0.00     0.041 C 
ATOM      7  O   UNL     1      -3.844  38.750  21.920  1.00  0.00    -0.550 OA
ATOM      8  O   UNL     1      -5.943  39.661  21.792  1.00  0.00    -0.550 OA
ENDBRANCH   5   6
ENDBRANCH   4   5
ENDBRANCH   3   4
ENDBRANCH   2   3
ENDBRANCH   1   2
BRANCH   1   9
ATOM      9  C   UNL     1      -5.667  35.947  20.476  1.00  0.00     0.000 C 
BRANCH   9  10
ATOM     10  C   UNL     1      -5.005  36.799  19.380  1.00  0.00    -0.000 C 
BRANCH  10  11
ATOM     11  C   UNL     1      -3.500  36.522  19.244  1.00  0.00    -0.000 C 
BRANCH  11  12
ATOM     12  C   UNL     1      -2.908  37.101  17.950  1.00  0.00    -0.000 C 
BRANCH  12  13
ATOM     13  C   UNL     1      -3.156  36.162  16.765  1.00  0.00    -0.003 C 
ATOM     14  C   UNL     1      -3.124  36.922  15.442  1.00  0.00     0.004 C 
ENDBRANCH  12  13
ENDBRANCH  11  12
ENDBRANCH  10  11
ENDBRANCH   9  10
ENDBRANCH   1   9
TORSDOF 10
ENDMDL
MODEL 7
REMARK VINA RESULT:    -4.527      3.489      6.919
REMARK INTER + INTRA:          -7.684
REMARK INTER:                  -6.908
REMARK INTRA:                  -0.776
REMARK UNBOUND:                -0.511
REMARK SMILES CCCCCCCCCCCC(=O)[O-]
REMARK SMILES IDX 7 1 8 2 9 3 10 4 11 5 12 6 13 7 14 8 6 9 5 10 4 11 3 12 2 13
REMARK SMILES IDX 1 14
REMARK H PARENT
REMARK Flexibility Score: inf
ROOT
ATOM      1  C   UNL     1      -4.269  38.319  21.449  1.00  0.00     0.000 C 
ENDROOT
BRANCH   1   2
ATOM      2  C   UNL     1      -5.352  37.873  20.445  1.00  0.00     0.000 C 
BRANCH   2   3
ATOM      3  C   UNL     1      -5.304  36.384  20.047  1.00  0.00     0.000 C 
BRANCH   3   4
ATOM      4  C   UNL     1      -4.100  35.983  19.170  1.00  0.00     0.006 C 
BRANCH   4   5
ATOM      5  C   UNL     1      -3.759  36.991  18.062  1.00  0.00     0.053 C 
BRANCH   5   6
ATOM      6  C   UNL     1      -2.282  37.111  17.850  1.00  0.00     0.041 C 
ATOM      7  O   UNL     1      -1.757  36.693  16.784  1.00  0.00    -0.550 OA
ATOM      8  O   UNL     1      -1.487  37.713  18.818  1.00  0.00    -0.550 OA
ENDBRANCH   5   6
ENDBRANCH   4   5
ENDBRANCH   3   4
ENDBRANCH   2   3
ENDBRANCH   1   2
BRANCH   1   9
ATOM      9  C   UNL     1      -4.736  39.356  22.485  1.00  0.00     0.000 C 
BRANCH   9  10
ATOM     10  C   UNL     1      -5.277  38.709  23.772  1.00  0.00    -0.000 C 
BRANCH  10  11
ATOM     11  C   UNL     1      -5.105  37.182  23.781  1.00  0.00    -0.000 C 
BRANCH  11  12
ATOM     12  C   UNL     1      -6.073  36.485  24.750  1.00  0.00    -0.000 C 
BRANCH  12  13
ATOM     13  C   UNL     1      -6.102  34.973  24.504  1.00  0.00    -0.003 C 
ATOM     14  C   UNL     1      -5.342  34.607  23.233  1.00  0.00     0.004 C 
ENDBRANCH  12  13
ENDBRANCH  11  12
ENDBRANCH  10  11
ENDBRANCH   9  10
ENDBRANCH   1   9
TORSDOF 10
ENDMDL
MODEL 8
REMARK VINA RESULT:    -4.355      1.365      2.124
REMARK INTER + INTRA:          -7.412
REMARK INTER:                  -6.982
REMARK INTRA:                  -0.430
REMARK UNBOUND:                -0.511
REMARK SMILES CCCCCCCCCCCC(=O)[O-]
REMARK SMILES IDX 7 1 8 2 9 3 10 4 11 5 12 6 13 7 14 8 6 9 5 10 4 11 3 12 2 13
REMARK SMILES IDX 1 14
REMARK H PARENT
REMARK Flexibility Score: inf
ROOT
ATOM      1  C   UNL     1      -4.264  37.497  20.673  1.00  0.00     0.000 C 
ENDROOT
BRANCH   1   2
ATOM      2  C   UNL     1      -5.390  38.508  20.974  1.00  0.00     0.000 C 
BRANCH   2   3
ATOM      3  C   UNL     1      -5.103  39.481  22.135  1.00  0.00     0.000 C 
BRANCH   3   4
ATOM      4  C   UNL     1      -4.924  38.814  23.514  1.00  0.00     0.006 C 
BRANCH   4   5
ATOM      5  C   UNL     1      -5.855  37.618  23.766  1.00  0.00     0.053 C 
BRANCH   5   6
ATOM      6  C   UNL     1      -5.315  36.703  24.821  1.00  0.00     0.041 C 
ATOM      7  O   UNL     1      -5.689  35.501  24.871  1.00  0.00    -0.550 OA
ATOM      8  O   UNL     1      -4.374  37.169  25.732  1.00  0.00    -0.550 OA
ENDBRANCH   5   6
ENDBRANCH   4   5
ENDBRANCH   3   4
ENDBRANCH   2   3
ENDBRANCH   1   2
BRANCH   1   9
ATOM      9  C   UNL     1      -4.735  36.045  20.476  1.00  0.00     0.000 C 
BRANCH   9  10
ATOM     10  C   UNL     1      -4.377  35.487  19.088  1.00  0.00    -0.000 C 
BRANCH  10  11
ATOM     11  C   UNL     1      -3.743  36.546  18.172  1.00  0.00    -0.000 C 
BRANCH  11  12
ATOM     12  C   UNL     1      -3.345  35.977  16.801  1.00  0.00    -0.000 C 
BRANCH  12  13
ATOM     13  C   UNL     1      -2.922  37.097  15.845  1.00  0.00    -0.003 C 
ATOM     14  C   UNL     1      -3.439  36.843  14.432  1.00  0.00     0.004 C 
ENDBRANCH  12  13
ENDBRANCH  11  12
ENDBRANCH  10  11
ENDBRANCH   9  10
ENDBRANCH   1   9
TORSDOF 10
ENDMDL
