MODEL 1
REMARK VINA RESULT:    -6.643      0.000      0.000
REMARK INTER + INTRA:          -9.915
REMARK INTER:                  -8.779
REMARK INTRA:                  -1.136
REMARK UNBOUND:                -1.136
REMARK SMILES CC[C@H](C=C[C@H](C)[C@H]1CC[C@H]2C3=CC[C@@H]4C[C@H](O)CC[C@]4(C)[C@H]3CC[C@@]12C)C(C)C
REMARK SMILES IDX 6 1 7 2 5 3 4 4 3 5 2 6 1 7 28 8 29 9 30 10 8 11 9 12 26 13
REMARK SMILES IDX 10 14 11 15 25 16 27 17 12 18 24 19 23 20 13 21 21 22 14 23
REMARK SMILES IDX 15 24 20 25 22 26 16 27 19 28 17 29 18 30
REMARK H PARENT 18 31
REMARK Flexibility Score: inf
ROOT
ATOM      1  C   UNL     1     148.927 139.674 137.577  1.00  0.00     0.012 C 
ATOM      2  C   UNL     1     148.309 140.372 136.354  1.00  0.00     0.012 C 
ENDROOT
BRANCH   1   3
ATOM      3  C   UNL     1     148.819 140.591 138.785  1.00  0.00    -0.028 C 
ATOM      4  C   UNL     1     149.788 140.690 139.716  1.00  0.00    -0.027 C 
BRANCH   4   5
ATOM      5  C   UNL     1     149.664 141.510 140.992  1.00  0.00     0.014 C 
BRANCH   5   6
ATOM      6  C   UNL     1     149.084 142.923 140.715  1.00  0.00     0.004 C 
ATOM      7  C   UNL     1     149.969 144.057 141.242  1.00  0.00     0.004 C 
ENDBRANCH   5   6
BRANCH   5   8
ATOM      8  C   UNL     1     148.897 140.757 142.149  1.00  0.00    -0.011 C 
ATOM      9  C   UNL     1     149.232 139.252 142.138  1.00  0.00     0.008 C 
ATOM     10  C   UNL     1     147.363 140.924 142.130  1.00  0.00     0.008 C 
ENDBRANCH   5   8
ENDBRANCH   4   5
ENDBRANCH   1   3
BRANCH   1  11
ATOM     11  C   UNL     1     148.374 138.226 137.873  1.00  0.00     0.002 C 
ATOM     12  C   UNL     1     148.968 137.509 139.088  1.00  0.00     0.005 C 
ATOM     13  C   UNL     1     146.820 138.040 138.007  1.00  0.00    -0.023 C 
ATOM     14  C   UNL     1     148.097 136.282 139.240  1.00  0.00     0.009 C 
ATOM     15  C   UNL     1     146.675 136.758 138.914  1.00  0.00     0.021 C 
ATOM     16  C   UNL     1     146.094 139.280 138.645  1.00  0.00     0.008 C 
ATOM     17  C   UNL     1     146.212 137.787 136.608  1.00  0.00     0.012 C 
ATOM     18  C   UNL     1     145.767 137.048 140.108  1.00  0.00    -0.067 C 
ATOM     19  C   UNL     1     144.636 138.999 139.105  1.00  0.00     0.009 C 
ATOM     20  C   UNL     1     144.424 137.572 139.696  1.00  0.00     0.021 C 
ATOM     21  C   UNL     1     146.212 137.270 141.366  1.00  0.00    -0.027 C 
ATOM     22  C   UNL     1     143.365 137.440 140.845  1.00  0.00    -0.023 C 
ATOM     23  C   UNL     1     145.396 137.966 142.429  1.00  0.00     0.031 C 
ATOM     24  C   UNL     1     143.876 138.165 142.133  1.00  0.00     0.002 C 
ATOM     25  C   UNL     1     143.138 135.922 141.140  1.00  0.00     0.010 C 
ATOM     26  C   UNL     1     142.023 138.059 140.357  1.00  0.00     0.012 C 
ATOM     27  C   UNL     1     143.005 137.854 143.381  1.00  0.00     0.036 C 
ATOM     28  C   UNL     1     142.233 135.664 142.355  1.00  0.00     0.032 C 
ATOM     29  C   UNL     1     142.769 136.352 143.621  1.00  0.00     0.114 C 
BRANCH  29  30
ATOM     30  O   UNL     1     143.959 135.739 144.056  1.00  0.00    -0.393 OA
ATOM     31  H   UNL     1     144.422 135.388 143.252  1.00  0.00     0.210 HD
ENDBRANCH  29  30
ENDBRANCH   1  11
TORSDOF 6
ENDMDL
MODEL 2
REMARK VINA RESULT:    -6.482      3.060      5.399
REMARK INTER + INTRA:          -9.702
REMARK INTER:                  -9.006
REMARK INTRA:                  -0.696
REMARK UNBOUND:                -1.136
REMARK SMILES CC[C@H](C=C[C@H](C)[C@H]1CC[C@H]2C3=CC[C@@H]4C[C@H](O)CC[C@]4(C)[C@H]3CC[C@@]12C)C(C)C
REMARK SMILES IDX 6 1 7 2 5 3 4 4 3 5 2 6 1 7 28 8 29 9 30 10 8 11 9 12 26 13
REMARK SMILES IDX 10 14 11 15 25 16 27 17 12 18 24 19 23 20 13 21 21 22 14 23
REMARK SMILES IDX 15 24 20 25 22 26 16 27 19 28 17 29 18 30
REMARK H PARENT 18 31
REMARK Flexibility Score: inf
ROOT
ATOM      1  C   UNL     1     146.936 140.458 137.767  1.00  0.00     0.012 C 
ATOM      2  C   UNL     1     146.158 141.453 136.891  1.00  0.00     0.012 C 
ENDROOT
BRANCH   1   3
ATOM      3  C   UNL     1     147.477 141.183 138.989  1.00  0.00    -0.028 C 
ATOM      4  C   UNL     1     148.778 141.157 139.338  1.00  0.00    -0.027 C 
BRANCH   4   5
ATOM      5  C   UNL     1     149.332 141.776 140.614  1.00  0.00     0.014 C 
BRANCH   5   6
ATOM      6  C   UNL     1     148.941 143.273 140.745  1.00  0.00     0.004 C 
ATOM      7  C   UNL     1     150.006 144.119 141.449  1.00  0.00     0.004 C 
ENDBRANCH   5   6
BRANCH   5   8
ATOM      8  C   UNL     1     148.991 140.945 141.912  1.00  0.00    -0.011 C 
ATOM      9  C   UNL     1     149.380 139.464 141.732  1.00  0.00     0.008 C 
ATOM     10  C   UNL     1     147.518 141.019 142.366  1.00  0.00     0.008 C 
ENDBRANCH   5   8
ENDBRANCH   4   5
ENDBRANCH   1   3
BRANCH   1  11
ATOM     11  C   UNL     1     146.151 139.144 138.149  1.00  0.00     0.002 C 
ATOM     12  C   UNL     1     145.367 138.471 137.020  1.00  0.00     0.005 C 
ATOM     13  C   UNL     1     146.948 137.981 138.843  1.00  0.00    -0.023 C 
ATOM     14  C   UNL     1     144.931 137.155 137.623  1.00  0.00     0.009 C 
ATOM     15  C   UNL     1     146.121 136.690 138.474  1.00  0.00     0.021 C 
ATOM     16  C   UNL     1     148.439 137.867 138.358  1.00  0.00     0.008 C 
ATOM     17  C   UNL     1     146.950 138.205 140.373  1.00  0.00     0.012 C 
ATOM     18  C   UNL     1     147.030 135.635 137.847  1.00  0.00    -0.067 C 
ATOM     19  C   UNL     1     149.139 136.538 138.756  1.00  0.00     0.009 C 
ATOM     20  C   UNL     1     148.201 135.293 138.719  1.00  0.00     0.021 C 
ATOM     21  C   UNL     1     147.084 135.366 136.522  1.00  0.00    -0.027 C 
ATOM     22  C   UNL     1     148.860 133.931 138.309  1.00  0.00    -0.023 C 
ATOM     23  C   UNL     1     148.246 134.664 135.860  1.00  0.00     0.031 C 
ATOM     24  C   UNL     1     149.278 133.968 136.802  1.00  0.00     0.002 C 
ATOM     25  C   UNL     1     147.825 132.785 138.549  1.00  0.00     0.010 C 
ATOM     26  C   UNL     1     150.098 133.684 139.220  1.00  0.00     0.012 C 
ATOM     27  C   UNL     1     149.696 132.572 136.261  1.00  0.00     0.036 C 
ATOM     28  C   UNL     1     148.301 131.415 138.039  1.00  0.00     0.032 C 
ATOM     29  C   UNL     1     148.671 131.459 136.548  1.00  0.00     0.114 C 
BRANCH  29  30
ATOM     30  O   UNL     1     147.524 131.641 135.754  1.00  0.00    -0.393 OA
ATOM     31  H   UNL     1     146.944 132.300 136.219  1.00  0.00     0.210 HD
ENDBRANCH  29  30
ENDBRANCH   1  11
TORSDOF 6
ENDMDL
MODEL 3
REMARK VINA RESULT:    -6.470      4.566      9.779
REMARK INTER + INTRA:          -9.687
REMARK INTER:                  -8.713
REMARK INTRA:                  -0.975
REMARK UNBOUND:                -1.136
REMARK SMILES CC[C@H](C=C[C@H](C)[C@H]1CC[C@H]2C3=CC[C@@H]4C[C@H](O)CC[C@]4(C)[C@H]3CC[C@@]12C)C(C)C
REMARK SMILES IDX 6 1 7 2 5 3 4 4 3 5 2 6 1 7 28 8 29 9 30 10 8 11 9 12 26 13
REMARK SMILES IDX 10 14 11 15 25 16 27 17 12 18 24 19 23 20 13 21 21 22 14 23
REMARK SMILES IDX 15 24 20 25 22 26 16 27 19 28 17 29 18 30
REMARK H PARENT 18 31
REMARK Flexibility Score: inf
ROOT
ATOM      1  C   UNL     1     138.041 136.217 143.100  1.00  0.00     0.012 C 
ATOM      2  C   UNL     1     138.627 135.866 144.478  1.00  0.00     0.012 C 
ENDROOT
BRANCH   1   3
ATOM      3  C   UNL     1     136.565 136.544 143.253  1.00  0.00    -0.028 C 
ATOM      4  C   UNL     1     135.893 137.317 142.376  1.00  0.00    -0.027 C 
BRANCH   4   5
ATOM      5  C   UNL     1     134.447 137.757 142.559  1.00  0.00     0.014 C 
BRANCH   5   6
ATOM      6  C   UNL     1     134.345 139.265 142.915  1.00  0.00     0.004 C 
ATOM      7  C   UNL     1     134.768 139.580 144.353  1.00  0.00     0.004 C 
ENDBRANCH   5   6
BRANCH   5   8
ATOM      8  C   UNL     1     133.512 137.354 141.353  1.00  0.00    -0.011 C 
ATOM      9  C   UNL     1     134.083 136.135 140.601  1.00  0.00     0.008 C 
ATOM     10  C   UNL     1     133.239 138.481 140.335  1.00  0.00     0.008 C 
ENDBRANCH   5   8
ENDBRANCH   4   5
ENDBRANCH   1   3
BRANCH   1  11
ATOM     11  C   UNL     1     138.823 137.331 142.303  1.00  0.00     0.002 C 
ATOM     12  C   UNL     1     139.384 138.490 143.132  1.00  0.00     0.005 C 
ATOM     13  C   UNL     1     140.007 136.883 141.372  1.00  0.00    -0.023 C 
ATOM     14  C   UNL     1     140.251 139.245 142.149  1.00  0.00     0.009 C 
ATOM     15  C   UNL     1     140.926 138.162 141.297  1.00  0.00     0.021 C 
ATOM     16  C   UNL     1     140.796 135.639 141.919  1.00  0.00     0.008 C 
ATOM     17  C   UNL     1     139.451 136.531 139.973  1.00  0.00     0.012 C 
ATOM     18  C   UNL     1     142.365 137.808 141.668  1.00  0.00    -0.067 C 
ATOM     19  C   UNL     1     142.160 135.390 141.217  1.00  0.00     0.009 C 
ATOM     20  C   UNL     1     142.918 136.696 140.828  1.00  0.00     0.021 C 
ATOM     21  C   UNL     1     142.934 138.088 142.862  1.00  0.00    -0.027 C 
ATOM     22  C   UNL     1     144.484 136.640 140.886  1.00  0.00    -0.023 C 
ATOM     23  C   UNL     1     144.163 137.384 143.387  1.00  0.00     0.031 C 
ATOM     24  C   UNL     1     144.963 136.511 142.369  1.00  0.00     0.002 C 
ATOM     25  C   UNL     1     145.052 137.951 140.252  1.00  0.00     0.010 C 
ATOM     26  C   UNL     1     144.970 135.427 140.040  1.00  0.00     0.012 C 
ATOM     27  C   UNL     1     146.496 136.713 142.523  1.00  0.00     0.036 C 
ATOM     28  C   UNL     1     146.577 138.085 140.389  1.00  0.00     0.032 C 
ATOM     29  C   UNL     1     147.029 137.994 141.856  1.00  0.00     0.114 C 
BRANCH  29  30
ATOM     30  O   UNL     1     146.608 139.126 142.577  1.00  0.00    -0.393 OA
ATOM     31  H   UNL     1     146.367 138.822 143.490  1.00  0.00     0.210 HD
ENDBRANCH  29  30
ENDBRANCH   1  11
TORSDOF 6
ENDMDL
MODEL 4
REMARK VINA RESULT:    -6.388      2.991      6.342
REMARK INTER + INTRA:          -9.578
REMARK INTER:                  -8.521
REMARK INTRA:                  -1.057
REMARK UNBOUND:                -1.136
REMARK SMILES CC[C@H](C=C[C@H](C)[C@H]1CC[C@H]2C3=CC[C@@H]4C[C@H](O)CC[C@]4(C)[C@H]3CC[C@@]12C)C(C)C
REMARK SMILES IDX 6 1 7 2 5 3 4 4 3 5 2 6 1 7 28 8 29 9 30 10 8 11 9 12 26 13
REMARK SMILES IDX 10 14 11 15 25 16 27 17 12 18 24 19 23 20 13 21 21 22 14 23
REMARK SMILES IDX 15 24 20 25 22 26 16 27 19 28 17 29 18 30
REMARK H PARENT 18 31
REMARK Flexibility Score: inf
ROOT
ATOM      1  C   UNL     1     146.960 135.163 137.385  1.00  0.00     0.012 C 
ATOM      2  C   UNL     1     146.422 133.850 137.976  1.00  0.00     0.012 C 
ENDROOT
BRANCH   1   3
ATOM      3  C   UNL     1     145.829 136.174 137.299  1.00  0.00    -0.028 C 
ATOM      4  C   UNL     1     145.513 136.823 136.161  1.00  0.00    -0.027 C 
BRANCH   4   5
ATOM      5  C   UNL     1     144.464 137.923 136.069  1.00  0.00     0.014 C 
BRANCH   5   6
ATOM      6  C   UNL     1     143.256 137.646 137.005  1.00  0.00     0.004 C 
ATOM      7  C   UNL     1     143.267 138.501 138.277  1.00  0.00     0.004 C 
ENDBRANCH   5   6
BRANCH   5   8
ATOM      8  C   UNL     1     145.057 139.373 136.258  1.00  0.00    -0.011 C 
ATOM      9  C   UNL     1     144.228 140.410 135.475  1.00  0.00     0.008 C 
ATOM     10  C   UNL     1     146.542 139.527 135.864  1.00  0.00     0.008 C 
ENDBRANCH   5   8
ENDBRANCH   4   5
ENDBRANCH   1   3
BRANCH   1  11
ATOM     11  C   UNL     1     148.235 135.750 138.105  1.00  0.00     0.002 C 
ATOM     12  C   UNL     1     149.152 136.628 137.250  1.00  0.00     0.005 C 
ATOM     13  C   UNL     1     148.028 136.552 139.440  1.00  0.00    -0.023 C 
ATOM     14  C   UNL     1     150.125 137.210 138.251  1.00  0.00     0.009 C 
ATOM     15  C   UNL     1     149.284 137.503 139.501  1.00  0.00     0.021 C 
ATOM     16  C   UNL     1     146.686 137.369 139.477  1.00  0.00     0.008 C 
ATOM     17  C   UNL     1     148.033 135.569 140.633  1.00  0.00     0.012 C 
ATOM     18  C   UNL     1     148.847 138.954 139.698  1.00  0.00    -0.067 C 
ATOM     19  C   UNL     1     146.615 138.429 140.612  1.00  0.00     0.009 C 
ATOM     20  C   UNL     1     147.975 139.133 140.904  1.00  0.00     0.021 C 
ATOM     21  C   UNL     1     148.822 139.882 138.714  1.00  0.00    -0.027 C 
ATOM     22  C   UNL     1     147.904 140.631 141.360  1.00  0.00    -0.023 C 
ATOM     23  C   UNL     1     148.008 141.152 138.785  1.00  0.00     0.031 C 
ATOM     24  C   UNL     1     147.411 141.529 140.178  1.00  0.00     0.002 C 
ATOM     25  C   UNL     1     149.330 141.081 141.816  1.00  0.00     0.010 C 
ATOM     26  C   UNL     1     146.936 140.737 142.574  1.00  0.00     0.012 C 
ATOM     27  C   UNL     1     147.566 143.047 140.473  1.00  0.00     0.036 C 
ATOM     28  C   UNL     1     149.422 142.580 142.141  1.00  0.00     0.032 C 
ATOM     29  C   UNL     1     148.972 143.450 140.956  1.00  0.00     0.114 C 
BRANCH  29  30
ATOM     30  O   UNL     1     149.891 143.363 139.895  1.00  0.00    -0.393 OA
ATOM     31  H   UNL     1     150.446 144.185 139.916  1.00  0.00     0.210 HD
ENDBRANCH  29  30
ENDBRANCH   1  11
TORSDOF 6
ENDMDL
MODEL 5
REMARK VINA RESULT:    -6.353      3.014      5.535
REMARK INTER + INTRA:          -9.532
REMARK INTER:                  -8.241
REMARK INTRA:                  -1.290
REMARK UNBOUND:                -1.136
REMARK SMILES CC[C@H](C=C[C@H](C)[C@H]1CC[C@H]2C3=CC[C@@H]4C[C@H](O)CC[C@]4(C)[C@H]3CC[C@@]12C)C(C)C
REMARK SMILES IDX 6 1 7 2 5 3 4 4 3 5 2 6 1 7 28 8 29 9 30 10 8 11 9 12 26 13
REMARK SMILES IDX 10 14 11 15 25 16 27 17 12 18 24 19 23 20 13 21 21 22 14 23
REMARK SMILES IDX 15 24 20 25 22 26 16 27 19 28 17 29 18 30
REMARK H PARENT 18 31
REMARK Flexibility Score: inf
ROOT
ATOM      1  C   UNL     1     145.542 136.622 141.293  1.00  0.00     0.012 C 
ATOM      2  C   UNL     1     145.925 135.792 140.056  1.00  0.00     0.012 C 
ENDROOT
BRANCH   1   3
ATOM      3  C   UNL     1     146.795 137.249 141.883  1.00  0.00    -0.028 C 
ATOM      4  C   UNL     1     147.405 138.318 141.334  1.00  0.00    -0.027 C 
BRANCH   4   5
ATOM      5  C   UNL     1     148.721 138.898 141.833  1.00  0.00     0.014 C 
BRANCH   5   6
ATOM      6  C   UNL     1     149.895 138.573 140.869  1.00  0.00     0.004 C 
ATOM      7  C   UNL     1     149.439 137.956 139.544  1.00  0.00     0.004 C 
ENDBRANCH   5   6
BRANCH   5   8
ATOM      8  C   UNL     1     148.636 140.435 142.186  1.00  0.00    -0.011 C 
ATOM      9  C   UNL     1     147.185 140.841 142.513  1.00  0.00     0.008 C 
ATOM     10  C   UNL     1     149.183 141.385 141.100  1.00  0.00     0.008 C 
ENDBRANCH   5   8
ENDBRANCH   4   5
ENDBRANCH   1   3
BRANCH   1  11
ATOM     11  C   UNL     1     144.395 137.681 141.061  1.00  0.00     0.002 C 
ATOM     12  C   UNL     1     143.704 137.643 139.696  1.00  0.00     0.005 C 
ATOM     13  C   UNL     1     143.227 137.747 142.109  1.00  0.00    -0.023 C 
ATOM     14  C   UNL     1     142.535 138.588 139.861  1.00  0.00     0.009 C 
ATOM     15  C   UNL     1     142.021 138.343 141.286  1.00  0.00     0.021 C 
ATOM     16  C   UNL     1     142.863 136.350 142.731  1.00  0.00     0.008 C 
ATOM     17  C   UNL     1     143.625 138.702 143.258  1.00  0.00     0.012 C 
ATOM     18  C   UNL     1     140.790 137.448 141.418  1.00  0.00    -0.067 C 
ATOM     19  C   UNL     1     141.509 136.323 143.493  1.00  0.00     0.009 C 
ATOM     20  C   UNL     1     140.402 137.210 142.846  1.00  0.00     0.021 C 
ATOM     21  C   UNL     1     140.365 136.593 140.459  1.00  0.00    -0.027 C 
ATOM     22  C   UNL     1     138.927 136.694 142.975  1.00  0.00    -0.023 C 
ATOM     23  C   UNL     1     139.445 135.427 140.731  1.00  0.00     0.031 C 
ATOM     24  C   UNL     1     138.734 135.399 142.121  1.00  0.00     0.002 C 
ATOM     25  C   UNL     1     137.962 137.816 142.472  1.00  0.00     0.010 C 
ATOM     26  C   UNL     1     138.628 136.416 144.477  1.00  0.00     0.012 C 
ATOM     27  C   UNL     1     137.242 134.983 141.992  1.00  0.00     0.036 C 
ATOM     28  C   UNL     1     136.492 137.372 142.405  1.00  0.00     0.032 C 
ATOM     29  C   UNL     1     136.313 136.121 141.530  1.00  0.00     0.114 C 
BRANCH  29  30
ATOM     30  O   UNL     1     136.551 136.420 140.176  1.00  0.00    -0.393 OA
ATOM     31  H   UNL     1     136.241 137.350 140.020  1.00  0.00     0.210 HD
ENDBRANCH  29  30
ENDBRANCH   1  11
TORSDOF 6
ENDMDL
MODEL 6
REMARK VINA RESULT:    -6.323      2.095      4.508
REMARK INTER + INTRA:          -9.493
REMARK INTER:                  -8.692
REMARK INTRA:                  -0.800
REMARK UNBOUND:                -1.136
REMARK SMILES CC[C@H](C=C[C@H](C)[C@H]1CC[C@H]2C3=CC[C@@H]4C[C@H](O)CC[C@]4(C)[C@H]3CC[C@@]12C)C(C)C
REMARK SMILES IDX 6 1 7 2 5 3 4 4 3 5 2 6 1 7 28 8 29 9 30 10 8 11 9 12 26 13
REMARK SMILES IDX 10 14 11 15 25 16 27 17 12 18 24 19 23 20 13 21 21 22 14 23
REMARK SMILES IDX 15 24 20 25 22 26 16 27 19 28 17 29 18 30
REMARK H PARENT 18 31
REMARK Flexibility Score: inf
ROOT
ATOM      1  C   UNL     1     147.793 141.012 137.669  1.00  0.00     0.012 C 
ATOM      2  C   UNL     1     148.211 140.382 136.330  1.00  0.00     0.012 C 
ENDROOT
BRANCH   1   3
ATOM      3  C   UNL     1     146.278 140.977 137.788  1.00  0.00    -0.028 C 
ATOM      4  C   UNL     1     145.481 140.464 136.829  1.00  0.00    -0.027 C 
BRANCH   4   5
ATOM      5  C   UNL     1     143.960 140.517 136.865  1.00  0.00     0.014 C 
BRANCH   5   6
ATOM      6  C   UNL     1     143.377 141.172 135.583  1.00  0.00     0.004 C 
ATOM      7  C   UNL     1     143.799 140.461 134.293  1.00  0.00     0.004 C 
ENDBRANCH   5   6
BRANCH   5   8
ATOM      8  C   UNL     1     143.292 139.124 137.191  1.00  0.00    -0.011 C 
ATOM      9  C   UNL     1     143.164 138.922 138.714  1.00  0.00     0.008 C 
ATOM     10  C   UNL     1     144.010 137.899 136.587  1.00  0.00     0.008 C 
ENDBRANCH   5   8
ENDBRANCH   4   5
ENDBRANCH   1   3
BRANCH   1  11
ATOM     11  C   UNL     1     148.507 140.414 138.943  1.00  0.00     0.002 C 
ATOM     12  C   UNL     1     148.195 141.097 140.277  1.00  0.00     0.005 C 
ATOM     13  C   UNL     1     148.353 138.876 139.225  1.00  0.00    -0.023 C 
ATOM     14  C   UNL     1     148.824 140.180 141.303  1.00  0.00     0.009 C 
ATOM     15  C   UNL     1     148.563 138.760 140.783  1.00  0.00     0.021 C 
ATOM     16  C   UNL     1     146.959 138.296 138.787  1.00  0.00     0.008 C 
ATOM     17  C   UNL     1     149.460 138.105 138.469  1.00  0.00     0.012 C 
ATOM     18  C   UNL     1     147.398 138.007 141.424  1.00  0.00    -0.067 C 
ATOM     19  C   UNL     1     146.647 136.884 139.359  1.00  0.00     0.009 C 
ATOM     20  C   UNL     1     147.176 136.659 140.808  1.00  0.00     0.021 C 
ATOM     21  C   UNL     1     146.395 138.600 142.112  1.00  0.00    -0.027 C 
ATOM     22  C   UNL     1     146.315 135.727 141.730  1.00  0.00    -0.023 C 
ATOM     23  C   UNL     1     145.057 137.947 142.365  1.00  0.00     0.031 C 
ATOM     24  C   UNL     1     144.953 136.417 142.069  1.00  0.00     0.002 C 
ATOM     25  C   UNL     1     147.116 135.449 143.043  1.00  0.00     0.010 C 
ATOM     26  C   UNL     1     146.082 134.377 140.993  1.00  0.00     0.012 C 
ATOM     27  C   UNL     1     144.165 135.672 143.183  1.00  0.00     0.036 C 
ATOM     28  C   UNL     1     146.312 134.670 144.096  1.00  0.00     0.032 C 
ATOM     29  C   UNL     1     144.995 135.380 144.447  1.00  0.00     0.114 C 
BRANCH  29  30
ATOM     30  O   UNL     1     145.244 136.574 145.149  1.00  0.00    -0.393 OA
ATOM     31  H   UNL     1     145.681 136.329 146.005  1.00  0.00     0.210 HD
ENDBRANCH  29  30
ENDBRANCH   1  11
TORSDOF 6
ENDMDL
MODEL 7
REMARK VINA RESULT:    -6.271      2.540      6.298
REMARK INTER + INTRA:          -9.423
REMARK INTER:                  -8.565
REMARK INTRA:                  -0.859
REMARK UNBOUND:                -1.136
REMARK SMILES CC[C@H](C=C[C@H](C)[C@H]1CC[C@H]2C3=CC[C@@H]4C[C@H](O)CC[C@]4(C)[C@H]3CC[C@@]12C)C(C)C
REMARK SMILES IDX 6 1 7 2 5 3 4 4 3 5 2 6 1 7 28 8 29 9 30 10 8 11 9 12 26 13
REMARK SMILES IDX 10 14 11 15 25 16 27 17 12 18 24 19 23 20 13 21 21 22 14 23
REMARK SMILES IDX 15 24 20 25 22 26 16 27 19 28 17 29 18 30
REMARK H PARENT 18 31
REMARK Flexibility Score: inf
ROOT
ATOM      1  C   UNL     1     145.181 135.475 136.444  1.00  0.00     0.012 C 
ATOM      2  C   UNL     1     145.676 135.359 134.992  1.00  0.00     0.012 C 
ENDROOT
BRANCH   1   3
ATOM      3  C   UNL     1     146.214 134.862 137.375  1.00  0.00    -0.028 C 
ATOM      4  C   UNL     1     147.241 134.108 136.933  1.00  0.00    -0.027 C 
BRANCH   4   5
ATOM      5  C   UNL     1     148.224 133.388 137.845  1.00  0.00     0.014 C 
BRANCH   5   6
ATOM      6  C   UNL     1     149.569 133.097 137.126  1.00  0.00     0.004 C 
ATOM      7  C   UNL     1     149.638 133.678 135.710  1.00  0.00     0.004 C 
ENDBRANCH   5   6
BRANCH   5   8
ATOM      8  C   UNL     1     148.424 134.101 139.239  1.00  0.00    -0.011 C 
ATOM      9  C   UNL     1     149.540 135.162 139.156  1.00  0.00     0.008 C 
ATOM     10  C   UNL     1     148.729 133.153 140.419  1.00  0.00     0.008 C 
ENDBRANCH   5   8
ENDBRANCH   4   5
ENDBRANCH   1   3
BRANCH   1  11
ATOM     11  C   UNL     1     144.755 136.926 136.893  1.00  0.00     0.002 C 
ATOM     12  C   UNL     1     143.981 137.027 138.210  1.00  0.00     0.005 C 
ATOM     13  C   UNL     1     145.870 138.029 136.988  1.00  0.00    -0.023 C 
ATOM     14  C   UNL     1     143.924 138.515 138.477  1.00  0.00     0.009 C 
ATOM     15  C   UNL     1     145.293 139.053 138.039  1.00  0.00     0.021 C 
ATOM     16  C   UNL     1     147.268 137.469 137.438  1.00  0.00     0.008 C 
ATOM     17  C   UNL     1     146.038 138.705 135.607  1.00  0.00     0.012 C 
ATOM     18  C   UNL     1     146.309 139.306 139.151  1.00  0.00    -0.067 C 
ATOM     19  C   UNL     1     148.284 138.563 137.872  1.00  0.00     0.009 C 
ATOM     20  C   UNL     1     147.636 139.764 138.625  1.00  0.00     0.021 C 
ATOM     21  C   UNL     1     146.233 138.766 140.389  1.00  0.00    -0.027 C 
ATOM     22  C   UNL     1     148.506 140.444 139.738  1.00  0.00    -0.023 C 
ATOM     23  C   UNL     1     147.413 138.656 141.325  1.00  0.00     0.031 C 
ATOM     24  C   UNL     1     148.691 139.468 140.946  1.00  0.00     0.002 C 
ATOM     25  C   UNL     1     147.782 141.747 140.209  1.00  0.00     0.010 C 
ATOM     26  C   UNL     1     149.882 140.833 139.125  1.00  0.00     0.012 C 
ATOM     27  C   UNL     1     149.316 140.164 142.188  1.00  0.00     0.036 C 
ATOM     28  C   UNL     1     148.462 142.424 141.410  1.00  0.00     0.032 C 
ATOM     29  C   UNL     1     148.602 141.464 142.602  1.00  0.00     0.114 C 
BRANCH  29  30
ATOM     30  O   UNL     1     147.342 141.169 143.155  1.00  0.00    -0.393 OA
ATOM     31  H   UNL     1     146.993 142.005 143.559  1.00  0.00     0.210 HD
ENDBRANCH  29  30
ENDBRANCH   1  11
TORSDOF 6
ENDMDL
MODEL 8
REMARK VINA RESULT:    -6.077      2.888      4.801
REMARK INTER + INTRA:          -9.167
REMARK INTER:                  -8.180
REMARK INTRA:                  -0.988
REMARK UNBOUND:                -1.136
REMARK SMILES CC[C@H](C=C[C@H](C)[C@H]1CC[C@H]2C3=CC[C@@H]4C[C@H](O)CC[C@]4(C)[C@H]3CC[C@@]12C)C(C)C
REMARK SMILES IDX 6 1 7 2 5 3 4 4 3 5 2 6 1 7 28 8 29 9 30 10 8 11 9 12 26 13
REMARK SMILES IDX 10 14 11 15 25 16 27 17 12 18 24 19 23 20 13 21 21 22 14 23
REMARK SMILES IDX 15 24 20 25 22 26 16 27 19 28 17 29 18 30
REMARK H PARENT 18 31
REMARK Flexibility Score: inf
ROOT
ATOM      1  C   UNL     1     145.307 140.678 136.995  1.00  0.00     0.012 C 
ATOM      2  C   UNL     1     144.035 141.500 137.265  1.00  0.00     0.012 C 
ENDROOT
BRANCH   1   3
ATOM      3  C   UNL     1     146.277 140.863 138.151  1.00  0.00    -0.028 C 
ATOM      4  C   UNL     1     147.493 141.424 138.001  1.00  0.00    -0.027 C 
BRANCH   4   5
ATOM      5  C   UNL     1     148.531 141.520 139.111  1.00  0.00     0.014 C 
BRANCH   5   6
ATOM      6  C   UNL     1     147.867 141.633 140.510  1.00  0.00     0.004 C 
ATOM      7  C   UNL     1     148.460 142.751 141.374  1.00  0.00     0.004 C 
ENDBRANCH   5   6
BRANCH   5   8
ATOM      8  C   UNL     1     149.622 140.381 139.049  1.00  0.00    -0.011 C 
ATOM      9  C   UNL     1     149.528 139.604 137.720  1.00  0.00     0.008 C 
ATOM     10  C   UNL     1     149.580 139.373 140.216  1.00  0.00     0.008 C 
ENDBRANCH   5   8
ENDBRANCH   4   5
ENDBRANCH   1   3
BRANCH   1  11
ATOM     11  C   UNL     1     145.062 139.157 136.655  1.00  0.00     0.002 C 
ATOM     12  C   UNL     1     145.927 138.565 135.539  1.00  0.00     0.005 C 
ATOM     13  C   UNL     1     145.140 138.115 137.828  1.00  0.00    -0.023 C 
ATOM     14  C   UNL     1     145.633 137.083 135.607  1.00  0.00     0.009 C 
ATOM     15  C   UNL     1     145.519 136.766 137.104  1.00  0.00     0.021 C 
ATOM     16  C   UNL     1     146.193 138.492 138.932  1.00  0.00     0.008 C 
ATOM     17  C   UNL     1     143.751 137.998 138.499  1.00  0.00     0.012 C 
ATOM     18  C   UNL     1     146.749 136.137 137.758  1.00  0.00    -0.067 C 
ATOM     19  C   UNL     1     146.538 137.332 139.908  1.00  0.00     0.009 C 
ATOM     20  C   UNL     1     146.572 135.927 139.232  1.00  0.00     0.021 C 
ATOM     21  C   UNL     1     147.996 136.182 137.236  1.00  0.00    -0.027 C 
ATOM     22  C   UNL     1     147.607 134.899 139.806  1.00  0.00    -0.023 C 
ATOM     23  C   UNL     1     149.249 135.959 138.048  1.00  0.00     0.031 C 
ATOM     24  C   UNL     1     149.064 135.364 139.480  1.00  0.00     0.002 C 
ATOM     25  C   UNL     1     147.333 133.503 139.159  1.00  0.00     0.010 C 
ATOM     26  C   UNL     1     147.394 134.785 141.344  1.00  0.00     0.012 C 
ATOM     27  C   UNL     1     150.125 134.270 139.786  1.00  0.00     0.036 C 
ATOM     28  C   UNL     1     148.382 132.442 139.527  1.00  0.00     0.032 C 
ATOM     29  C   UNL     1     149.805 132.898 139.165  1.00  0.00     0.114 C 
BRANCH  29  30
ATOM     30  O   UNL     1     149.973 132.948 137.769  1.00  0.00    -0.393 OA
ATOM     31  H   UNL     1     149.446 132.202 137.381  1.00  0.00     0.210 HD
ENDBRANCH  29  30
ENDBRANCH   1  11
TORSDOF 6
ENDMDL
MODEL 9
REMARK VINA RESULT:    -6.048      3.196      4.777
REMARK INTER + INTRA:          -9.130
REMARK INTER:                  -7.892
REMARK INTRA:                  -1.238
REMARK UNBOUND:                -1.136
REMARK SMILES CC[C@H](C=C[C@H](C)[C@H]1CC[C@H]2C3=CC[C@@H]4C[C@H](O)CC[C@]4(C)[C@H]3CC[C@@]12C)C(C)C
REMARK SMILES IDX 6 1 7 2 5 3 4 4 3 5 2 6 1 7 28 8 29 9 30 10 8 11 9 12 26 13
REMARK SMILES IDX 10 14 11 15 25 16 27 17 12 18 24 19 23 20 13 21 21 22 14 23
REMARK SMILES IDX 15 24 20 25 22 26 16 27 19 28 17 29 18 30
REMARK H PARENT 18 31
REMARK Flexibility Score: inf
ROOT
ATOM      1  C   UNL     1     147.221 140.579 137.575  1.00  0.00     0.012 C 
ATOM      2  C   UNL     1     147.139 141.905 136.800  1.00  0.00     0.012 C 
ENDROOT
BRANCH   1   3
ATOM      3  C   UNL     1     148.206 140.731 138.723  1.00  0.00    -0.028 C 
ATOM      4  C   UNL     1     147.940 141.462 139.823  1.00  0.00    -0.027 C 
BRANCH   4   5
ATOM      5  C   UNL     1     148.946 141.727 140.935  1.00  0.00     0.014 C 
BRANCH   5   6
ATOM      6  C   UNL     1     149.094 143.245 141.228  1.00  0.00     0.004 C 
ATOM      7  C   UNL     1     150.125 143.937 140.331  1.00  0.00     0.004 C 
ENDBRANCH   5   6
BRANCH   5   8
ATOM      8  C   UNL     1     148.673 140.883 142.241  1.00  0.00    -0.011 C 
ATOM      9  C   UNL     1     149.286 139.473 142.119  1.00  0.00     0.008 C 
ATOM     10  C   UNL     1     147.185 140.744 142.629  1.00  0.00     0.008 C 
ENDBRANCH   5   8
ENDBRANCH   4   5
ENDBRANCH   1   3
BRANCH   1  11
ATOM     11  C   UNL     1     145.835 139.993 138.049  1.00  0.00     0.002 C 
ATOM     12  C   UNL     1     144.648 140.216 137.109  1.00  0.00     0.005 C 
ATOM     13  C   UNL     1     145.769 138.472 138.438  1.00  0.00    -0.023 C 
ATOM     14  C   UNL     1     143.552 139.364 137.709  1.00  0.00     0.009 C 
ATOM     15  C   UNL     1     144.257 138.092 138.199  1.00  0.00     0.021 C 
ATOM     16  C   UNL     1     146.732 137.566 137.588  1.00  0.00     0.008 C 
ATOM     17  C   UNL     1     146.140 138.310 139.930  1.00  0.00     0.012 C 
ATOM     18  C   UNL     1     144.152 136.867 137.292  1.00  0.00    -0.067 C 
ATOM     19  C   UNL     1     146.442 136.043 137.703  1.00  0.00     0.009 C 
ATOM     20  C   UNL     1     144.926 135.695 137.816  1.00  0.00     0.021 C 
ATOM     21  C   UNL     1     143.823 136.917 135.981  1.00  0.00    -0.027 C 
ATOM     22  C   UNL     1     144.467 134.347 137.160  1.00  0.00    -0.023 C 
ATOM     23  C   UNL     1     144.131 135.810 135.001  1.00  0.00     0.031 C 
ATOM     24  C   UNL     1     144.582 134.441 135.603  1.00  0.00     0.002 C 
ATOM     25  C   UNL     1     142.984 134.073 137.571  1.00  0.00     0.010 C 
ATOM     26  C   UNL     1     145.358 133.197 137.711  1.00  0.00     0.012 C 
ATOM     27  C   UNL     1     143.901 133.246 134.878  1.00  0.00     0.036 C 
ATOM     28  C   UNL     1     142.369 132.856 136.864  1.00  0.00     0.032 C 
ATOM     29  C   UNL     1     142.455 132.980 135.335  1.00  0.00     0.114 C 
BRANCH  29  30
ATOM     30  O   UNL     1     141.606 134.001 134.869  1.00  0.00    -0.393 OA
ATOM     31  H   UNL     1     142.039 134.407 134.074  1.00  0.00     0.210 HD
ENDBRANCH  29  30
ENDBRANCH   1  11
TORSDOF 6
ENDMDL
