MODEL 1
REMARK VINA RESULT:    -3.726      0.000      0.000
REMARK INTER + INTRA:          -9.929
REMARK INTER:                  -7.210
REMARK INTRA:                  -2.719
REMARK UNBOUND:                -2.719
REMARK SMILES CCCCCCCCCCCCCCCCCC(=O)[O-]
REMARK SMILES IDX 10 1 11 2 12 3 13 4 14 5 15 6 16 7 17 8 18 9 19 10 20 11
REMARK SMILES IDX 9 12 8 13 7 14 6 15 5 16 4 17 3 18 2 19 1 20
REMARK H PARENT
REMARK Flexibility Score: inf
ROOT
ATOM      1  C   UNL     1     191.661 197.111 198.964  1.00  0.00     0.000 C 
ENDROOT
BRANCH   1   2
ATOM      2  C   UNL     1     192.342 196.388 197.792  1.00  0.00     0.000 C 
BRANCH   2   3
ATOM      3  C   UNL     1     192.685 194.922 198.112  1.00  0.00     0.000 C 
BRANCH   3   4
ATOM      4  C   UNL     1     192.875 194.611 199.609  1.00  0.00     0.000 C 
BRANCH   4   5
ATOM      5  C   UNL     1     194.301 194.183 200.014  1.00  0.00     0.000 C 
BRANCH   5   6
ATOM      6  C   UNL     1     195.413 194.610 199.039  1.00  0.00     0.000 C 
BRANCH   6   7
ATOM      7  C   UNL     1     195.995 193.481 198.167  1.00  0.00     0.006 C 
BRANCH   7   8
ATOM      8  C   UNL     1     196.205 192.154 198.920  1.00  0.00     0.053 C 
BRANCH   8   9
ATOM      9  C   UNL     1     195.347 191.046 198.389  1.00  0.00     0.041 C 
ATOM     10  O   UNL     1     195.555 190.578 197.237  1.00  0.00    -0.550 OA
ATOM     11  O   UNL     1     194.342 190.503 199.179  1.00  0.00    -0.550 OA
ENDBRANCH   8   9
ENDBRANCH   7   8
ENDBRANCH   6   7
ENDBRANCH   5   6
ENDBRANCH   4   5
ENDBRANCH   3   4
ENDBRANCH   2   3
ENDBRANCH   1   2
BRANCH   1  12
ATOM     12  C   UNL     1     192.336 198.460 199.242  1.00  0.00     0.000 C 
BRANCH  12  13
ATOM     13  C   UNL     1     193.678 198.264 199.963  1.00  0.00    -0.000 C 
BRANCH  13  14
ATOM     14  C   UNL     1     193.514 197.727 201.396  1.00  0.00    -0.000 C 
BRANCH  14  15
ATOM     15  C   UNL     1     194.832 197.380 202.118  1.00  0.00    -0.000 C 
BRANCH  15  16
ATOM     16  C   UNL     1     196.108 197.573 201.276  1.00  0.00    -0.000 C 
BRANCH  16  17
ATOM     17  C   UNL     1     197.337 196.780 201.767  1.00  0.00    -0.000 C 
BRANCH  17  18
ATOM     18  C   UNL     1     198.213 196.179 200.650  1.00  0.00    -0.000 C 
BRANCH  18  19
ATOM     19  C   UNL     1     198.570 194.694 200.834  1.00  0.00    -0.003 C 
ATOM     20  C   UNL     1     197.684 193.992 201.861  1.00  0.00     0.004 C 
ENDBRANCH  18  19
ENDBRANCH  17  18
ENDBRANCH  16  17
ENDBRANCH  15  16
ENDBRANCH  14  15
ENDBRANCH  13  14
ENDBRANCH  12  13
ENDBRANCH   1  12
TORSDOF 16
ENDMDL
MODEL 2
REMARK VINA RESULT:    -3.724     13.563     16.362
REMARK INTER + INTRA:          -9.926
REMARK INTER:                  -7.837
REMARK INTRA:                  -2.089
REMARK UNBOUND:                -2.719
REMARK SMILES CCCCCCCCCCCCCCCCCC(=O)[O-]
REMARK SMILES IDX 10 1 11 2 12 3 13 4 14 5 15 6 16 7 17 8 18 9 19 10 20 11
REMARK SMILES IDX 9 12 8 13 7 14 6 15 5 16 4 17 3 18 2 19 1 20
REMARK H PARENT
REMARK Flexibility Score: inf
ROOT
ATOM      1  C   UNL     1     187.103 181.520 200.401  1.00  0.00     0.000 C 
ENDROOT
BRANCH   1   2
ATOM      2  C   UNL     1     186.468 180.622 199.328  1.00  0.00     0.000 C 
BRANCH   2   3
ATOM      3  C   UNL     1     185.466 179.611 199.910  1.00  0.00     0.000 C 
BRANCH   3   4
ATOM      4  C   UNL     1     185.392 179.581 201.450  1.00  0.00     0.000 C 
BRANCH   4   5
ATOM      5  C   UNL     1     184.153 180.267 202.060  1.00  0.00     0.000 C 
BRANCH   5   6
ATOM      6  C   UNL     1     183.324 181.114 201.076  1.00  0.00     0.000 C 
BRANCH   6   7
ATOM      7  C   UNL     1     182.579 182.309 201.703  1.00  0.00     0.006 C 
BRANCH   7   8
ATOM      8  C   UNL     1     181.086 182.381 201.331  1.00  0.00     0.053 C 
BRANCH   8   9
ATOM      9  C   UNL     1     180.625 183.781 201.060  1.00  0.00     0.041 C 
ATOM     10  O   UNL     1     181.065 184.739 201.749  1.00  0.00    -0.550 OA
ATOM     11  O   UNL     1     179.736 184.033 200.023  1.00  0.00    -0.550 OA
ENDBRANCH   8   9
ENDBRANCH   7   8
ENDBRANCH   6   7
ENDBRANCH   5   6
ENDBRANCH   4   5
ENDBRANCH   3   4
ENDBRANCH   2   3
ENDBRANCH   1   2
BRANCH   1  12
ATOM     12  C   UNL     1     186.621 182.968 200.260  1.00  0.00     0.000 C 
BRANCH  12  13
ATOM     13  C   UNL     1     185.851 183.165 198.945  1.00  0.00    -0.000 C 
BRANCH  13  14
ATOM     14  C   UNL     1     184.625 184.083 199.102  1.00  0.00    -0.000 C 
BRANCH  14  15
ATOM     15  C   UNL     1     184.592 185.296 198.150  1.00  0.00    -0.000 C 
BRANCH  15  16
ATOM     16  C   UNL     1     185.929 185.618 197.456  1.00  0.00    -0.000 C 
BRANCH  16  17
ATOM     17  C   UNL     1     186.641 186.885 197.973  1.00  0.00    -0.000 C 
BRANCH  17  18
ATOM     18  C   UNL     1     187.299 186.743 199.360  1.00  0.00    -0.000 C 
BRANCH  18  19
ATOM     19  C   UNL     1     186.567 187.468 200.501  1.00  0.00    -0.003 C 
ATOM     20  C   UNL     1     186.385 188.962 200.238  1.00  0.00     0.004 C 
ENDBRANCH  18  19
ENDBRANCH  17  18
ENDBRANCH  16  17
ENDBRANCH  15  16
ENDBRANCH  14  15
ENDBRANCH  13  14
ENDBRANCH  12  13
ENDBRANCH   1  12
TORSDOF 16
ENDMDL
MODEL 3
REMARK VINA RESULT:    -3.641      2.364      4.683
REMARK INTER + INTRA:          -9.765
REMARK INTER:                  -7.578
REMARK INTRA:                  -2.187
REMARK UNBOUND:                -2.719
REMARK SMILES CCCCCCCCCCCCCCCCCC(=O)[O-]
REMARK SMILES IDX 10 1 11 2 12 3 13 4 14 5 15 6 16 7 17 8 18 9 19 10 20 11
REMARK SMILES IDX 9 12 8 13 7 14 6 15 5 16 4 17 3 18 2 19 1 20
REMARK H PARENT
REMARK Flexibility Score: inf
ROOT
ATOM      1  C   UNL     1     196.430 194.335 199.325  1.00  0.00     0.000 C 
ENDROOT
BRANCH   1   2
ATOM      2  C   UNL     1     194.951 194.683 199.101  1.00  0.00     0.000 C 
BRANCH   2   3
ATOM      3  C   UNL     1     194.042 194.200 200.245  1.00  0.00     0.000 C 
BRANCH   3   4
ATOM      4  C   UNL     1     192.622 193.780 199.814  1.00  0.00     0.000 C 
BRANCH   4   5
ATOM      5  C   UNL     1     192.429 192.268 199.581  1.00  0.00     0.000 C 
BRANCH   5   6
ATOM      6  C   UNL     1     193.360 191.356 200.400  1.00  0.00     0.000 C 
BRANCH   6   7
ATOM      7  C   UNL     1     192.648 190.332 201.306  1.00  0.00     0.006 C 
BRANCH   7   8
ATOM      8  C   UNL     1     191.513 189.560 200.608  1.00  0.00     0.053 C 
BRANCH   8   9
ATOM      9  C   UNL     1     191.975 188.261 200.020  1.00  0.00     0.041 C 
ATOM     10  O   UNL     1     191.651 187.169 200.559  1.00  0.00    -0.550 OA
ATOM     11  O   UNL     1     192.733 188.253 198.856  1.00  0.00    -0.550 OA
ENDBRANCH   8   9
ENDBRANCH   7   8
ENDBRANCH   6   7
ENDBRANCH   5   6
ENDBRANCH   4   5
ENDBRANCH   3   4
ENDBRANCH   2   3
ENDBRANCH   1   2
BRANCH   1  12
ATOM     12  C   UNL     1     196.854 194.643 200.766  1.00  0.00     0.000 C 
BRANCH  12  13
ATOM     13  C   UNL     1     197.893 195.774 200.803  1.00  0.00    -0.000 C 
BRANCH  13  14
ATOM     14  C   UNL     1     197.317 197.097 201.338  1.00  0.00    -0.000 C 
BRANCH  14  15
ATOM     15  C   UNL     1     195.967 196.972 202.072  1.00  0.00    -0.000 C 
BRANCH  15  16
ATOM     16  C   UNL     1     194.800 197.747 201.428  1.00  0.00    -0.000 C 
BRANCH  16  17
ATOM     17  C   UNL     1     193.407 197.414 201.999  1.00  0.00    -0.000 C 
BRANCH  17  18
ATOM     18  C   UNL     1     192.275 197.342 200.955  1.00  0.00    -0.000 C 
BRANCH  18  19
ATOM     19  C   UNL     1     192.604 197.983 199.597  1.00  0.00    -0.003 C 
ATOM     20  C   UNL     1     192.023 197.208 198.415  1.00  0.00     0.004 C 
ENDBRANCH  18  19
ENDBRANCH  17  18
ENDBRANCH  16  17
ENDBRANCH  15  16
ENDBRANCH  14  15
ENDBRANCH  13  14
ENDBRANCH  12  13
ENDBRANCH   1  12
TORSDOF 16
ENDMDL
MODEL 4
REMARK VINA RESULT:    -3.610     13.611     15.990
REMARK INTER + INTRA:          -9.706
REMARK INTER:                  -7.918
REMARK INTRA:                  -1.788
REMARK UNBOUND:                -2.719
REMARK SMILES CCCCCCCCCCCCCCCCCC(=O)[O-]
REMARK SMILES IDX 10 1 11 2 12 3 13 4 14 5 15 6 16 7 17 8 18 9 19 10 20 11
REMARK SMILES IDX 9 12 8 13 7 14 6 15 5 16 4 17 3 18 2 19 1 20
REMARK H PARENT
REMARK Flexibility Score: inf
ROOT
ATOM      1  C   UNL     1     185.671 184.949 199.109  1.00  0.00     0.000 C 
ENDROOT
BRANCH   1   2
ATOM      2  C   UNL     1     184.205 184.787 198.682  1.00  0.00     0.000 C 
BRANCH   2   3
ATOM      3  C   UNL     1     183.768 185.826 197.634  1.00  0.00     0.000 C 
BRANCH   3   4
ATOM      4  C   UNL     1     184.810 186.921 197.330  1.00  0.00     0.000 C 
BRANCH   4   5
ATOM      5  C   UNL     1     184.764 187.488 195.897  1.00  0.00     0.000 C 
BRANCH   5   6
ATOM      6  C   UNL     1     183.638 186.930 195.008  1.00  0.00     0.000 C 
BRANCH   6   7
ATOM      7  C   UNL     1     184.097 185.992 193.875  1.00  0.00     0.006 C 
BRANCH   7   8
ATOM      8  C   UNL     1     185.554 186.214 193.430  1.00  0.00     0.053 C 
BRANCH   8   9
ATOM      9  C   UNL     1     186.369 184.957 193.469  1.00  0.00     0.041 C 
ATOM     10  O   UNL     1     186.751 184.414 192.398  1.00  0.00    -0.550 OA
ATOM     11  O   UNL     1     186.738 184.403 194.688  1.00  0.00    -0.550 OA
ENDBRANCH   8   9
ENDBRANCH   7   8
ENDBRANCH   6   7
ENDBRANCH   5   6
ENDBRANCH   4   5
ENDBRANCH   3   4
ENDBRANCH   2   3
ENDBRANCH   1   2
BRANCH   1  12
ATOM     12  C   UNL     1     186.246 183.622 199.615  1.00  0.00     0.000 C 
BRANCH  12  13
ATOM     13  C   UNL     1     185.900 182.472 198.656  1.00  0.00    -0.000 C 
BRANCH  13  14
ATOM     14  C   UNL     1     186.619 181.159 199.012  1.00  0.00    -0.000 C 
BRANCH  14  15
ATOM     15  C   UNL     1     185.754 180.122 199.756  1.00  0.00    -0.000 C 
BRANCH  15  16
ATOM     16  C   UNL     1     185.439 180.467 201.224  1.00  0.00    -0.000 C 
BRANCH  16  17
ATOM     17  C   UNL     1     183.938 180.590 201.555  1.00  0.00    -0.000 C 
BRANCH  17  18
ATOM     18  C   UNL     1     183.249 181.854 201.002  1.00  0.00    -0.000 C 
BRANCH  18  19
ATOM     19  C   UNL     1     183.281 183.072 201.941  1.00  0.00    -0.003 C 
ATOM     20  C   UNL     1     181.982 183.875 201.918  1.00  0.00     0.004 C 
ENDBRANCH  18  19
ENDBRANCH  17  18
ENDBRANCH  16  17
ENDBRANCH  15  16
ENDBRANCH  14  15
ENDBRANCH  13  14
ENDBRANCH  12  13
ENDBRANCH   1  12
TORSDOF 16
ENDMDL
MODEL 5
REMARK VINA RESULT:    -3.604     13.252     15.917
REMARK INTER + INTRA:          -9.693
REMARK INTER:                  -7.506
REMARK INTRA:                  -2.186
REMARK UNBOUND:                -2.719
REMARK SMILES CCCCCCCCCCCCCCCCCC(=O)[O-]
REMARK SMILES IDX 10 1 11 2 12 3 13 4 14 5 15 6 16 7 17 8 18 9 19 10 20 11
REMARK SMILES IDX 9 12 8 13 7 14 6 15 5 16 4 17 3 18 2 19 1 20
REMARK H PARENT
REMARK Flexibility Score: inf
ROOT
ATOM      1  C   UNL     1     181.613 184.587 199.169  1.00  0.00     0.000 C 
ENDROOT
BRANCH   1   2
ATOM      2  C   UNL     1     183.107 184.475 198.829  1.00  0.00     0.000 C 
BRANCH   2   3
ATOM      3  C   UNL     1     184.019 184.811 200.022  1.00  0.00     0.000 C 
BRANCH   3   4
ATOM      4  C   UNL     1     185.529 184.669 199.746  1.00  0.00     0.000 C 
BRANCH   4   5
ATOM      5  C   UNL     1     185.984 185.120 198.344  1.00  0.00     0.000 C 
BRANCH   5   6
ATOM      6  C   UNL     1     186.804 186.422 198.309  1.00  0.00     0.000 C 
BRANCH   6   7
ATOM      7  C   UNL     1     186.150 187.592 197.549  1.00  0.00     0.006 C 
BRANCH   7   8
ATOM      8  C   UNL     1     184.868 188.130 198.211  1.00  0.00     0.053 C 
BRANCH   8   9
ATOM      9  C   UNL     1     185.104 188.641 199.599  1.00  0.00     0.041 C 
ATOM     10  O   UNL     1     184.322 188.323 200.535  1.00  0.00    -0.550 OA
ATOM     11  O   UNL     1     186.208 189.439 199.870  1.00  0.00    -0.550 OA
ENDBRANCH   8   9
ENDBRANCH   7   8
ENDBRANCH   6   7
ENDBRANCH   5   6
ENDBRANCH   4   5
ENDBRANCH   3   4
ENDBRANCH   2   3
ENDBRANCH   1   2
BRANCH   1  12
ATOM     12  C   UNL     1     181.390 184.548 200.685  1.00  0.00     0.000 C 
BRANCH  12  13
ATOM     13  C   UNL     1     180.518 183.348 201.082  1.00  0.00    -0.000 C 
BRANCH  13  14
ATOM     14  C   UNL     1     181.316 182.035 201.181  1.00  0.00    -0.000 C 
BRANCH  14  15
ATOM     15  C   UNL     1     182.534 182.082 202.125  1.00  0.00    -0.000 C 
BRANCH  15  16
ATOM     16  C   UNL     1     183.619 181.024 201.843  1.00  0.00    -0.000 C 
BRANCH  16  17
ATOM     17  C   UNL     1     185.035 181.591 201.613  1.00  0.00    -0.000 C 
BRANCH  17  18
ATOM     18  C   UNL     1     186.054 180.587 201.037  1.00  0.00    -0.000 C 
BRANCH  18  19
ATOM     19  C   UNL     1     185.944 180.351 199.521  1.00  0.00    -0.003 C 
ATOM     20  C   UNL     1     186.771 181.342 198.703  1.00  0.00     0.004 C 
ENDBRANCH  18  19
ENDBRANCH  17  18
ENDBRANCH  16  17
ENDBRANCH  15  16
ENDBRANCH  14  15
ENDBRANCH  13  14
ENDBRANCH  12  13
ENDBRANCH   1  12
TORSDOF 16
ENDMDL
MODEL 6
REMARK VINA RESULT:    -3.602     13.065     16.175
REMARK INTER + INTRA:          -9.690
REMARK INTER:                  -7.525
REMARK INTRA:                  -2.165
REMARK UNBOUND:                -2.719
REMARK SMILES CCCCCCCCCCCCCCCCCC(=O)[O-]
REMARK SMILES IDX 10 1 11 2 12 3 13 4 14 5 15 6 16 7 17 8 18 9 19 10 20 11
REMARK SMILES IDX 9 12 8 13 7 14 6 15 5 16 4 17 3 18 2 19 1 20
REMARK H PARENT
REMARK Flexibility Score: inf
ROOT
ATOM      1  C   UNL     1     185.373 180.395 199.879  1.00  0.00     0.000 C 
ENDROOT
BRANCH   1   2
ATOM      2  C   UNL     1     186.749 180.752 199.298  1.00  0.00     0.000 C 
BRANCH   2   3
ATOM      3  C   UNL     1     186.699 181.953 198.337  1.00  0.00     0.000 C 
BRANCH   3   4
ATOM      4  C   UNL     1     185.947 183.186 198.875  1.00  0.00     0.000 C 
BRANCH   4   5
ATOM      5  C   UNL     1     185.751 184.329 197.859  1.00  0.00     0.000 C 
BRANCH   5   6
ATOM      6  C   UNL     1     186.378 185.676 198.259  1.00  0.00     0.000 C 
BRANCH   6   7
ATOM      7  C   UNL     1     186.576 185.886 199.773  1.00  0.00     0.006 C 
BRANCH   7   8
ATOM      8  C   UNL     1     185.974 187.200 200.308  1.00  0.00     0.053 C 
BRANCH   8   9
ATOM      9  C   UNL     1     187.021 188.207 200.676  1.00  0.00     0.041 C 
ATOM     10  O   UNL     1     188.075 187.842 201.262  1.00  0.00    -0.550 OA
ATOM     11  O   UNL     1     186.851 189.543 200.340  1.00  0.00    -0.550 OA
ENDBRANCH   8   9
ENDBRANCH   7   8
ENDBRANCH   6   7
ENDBRANCH   5   6
ENDBRANCH   4   5
ENDBRANCH   3   4
ENDBRANCH   2   3
ENDBRANCH   1   2
BRANCH   1  12
ATOM     12  C   UNL     1     185.456 180.179 201.395  1.00  0.00     0.000 C 
BRANCH  12  13
ATOM     13  C   UNL     1     184.198 180.716 202.095  1.00  0.00    -0.000 C 
BRANCH  13  14
ATOM     14  C   UNL     1     183.180 181.322 201.114  1.00  0.00    -0.000 C 
BRANCH  14  15
ATOM     15  C   UNL     1     181.880 181.842 201.761  1.00  0.00    -0.000 C 
BRANCH  15  16
ATOM     16  C   UNL     1     181.564 183.326 201.489  1.00  0.00    -0.000 C 
BRANCH  16  17
ATOM     17  C   UNL     1     182.793 184.256 201.454  1.00  0.00    -0.000 C 
BRANCH  17  18
ATOM     18  C   UNL     1     182.903 185.143 200.197  1.00  0.00    -0.000 C 
BRANCH  18  19
ATOM     19  C   UNL     1     182.305 184.533 198.919  1.00  0.00    -0.003 C 
ATOM     20  C   UNL     1     182.157 185.549 197.787  1.00  0.00     0.004 C 
ENDBRANCH  18  19
ENDBRANCH  17  18
ENDBRANCH  16  17
ENDBRANCH  15  16
ENDBRANCH  14  15
ENDBRANCH  13  14
ENDBRANCH  12  13
ENDBRANCH   1  12
TORSDOF 16
ENDMDL
MODEL 7
REMARK VINA RESULT:    -3.597     13.461     16.005
REMARK INTER + INTRA:          -9.680
REMARK INTER:                  -7.079
REMARK INTRA:                  -2.601
REMARK UNBOUND:                -2.719
REMARK SMILES CCCCCCCCCCCCCCCCCC(=O)[O-]
REMARK SMILES IDX 10 1 11 2 12 3 13 4 14 5 15 6 16 7 17 8 18 9 19 10 20 11
REMARK SMILES IDX 9 12 8 13 7 14 6 15 5 16 4 17 3 18 2 19 1 20
REMARK H PARENT
REMARK Flexibility Score: inf
ROOT
ATOM      1  C   UNL     1     182.311 184.871 198.871  1.00  0.00     0.000 C 
ENDROOT
BRANCH   1   2
ATOM      2  C   UNL     1     183.621 184.109 199.117  1.00  0.00     0.000 C 
BRANCH   2   3
ATOM      3  C   UNL     1     184.448 184.697 200.275  1.00  0.00     0.000 C 
BRANCH   3   4
ATOM      4  C   UNL     1     183.750 185.820 201.067  1.00  0.00     0.000 C 
BRANCH   4   5
ATOM      5  C   UNL     1     184.425 187.203 200.976  1.00  0.00     0.000 C 
BRANCH   5   6
ATOM      6  C   UNL     1     183.945 188.089 199.812  1.00  0.00     0.000 C 
BRANCH   6   7
ATOM      7  C   UNL     1     185.047 188.551 198.838  1.00  0.00     0.006 C 
BRANCH   7   8
ATOM      8  C   UNL     1     185.297 187.581 197.669  1.00  0.00     0.053 C 
BRANCH   8   9
ATOM      9  C   UNL     1     186.459 186.666 197.915  1.00  0.00     0.041 C 
ATOM     10  O   UNL     1     187.413 187.034 198.651  1.00  0.00    -0.550 OA
ATOM     11  O   UNL     1     186.471 185.392 197.362  1.00  0.00    -0.550 OA
ENDBRANCH   8   9
ENDBRANCH   7   8
ENDBRANCH   6   7
ENDBRANCH   5   6
ENDBRANCH   4   5
ENDBRANCH   3   4
ENDBRANCH   2   3
ENDBRANCH   1   2
BRANCH   1  12
ATOM     12  C   UNL     1     181.096 183.976 199.138  1.00  0.00     0.000 C 
BRANCH  12  13
ATOM     13  C   UNL     1     180.420 184.349 200.467  1.00  0.00    -0.000 C 
BRANCH  13  14
ATOM     14  C   UNL     1     180.954 183.534 201.658  1.00  0.00    -0.000 C 
BRANCH  14  15
ATOM     15  C   UNL     1     181.389 182.094 201.322  1.00  0.00    -0.000 C 
BRANCH  15  16
ATOM     16  C   UNL     1     182.759 181.675 201.892  1.00  0.00    -0.000 C 
BRANCH  16  17
ATOM     17  C   UNL     1     183.561 180.701 201.006  1.00  0.00    -0.000 C 
BRANCH  17  18
ATOM     18  C   UNL     1     184.786 180.058 201.688  1.00  0.00    -0.000 C 
BRANCH  18  19
ATOM     19  C   UNL     1     186.078 180.890 201.617  1.00  0.00    -0.003 C 
ATOM     20  C   UNL     1     186.470 181.259 200.187  1.00  0.00     0.004 C 
ENDBRANCH  18  19
ENDBRANCH  17  18
ENDBRANCH  16  17
ENDBRANCH  15  16
ENDBRANCH  14  15
ENDBRANCH  13  14
ENDBRANCH  12  13
ENDBRANCH   1  12
TORSDOF 16
ENDMDL
MODEL 8
REMARK VINA RESULT:    -3.575     13.479     16.483
REMARK INTER + INTRA:          -9.638
REMARK INTER:                  -7.293
REMARK INTRA:                  -2.345
REMARK UNBOUND:                -2.719
REMARK SMILES CCCCCCCCCCCCCCCCCC(=O)[O-]
REMARK SMILES IDX 10 1 11 2 12 3 13 4 14 5 15 6 16 7 17 8 18 9 19 10 20 11
REMARK SMILES IDX 9 12 8 13 7 14 6 15 5 16 4 17 3 18 2 19 1 20
REMARK H PARENT
REMARK Flexibility Score: inf
ROOT
ATOM      1  C   UNL     1     183.416 181.237 201.092  1.00  0.00     0.000 C 
ENDROOT
BRANCH   1   2
ATOM      2  C   UNL     1     182.369 182.128 201.777  1.00  0.00     0.000 C 
BRANCH   2   3
ATOM      3  C   UNL     1     181.664 183.083 200.797  1.00  0.00     0.000 C 
BRANCH   3   4
ATOM      4  C   UNL     1     181.656 184.564 201.225  1.00  0.00     0.000 C 
BRANCH   4   5
ATOM      5  C   UNL     1     182.923 185.040 201.963  1.00  0.00     0.000 C 
BRANCH   5   6
ATOM      6  C   UNL     1     183.556 186.330 201.411  1.00  0.00     0.000 C 
BRANCH   6   7
ATOM      7  C   UNL     1     182.681 187.120 200.419  1.00  0.00     0.006 C 
BRANCH   7   8
ATOM      8  C   UNL     1     183.013 188.622 200.348  1.00  0.00     0.053 C 
BRANCH   8   9
ATOM      9  C   UNL     1     182.953 189.163 198.952  1.00  0.00     0.041 C 
ATOM     10  O   UNL     1     182.251 190.177 198.693  1.00  0.00    -0.550 OA
ATOM     11  O   UNL     1     183.700 188.570 197.942  1.00  0.00    -0.550 OA
ENDBRANCH   8   9
ENDBRANCH   7   8
ENDBRANCH   6   7
ENDBRANCH   5   6
ENDBRANCH   4   5
ENDBRANCH   3   4
ENDBRANCH   2   3
ENDBRANCH   1   2
BRANCH   1  12
ATOM     12  C   UNL     1     184.201 180.420 202.125  1.00  0.00     0.000 C 
BRANCH  12  13
ATOM     13  C   UNL     1     185.579 180.020 201.576  1.00  0.00    -0.000 C 
BRANCH  13  14
ATOM     14  C   UNL     1     185.613 179.948 200.039  1.00  0.00    -0.000 C 
BRANCH  14  15
ATOM     15  C   UNL     1     186.531 180.983 199.357  1.00  0.00    -0.000 C 
BRANCH  15  16
ATOM     16  C   UNL     1     186.991 182.143 200.261  1.00  0.00    -0.000 C 
BRANCH  16  17
ATOM     17  C   UNL     1     186.259 183.479 200.026  1.00  0.00    -0.000 C 
BRANCH  17  18
ATOM     18  C   UNL     1     185.230 183.466 198.877  1.00  0.00    -0.000 C 
BRANCH  18  19
ATOM     19  C   UNL     1     184.787 184.855 198.387  1.00  0.00    -0.003 C 
ATOM     20  C   UNL     1     185.917 185.883 198.414  1.00  0.00     0.004 C 
ENDBRANCH  18  19
ENDBRANCH  17  18
ENDBRANCH  16  17
ENDBRANCH  15  16
ENDBRANCH  14  15
ENDBRANCH  13  14
ENDBRANCH  12  13
ENDBRANCH   1  12
TORSDOF 16
ENDMDL
MODEL 9
REMARK VINA RESULT:    -3.522     12.898     15.957
REMARK INTER + INTRA:          -9.535
REMARK INTER:                  -7.268
REMARK INTRA:                  -2.268
REMARK UNBOUND:                -2.719
REMARK SMILES CCCCCCCCCCCCCCCCCC(=O)[O-]
REMARK SMILES IDX 10 1 11 2 12 3 13 4 14 5 15 6 16 7 17 8 18 9 19 10 20 11
REMARK SMILES IDX 9 12 8 13 7 14 6 15 5 16 4 17 3 18 2 19 1 20
REMARK H PARENT
REMARK Flexibility Score: inf
ROOT
ATOM      1  C   UNL     1     186.053 183.729 200.306  1.00  0.00     0.000 C 
ENDROOT
BRANCH   1   2
ATOM      2  C   UNL     1     184.948 184.711 199.889  1.00  0.00     0.000 C 
BRANCH   2   3
ATOM      3  C   UNL     1     184.062 184.170 198.754  1.00  0.00     0.000 C 
BRANCH   3   4
ATOM      4  C   UNL     1     182.865 185.067 198.379  1.00  0.00     0.000 C 
BRANCH   4   5
ATOM      5  C   UNL     1     183.203 186.557 198.171  1.00  0.00     0.000 C 
BRANCH   5   6
ATOM      6  C   UNL     1     184.017 186.872 196.902  1.00  0.00     0.000 C 
BRANCH   6   7
ATOM      7  C   UNL     1     185.286 187.716 197.127  1.00  0.00     0.006 C 
BRANCH   7   8
ATOM      8  C   UNL     1     185.464 188.206 198.576  1.00  0.00     0.053 C 
BRANCH   8   9
ATOM      9  C   UNL     1     186.818 187.885 199.133  1.00  0.00     0.041 C 
ATOM     10  O   UNL     1     187.830 187.885 198.383  1.00  0.00    -0.550 OA
ATOM     11  O   UNL     1     186.969 187.621 200.488  1.00  0.00    -0.550 OA
ENDBRANCH   8   9
ENDBRANCH   7   8
ENDBRANCH   6   7
ENDBRANCH   5   6
ENDBRANCH   4   5
ENDBRANCH   3   4
ENDBRANCH   2   3
ENDBRANCH   1   2
BRANCH   1  12
ATOM     12  C   UNL     1     186.285 182.672 199.220  1.00  0.00     0.000 C 
BRANCH  12  13
ATOM     13  C   UNL     1     187.099 181.490 199.769  1.00  0.00    -0.000 C 
BRANCH  13  14
ATOM     14  C   UNL     1     187.202 181.497 201.305  1.00  0.00    -0.000 C 
BRANCH  14  15
ATOM     15  C   UNL     1     186.250 180.522 202.027  1.00  0.00    -0.000 C 
BRANCH  15  16
ATOM     16  C   UNL     1     185.346 179.685 201.100  1.00  0.00    -0.000 C 
BRANCH  16  17
ATOM     17  C   UNL     1     183.868 180.124 201.066  1.00  0.00    -0.000 C 
BRANCH  17  18
ATOM     18  C   UNL     1     183.475 181.174 202.125  1.00  0.00    -0.000 C 
BRANCH  18  19
ATOM     19  C   UNL     1     182.712 182.392 201.577  1.00  0.00    -0.003 C 
ATOM     20  C   UNL     1     181.297 182.049 201.114  1.00  0.00     0.004 C 
ENDBRANCH  18  19
ENDBRANCH  17  18
ENDBRANCH  16  17
ENDBRANCH  15  16
ENDBRANCH  14  15
ENDBRANCH  13  14
ENDBRANCH  12  13
ENDBRANCH   1  12
TORSDOF 16
ENDMDL
