MODEL 1
REMARK VINA RESULT:    -5.279      0.000      0.000
REMARK INTER + INTRA:         -10.406
REMARK INTER:                  -8.057
REMARK INTRA:                  -2.350
REMARK UNBOUND:                -2.350
REMARK SMILES CC(=O)CCC=C(C)CCC=C(C)CCC=C(C)C
REMARK SMILES IDX 10 1 11 2 12 3 13 4 14 5 15 6 16 7 18 8 17 9 19 10 9 11 7 12
REMARK SMILES IDX 6 13 8 14 5 15 4 16 2 17 3 18 1 19
REMARK H PARENT
REMARK Flexibility Score: inf
ROOT
ATOM      1  C   UNL     1       0.548 -20.196  -4.664  1.00  0.00     0.032 C 
ENDROOT
BRANCH   1   2
ATOM      2  C   UNL     1       0.350 -21.604  -5.170  1.00  0.00    -0.028 C 
ATOM      3  C   UNL     1       0.551 -22.022  -6.442  1.00  0.00    -0.077 C 
ATOM      4  C   UNL     1       0.265 -23.468  -6.763  1.00  0.00     0.039 C 
BRANCH   3   5
ATOM      5  C   UNL     1       1.057 -21.116  -7.552  1.00  0.00     0.034 C 
BRANCH   5   6
ATOM      6  C   UNL     1       2.590 -21.121  -7.671  1.00  0.00     0.032 C 
BRANCH   6   7
ATOM      7  C   UNL     1       3.208 -19.865  -7.105  1.00  0.00    -0.028 C 
ATOM      8  C   UNL     1       4.303 -21.055  -5.192  1.00  0.00     0.039 C 
ATOM      9  C   UNL     1       4.008 -19.827  -6.016  1.00  0.00    -0.080 C 
ATOM     10  C   UNL     1       4.590 -18.513  -5.561  1.00  0.00     0.039 C 
ENDBRANCH   6   7
ENDBRANCH   5   6
ENDBRANCH   3   5
ENDBRANCH   1   2
BRANCH   1  11
ATOM     11  C   UNL     1       1.196 -20.222  -3.276  1.00  0.00     0.034 C 
BRANCH  11  12
ATOM     12  C   UNL     1       1.868 -18.902  -2.970  1.00  0.00    -0.077 C 
ATOM     13  C   UNL     1       1.311 -17.758  -3.429  1.00  0.00    -0.028 C 
ATOM     14  C   UNL     1       3.135 -18.898  -2.145  1.00  0.00     0.039 C 
BRANCH  13  15
ATOM     15  C   UNL     1       1.894 -16.382  -3.227  1.00  0.00     0.035 C 
BRANCH  15  16
ATOM     16  C   UNL     1       0.988 -15.533  -2.330  1.00  0.00     0.079 C 
BRANCH  16  17
ATOM     17  C   UNL     1       1.763 -14.966  -1.173  1.00  0.00     0.130 C 
ATOM     18  O   UNL     1       1.318 -14.010  -0.554  1.00  0.00    -0.300 OA
ATOM     19  C   UNL     1       3.065 -15.581  -0.756  1.00  0.00     0.087 C 
ENDBRANCH  16  17
ENDBRANCH  15  16
ENDBRANCH  13  15
ENDBRANCH  11  12
ENDBRANCH   1  11
TORSDOF 9
ENDMDL
MODEL 2
REMARK VINA RESULT:    -5.217      1.202      1.818
REMARK INTER + INTRA:         -10.311
REMARK INTER:                  -8.033
REMARK INTRA:                  -2.278
REMARK UNBOUND:                -2.350
REMARK SMILES CC(=O)CCC=C(C)CCC=C(C)CCC=C(C)C
REMARK SMILES IDX 10 1 11 2 12 3 13 4 14 5 15 6 16 7 18 8 17 9 19 10 9 11 7 12
REMARK SMILES IDX 6 13 8 14 5 15 4 16 2 17 3 18 1 19
REMARK H PARENT
REMARK Flexibility Score: inf
ROOT
ATOM      1  C   UNL     1       0.449 -19.993  -4.122  1.00  0.00     0.032 C 
ENDROOT
BRANCH   1   2
ATOM      2  C   UNL     1       0.302 -21.267  -4.917  1.00  0.00    -0.028 C 
ATOM      3  C   UNL     1       0.805 -21.489  -6.154  1.00  0.00    -0.077 C 
ATOM      4  C   UNL     1       0.523 -22.821  -6.803  1.00  0.00     0.039 C 
BRANCH   3   5
ATOM      5  C   UNL     1       1.643 -20.473  -6.913  1.00  0.00     0.034 C 
BRANCH   5   6
ATOM      6  C   UNL     1       3.068 -20.972  -7.199  1.00  0.00     0.032 C 
BRANCH   6   7
ATOM      7  C   UNL     1       3.804 -21.345  -5.933  1.00  0.00    -0.028 C 
ATOM      8  C   UNL     1       5.220 -19.278  -5.939  1.00  0.00     0.039 C 
ATOM      9  C   UNL     1       4.745 -20.577  -5.338  1.00  0.00    -0.080 C 
ATOM     10  C   UNL     1       5.391 -21.043  -4.059  1.00  0.00     0.039 C 
ENDBRANCH   6   7
ENDBRANCH   5   6
ENDBRANCH   3   5
ENDBRANCH   1   2
BRANCH   1  11
ATOM     11  C   UNL     1       1.680 -20.077  -3.214  1.00  0.00     0.034 C 
BRANCH  11  12
ATOM     12  C   UNL     1       2.389 -18.742  -3.141  1.00  0.00    -0.077 C 
ATOM     13  C   UNL     1       3.129 -18.450  -2.047  1.00  0.00    -0.028 C 
ATOM     14  C   UNL     1       2.264 -17.780  -4.301  1.00  0.00     0.039 C 
BRANCH  13  15
ATOM     15  C   UNL     1       3.855 -17.147  -1.829  1.00  0.00     0.035 C 
BRANCH  15  16
ATOM     16  C   UNL     1       3.028 -16.203  -0.951  1.00  0.00     0.079 C 
BRANCH  16  17
ATOM     17  C   UNL     1       3.861 -15.042  -0.483  1.00  0.00     0.130 C 
ATOM     18  O   UNL     1       3.331 -13.963  -0.261  1.00  0.00    -0.300 OA
ATOM     19  C   UNL     1       5.335 -15.205  -0.262  1.00  0.00     0.087 C 
ENDBRANCH  16  17
ENDBRANCH  15  16
ENDBRANCH  13  15
ENDBRANCH  11  12
ENDBRANCH   1  11
TORSDOF 9
ENDMDL
MODEL 3
REMARK VINA RESULT:    -5.124      2.237      4.648
REMARK INTER + INTRA:         -10.169
REMARK INTER:                  -7.854
REMARK INTRA:                  -2.315
REMARK UNBOUND:                -2.350
REMARK SMILES CC(=O)CCC=C(C)CCC=C(C)CCC=C(C)C
REMARK SMILES IDX 10 1 11 2 12 3 13 4 14 5 15 6 16 7 18 8 17 9 19 10 9 11 7 12
REMARK SMILES IDX 6 13 8 14 5 15 4 16 2 17 3 18 1 19
REMARK H PARENT
REMARK Flexibility Score: inf
ROOT
ATOM      1  C   UNL     1       3.335 -19.878  -7.359  1.00  0.00     0.032 C 
ENDROOT
BRANCH   1   2
ATOM      2  C   UNL     1       4.678 -20.525  -7.591  1.00  0.00    -0.028 C 
ATOM      3  C   UNL     1       5.322 -21.342  -6.725  1.00  0.00    -0.077 C 
ATOM      4  C   UNL     1       6.679 -21.866  -7.124  1.00  0.00     0.039 C 
BRANCH   3   5
ATOM      5  C   UNL     1       4.745 -21.762  -5.383  1.00  0.00     0.034 C 
BRANCH   5   6
ATOM      6  C   UNL     1       5.471 -21.114  -4.193  1.00  0.00     0.032 C 
BRANCH   6   7
ATOM      7  C   UNL     1       5.146 -19.645  -4.062  1.00  0.00    -0.028 C 
ATOM      8  C   UNL     1       7.415 -18.894  -4.812  1.00  0.00     0.039 C 
ATOM      9  C   UNL     1       5.995 -18.639  -4.371  1.00  0.00    -0.080 C 
ATOM     10  C   UNL     1       5.545 -17.209  -4.225  1.00  0.00     0.039 C 
ENDBRANCH   6   7
ENDBRANCH   5   6
ENDBRANCH   3   5
ENDBRANCH   1   2
BRANCH   1  11
ATOM     11  C   UNL     1       2.218 -20.770  -7.910  1.00  0.00     0.034 C 
BRANCH  11  12
ATOM     12  C   UNL     1       1.329 -21.272  -6.794  1.00  0.00    -0.077 C 
ATOM     13  C   UNL     1       1.243 -20.557  -5.649  1.00  0.00    -0.028 C 
ATOM     14  C   UNL     1       0.547 -22.551  -6.997  1.00  0.00     0.039 C 
BRANCH  13  15
ATOM     15  C   UNL     1       0.425 -20.960  -4.448  1.00  0.00     0.035 C 
BRANCH  15  16
ATOM     16  C   UNL     1       0.268 -19.785  -3.477  1.00  0.00     0.079 C 
BRANCH  16  17
ATOM     17  C   UNL     1       1.560 -19.509  -2.760  1.00  0.00     0.130 C 
ATOM     18  O   UNL     1       2.166 -20.426  -2.226  1.00  0.00    -0.300 OA
ATOM     19  C   UNL     1       2.123 -18.120  -2.717  1.00  0.00     0.087 C 
ENDBRANCH  16  17
ENDBRANCH  15  16
ENDBRANCH  13  15
ENDBRANCH  11  12
ENDBRANCH   1  11
TORSDOF 9
ENDMDL
MODEL 4
REMARK VINA RESULT:    -4.904      2.004      3.670
REMARK INTER + INTRA:          -9.834
REMARK INTER:                  -7.032
REMARK INTRA:                  -2.803
REMARK UNBOUND:                -2.350
REMARK SMILES CC(=O)CCC=C(C)CCC=C(C)CCC=C(C)C
REMARK SMILES IDX 10 1 11 2 12 3 13 4 14 5 15 6 16 7 18 8 17 9 19 10 9 11 7 12
REMARK SMILES IDX 6 13 8 14 5 15 4 16 2 17 3 18 1 19
REMARK H PARENT
REMARK Flexibility Score: inf
ROOT
ATOM      1  C   UNL     1       5.165 -21.080  -6.270  1.00  0.00     0.032 C 
ENDROOT
BRANCH   1   2
ATOM      2  C   UNL     1       3.998 -21.312  -7.199  1.00  0.00    -0.028 C 
ATOM      3  C   UNL     1       2.995 -20.437  -7.440  1.00  0.00    -0.077 C 
ATOM      4  C   UNL     1       1.894 -20.865  -8.379  1.00  0.00     0.039 C 
BRANCH   3   5
ATOM      5  C   UNL     1       2.927 -19.049  -6.824  1.00  0.00     0.034 C 
BRANCH   5   6
ATOM      6  C   UNL     1       1.575 -18.762  -6.151  1.00  0.00     0.032 C 
BRANCH   6   7
ATOM      7  C   UNL     1       1.593 -19.096  -4.677  1.00  0.00    -0.028 C 
ATOM      8  C   UNL     1       0.351 -21.252  -4.971  1.00  0.00     0.039 C 
ATOM      9  C   UNL     1       1.081 -20.226  -4.140  1.00  0.00    -0.080 C 
ATOM     10  C   UNL     1       1.183 -20.462  -2.655  1.00  0.00     0.039 C 
ENDBRANCH   6   7
ENDBRANCH   5   6
ENDBRANCH   3   5
ENDBRANCH   1   2
BRANCH   1  11
ATOM     11  C   UNL     1       4.788 -21.480  -4.840  1.00  0.00     0.034 C 
BRANCH  11  12
ATOM     12  C   UNL     1       5.037 -20.340  -3.878  1.00  0.00    -0.077 C 
ATOM     13  C   UNL     1       5.271 -19.102  -4.371  1.00  0.00    -0.028 C 
ATOM     14  C   UNL     1       5.001 -20.612  -2.391  1.00  0.00     0.039 C 
BRANCH  13  15
ATOM     15  C   UNL     1       5.569 -17.888  -3.528  1.00  0.00     0.035 C 
BRANCH  15  16
ATOM     16  C   UNL     1       4.316 -17.021  -3.361  1.00  0.00     0.079 C 
BRANCH  16  17
ATOM     17  C   UNL     1       3.891 -16.970  -1.920  1.00  0.00     0.130 C 
ATOM     18  O   UNL     1       3.030 -17.736  -1.513  1.00  0.00    -0.300 OA
ATOM     19  C   UNL     1       4.534 -16.002  -0.972  1.00  0.00     0.087 C 
ENDBRANCH  16  17
ENDBRANCH  15  16
ENDBRANCH  13  15
ENDBRANCH  11  12
ENDBRANCH   1  11
TORSDOF 9
ENDMDL
MODEL 5
REMARK VINA RESULT:    -4.874     10.197     13.013
REMARK INTER + INTRA:          -9.789
REMARK INTER:                  -6.853
REMARK INTRA:                  -2.935
REMARK UNBOUND:                -2.350
REMARK SMILES CC(=O)CCC=C(C)CCC=C(C)CCC=C(C)C
REMARK SMILES IDX 10 1 11 2 12 3 13 4 14 5 15 6 16 7 18 8 17 9 19 10 9 11 7 12
REMARK SMILES IDX 6 13 8 14 5 15 4 16 2 17 3 18 1 19
REMARK H PARENT
REMARK Flexibility Score: inf
ROOT
ATOM      1  C   UNL     1       5.651 -22.218   5.520  1.00  0.00     0.032 C 
ENDROOT
BRANCH   1   2
ATOM      2  C   UNL     1       5.318 -22.471   6.969  1.00  0.00    -0.028 C 
ATOM      3  C   UNL     1       5.749 -23.521   7.708  1.00  0.00    -0.077 C 
ATOM      4  C   UNL     1       5.278 -23.619   9.137  1.00  0.00     0.039 C 
BRANCH   3   5
ATOM      5  C   UNL     1       6.685 -24.592   7.174  1.00  0.00     0.034 C 
BRANCH   5   6
ATOM      6  C   UNL     1       6.109 -26.010   7.315  1.00  0.00     0.032 C 
BRANCH   6   7
ATOM      7  C   UNL     1       5.613 -26.555   5.996  1.00  0.00    -0.028 C 
ATOM      8  C   UNL     1       3.237 -25.874   6.407  1.00  0.00     0.039 C 
ATOM      9  C   UNL     1       4.336 -26.468   5.561  1.00  0.00    -0.080 C 
ATOM     10  C   UNL     1       3.966 -27.025   4.211  1.00  0.00     0.039 C 
ENDBRANCH   6   7
ENDBRANCH   5   6
ENDBRANCH   3   5
ENDBRANCH   1   2
BRANCH   1  11
ATOM     11  C   UNL     1       4.601 -22.872   4.616  1.00  0.00     0.034 C 
BRANCH  11  12
ATOM     12  C   UNL     1       5.258 -23.585   3.455  1.00  0.00    -0.077 C 
ATOM     13  C   UNL     1       6.547 -23.980   3.569  1.00  0.00    -0.028 C 
ATOM     14  C   UNL     1       4.449 -23.852   2.205  1.00  0.00     0.039 C 
BRANCH  13  15
ATOM     15  C   UNL     1       7.331 -24.667   2.480  1.00  0.00     0.035 C 
BRANCH  15  16
ATOM     16  C   UNL     1       7.211 -26.189   2.600  1.00  0.00     0.079 C 
BRANCH  16  17
ATOM     17  C   UNL     1       6.971 -26.814   1.253  1.00  0.00     0.130 C 
ATOM     18  O   UNL     1       6.945 -26.111   0.254  1.00  0.00    -0.300 OA
ATOM     19  C   UNL     1       6.791 -28.297   1.125  1.00  0.00     0.087 C 
ENDBRANCH  16  17
ENDBRANCH  15  16
ENDBRANCH  13  15
ENDBRANCH  11  12
ENDBRANCH   1  11
TORSDOF 9
ENDMDL
MODEL 6
REMARK VINA RESULT:    -4.863      2.454      4.938
REMARK INTER + INTRA:          -9.770
REMARK INTER:                  -7.932
REMARK INTRA:                  -1.838
REMARK UNBOUND:                -2.350
REMARK SMILES CC(=O)CCC=C(C)CCC=C(C)CCC=C(C)C
REMARK SMILES IDX 10 1 11 2 12 3 13 4 14 5 15 6 16 7 18 8 17 9 19 10 9 11 7 12
REMARK SMILES IDX 6 13 8 14 5 15 4 16 2 17 3 18 1 19
REMARK H PARENT
REMARK Flexibility Score: inf
ROOT
ATOM      1  C   UNL     1       3.663 -20.981  -7.586  1.00  0.00     0.032 C 
ENDROOT
BRANCH   1   2
ATOM      2  C   UNL     1       4.288 -19.685  -7.130  1.00  0.00    -0.028 C 
ATOM      3  C   UNL     1       4.723 -19.415  -5.877  1.00  0.00    -0.077 C 
ATOM      4  C   UNL     1       5.290 -18.044  -5.606  1.00  0.00     0.039 C 
BRANCH   3   5
ATOM      5  C   UNL     1       4.676 -20.422  -4.739  1.00  0.00     0.034 C 
BRANCH   5   6
ATOM      6  C   UNL     1       5.638 -21.603  -4.951  1.00  0.00     0.032 C 
BRANCH   6   7
ATOM      7  C   UNL     1       7.050 -21.143  -5.227  1.00  0.00    -0.028 C 
ATOM      8  C   UNL     1       7.117 -22.152  -7.519  1.00  0.00     0.039 C 
ATOM      9  C   UNL     1       7.711 -21.351  -6.388  1.00  0.00    -0.080 C 
ATOM     10  C   UNL     1       9.110 -20.818  -6.557  1.00  0.00     0.039 C 
ENDBRANCH   6   7
ENDBRANCH   5   6
ENDBRANCH   3   5
ENDBRANCH   1   2
BRANCH   1  11
ATOM     11  C   UNL     1       2.188 -20.760  -7.936  1.00  0.00     0.034 C 
BRANCH  11  12
ATOM     12  C   UNL     1       1.289 -21.278  -6.835  1.00  0.00    -0.077 C 
ATOM     13  C   UNL     1       1.176 -20.568  -5.689  1.00  0.00    -0.028 C 
ATOM     14  C   UNL     1       0.528 -22.566  -7.054  1.00  0.00     0.039 C 
BRANCH  13  15
ATOM     15  C   UNL     1       0.346 -20.986  -4.502  1.00  0.00     0.035 C 
BRANCH  15  16
ATOM     16  C   UNL     1       0.187 -19.827  -3.514  1.00  0.00     0.079 C 
BRANCH  16  17
ATOM     17  C   UNL     1       1.521 -19.410  -2.960  1.00  0.00     0.130 C 
ATOM     18  O   UNL     1       2.127 -20.160  -2.207  1.00  0.00    -0.300 OA
ATOM     19  C   UNL     1       2.126 -18.094  -3.344  1.00  0.00     0.087 C 
ENDBRANCH  16  17
ENDBRANCH  15  16
ENDBRANCH  13  15
ENDBRANCH  11  12
ENDBRANCH   1  11
TORSDOF 9
ENDMDL
MODEL 7
REMARK VINA RESULT:    -4.860      2.833      4.372
REMARK INTER + INTRA:          -9.767
REMARK INTER:                  -7.287
REMARK INTRA:                  -2.480
REMARK UNBOUND:                -2.350
REMARK SMILES CC(=O)CCC=C(C)CCC=C(C)CCC=C(C)C
REMARK SMILES IDX 10 1 11 2 12 3 13 4 14 5 15 6 16 7 18 8 17 9 19 10 9 11 7 12
REMARK SMILES IDX 6 13 8 14 5 15 4 16 2 17 3 18 1 19
REMARK H PARENT
REMARK Flexibility Score: inf
ROOT
ATOM      1  C   UNL     1       0.585 -19.884  -4.128  1.00  0.00     0.032 C 
ENDROOT
BRANCH   1   2
ATOM      2  C   UNL     1       0.140 -21.103  -4.898  1.00  0.00    -0.028 C 
ATOM      3  C   UNL     1       0.854 -21.736  -5.859  1.00  0.00    -0.077 C 
ATOM      4  C   UNL     1       0.222 -22.923  -6.541  1.00  0.00     0.039 C 
BRANCH   3   5
ATOM      5  C   UNL     1       2.255 -21.317  -6.274  1.00  0.00     0.034 C 
BRANCH   5   6
ATOM      6  C   UNL     1       2.275 -19.984  -7.039  1.00  0.00     0.032 C 
BRANCH   6   7
ATOM      7  C   UNL     1       3.460 -19.129  -6.658  1.00  0.00    -0.028 C 
ATOM      8  C   UNL     1       2.050 -17.200  -5.904  1.00  0.00     0.039 C 
ATOM      9  C   UNL     1       3.373 -17.894  -6.114  1.00  0.00    -0.080 C 
ATOM     10  C   UNL     1       4.629 -17.147  -5.749  1.00  0.00     0.039 C 
ENDBRANCH   6   7
ENDBRANCH   5   6
ENDBRANCH   3   5
ENDBRANCH   1   2
BRANCH   1  11
ATOM     11  C   UNL     1       1.292 -20.306  -2.836  1.00  0.00     0.034 C 
BRANCH  11  12
ATOM     12  C   UNL     1       2.657 -19.662  -2.732  1.00  0.00    -0.077 C 
ATOM     13  C   UNL     1       3.750 -20.373  -3.093  1.00  0.00    -0.028 C 
ATOM     14  C   UNL     1       2.759 -18.234  -2.244  1.00  0.00     0.039 C 
BRANCH  13  15
ATOM     15  C   UNL     1       5.167 -19.865  -3.006  1.00  0.00     0.035 C 
BRANCH  15  16
ATOM     16  C   UNL     1       6.047 -20.523  -4.074  1.00  0.00     0.079 C 
BRANCH  16  17
ATOM     17  C   UNL     1       7.377 -20.922  -3.498  1.00  0.00     0.130 C 
ATOM     18  O   UNL     1       7.536 -20.932  -2.285  1.00  0.00    -0.300 OA
ATOM     19  C   UNL     1       8.503 -21.334  -4.398  1.00  0.00     0.087 C 
ENDBRANCH  16  17
ENDBRANCH  15  16
ENDBRANCH  13  15
ENDBRANCH  11  12
ENDBRANCH   1  11
TORSDOF 9
ENDMDL
MODEL 8
REMARK VINA RESULT:    -4.833      3.469      6.285
REMARK INTER + INTRA:          -9.725
REMARK INTER:                  -7.162
REMARK INTRA:                  -2.562
REMARK UNBOUND:                -2.350
REMARK SMILES CC(=O)CCC=C(C)CCC=C(C)CCC=C(C)C
REMARK SMILES IDX 10 1 11 2 12 3 13 4 14 5 15 6 16 7 18 8 17 9 19 10 9 11 7 12
REMARK SMILES IDX 6 13 8 14 5 15 4 16 2 17 3 18 1 19
REMARK H PARENT
REMARK Flexibility Score: inf
ROOT
ATOM      1  C   UNL     1       1.603 -20.340  -6.881  1.00  0.00     0.032 C 
ENDROOT
BRANCH   1   2
ATOM      2  C   UNL     1       1.038 -20.772  -5.550  1.00  0.00    -0.028 C 
ATOM      3  C   UNL     1       1.029 -20.031  -4.417  1.00  0.00    -0.077 C 
ATOM      4  C   UNL     1       0.447 -20.653  -3.172  1.00  0.00     0.039 C 
BRANCH   3   5
ATOM      5  C   UNL     1       1.563 -18.611  -4.341  1.00  0.00     0.034 C 
BRANCH   5   6
ATOM      6  C   UNL     1       2.429 -18.367  -3.094  1.00  0.00     0.032 C 
BRANCH   6   7
ATOM      7  C   UNL     1       3.883 -18.158  -3.445  1.00  0.00    -0.028 C 
ATOM      8  C   UNL     1       4.475 -20.579  -3.198  1.00  0.00     0.039 C 
ATOM      9  C   UNL     1       4.803 -19.145  -3.531  1.00  0.00    -0.080 C 
ATOM     10  C   UNL     1       6.221 -18.816  -3.919  1.00  0.00     0.039 C 
ENDBRANCH   6   7
ENDBRANCH   5   6
ENDBRANCH   3   5
ENDBRANCH   1   2
BRANCH   1  11
ATOM     11  C   UNL     1       2.668 -21.337  -7.350  1.00  0.00     0.034 C 
BRANCH  11  12
ATOM     12  C   UNL     1       4.059 -20.795  -7.107  1.00  0.00    -0.077 C 
ATOM     13  C   UNL     1       5.062 -21.659  -6.829  1.00  0.00    -0.028 C 
ATOM     14  C   UNL     1       4.292 -19.304  -7.199  1.00  0.00     0.039 C 
BRANCH  13  15
ATOM     15  C   UNL     1       6.483 -21.251  -6.532  1.00  0.00     0.035 C 
BRANCH  15  16
ATOM     16  C   UNL     1       7.372 -21.439  -7.766  1.00  0.00     0.079 C 
BRANCH  16  17
ATOM     17  C   UNL     1       7.795 -20.110  -8.327  1.00  0.00     0.130 C 
ATOM     18  O   UNL     1       8.584 -19.412  -7.707  1.00  0.00    -0.300 OA
ATOM     19  C   UNL     1       7.274 -19.645  -9.654  1.00  0.00     0.087 C 
ENDBRANCH  16  17
ENDBRANCH  15  16
ENDBRANCH  13  15
ENDBRANCH  11  12
ENDBRANCH   1  11
TORSDOF 9
ENDMDL
MODEL 9
REMARK VINA RESULT:    -4.769     11.885     14.168
REMARK INTER + INTRA:          -9.628
REMARK INTER:                  -7.055
REMARK INTRA:                  -2.573
REMARK UNBOUND:                -2.350
REMARK SMILES CC(=O)CCC=C(C)CCC=C(C)CCC=C(C)C
REMARK SMILES IDX 10 1 11 2 12 3 13 4 14 5 15 6 16 7 18 8 17 9 19 10 9 11 7 12
REMARK SMILES IDX 6 13 8 14 5 15 4 16 2 17 3 18 1 19
REMARK H PARENT
REMARK Flexibility Score: inf
ROOT
ATOM      1  C   UNL     1      -6.643 -29.531  -3.860  1.00  0.00     0.032 C 
ENDROOT
BRANCH   1   2
ATOM      2  C   UNL     1      -6.996 -30.334  -2.632  1.00  0.00    -0.028 C 
ATOM      3  C   UNL     1      -8.229 -30.438  -2.083  1.00  0.00    -0.077 C 
ATOM      4  C   UNL     1      -8.376 -31.264  -0.830  1.00  0.00     0.039 C 
BRANCH   3   5
ATOM      5  C   UNL     1      -9.465 -29.777  -2.669  1.00  0.00     0.034 C 
BRANCH   5   6
ATOM      6  C   UNL     1      -9.539 -28.273  -2.360  1.00  0.00     0.032 C 
BRANCH   6   7
ATOM      7  C   UNL     1     -10.449 -27.979  -1.190  1.00  0.00    -0.028 C 
ATOM      8  C   UNL     1      -8.567 -27.793   0.453  1.00  0.00     0.039 C 
ATOM      9  C   UNL     1     -10.024 -27.725   0.068  1.00  0.00    -0.080 C 
ATOM     10  C   UNL     1     -11.028 -27.416   1.148  1.00  0.00     0.039 C 
ENDBRANCH   6   7
ENDBRANCH   5   6
ENDBRANCH   3   5
ENDBRANCH   1   2
BRANCH   1  11
ATOM     11  C   UNL     1      -5.457 -28.608  -3.563  1.00  0.00     0.034 C 
BRANCH  11  12
ATOM     12  C   UNL     1      -5.820 -27.585  -2.509  1.00  0.00    -0.077 C 
ATOM     13  C   UNL     1      -6.622 -26.549  -2.846  1.00  0.00    -0.028 C 
ATOM     14  C   UNL     1      -5.289 -27.760  -1.104  1.00  0.00     0.039 C 
BRANCH  13  15
ATOM     15  C   UNL     1      -7.032 -25.444  -1.905  1.00  0.00     0.035 C 
BRANCH  15  16
ATOM     16  C   UNL     1      -7.781 -24.340  -2.658  1.00  0.00     0.079 C 
BRANCH  16  17
ATOM     17  C   UNL     1      -9.268 -24.495  -2.492  1.00  0.00     0.130 C 
ATOM     18  O   UNL     1      -9.945 -24.890  -3.430  1.00  0.00    -0.300 OA
ATOM     19  C   UNL     1      -9.921 -24.194  -1.177  1.00  0.00     0.087 C 
ENDBRANCH  16  17
ENDBRANCH  15  16
ENDBRANCH  13  15
ENDBRANCH  11  12
ENDBRANCH   1  11
TORSDOF 9
ENDMDL
