MODEL 1
REMARK VINA RESULT:   123.149      0.000      0.000
REMARK INTER + INTRA:         134.067
REMARK INTER:                 133.948
REMARK INTRA:                   0.119
REMARK UNBOUND:                 0.119
REMARK SMILES C[C@H]1[C@H](C)CC[C@]2(C(=O)[O-])CC[C@]3(C)C(=CC[C@H]4[C@@]5(C)CC[C@H](O)C(C)(C)[C@H]5CC[C@]43C)[C@H]12
REMARK SMILES IDX 7 1 6 2 11 3 33 4 5 5 12 6 15 7 2 8 3 9 13 10 16 11 1 12
REMARK SMILES IDX 4 13 14 14 31 15 17 16 18 17 30 18 32 19 19 20 29 21 28 22
REMARK SMILES IDX 21 23 20 24 25 25 22 26 23 27 26 28 27 29 8 30 9 31 10 32
REMARK SMILES IDX 24 33
REMARK H PARENT 24 34
REMARK Flexibility Score: inf
ROOT
ATOM      1  C   UNL     1      10.502  63.084  24.243  1.00  0.00     0.017 C 
ATOM      2  C   UNL     1      11.554  62.983  25.393  1.00  0.00     0.014 C 
ATOM      3  C   UNL     1       9.218  62.300  24.649  1.00  0.00     0.014 C 
ATOM      4  C   UNL     1      11.029  62.535  22.846  1.00  0.00     0.030 C 
ATOM      5  C   UNL     1      13.002  63.378  25.020  1.00  0.00     0.004 C 
ATOM      6  C   UNL     1       9.367  60.755  24.674  1.00  0.00     0.013 C 
ATOM      7  C   UNL     1      10.348  61.206  22.428  1.00  0.00    -0.063 C 
ATOM      8  C   UNL     1      12.590  62.501  22.685  1.00  0.00    -0.003 C 
ATOM      9  C   UNL     1      13.247  63.633  23.518  1.00  0.00    -0.011 C 
ATOM     10  C   UNL     1      10.143  60.088  23.470  1.00  0.00    -0.006 C 
ATOM     11  C   UNL     1       9.658  61.214  21.271  1.00  0.00    -0.027 C 
ATOM     12  C   UNL     1      12.976  62.570  21.194  1.00  0.00     0.008 C 
ATOM     13  C   UNL     1      14.759  63.773  23.269  1.00  0.00     0.008 C 
ATOM     14  C   UNL     1      11.544  59.621  23.975  1.00  0.00     0.017 C 
ATOM     15  C   UNL     1       9.350  58.793  22.890  1.00  0.00    -0.020 C 
ATOM     16  C   UNL     1       8.772  60.115  20.810  1.00  0.00     0.032 C 
ATOM     17  C   UNL     1       8.167  59.255  21.962  1.00  0.00     0.006 C 
ATOM     18  C   UNL     1      10.279  57.873  22.020  1.00  0.00     0.008 C 
ATOM     19  C   UNL     1       8.852  57.932  24.103  1.00  0.00     0.012 C 
ATOM     20  C   UNL     1       7.217  58.055  21.449  1.00  0.00    -0.025 C 
ATOM     21  C   UNL     1       9.577  56.981  20.950  1.00  0.00     0.005 C 
ATOM     22  C   UNL     1       8.047  56.727  21.126  1.00  0.00     0.003 C 
ATOM     23  C   UNL     1       6.360  58.501  20.210  1.00  0.00     0.010 C 
ATOM     24  C   UNL     1       6.161  57.749  22.576  1.00  0.00     0.012 C 
ATOM     25  C   UNL     1       7.431  55.813  19.960  1.00  0.00    -0.006 C 
ATOM     26  C   UNL     1       7.019  58.154  18.879  1.00  0.00     0.033 C 
ATOM     27  C   UNL     1       7.028  56.636  18.662  1.00  0.00     0.120 C 
ATOM     28  C   UNL     1       8.432  54.699  19.523  1.00  0.00     0.014 C 
ATOM     29  C   UNL     1       6.197  55.042  20.537  1.00  0.00     0.014 C 
ENDROOT
BRANCH   1  30
ATOM     30  C   UNL     1      10.092  64.563  24.165  1.00  0.00     0.048 C 
ATOM     31  O   UNL     1      10.751  65.358  23.433  1.00  0.00    -0.550 OA
ATOM     32  O   UNL     1       8.995  65.066  24.859  1.00  0.00    -0.550 OA
ENDBRANCH   1  30
BRANCH  27  33
ATOM     33  O   UNL     1       5.746  56.264  18.193  1.00  0.00    -0.393 OA
ATOM     34  H   UNL     1       5.104  56.404  18.944  1.00  0.00     0.210 HD
ENDBRANCH  27  33
TORSDOF 2
ENDMDL
