MODEL 1
REMARK VINA RESULT:   144.257      0.000      0.000
REMARK INTER + INTRA:         171.478
REMARK INTER:                 169.557
REMARK INTRA:                   1.921
REMARK UNBOUND:                 1.921
REMARK SMILES CC1(C)CC[C@@]2(C(=O)[O-])CC[C@]3(C)C(=CC[C@@H]4[C@]5(C)CC[C@@H](O)[C@@](C)(CO)[C@H]5CC[C@@]43C)[C@@H]2C1
REMARK SMILES IDX 6 1 5 2 10 3 33 4 4 5 11 6 14 7 34 8 2 9 12 10 15 11 1 12
REMARK SMILES IDX 3 13 13 14 31 15 16 16 17 17 30 18 32 19 18 20 29 21 28 22
REMARK SMILES IDX 20 23 19 24 24 25 21 26 22 27 25 28 7 29 8 30 9 31 26 32
REMARK SMILES IDX 27 33 23 35
REMARK H PARENT 27 34 23 36
REMARK Flexibility Score: inf
ROOT
ATOM      1  C   UNL     1     -29.287  22.736 -14.362  1.00  0.00     0.017 C 
ATOM      2  C   UNL     1     -29.788  21.281 -14.534  1.00  0.00     0.014 C 
ATOM      3  C   UNL     1     -28.436  23.124 -15.579  1.00  0.00     0.014 C 
ATOM      4  C   UNL     1     -30.520  23.687 -14.378  1.00  0.00     0.028 C 
ATOM      5  C   UNL     1     -30.750  20.875 -13.405  1.00  0.00     0.007 C 
ATOM      6  C   UNL     1     -27.800  24.507 -15.408  1.00  0.00     0.013 C 
ATOM      7  C   UNL     1     -30.153  25.183 -14.501  1.00  0.00    -0.064 C 
ATOM      8  C   UNL     1     -31.549  23.318 -13.260  1.00  0.00     0.015 C 
ATOM      9  C   UNL     1     -31.978  21.817 -13.282  1.00  0.00    -0.035 C 
ATOM     10  C   UNL     1     -28.740  25.683 -14.888  1.00  0.00    -0.006 C 
ATOM     11  C   UNL     1     -31.161  26.073 -14.469  1.00  0.00    -0.027 C 
ATOM     12  C   UNL     1     -32.969  21.553 -14.442  1.00  0.00     0.011 C 
ATOM     13  C   UNL     1     -32.708  21.496 -11.959  1.00  0.00     0.011 C 
ATOM     14  C   UNL     1     -28.116  26.239 -13.571  1.00  0.00     0.017 C 
ATOM     15  C   UNL     1     -28.833  26.866 -15.983  1.00  0.00    -0.020 C 
ATOM     16  C   UNL     1     -31.038  27.540 -14.731  1.00  0.00     0.032 C 
ATOM     17  C   UNL     1     -29.752  28.060 -15.461  1.00  0.00     0.006 C 
ATOM     18  C   UNL     1     -29.458  26.314 -17.310  1.00  0.00     0.008 C 
ATOM     19  C   UNL     1     -27.378  27.399 -16.262  1.00  0.00     0.012 C 
ATOM     20  C   UNL     1     -30.089  29.197 -16.548  1.00  0.00    -0.025 C 
ATOM     21  C   UNL     1     -29.792  27.383 -18.366  1.00  0.00     0.005 C 
ATOM     22  C   UNL     1     -30.723  28.495 -17.811  1.00  0.00     0.006 C 
ATOM     23  C   UNL     1     -31.090  30.258 -15.955  1.00  0.00     0.010 C 
ATOM     24  C   UNL     1     -28.792  30.007 -16.891  1.00  0.00     0.012 C 
ATOM     25  C   UNL     1     -31.385  29.449 -18.898  1.00  0.00     0.020 C 
ATOM     26  C   UNL     1     -31.691  31.205 -17.005  1.00  0.00     0.033 C 
ATOM     27  C   UNL     1     -32.360  30.423 -18.149  1.00  0.00     0.123 C 
ATOM     28  C   UNL     1     -32.263  28.606 -19.866  1.00  0.00     0.017 C 
ENDROOT
BRANCH   1  29
ATOM     29  C   UNL     1     -28.422  22.786 -13.098  1.00  0.00     0.048 C 
ATOM     30  O   UNL     1     -28.097  23.902 -12.611  1.00  0.00    -0.550 OA
ATOM     31  O   UNL     1     -27.909  21.639 -12.509  1.00  0.00    -0.550 OA
ENDBRANCH   1  29
BRANCH  25  32
ATOM     32  C   UNL     1     -30.369  30.255 -19.771  1.00  0.00     0.165 C 
BRANCH  32  33
ATOM     33  O   UNL     1     -30.025  29.582 -20.953  1.00  0.00    -0.396 OA
ATOM     34  H   UNL     1     -29.784  30.270 -21.627  1.00  0.00     0.210 HD
ENDBRANCH  32  33
ENDBRANCH  25  32
BRANCH  27  35
ATOM     35  O   UNL     1     -33.020  31.298 -19.036  1.00  0.00    -0.392 OA
ATOM     36  H   UNL     1     -33.202  30.811 -19.882  1.00  0.00     0.210 HD
ENDBRANCH  27  35
TORSDOF 4
ENDMDL
MODEL 2
REMARK VINA RESULT:   144.364      8.446     13.336
REMARK INTER + INTRA:         171.604
REMARK INTER:                 170.564
REMARK INTRA:                   1.040
REMARK UNBOUND:                 1.921
REMARK SMILES CC1(C)CC[C@@]2(C(=O)[O-])CC[C@]3(C)C(=CC[C@@H]4[C@]5(C)CC[C@@H](O)[C@@](C)(CO)[C@H]5CC[C@@]43C)[C@@H]2C1
REMARK SMILES IDX 6 1 5 2 10 3 33 4 4 5 11 6 14 7 34 8 2 9 12 10 15 11 1 12
REMARK SMILES IDX 3 13 13 14 31 15 16 16 17 17 30 18 32 19 18 20 29 21 28 22
REMARK SMILES IDX 20 23 19 24 24 25 21 26 22 27 25 28 7 29 8 30 9 31 26 32
REMARK SMILES IDX 27 33 23 35
REMARK H PARENT 27 34 23 36
REMARK Flexibility Score: inf
ROOT
ATOM      1  C   UNL     1     -42.249  31.196 -23.081  1.00  0.00     0.017 C 
ATOM      2  C   UNL     1     -43.118  32.428 -23.435  1.00  0.00     0.014 C 
ATOM      3  C   UNL     1     -40.847  31.379 -23.679  1.00  0.00     0.014 C 
ATOM      4  C   UNL     1     -42.056  31.156 -21.537  1.00  0.00     0.028 C 
ATOM      5  C   UNL     1     -44.497  32.362 -22.758  1.00  0.00     0.007 C 
ATOM      6  C   UNL     1     -39.979  30.133 -23.478  1.00  0.00     0.013 C 
ATOM      7  C   UNL     1     -40.981  30.150 -21.068  1.00  0.00    -0.064 C 
ATOM      8  C   UNL     1     -43.425  31.104 -20.784  1.00  0.00     0.015 C 
ATOM      9  C   UNL     1     -44.413  32.235 -21.212  1.00  0.00    -0.035 C 
ATOM     10  C   UNL     1     -39.970  29.475 -22.027  1.00  0.00    -0.006 C 
ATOM     11  C   UNL     1     -40.792  30.018 -19.743  1.00  0.00    -0.027 C 
ATOM     12  C   UNL     1     -43.990  33.588 -20.590  1.00  0.00     0.011 C 
ATOM     13  C   UNL     1     -45.818  31.890 -20.674  1.00  0.00     0.011 C 
ATOM     14  C   UNL     1     -40.451  28.000 -22.175  1.00  0.00     0.017 C 
ATOM     15  C   UNL     1     -38.483  29.499 -21.398  1.00  0.00    -0.020 C 
ATOM     16  C   UNL     1     -39.702  29.227 -19.092  1.00  0.00     0.032 C 
ATOM     17  C   UNL     1     -38.460  28.819 -19.956  1.00  0.00     0.006 C 
ATOM     18  C   UNL     1     -37.992  30.979 -21.249  1.00  0.00     0.008 C 
ATOM     19  C   UNL     1     -37.523  28.715 -22.370  1.00  0.00     0.012 C 
ATOM     20  C   UNL     1     -37.080  28.972 -19.144  1.00  0.00    -0.025 C 
ATOM     21  C   UNL     1     -36.674  31.152 -20.473  1.00  0.00     0.005 C 
ATOM     22  C   UNL     1     -36.727  30.508 -19.062  1.00  0.00     0.006 C 
ATOM     23  C   UNL     1     -37.212  28.365 -17.697  1.00  0.00     0.010 C 
ATOM     24  C   UNL     1     -35.957  28.128 -19.840  1.00  0.00     0.012 C 
ATOM     25  C   UNL     1     -35.551  30.916 -18.071  1.00  0.00     0.020 C 
ATOM     26  C   UNL     1     -36.050  28.726 -16.760  1.00  0.00     0.033 C 
ATOM     27  C   UNL     1     -35.844  30.250 -16.681  1.00  0.00     0.123 C 
ATOM     28  C   UNL     1     -35.577  32.453 -17.835  1.00  0.00     0.017 C 
ENDROOT
BRANCH   1  29
ATOM     29  C   UNL     1     -42.912  29.963 -23.703  1.00  0.00     0.048 C 
ATOM     30  O   UNL     1     -42.272  29.267 -24.537  1.00  0.00    -0.550 OA
ATOM     31  O   UNL     1     -44.232  29.623 -23.442  1.00  0.00    -0.550 OA
ENDBRANCH   1  29
BRANCH  25  32
ATOM     32  C   UNL     1     -34.116  30.543 -18.566  1.00  0.00     0.165 C 
BRANCH  32  33
ATOM     33  O   UNL     1     -33.170  31.536 -18.268  1.00  0.00    -0.396 OA
ATOM     34  H   UNL     1     -32.425  31.099 -17.780  1.00  0.00     0.210 HD
ENDBRANCH  32  33
ENDBRANCH  25  32
BRANCH  27  35
ATOM     35  O   UNL     1     -34.865  30.574 -15.720  1.00  0.00    -0.392 OA
ATOM     36  H   UNL     1     -33.969  30.426 -16.121  1.00  0.00     0.210 HD
ENDBRANCH  27  35
TORSDOF 4
ENDMDL
MODEL 3
REMARK VINA RESULT:   144.474      2.982      8.513
REMARK INTER + INTRA:         171.733
REMARK INTER:                 170.144
REMARK INTRA:                   1.589
REMARK UNBOUND:                 1.921
REMARK SMILES CC1(C)CC[C@@]2(C(=O)[O-])CC[C@]3(C)C(=CC[C@@H]4[C@]5(C)CC[C@@H](O)[C@@](C)(CO)[C@H]5CC[C@@]43C)[C@@H]2C1
REMARK SMILES IDX 6 1 5 2 10 3 33 4 4 5 11 6 14 7 34 8 2 9 12 10 15 11 1 12
REMARK SMILES IDX 3 13 13 14 31 15 16 16 17 17 30 18 32 19 18 20 29 21 28 22
REMARK SMILES IDX 20 23 19 24 24 25 21 26 22 27 25 28 7 29 8 30 9 31 26 32
REMARK SMILES IDX 27 33 23 35
REMARK H PARENT 27 34 23 36
REMARK Flexibility Score: inf
ROOT
ATOM      1  C   UNL     1     -36.242  30.077 -18.723  1.00  0.00     0.017 C 
ATOM      2  C   UNL     1     -37.682  29.536 -18.899  1.00  0.00     0.014 C 
ATOM      3  C   UNL     1     -35.925  30.188 -17.225  1.00  0.00     0.014 C 
ATOM      4  C   UNL     1     -35.247  29.026 -19.296  1.00  0.00     0.028 C 
ATOM      5  C   UNL     1     -38.015  29.284 -20.380  1.00  0.00     0.007 C 
ATOM      6  C   UNL     1     -34.562  30.843 -16.981  1.00  0.00     0.013 C 
ATOM      7  C   UNL     1     -33.770  29.301 -18.932  1.00  0.00    -0.064 C 
ATOM      8  C   UNL     1     -35.541  28.711 -20.799  1.00  0.00     0.015 C 
ATOM      9  C   UNL     1     -37.025  28.309 -21.070  1.00  0.00    -0.035 C 
ATOM     10  C   UNL     1     -33.335  30.322 -17.853  1.00  0.00    -0.006 C 
ATOM     11  C   UNL     1     -32.843  28.467 -19.435  1.00  0.00    -0.027 C 
ATOM     12  C   UNL     1     -37.289  26.858 -20.595  1.00  0.00     0.011 C 
ATOM     13  C   UNL     1     -37.276  28.356 -22.593  1.00  0.00     0.011 C 
ATOM     14  C   UNL     1     -32.761  31.542 -18.637  1.00  0.00     0.017 C 
ATOM     15  C   UNL     1     -32.185  29.698 -16.907  1.00  0.00    -0.020 C 
ATOM     16  C   UNL     1     -31.391  28.460 -19.079  1.00  0.00     0.032 C 
ATOM     17  C   UNL     1     -30.942  29.197 -17.770  1.00  0.00     0.006 C 
ATOM     18  C   UNL     1     -32.756  28.473 -16.115  1.00  0.00     0.008 C 
ATOM     19  C   UNL     1     -31.717  30.812 -15.898  1.00  0.00     0.012 C 
ATOM     20  C   UNL     1     -29.829  28.367 -16.958  1.00  0.00    -0.025 C 
ATOM     21  C   UNL     1     -31.709  27.660 -15.332  1.00  0.00     0.005 C 
ATOM     22  C   UNL     1     -30.547  27.164 -16.232  1.00  0.00     0.006 C 
ATOM     23  C   UNL     1     -28.712  27.829 -17.930  1.00  0.00     0.010 C 
ATOM     24  C   UNL     1     -29.079  29.316 -15.961  1.00  0.00     0.012 C 
ATOM     25  C   UNL     1     -29.604  26.052 -15.595  1.00  0.00     0.020 C 
ATOM     26  C   UNL     1     -27.778  26.789 -17.293  1.00  0.00     0.033 C 
ATOM     27  C   UNL     1     -28.571  25.616 -16.692  1.00  0.00     0.123 C 
ATOM     28  C   UNL     1     -30.444  24.789 -15.255  1.00  0.00     0.017 C 
ENDROOT
BRANCH   1  29
ATOM     29  C   UNL     1     -36.184  31.469 -19.360  1.00  0.00     0.048 C 
ATOM     30  O   UNL     1     -35.810  32.454 -18.669  1.00  0.00    -0.550 OA
ATOM     31  O   UNL     1     -36.607  31.704 -20.661  1.00  0.00    -0.550 OA
ENDBRANCH   1  29
BRANCH  25  32
ATOM     32  C   UNL     1     -28.865  26.489 -14.288  1.00  0.00     0.165 C 
BRANCH  32  33
ATOM     33  O   UNL     1     -27.470  26.508 -14.442  1.00  0.00    -0.396 OA
ATOM     34  H   UNL     1     -27.128  27.296 -13.945  1.00  0.00     0.210 HD
ENDBRANCH  32  33
ENDBRANCH  25  32
BRANCH  27  35
ATOM     35  O   UNL     1     -27.700  24.608 -16.229  1.00  0.00    -0.392 OA
ATOM     36  H   UNL     1     -27.192  24.250 -17.003  1.00  0.00     0.210 HD
ENDBRANCH  27  35
TORSDOF 4
ENDMDL
MODEL 4
REMARK VINA RESULT:   146.533      5.471     10.262
REMARK INTER + INTRA:         174.153
REMARK INTER:                 173.825
REMARK INTRA:                   0.328
REMARK UNBOUND:                 1.921
REMARK SMILES CC1(C)CC[C@@]2(C(=O)[O-])CC[C@]3(C)C(=CC[C@@H]4[C@]5(C)CC[C@@H](O)[C@@](C)(CO)[C@H]5CC[C@@]43C)[C@@H]2C1
REMARK SMILES IDX 6 1 5 2 10 3 33 4 4 5 11 6 14 7 34 8 2 9 12 10 15 11 1 12
REMARK SMILES IDX 3 13 13 14 31 15 16 16 17 17 30 18 32 19 18 20 29 21 28 22
REMARK SMILES IDX 20 23 19 24 24 25 21 26 22 27 25 28 7 29 8 30 9 31 26 32
REMARK SMILES IDX 27 33 23 35
REMARK H PARENT 27 34 23 36
REMARK Flexibility Score: inf
ROOT
ATOM      1  C   UNL     1     -39.605  28.988 -20.894  1.00  0.00     0.017 C 
ATOM      2  C   UNL     1     -40.778  27.978 -20.915  1.00  0.00     0.014 C 
ATOM      3  C   UNL     1     -39.578  29.702 -19.535  1.00  0.00     0.014 C 
ATOM      4  C   UNL     1     -38.269  28.194 -20.988  1.00  0.00     0.028 C 
ATOM      5  C   UNL     1     -40.782  27.140 -22.205  1.00  0.00     0.007 C 
ATOM      6  C   UNL     1     -38.522  30.810 -19.498  1.00  0.00     0.013 C 
ATOM      7  C   UNL     1     -37.014  29.045 -20.692  1.00  0.00    -0.064 C 
ATOM      8  C   UNL     1     -38.214  27.305 -22.273  1.00  0.00     0.015 C 
ATOM      9  C   UNL     1     -39.453  26.370 -22.436  1.00  0.00    -0.035 C 
ATOM     10  C   UNL     1     -37.073  30.457 -20.059  1.00  0.00    -0.006 C 
ATOM     11  C   UNL     1     -35.816  28.444 -20.805  1.00  0.00    -0.027 C 
ATOM     12  C   UNL     1     -39.358  25.170 -21.463  1.00  0.00     0.011 C 
ATOM     13  C   UNL     1     -39.459  25.808 -23.874  1.00  0.00     0.011 C 
ATOM     14  C   UNL     1     -36.759  31.451 -21.218  1.00  0.00     0.017 C 
ATOM     15  C   UNL     1     -35.959  30.609 -18.899  1.00  0.00    -0.020 C 
ATOM     16  C   UNL     1     -34.502  29.038 -20.411  1.00  0.00     0.032 C 
ATOM     17  C   UNL     1     -34.502  30.281 -19.457  1.00  0.00     0.006 C 
ATOM     18  C   UNL     1     -36.270  29.614 -17.730  1.00  0.00     0.008 C 
ATOM     19  C   UNL     1     -36.003  32.089 -18.363  1.00  0.00     0.012 C 
ATOM     20  C   UNL     1     -33.342  30.195 -18.347  1.00  0.00    -0.025 C 
ATOM     21  C   UNL     1     -35.173  29.511 -16.655  1.00  0.00     0.005 C 
ATOM     22  C   UNL     1     -33.787  29.148 -17.253  1.00  0.00     0.006 C 
ATOM     23  C   UNL     1     -31.976  29.756 -18.997  1.00  0.00     0.010 C 
ATOM     24  C   UNL     1     -33.070  31.618 -17.748  1.00  0.00     0.012 C 
ATOM     25  C   UNL     1     -32.678  28.698 -16.206  1.00  0.00     0.020 C 
ATOM     26  C   UNL     1     -30.896  29.366 -17.977  1.00  0.00     0.033 C 
ATOM     27  C   UNL     1     -31.401  28.278 -17.013  1.00  0.00     0.123 C 
ATOM     28  C   UNL     1     -33.159  27.426 -15.451  1.00  0.00     0.017 C 
ENDROOT
BRANCH   1  29
ATOM     29  C   UNL     1     -39.851  30.014 -22.005  1.00  0.00     0.048 C 
ATOM     30  O   UNL     1     -41.016  30.450 -22.201  1.00  0.00    -0.550 OA
ATOM     31  O   UNL     1     -38.843  30.427 -22.864  1.00  0.00    -0.550 OA
ENDBRANCH   1  29
BRANCH  25  32
ATOM     32  C   UNL     1     -32.317  29.772 -15.128  1.00  0.00     0.165 C 
BRANCH  32  33
ATOM     33  O   UNL     1     -31.867  29.199 -13.929  1.00  0.00    -0.396 OA
ATOM     34  H   UNL     1     -31.289  28.428 -14.167  1.00  0.00     0.210 HD
ENDBRANCH  32  33
ENDBRANCH  25  32
BRANCH  27  35
ATOM     35  O   UNL     1     -30.361  27.835 -16.169  1.00  0.00    -0.392 OA
ATOM     36  H   UNL     1     -30.308  28.446 -15.388  1.00  0.00     0.210 HD
ENDBRANCH  27  35
TORSDOF 4
ENDMDL
MODEL 5
REMARK VINA RESULT:   147.136     10.503     14.854
REMARK INTER + INTRA:         174.862
REMARK INTER:                 173.413
REMARK INTRA:                   1.449
REMARK UNBOUND:                 1.921
REMARK SMILES CC1(C)CC[C@@]2(C(=O)[O-])CC[C@]3(C)C(=CC[C@@H]4[C@]5(C)CC[C@@H](O)[C@@](C)(CO)[C@H]5CC[C@@]43C)[C@@H]2C1
REMARK SMILES IDX 6 1 5 2 10 3 33 4 4 5 11 6 14 7 34 8 2 9 12 10 15 11 1 12
REMARK SMILES IDX 3 13 13 14 31 15 16 16 17 17 30 18 32 19 18 20 29 21 28 22
REMARK SMILES IDX 20 23 19 24 24 25 21 26 22 27 25 28 7 29 8 30 9 31 26 32
REMARK SMILES IDX 27 33 23 35
REMARK H PARENT 27 34 23 36
REMARK Flexibility Score: inf
ROOT
ATOM      1  C   UNL     1     -37.431  29.992 -22.249  1.00  0.00     0.017 C 
ATOM      2  C   UNL     1     -36.111  30.802 -22.253  1.00  0.00     0.014 C 
ATOM      3  C   UNL     1     -38.129  30.173 -20.894  1.00  0.00     0.014 C 
ATOM      4  C   UNL     1     -38.389  30.605 -23.311  1.00  0.00     0.028 C 
ATOM      5  C   UNL     1     -35.426  30.763 -23.630  1.00  0.00     0.007 C 
ATOM      6  C   UNL     1     -39.375  29.289 -20.776  1.00  0.00     0.013 C 
ATOM      7  C   UNL     1     -39.840  30.081 -23.220  1.00  0.00    -0.064 C 
ATOM      8  C   UNL     1     -37.745  30.609 -24.736  1.00  0.00     0.015 C 
ATOM      9  C   UNL     1     -36.335  31.277 -24.778  1.00  0.00    -0.035 C 
ATOM     10  C   UNL     1     -40.379  29.276 -22.012  1.00  0.00    -0.006 C 
ATOM     11  C   UNL     1     -40.718  30.523 -24.138  1.00  0.00    -0.027 C 
ATOM     12  C   UNL     1     -36.463  32.819 -24.705  1.00  0.00     0.011 C 
ATOM     13  C   UNL     1     -35.665  30.926 -26.125  1.00  0.00     0.011 C 
ATOM     14  C   UNL     1     -40.498  27.802 -22.509  1.00  0.00     0.017 C 
ATOM     15  C   UNL     1     -41.836  29.816 -21.571  1.00  0.00    -0.020 C 
ATOM     16  C   UNL     1     -42.191  30.267 -24.130  1.00  0.00     0.032 C 
ATOM     17  C   UNL     1     -42.856  29.782 -22.797  1.00  0.00     0.006 C 
ATOM     18  C   UNL     1     -41.724  31.296 -21.069  1.00  0.00     0.008 C 
ATOM     19  C   UNL     1     -42.372  28.899 -20.408  1.00  0.00     0.012 C 
ATOM     20  C   UNL     1     -44.275  30.492 -22.532  1.00  0.00    -0.025 C 
ATOM     21  C   UNL     1     -43.069  31.999 -20.812  1.00  0.00     0.005 C 
ATOM     22  C   UNL     1     -44.001  31.971 -22.052  1.00  0.00     0.006 C 
ATOM     23  C   UNL     1     -45.150  30.498 -23.841  1.00  0.00     0.010 C 
ATOM     24  C   UNL     1     -45.101  29.660 -21.492  1.00  0.00     0.012 C 
ATOM     25  C   UNL     1     -45.258  32.944 -21.996  1.00  0.00     0.020 C 
ATOM     26  C   UNL     1     -46.386  31.405 -23.762  1.00  0.00     0.033 C 
ATOM     27  C   UNL     1     -46.002  32.844 -23.373  1.00  0.00     0.123 C 
ATOM     28  C   UNL     1     -44.772  34.416 -21.865  1.00  0.00     0.017 C 
ENDROOT
BRANCH   1  29
ATOM     29  C   UNL     1     -37.073  28.515 -22.444  1.00  0.00     0.048 C 
ATOM     30  O   UNL     1     -36.793  28.091 -23.597  1.00  0.00    -0.550 OA
ATOM     31  O   UNL     1     -37.123  27.599 -21.403  1.00  0.00    -0.550 OA
ENDBRANCH   1  29
BRANCH  25  32
ATOM     32  C   UNL     1     -46.247  32.672 -20.817  1.00  0.00     0.165 C 
BRANCH  32  33
ATOM     33  O   UNL     1     -45.603  32.142 -19.688  1.00  0.00    -0.396 OA
ATOM     34  H   UNL     1     -44.673  32.487 -19.688  1.00  0.00     0.210 HD
ENDBRANCH  32  33
ENDBRANCH  25  32
BRANCH  27  35
ATOM     35  O   UNL     1     -47.125  33.695 -23.432  1.00  0.00    -0.392 OA
ATOM     36  H   UNL     1     -47.618  33.509 -24.273  1.00  0.00     0.210 HD
ENDBRANCH  27  35
TORSDOF 4
ENDMDL
