MODEL 1
REMARK VINA RESULT:    -4.981      0.000      0.000
REMARK INTER + INTRA:          -5.599
REMARK INTER:                  -5.417
REMARK INTRA:                  -0.182
REMARK UNBOUND:                -0.182
REMARK SMILES C=C(C)[C@@H]1CC[C@@H](C)C[C@@H]1O
REMARK SMILES IDX 8 1 7 2 6 3 5 4 4 5 10 6 9 7 11 8 2 10 1 11 3 12
REMARK H PARENT 11 9
REMARK Flexibility Score: inf
ROOT
ATOM      1  C   UNL     1      -5.284  22.719  47.827  1.00  0.00     0.008 C 
ATOM      2  C   UNL     1      -4.624  21.376  47.496  1.00  0.00    -0.012 C 
ATOM      3  C   UNL     1      -4.150  20.679  48.786  1.00  0.00     0.004 C 
ATOM      4  C   UNL     1      -3.463  19.343  48.476  1.00  0.00     0.011 C 
ATOM      5  C   UNL     1      -2.269  19.550  47.523  1.00  0.00     0.043 C 
ATOM      6  C   UNL     1      -2.682  20.277  46.215  1.00  0.00     0.121 C 
ATOM      7  C   UNL     1      -3.447  21.584  46.517  1.00  0.00     0.035 C 
ENDROOT
BRANCH   6   8
ATOM      8  O   UNL     1      -3.408  19.450  45.337  1.00  0.00    -0.392 OA
ATOM      9  H   UNL     1      -3.405  19.869  44.440  1.00  0.00     0.210 HD
ENDBRANCH   6   8
BRANCH   5  10
ATOM     10  C   UNL     1      -1.509  18.255  47.252  1.00  0.00    -0.075 C 
ATOM     11  C   UNL     1      -0.234  18.259  46.822  1.00  0.00     0.008 C 
ATOM     12  C   UNL     1      -2.190  16.926  47.458  1.00  0.00     0.039 C 
ENDBRANCH   5  10
TORSDOF 2
ENDMDL
MODEL 2
REMARK VINA RESULT:    -4.820      1.302      4.241
REMARK INTER + INTRA:          -5.424
REMARK INTER:                  -5.316
REMARK INTRA:                  -0.108
REMARK UNBOUND:                -0.182
REMARK SMILES C=C(C)[C@@H]1CC[C@@H](C)C[C@@H]1O
REMARK SMILES IDX 8 1 7 2 6 3 5 4 4 5 10 6 9 7 11 8 2 10 1 11 3 12
REMARK H PARENT 11 9
REMARK Flexibility Score: inf
ROOT
ATOM      1  C   UNL     1      -1.902  16.877  46.661  1.00  0.00     0.008 C 
ATOM      2  C   UNL     1      -2.216  18.281  47.192  1.00  0.00    -0.012 C 
ATOM      3  C   UNL     1      -3.232  18.202  48.348  1.00  0.00     0.004 C 
ATOM      4  C   UNL     1      -3.580  19.597  48.878  1.00  0.00     0.011 C 
ATOM      5  C   UNL     1      -4.137  20.489  47.749  1.00  0.00     0.043 C 
ATOM      6  C   UNL     1      -3.165  20.582  46.543  1.00  0.00     0.121 C 
ATOM      7  C   UNL     1      -2.744  19.179  46.052  1.00  0.00     0.035 C 
ENDROOT
BRANCH   6   8
ATOM      8  O   UNL     1      -2.043  21.389  46.806  1.00  0.00    -0.392 OA
ATOM      9  H   UNL     1      -2.096  21.701  47.745  1.00  0.00     0.210 HD
ENDBRANCH   6   8
BRANCH   5  10
ATOM     10  C   UNL     1      -4.570  21.863  48.252  1.00  0.00    -0.075 C 
ATOM     11  C   UNL     1      -5.614  22.517  47.713  1.00  0.00     0.008 C 
ATOM     12  C   UNL     1      -3.815  22.525  49.377  1.00  0.00     0.039 C 
ENDBRANCH   5  10
TORSDOF 2
ENDMDL
MODEL 3
REMARK VINA RESULT:    -4.811      5.751      7.627
REMARK INTER + INTRA:          -5.415
REMARK INTER:                  -5.260
REMARK INTRA:                  -0.155
REMARK UNBOUND:                -0.182
REMARK SMILES C=C(C)[C@@H]1CC[C@@H](C)C[C@@H]1O
REMARK SMILES IDX 8 1 7 2 6 3 5 4 4 5 10 6 9 7 11 8 2 10 1 11 3 12
REMARK H PARENT 11 9
REMARK Flexibility Score: inf
ROOT
ATOM      1  C   UNL     1      -3.454  26.764  53.916  1.00  0.00     0.008 C 
ATOM      2  C   UNL     1      -4.293  26.182  52.773  1.00  0.00    -0.012 C 
ATOM      3  C   UNL     1      -3.622  24.915  52.206  1.00  0.00     0.004 C 
ATOM      4  C   UNL     1      -4.432  24.329  51.044  1.00  0.00     0.011 C 
ATOM      5  C   UNL     1      -4.615  25.373  49.923  1.00  0.00     0.043 C 
ATOM      6  C   UNL     1      -5.262  26.683  50.443  1.00  0.00     0.121 C 
ATOM      7  C   UNL     1      -4.500  27.239  51.666  1.00  0.00     0.035 C 
ENDROOT
BRANCH   6   8
ATOM      8  O   UNL     1      -6.636  26.543  50.717  1.00  0.00    -0.392 OA
ATOM      9  H   UNL     1      -6.735  26.106  51.600  1.00  0.00     0.210 HD
ENDBRANCH   6   8
BRANCH   5  10
ATOM     10  C   UNL     1      -5.350  24.803  48.712  1.00  0.00    -0.075 C 
ATOM     11  C   UNL     1      -5.708  23.509  48.646  1.00  0.00     0.008 C 
ATOM     12  C   UNL     1      -5.684  25.698  47.546  1.00  0.00     0.039 C 
ENDBRANCH   5  10
TORSDOF 2
ENDMDL
MODEL 4
REMARK VINA RESULT:    -4.674      1.846      2.544
REMARK INTER + INTRA:          -5.266
REMARK INTER:                  -5.078
REMARK INTRA:                  -0.187
REMARK UNBOUND:                -0.182
REMARK SMILES C=C(C)[C@@H]1CC[C@@H](C)C[C@@H]1O
REMARK SMILES IDX 8 1 7 2 6 3 5 4 4 5 10 6 9 7 11 8 2 10 1 11 3 12
REMARK H PARENT 11 9
REMARK Flexibility Score: inf
ROOT
ATOM      1  C   UNL     1      -3.587  22.382  49.163  1.00  0.00     0.008 C 
ATOM      2  C   UNL     1      -3.068  21.058  48.588  1.00  0.00    -0.012 C 
ATOM      3  C   UNL     1      -2.324  21.306  47.261  1.00  0.00     0.004 C 
ATOM      4  C   UNL     1      -1.818  19.991  46.654  1.00  0.00     0.011 C 
ATOM      5  C   UNL     1      -2.985  19.009  46.427  1.00  0.00     0.043 C 
ATOM      6  C   UNL     1      -3.791  18.744  47.726  1.00  0.00     0.121 C 
ATOM      7  C   UNL     1      -4.236  20.066  48.389  1.00  0.00     0.035 C 
ENDROOT
BRANCH   6   8
ATOM      8  O   UNL     1      -3.103  17.921  48.637  1.00  0.00    -0.392 OA
ATOM      9  H   UNL     1      -2.142  17.926  48.398  1.00  0.00     0.210 HD
ENDBRANCH   6   8
BRANCH   5  10
ATOM     10  C   UNL     1      -2.535  17.717  45.750  1.00  0.00    -0.075 C 
ATOM     11  C   UNL     1      -3.405  16.907  45.121  1.00  0.00     0.008 C 
ATOM     12  C   UNL     1      -1.081  17.317  45.783  1.00  0.00     0.039 C 
ENDBRANCH   5  10
TORSDOF 2
ENDMDL
MODEL 5
REMARK VINA RESULT:    -4.651      2.864      5.893
REMARK INTER + INTRA:          -5.241
REMARK INTER:                  -5.051
REMARK INTRA:                  -0.190
REMARK UNBOUND:                -0.182
REMARK SMILES C=C(C)[C@@H]1CC[C@@H](C)C[C@@H]1O
REMARK SMILES IDX 8 1 7 2 6 3 5 4 4 5 10 6 9 7 11 8 2 10 1 11 3 12
REMARK H PARENT 11 9
REMARK Flexibility Score: inf
ROOT
ATOM      1  C   UNL     1      -3.349  19.761  48.075  1.00  0.00     0.008 C 
ATOM      2  C   UNL     1      -4.031  21.023  48.617  1.00  0.00    -0.012 C 
ATOM      3  C   UNL     1      -5.067  21.549  47.605  1.00  0.00     0.004 C 
ATOM      4  C   UNL     1      -5.744  22.826  48.116  1.00  0.00     0.011 C 
ATOM      5  C   UNL     1      -4.697  23.920  48.413  1.00  0.00     0.043 C 
ATOM      6  C   UNL     1      -3.609  23.435  49.407  1.00  0.00     0.121 C 
ATOM      7  C   UNL     1      -2.977  22.104  48.941  1.00  0.00     0.035 C 
ENDROOT
BRANCH   6   8
ATOM      8  O   UNL     1      -4.079  23.342  50.730  1.00  0.00    -0.392 OA
ATOM      9  H   UNL     1      -3.550  23.961  51.293  1.00  0.00     0.210 HD
ENDBRANCH   6   8
BRANCH   5  10
ATOM     10  C   UNL     1      -5.337  25.235  48.849  1.00  0.00    -0.075 C 
ATOM     11  C   UNL     1      -4.661  26.397  48.812  1.00  0.00     0.008 C 
ATOM     12  C   UNL     1      -6.761  25.251  49.345  1.00  0.00     0.039 C 
ENDBRANCH   5  10
TORSDOF 2
ENDMDL
MODEL 6
REMARK VINA RESULT:    -4.535      1.471      4.527
REMARK INTER + INTRA:          -5.115
REMARK INTER:                  -5.141
REMARK INTRA:                   0.026
REMARK UNBOUND:                -0.182
REMARK SMILES C=C(C)[C@@H]1CC[C@@H](C)C[C@@H]1O
REMARK SMILES IDX 8 1 7 2 6 3 5 4 4 5 10 6 9 7 11 8 2 10 1 11 3 12
REMARK H PARENT 11 9
REMARK Flexibility Score: inf
ROOT
ATOM      1  C   UNL     1      -1.565  16.960  46.572  1.00  0.00     0.008 C 
ATOM      2  C   UNL     1      -2.609  18.064  46.779  1.00  0.00    -0.012 C 
ATOM      3  C   UNL     1      -2.084  19.407  46.236  1.00  0.00     0.004 C 
ATOM      4  C   UNL     1      -3.102  20.532  46.455  1.00  0.00     0.011 C 
ATOM      5  C   UNL     1      -3.451  20.670  47.951  1.00  0.00     0.043 C 
ATOM      6  C   UNL     1      -3.960  19.337  48.560  1.00  0.00     0.121 C 
ATOM      7  C   UNL     1      -2.978  18.179  48.274  1.00  0.00     0.035 C 
ENDROOT
BRANCH   6   8
ATOM      8  O   UNL     1      -5.266  19.013  48.151  1.00  0.00    -0.392 OA
ATOM      9  H   UNL     1      -5.516  19.611  47.402  1.00  0.00     0.210 HD
ENDBRANCH   6   8
BRANCH   5  10
ATOM     10  C   UNL     1      -4.404  21.832  48.221  1.00  0.00    -0.075 C 
ATOM     11  C   UNL     1      -5.472  22.068  47.439  1.00  0.00     0.008 C 
ATOM     12  C   UNL     1      -4.153  22.755  49.387  1.00  0.00     0.039 C 
ENDBRANCH   5  10
TORSDOF 2
ENDMDL
MODEL 7
REMARK VINA RESULT:    -4.512      2.484      5.756
REMARK INTER + INTRA:          -5.090
REMARK INTER:                  -4.907
REMARK INTRA:                  -0.183
REMARK UNBOUND:                -0.182
REMARK SMILES C=C(C)[C@@H]1CC[C@@H](C)C[C@@H]1O
REMARK SMILES IDX 8 1 7 2 6 3 5 4 4 5 10 6 9 7 11 8 2 10 1 11 3 12
REMARK H PARENT 11 9
REMARK Flexibility Score: inf
ROOT
ATOM      1  C   UNL     1      -2.963  19.883  47.863  1.00  0.00     0.008 C 
ATOM      2  C   UNL     1      -3.475  21.329  47.866  1.00  0.00    -0.012 C 
ATOM      3  C   UNL     1      -2.984  22.068  49.127  1.00  0.00     0.004 C 
ATOM      4  C   UNL     1      -3.505  23.509  49.164  1.00  0.00     0.011 C 
ATOM      5  C   UNL     1      -5.046  23.536  49.106  1.00  0.00     0.043 C 
ATOM      6  C   UNL     1      -5.599  22.780  47.869  1.00  0.00     0.121 C 
ATOM      7  C   UNL     1      -5.017  21.352  47.777  1.00  0.00     0.035 C 
ENDROOT
BRANCH   6   8
ATOM      8  O   UNL     1      -5.411  23.487  46.667  1.00  0.00    -0.392 OA
ATOM      9  H   UNL     1      -5.625  24.440  46.829  1.00  0.00     0.210 HD
ENDBRANCH   6   8
BRANCH   5  10
ATOM     10  C   UNL     1      -5.609  24.951  49.220  1.00  0.00    -0.075 C 
ATOM     11  C   UNL     1      -6.927  25.178  49.358  1.00  0.00     0.008 C 
ATOM     12  C   UNL     1      -4.679  26.136  49.171  1.00  0.00     0.039 C 
ENDBRANCH   5  10
TORSDOF 2
ENDMDL
MODEL 8
REMARK VINA RESULT:    -4.500      2.044      3.070
REMARK INTER + INTRA:          -5.077
REMARK INTER:                  -4.929
REMARK INTRA:                  -0.148
REMARK UNBOUND:                -0.182
REMARK SMILES C=C(C)[C@@H]1CC[C@@H](C)C[C@@H]1O
REMARK SMILES IDX 8 1 7 2 6 3 5 4 4 5 10 6 9 7 11 8 2 10 1 11 3 12
REMARK H PARENT 11 9
REMARK Flexibility Score: inf
ROOT
ATOM      1  C   UNL     1      -5.663  25.040  48.900  1.00  0.00     0.008 C 
ATOM      2  C   UNL     1      -4.846  23.827  48.438  1.00  0.00    -0.012 C 
ATOM      3  C   UNL     1      -5.774  22.756  47.831  1.00  0.00     0.004 C 
ATOM      4  C   UNL     1      -4.981  21.522  47.385  1.00  0.00     0.011 C 
ATOM      5  C   UNL     1      -4.190  20.924  48.566  1.00  0.00     0.043 C 
ATOM      6  C   UNL     1      -3.258  21.967  49.237  1.00  0.00     0.121 C 
ATOM      7  C   UNL     1      -4.032  23.249  49.617  1.00  0.00     0.035 C 
ENDROOT
BRANCH   6   8
ATOM      8  O   UNL     1      -2.124  22.267  48.459  1.00  0.00    -0.392 OA
ATOM      9  H   UNL     1      -1.920  21.483  47.890  1.00  0.00     0.210 HD
ENDBRANCH   6   8
BRANCH   5  10
ATOM     10  C   UNL     1      -3.448  19.646  48.183  1.00  0.00    -0.075 C 
ATOM     11  C   UNL     1      -3.094  19.389  46.911  1.00  0.00     0.008 C 
ATOM     12  C   UNL     1      -3.103  18.629  49.241  1.00  0.00     0.039 C 
ENDBRANCH   5  10
TORSDOF 2
ENDMDL
MODEL 9
REMARK VINA RESULT:    -4.465      4.810      6.932
REMARK INTER + INTRA:          -5.039
REMARK INTER:                  -5.004
REMARK INTRA:                  -0.035
REMARK UNBOUND:                -0.182
REMARK SMILES C=C(C)[C@@H]1CC[C@@H](C)C[C@@H]1O
REMARK SMILES IDX 8 1 7 2 6 3 5 4 4 5 10 6 9 7 11 8 2 10 1 11 3 12
REMARK H PARENT 11 9
REMARK Flexibility Score: inf
ROOT
ATOM      1  C   UNL     1      -5.592  22.739  47.772  1.00  0.00     0.008 C 
ATOM      2  C   UNL     1      -4.846  23.651  48.752  1.00  0.00    -0.012 C 
ATOM      3  C   UNL     1      -3.896  22.822  49.639  1.00  0.00     0.004 C 
ATOM      4  C   UNL     1      -3.157  23.711  50.646  1.00  0.00     0.011 C 
ATOM      5  C   UNL     1      -4.157  24.487  51.528  1.00  0.00     0.043 C 
ATOM      6  C   UNL     1      -5.159  25.320  50.685  1.00  0.00     0.121 C 
ATOM      7  C   UNL     1      -5.850  24.449  49.613  1.00  0.00     0.035 C 
ENDROOT
BRANCH   6   8
ATOM      8  O   UNL     1      -4.573  26.465  50.114  1.00  0.00    -0.392 OA
ATOM      9  H   UNL     1      -4.581  27.189  50.789  1.00  0.00     0.210 HD
ENDBRANCH   6   8
BRANCH   5  10
ATOM     10  C   UNL     1      -3.461  25.326  52.597  1.00  0.00    -0.075 C 
ATOM     11  C   UNL     1      -4.118  26.271  53.293  1.00  0.00     0.008 C 
ATOM     12  C   UNL     1      -1.997  25.109  52.889  1.00  0.00     0.039 C 
ENDBRANCH   5  10
TORSDOF 2
ENDMDL
