MODEL 1
REMARK VINA RESULT:    -2.601      0.000      0.000
REMARK INTER + INTRA:          -3.600
REMARK INTER:                  -3.361
REMARK INTRA:                  -0.239
REMARK UNBOUND:                -0.239
REMARK SMILES CCCCCCC(=O)[O-]
REMARK SMILES IDX 5 1 6 2 7 3 8 4 9 5 4 6 3 7 2 8 1 9
REMARK H PARENT
REMARK Flexibility Score: inf
ROOT
ATOM      1  C   UNL     1      16.101  -8.032  27.345  1.00  0.00     0.006 C 
ENDROOT
BRANCH   1   2
ATOM      2  C   UNL     1      17.189  -8.820  26.608  1.00  0.00     0.053 C 
BRANCH   2   3
ATOM      3  C   UNL     1      17.166  -8.504  25.146  1.00  0.00     0.041 C 
ATOM      4  O   UNL     1      16.079  -8.514  24.512  1.00  0.00    -0.550 OA
ATOM      5  O   UNL     1      18.353  -8.246  24.473  1.00  0.00    -0.550 OA
ENDBRANCH   2   3
ENDBRANCH   1   2
BRANCH   1   6
ATOM      6  C   UNL     1      15.981  -8.491  28.803  1.00  0.00     0.000 C 
BRANCH   6   7
ATOM      7  C   UNL     1      16.641  -7.486  29.753  1.00  0.00    -0.000 C 
BRANCH   7   8
ATOM      8  C   UNL     1      18.070  -7.916  30.101  1.00  0.00    -0.003 C 
ATOM      9  C   UNL     1      18.197  -9.438  30.125  1.00  0.00     0.004 C 
ENDBRANCH   7   8
ENDBRANCH   6   7
ENDBRANCH   1   6
TORSDOF 5
ENDMDL
MODEL 2
REMARK VINA RESULT:    -2.386      2.794      4.464
REMARK INTER + INTRA:          -3.322
REMARK INTER:                  -3.286
REMARK INTRA:                  -0.036
REMARK UNBOUND:                -0.239
REMARK SMILES CCCCCCC(=O)[O-]
REMARK SMILES IDX 5 1 6 2 7 3 8 4 9 5 4 6 3 7 2 8 1 9
REMARK H PARENT
REMARK Flexibility Score: inf
ROOT
ATOM      1  C   UNL     1      15.943  -9.703  28.769  1.00  0.00     0.006 C 
ENDROOT
BRANCH   1   2
ATOM      2  C   UNL     1      16.098  -9.007  30.125  1.00  0.00     0.053 C 
BRANCH   2   3
ATOM      3  C   UNL     1      17.124  -7.921  30.042  1.00  0.00     0.041 C 
ATOM      4  O   UNL     1      16.777  -6.714  30.125  1.00  0.00    -0.550 OA
ATOM      5  O   UNL     1      18.458  -8.241  29.825  1.00  0.00    -0.550 OA
ENDBRANCH   2   3
ENDBRANCH   1   2
BRANCH   1   6
ATOM      6  C   UNL     1      15.980  -8.687  27.621  1.00  0.00     0.000 C 
BRANCH   6   7
ATOM      7  C   UNL     1      16.940  -9.140  26.516  1.00  0.00    -0.000 C 
BRANCH   7   8
ATOM      8  C   UNL     1      16.811  -8.248  25.276  1.00  0.00    -0.003 C 
ATOM      9  C   UNL     1      18.138  -8.148  24.528  1.00  0.00     0.004 C 
ENDBRANCH   7   8
ENDBRANCH   6   7
ENDBRANCH   1   6
TORSDOF 5
ENDMDL
MODEL 3
REMARK VINA RESULT:    -2.260      2.815      4.416
REMARK INTER + INTRA:          -3.160
REMARK INTER:                  -3.368
REMARK INTRA:                   0.208
REMARK UNBOUND:                -0.239
REMARK SMILES CCCCCCC(=O)[O-]
REMARK SMILES IDX 5 1 6 2 7 3 8 4 9 5 4 6 3 7 2 8 1 9
REMARK H PARENT
REMARK Flexibility Score: inf
ROOT
ATOM      1  C   UNL     1      15.908  -7.662  29.108  1.00  0.00     0.006 C 
ENDROOT
BRANCH   1   2
ATOM      2  C   UNL     1      17.250  -8.224  29.588  1.00  0.00     0.053 C 
BRANCH   2   3
ATOM      3  C   UNL     1      17.154  -9.702  29.797  1.00  0.00     0.041 C 
ATOM      4  O   UNL     1      18.198 -10.402  29.862  1.00  0.00    -0.550 OA
ATOM      5  O   UNL     1      15.909 -10.314  29.873  1.00  0.00    -0.550 OA
ENDBRANCH   2   3
ENDBRANCH   1   2
BRANCH   1   6
ATOM      6  C   UNL     1      15.878  -7.538  27.580  1.00  0.00     0.000 C 
BRANCH   6   7
ATOM      7  C   UNL     1      16.362  -8.830  26.913  1.00  0.00    -0.000 C 
BRANCH   7   8
ATOM      8  C   UNL     1      16.579  -8.624  25.409  1.00  0.00    -0.003 C 
ATOM      9  C   UNL     1      18.005  -8.163  25.116  1.00  0.00     0.004 C 
ENDBRANCH   7   8
ENDBRANCH   6   7
ENDBRANCH   1   6
TORSDOF 5
ENDMDL
