MODEL 1
REMARK VINA RESULT:    -3.769      0.000      0.000
REMARK INTER + INTRA:          -8.708
REMARK INTER:                  -6.853
REMARK INTRA:                  -1.854
REMARK UNBOUND:                -1.854
REMARK SMILES CCCCCCCCCCCCCCCC(=O)[O-]
REMARK SMILES IDX 9 1 10 2 11 3 12 4 13 5 14 6 15 7 16 8 17 9 18 10 8 11 7 12
REMARK SMILES IDX 6 13 5 14 4 15 3 16 2 17 1 18
REMARK H PARENT
REMARK Flexibility Score: inf
ROOT
ATOM      1  C   UNL     1    -102.190  32.120 -34.049  1.00  0.00     0.000 C 
ENDROOT
BRANCH   1   2
ATOM      2  C   UNL     1    -103.273  32.008 -35.136  1.00  0.00     0.000 C 
BRANCH   2   3
ATOM      3  C   UNL     1    -103.574  30.575 -35.617  1.00  0.00     0.000 C 
BRANCH   3   4
ATOM      4  C   UNL     1    -103.090  30.283 -37.053  1.00  0.00     0.000 C 
BRANCH   4   5
ATOM      5  C   UNL     1    -103.228  31.505 -37.974  1.00  0.00     0.000 C 
BRANCH   5   6
ATOM      6  C   UNL     1    -104.617  31.554 -38.620  1.00  0.00     0.006 C 
BRANCH   6   7
ATOM      7  C   UNL     1    -105.405  32.775 -38.135  1.00  0.00     0.053 C 
BRANCH   7   8
ATOM      8  C   UNL     1    -106.550  32.351 -37.271  1.00  0.00     0.041 C 
ATOM      9  O   UNL     1    -106.982  33.117 -36.370  1.00  0.00    -0.550 OA
ATOM     10  O   UNL     1    -107.111  31.090 -37.428  1.00  0.00    -0.550 OA
ENDBRANCH   7   8
ENDBRANCH   6   7
ENDBRANCH   5   6
ENDBRANCH   4   5
ENDBRANCH   3   4
ENDBRANCH   2   3
ENDBRANCH   1   2
BRANCH   1  11
ATOM     11  C   UNL     1    -101.844  30.764 -33.409  1.00  0.00     0.000 C 
BRANCH  11  12
ATOM     12  C   UNL     1    -100.357  30.394 -33.562  1.00  0.00    -0.000 C 
BRANCH  12  13
ATOM     13  C   UNL     1     -99.916  30.049 -34.997  1.00  0.00    -0.000 C 
BRANCH  13  14
ATOM     14  C   UNL     1     -99.048  31.118 -35.687  1.00  0.00    -0.000 C 
BRANCH  14  15
ATOM     15  C   UNL     1     -99.845  32.071 -36.604  1.00  0.00    -0.000 C 
BRANCH  15  16
ATOM     16  C   UNL     1     -99.326  32.067 -38.050  1.00  0.00    -0.000 C 
BRANCH  16  17
ATOM     17  C   UNL     1     -98.319  33.201 -38.275  1.00  0.00    -0.003 C 
ATOM     18  C   UNL     1     -97.212  32.773 -39.233  1.00  0.00     0.004 C 
ENDBRANCH  16  17
ENDBRANCH  15  16
ENDBRANCH  14  15
ENDBRANCH  13  14
ENDBRANCH  12  13
ENDBRANCH  11  12
ENDBRANCH   1  11
TORSDOF 14
ENDMDL
MODEL 2
REMARK VINA RESULT:    -3.702      1.401      2.009
REMARK INTER + INTRA:          -8.586
REMARK INTER:                  -7.199
REMARK INTRA:                  -1.387
REMARK UNBOUND:                -1.854
REMARK SMILES CCCCCCCCCCCCCCCC(=O)[O-]
REMARK SMILES IDX 9 1 10 2 11 3 12 4 13 5 14 6 15 7 16 8 17 9 18 10 8 11 7 12
REMARK SMILES IDX 6 13 5 14 4 15 3 16 2 17 1 18
REMARK H PARENT
REMARK Flexibility Score: inf
ROOT
ATOM      1  C   UNL     1    -101.490  31.501 -33.728  1.00  0.00     0.000 C 
ENDROOT
BRANCH   1   2
ATOM      2  C   UNL     1    -102.753  31.121 -34.520  1.00  0.00     0.000 C 
BRANCH   2   3
ATOM      3  C   UNL     1    -103.004  31.955 -35.793  1.00  0.00     0.000 C 
BRANCH   3   4
ATOM      4  C   UNL     1    -104.161  32.967 -35.659  1.00  0.00     0.000 C 
BRANCH   4   5
ATOM      5  C   UNL     1    -105.535  32.280 -35.627  1.00  0.00     0.000 C 
BRANCH   5   6
ATOM      6  C   UNL     1    -106.451  32.832 -36.726  1.00  0.00     0.006 C 
BRANCH   6   7
ATOM      7  C   UNL     1    -105.662  33.118 -38.007  1.00  0.00     0.053 C 
BRANCH   7   8
ATOM      8  C   UNL     1    -105.416  31.853 -38.766  1.00  0.00     0.041 C 
ATOM      9  O   UNL     1    -104.250  31.549 -39.131  1.00  0.00    -0.550 OA
ATOM     10  O   UNL     1    -106.482  31.032 -39.113  1.00  0.00    -0.550 OA
ENDBRANCH   7   8
ENDBRANCH   6   7
ENDBRANCH   5   6
ENDBRANCH   4   5
ENDBRANCH   3   4
ENDBRANCH   2   3
ENDBRANCH   1   2
BRANCH   1  11
ATOM     11  C   UNL     1    -100.448  30.370 -33.687  1.00  0.00     0.000 C 
BRANCH  11  12
ATOM     12  C   UNL     1     -99.373  30.510 -34.781  1.00  0.00    -0.000 C 
BRANCH  12  13
ATOM     13  C   UNL     1     -99.760  29.930 -36.154  1.00  0.00    -0.000 C 
BRANCH  13  14
ATOM     14  C   UNL     1     -99.796  30.950 -37.307  1.00  0.00    -0.000 C 
BRANCH  14  15
ATOM     15  C   UNL     1     -99.647  32.416 -36.847  1.00  0.00    -0.000 C 
BRANCH  15  16
ATOM     16  C   UNL     1     -98.672  33.212 -37.729  1.00  0.00    -0.000 C 
BRANCH  16  17
ATOM     17  C   UNL     1     -98.030  32.312 -38.790  1.00  0.00    -0.003 C 
ATOM     18  C   UNL     1     -97.229  33.131 -39.797  1.00  0.00     0.004 C 
ENDBRANCH  16  17
ENDBRANCH  15  16
ENDBRANCH  14  15
ENDBRANCH  13  14
ENDBRANCH  12  13
ENDBRANCH  11  12
ENDBRANCH   1  11
TORSDOF 14
ENDMDL
MODEL 3
REMARK VINA RESULT:    -3.608      3.454      6.324
REMARK INTER + INTRA:          -8.415
REMARK INTER:                  -6.807
REMARK INTRA:                  -1.608
REMARK UNBOUND:                -1.854
REMARK SMILES CCCCCCCCCCCCCCCC(=O)[O-]
REMARK SMILES IDX 9 1 10 2 11 3 12 4 13 5 14 6 15 7 16 8 17 9 18 10 8 11 7 12
REMARK SMILES IDX 6 13 5 14 4 15 3 16 2 17 1 18
REMARK H PARENT
REMARK Flexibility Score: inf
ROOT
ATOM      1  C   UNL     1    -102.895  31.268 -33.458  1.00  0.00     0.000 C 
ENDROOT
BRANCH   1   2
ATOM      2  C   UNL     1    -101.467  31.761 -33.749  1.00  0.00     0.000 C 
BRANCH   2   3
ATOM      3  C   UNL     1    -100.432  30.650 -34.015  1.00  0.00     0.000 C 
BRANCH   3   4
ATOM      4  C   UNL     1     -99.393  31.011 -35.098  1.00  0.00     0.000 C 
BRANCH   4   5
ATOM      5  C   UNL     1    -100.049  31.566 -36.372  1.00  0.00     0.000 C 
BRANCH   5   6
ATOM      6  C   UNL     1     -99.110  32.537 -37.097  1.00  0.00     0.006 C 
BRANCH   6   7
ATOM      7  C   UNL     1     -98.803  32.048 -38.515  1.00  0.00     0.053 C 
BRANCH   7   8
ATOM      8  C   UNL     1     -97.872  32.994 -39.206  1.00  0.00     0.041 C 
ATOM      9  O   UNL     1     -98.330  33.944 -39.895  1.00  0.00    -0.550 OA
ATOM     10  O   UNL     1     -96.499  32.798 -39.130  1.00  0.00    -0.550 OA
ENDBRANCH   7   8
ENDBRANCH   6   7
ENDBRANCH   5   6
ENDBRANCH   4   5
ENDBRANCH   3   4
ENDBRANCH   2   3
ENDBRANCH   1   2
BRANCH   1  11
ATOM     11  C   UNL     1    -103.806  31.312 -34.697  1.00  0.00     0.000 C 
BRANCH  11  12
ATOM     12  C   UNL     1    -103.738  30.021 -35.533  1.00  0.00    -0.000 C 
BRANCH  12  13
ATOM     13  C   UNL     1    -103.314  30.216 -37.001  1.00  0.00    -0.000 C 
BRANCH  13  14
ATOM     14  C   UNL     1    -103.447  31.655 -37.533  1.00  0.00    -0.000 C 
BRANCH  14  15
ATOM     15  C   UNL     1    -104.651  31.863 -38.476  1.00  0.00    -0.000 C 
BRANCH  15  16
ATOM     16  C   UNL     1    -105.509  33.073 -38.078  1.00  0.00    -0.000 C 
BRANCH  16  17
ATOM     17  C   UNL     1    -106.895  32.629 -37.596  1.00  0.00    -0.003 C 
ATOM     18  C   UNL     1    -107.007  32.720 -36.078  1.00  0.00     0.004 C 
ENDBRANCH  16  17
ENDBRANCH  15  16
ENDBRANCH  14  15
ENDBRANCH  13  14
ENDBRANCH  12  13
ENDBRANCH  11  12
ENDBRANCH   1  11
TORSDOF 14
ENDMDL
MODEL 4
REMARK VINA RESULT:    -3.532      3.464      5.779
REMARK INTER + INTRA:          -8.276
REMARK INTER:                  -6.500
REMARK INTRA:                  -1.777
REMARK UNBOUND:                -1.854
REMARK SMILES CCCCCCCCCCCCCCCC(=O)[O-]
REMARK SMILES IDX 9 1 10 2 11 3 12 4 13 5 14 6 15 7 16 8 17 9 18 10 8 11 7 12
REMARK SMILES IDX 6 13 5 14 4 15 3 16 2 17 1 18
REMARK H PARENT
REMARK Flexibility Score: inf
ROOT
ATOM      1  C   UNL     1    -102.104  32.076 -33.197  1.00  0.00     0.000 C 
ENDROOT
BRANCH   1   2
ATOM      2  C   UNL     1    -101.154  31.065 -33.862  1.00  0.00     0.000 C 
BRANCH   2   3
ATOM      3  C   UNL     1    -101.833  30.045 -34.798  1.00  0.00     0.000 C 
BRANCH   3   4
ATOM      4  C   UNL     1    -101.481  30.235 -36.289  1.00  0.00     0.000 C 
BRANCH   4   5
ATOM      5  C   UNL     1    -100.962  31.649 -36.589  1.00  0.00     0.000 C 
BRANCH   5   6
ATOM      6  C   UNL     1     -99.451  31.637 -36.849  1.00  0.00     0.006 C 
BRANCH   6   7
ATOM      7  C   UNL     1     -99.152  31.666 -38.351  1.00  0.00     0.053 C 
BRANCH   7   8
ATOM      8  C   UNL     1     -98.233  32.798 -38.682  1.00  0.00     0.041 C 
ATOM      9  O   UNL     1     -97.201  32.596 -39.375  1.00  0.00    -0.550 OA
ATOM     10  O   UNL     1     -98.488  34.070 -38.184  1.00  0.00    -0.550 OA
ENDBRANCH   7   8
ENDBRANCH   6   7
ENDBRANCH   5   6
ENDBRANCH   4   5
ENDBRANCH   3   4
ENDBRANCH   2   3
ENDBRANCH   1   2
BRANCH   1  11
ATOM     11  C   UNL     1    -103.450  31.451 -32.788  1.00  0.00     0.000 C 
BRANCH  11  12
ATOM     12  C   UNL     1    -104.633  32.422 -32.956  1.00  0.00    -0.000 C 
BRANCH  12  13
ATOM     13  C   UNL     1    -105.666  32.013 -34.023  1.00  0.00    -0.000 C 
BRANCH  13  14
ATOM     14  C   UNL     1    -105.076  31.666 -35.403  1.00  0.00    -0.000 C 
BRANCH  14  15
ATOM     15  C   UNL     1    -104.521  32.887 -36.168  1.00  0.00    -0.000 C 
BRANCH  15  16
ATOM     16  C   UNL     1    -104.962  32.907 -37.640  1.00  0.00    -0.000 C 
BRANCH  16  17
ATOM     17  C   UNL     1    -105.003  31.490 -38.221  1.00  0.00    -0.003 C 
ATOM     18  C   UNL     1    -103.731  31.177 -39.003  1.00  0.00     0.004 C 
ENDBRANCH  16  17
ENDBRANCH  15  16
ENDBRANCH  14  15
ENDBRANCH  13  14
ENDBRANCH  12  13
ENDBRANCH  11  12
ENDBRANCH   1  11
TORSDOF 14
ENDMDL
MODEL 5
REMARK VINA RESULT:    -3.519      2.319      4.129
REMARK INTER + INTRA:          -8.253
REMARK INTER:                  -7.119
REMARK INTRA:                  -1.134
REMARK UNBOUND:                -1.854
REMARK SMILES CCCCCCCCCCCCCCCC(=O)[O-]
REMARK SMILES IDX 9 1 10 2 11 3 12 4 13 5 14 6 15 7 16 8 17 9 18 10 8 11 7 12
REMARK SMILES IDX 6 13 5 14 4 15 3 16 2 17 1 18
REMARK H PARENT
REMARK Flexibility Score: inf
ROOT
ATOM      1  C   UNL     1    -104.347  32.305 -37.701  1.00  0.00     0.000 C 
ENDROOT
BRANCH   1   2
ATOM      2  C   UNL     1    -105.499  33.275 -38.017  1.00  0.00     0.000 C 
BRANCH   2   3
ATOM      3  C   UNL     1    -106.905  32.768 -37.638  1.00  0.00     0.000 C 
BRANCH   3   4
ATOM      4  C   UNL     1    -106.960  32.035 -36.281  1.00  0.00     0.000 C 
BRANCH   4   5
ATOM      5  C   UNL     1    -107.400  32.960 -35.137  1.00  0.00     0.000 C 
BRANCH   5   6
ATOM      6  C   UNL     1    -106.475  32.813 -33.923  1.00  0.00     0.006 C 
BRANCH   6   7
ATOM      7  C   UNL     1    -105.436  31.712 -34.155  1.00  0.00     0.053 C 
BRANCH   7   8
ATOM      8  C   UNL     1    -104.100  32.132 -33.632  1.00  0.00     0.041 C 
ATOM      9  O   UNL     1    -103.182  32.463 -34.429  1.00  0.00    -0.550 OA
ATOM     10  O   UNL     1    -103.850  32.113 -32.265  1.00  0.00    -0.550 OA
ENDBRANCH   7   8
ENDBRANCH   6   7
ENDBRANCH   5   6
ENDBRANCH   4   5
ENDBRANCH   3   4
ENDBRANCH   2   3
ENDBRANCH   1   2
BRANCH   1  11
ATOM     11  C   UNL     1    -104.050  31.334 -38.857  1.00  0.00     0.000 C 
BRANCH  11  12
ATOM     12  C   UNL     1    -102.632  30.737 -38.785  1.00  0.00    -0.000 C 
BRANCH  12  13
ATOM     13  C   UNL     1    -101.967  30.802 -37.397  1.00  0.00    -0.000 C 
BRANCH  13  14
ATOM     14  C   UNL     1    -100.477  30.415 -37.369  1.00  0.00    -0.000 C 
BRANCH  14  15
ATOM     15  C   UNL     1     -99.581  31.323 -38.238  1.00  0.00    -0.000 C 
BRANCH  15  16
ATOM     16  C   UNL     1     -98.989  32.498 -37.446  1.00  0.00    -0.000 C 
BRANCH  16  17
ATOM     17  C   UNL     1     -98.304  33.501 -38.381  1.00  0.00    -0.003 C 
ATOM     18  C   UNL     1     -97.290  32.809 -39.285  1.00  0.00     0.004 C 
ENDBRANCH  16  17
ENDBRANCH  15  16
ENDBRANCH  14  15
ENDBRANCH  13  14
ENDBRANCH  12  13
ENDBRANCH  11  12
ENDBRANCH   1  11
TORSDOF 14
ENDMDL
MODEL 6
REMARK VINA RESULT:    -3.490      2.020      4.188
REMARK INTER + INTRA:          -8.201
REMARK INTER:                  -6.607
REMARK INTRA:                  -1.594
REMARK UNBOUND:                -1.854
REMARK SMILES CCCCCCCCCCCCCCCC(=O)[O-]
REMARK SMILES IDX 9 1 10 2 11 3 12 4 13 5 14 6 15 7 16 8 17 9 18 10 8 11 7 12
REMARK SMILES IDX 6 13 5 14 4 15 3 16 2 17 1 18
REMARK H PARENT
REMARK Flexibility Score: inf
ROOT
ATOM      1  C   UNL     1    -104.656  32.119 -37.575  1.00  0.00     0.000 C 
ENDROOT
BRANCH   1   2
ATOM      2  C   UNL     1    -104.013  31.492 -36.325  1.00  0.00     0.000 C 
BRANCH   2   3
ATOM      3  C   UNL     1    -102.884  32.322 -35.682  1.00  0.00     0.000 C 
BRANCH   3   4
ATOM      4  C   UNL     1    -101.985  31.515 -34.722  1.00  0.00     0.000 C 
BRANCH   4   5
ATOM      5  C   UNL     1    -102.088  32.012 -33.272  1.00  0.00     0.000 C 
BRANCH   5   6
ATOM      6  C   UNL     1    -103.418  31.589 -32.637  1.00  0.00     0.006 C 
BRANCH   6   7
ATOM      7  C   UNL     1    -104.062  32.755 -31.882  1.00  0.00     0.053 C 
BRANCH   7   8
ATOM      8  C   UNL     1    -105.148  33.375 -32.703  1.00  0.00     0.041 C 
ATOM      9  O   UNL     1    -105.725  32.707 -33.600  1.00  0.00    -0.550 OA
ATOM     10  O   UNL     1    -105.490  34.708 -32.511  1.00  0.00    -0.550 OA
ENDBRANCH   7   8
ENDBRANCH   6   7
ENDBRANCH   5   6
ENDBRANCH   4   5
ENDBRANCH   3   4
ENDBRANCH   2   3
ENDBRANCH   1   2
BRANCH   1  11
ATOM     11  C   UNL     1    -103.941  31.722 -38.878  1.00  0.00     0.000 C 
BRANCH  11  12
ATOM     12  C   UNL     1    -103.333  30.308 -38.818  1.00  0.00    -0.000 C 
BRANCH  12  13
ATOM     13  C   UNL     1    -101.850  30.218 -39.225  1.00  0.00    -0.000 C 
BRANCH  13  14
ATOM     14  C   UNL     1    -100.849  30.252 -38.056  1.00  0.00    -0.000 C 
BRANCH  14  15
ATOM     15  C   UNL     1     -99.575  31.073 -38.350  1.00  0.00    -0.000 C 
BRANCH  15  16
ATOM     16  C   UNL     1     -99.457  32.317 -37.457  1.00  0.00    -0.000 C 
BRANCH  16  17
ATOM     17  C   UNL     1     -98.235  33.157 -37.843  1.00  0.00    -0.003 C 
ATOM     18  C   UNL     1     -97.939  33.047 -39.336  1.00  0.00     0.004 C 
ENDBRANCH  16  17
ENDBRANCH  15  16
ENDBRANCH  14  15
ENDBRANCH  13  14
ENDBRANCH  12  13
ENDBRANCH  11  12
ENDBRANCH   1  11
TORSDOF 14
ENDMDL
MODEL 7
REMARK VINA RESULT:    -3.444      3.021      6.665
REMARK INTER + INTRA:          -8.117
REMARK INTER:                  -6.458
REMARK INTRA:                  -1.659
REMARK UNBOUND:                -1.854
REMARK SMILES CCCCCCCCCCCCCCCC(=O)[O-]
REMARK SMILES IDX 9 1 10 2 11 3 12 4 13 5 14 6 15 7 16 8 17 9 18 10 8 11 7 12
REMARK SMILES IDX 6 13 5 14 4 15 3 16 2 17 1 18
REMARK H PARENT
REMARK Flexibility Score: inf
ROOT
ATOM      1  C   UNL     1    -104.279  32.297 -34.225  1.00  0.00     0.000 C 
ENDROOT
BRANCH   1   2
ATOM      2  C   UNL     1    -103.284  31.241 -33.713  1.00  0.00     0.000 C 
BRANCH   2   3
ATOM      3  C   UNL     1    -101.909  31.792 -33.281  1.00  0.00     0.000 C 
BRANCH   3   4
ATOM      4  C   UNL     1    -100.743  30.808 -33.510  1.00  0.00     0.000 C 
BRANCH   4   5
ATOM      5  C   UNL     1    -100.515  30.510 -35.000  1.00  0.00     0.000 C 
BRANCH   5   6
ATOM      6  C   UNL     1     -99.395  31.386 -35.572  1.00  0.00     0.006 C 
BRANCH   6   7
ATOM      7  C   UNL     1     -99.895  32.208 -36.763  1.00  0.00     0.053 C 
BRANCH   7   8
ATOM      8  C   UNL     1     -99.303  31.699 -38.038  1.00  0.00     0.041 C 
ATOM      9  O   UNL     1     -99.645  30.574 -38.491  1.00  0.00    -0.550 OA
ATOM     10  O   UNL     1     -98.337  32.443 -38.704  1.00  0.00    -0.550 OA
ENDBRANCH   7   8
ENDBRANCH   6   7
ENDBRANCH   5   6
ENDBRANCH   4   5
ENDBRANCH   3   4
ENDBRANCH   2   3
ENDBRANCH   1   2
BRANCH   1  11
ATOM     11  C   UNL     1    -103.844  32.934 -35.556  1.00  0.00     0.000 C 
BRANCH  11  12
ATOM     12  C   UNL     1    -103.549  31.889 -36.649  1.00  0.00    -0.000 C 
BRANCH  12  13
ATOM     13  C   UNL     1    -104.322  32.088 -37.966  1.00  0.00    -0.000 C 
BRANCH  13  14
ATOM     14  C   UNL     1    -105.471  33.111 -37.901  1.00  0.00    -0.000 C 
BRANCH  14  15
ATOM     15  C   UNL     1    -106.870  32.494 -38.115  1.00  0.00    -0.000 C 
BRANCH  15  16
ATOM     16  C   UNL     1    -107.938  33.132 -37.215  1.00  0.00    -0.000 C 
BRANCH  16  17
ATOM     17  C   UNL     1    -108.116  32.331 -35.920  1.00  0.00    -0.003 C 
ATOM     18  C   UNL     1    -107.742  33.165 -34.699  1.00  0.00     0.004 C 
ENDBRANCH  16  17
ENDBRANCH  15  16
ENDBRANCH  14  15
ENDBRANCH  13  14
ENDBRANCH  12  13
ENDBRANCH  11  12
ENDBRANCH   1  11
TORSDOF 14
ENDMDL
MODEL 8
REMARK VINA RESULT:    -3.389      1.522      4.553
REMARK INTER + INTRA:          -8.017
REMARK INTER:                  -6.274
REMARK INTRA:                  -1.743
REMARK UNBOUND:                -1.854
REMARK SMILES CCCCCCCCCCCCCCCC(=O)[O-]
REMARK SMILES IDX 9 1 10 2 11 3 12 4 13 5 14 6 15 7 16 8 17 9 18 10 8 11 7 12
REMARK SMILES IDX 6 13 5 14 4 15 3 16 2 17 1 18
REMARK H PARENT
REMARK Flexibility Score: inf
ROOT
ATOM      1  C   UNL     1    -100.176  32.124 -36.310  1.00  0.00     0.000 C 
ENDROOT
BRANCH   1   2
ATOM      2  C   UNL     1     -99.578  31.364 -35.114  1.00  0.00     0.000 C 
BRANCH   2   3
ATOM      3  C   UNL     1    -100.416  30.172 -34.610  1.00  0.00     0.000 C 
BRANCH   3   4
ATOM      4  C   UNL     1    -101.055  30.399 -33.223  1.00  0.00     0.000 C 
BRANCH   4   5
ATOM      5  C   UNL     1    -102.075  31.547 -33.233  1.00  0.00     0.000 C 
BRANCH   5   6
ATOM      6  C   UNL     1    -103.219  31.260 -34.212  1.00  0.00     0.006 C 
BRANCH   6   7
ATOM      7  C   UNL     1    -103.708  32.551 -34.877  1.00  0.00     0.053 C 
BRANCH   7   8
ATOM      8  C   UNL     1    -105.031  32.962 -34.314  1.00  0.00     0.041 C 
ATOM      9  O   UNL     1    -105.086  33.620 -33.241  1.00  0.00    -0.550 OA
ATOM     10  O   UNL     1    -106.207  32.577 -34.946  1.00  0.00    -0.550 OA
ENDBRANCH   7   8
ENDBRANCH   6   7
ENDBRANCH   5   6
ENDBRANCH   4   5
ENDBRANCH   3   4
ENDBRANCH   2   3
ENDBRANCH   1   2
BRANCH   1  11
ATOM     11  C   UNL     1     -99.127  32.480 -37.378  1.00  0.00     0.000 C 
BRANCH  11  12
ATOM     12  C   UNL     1     -99.220  31.585 -38.627  1.00  0.00    -0.000 C 
BRANCH  12  13
ATOM     13  C   UNL     1     -99.930  30.235 -38.410  1.00  0.00    -0.000 C 
BRANCH  13  14
ATOM     14  C   UNL     1    -101.215  30.033 -39.234  1.00  0.00    -0.000 C 
BRANCH  14  15
ATOM     15  C   UNL     1    -102.506  30.045 -38.388  1.00  0.00    -0.000 C 
BRANCH  15  16
ATOM     16  C   UNL     1    -103.169  31.430 -38.346  1.00  0.00    -0.000 C 
BRANCH  16  17
ATOM     17  C   UNL     1    -104.485  31.433 -39.133  1.00  0.00    -0.003 C 
ATOM     18  C   UNL     1    -105.565  32.220 -38.398  1.00  0.00     0.004 C 
ENDBRANCH  16  17
ENDBRANCH  15  16
ENDBRANCH  14  15
ENDBRANCH  13  14
ENDBRANCH  12  13
ENDBRANCH  11  12
ENDBRANCH   1  11
TORSDOF 14
ENDMDL
MODEL 9
REMARK VINA RESULT:    -3.382      1.537      2.563
REMARK INTER + INTRA:          -8.004
REMARK INTER:                  -6.267
REMARK INTRA:                  -1.736
REMARK UNBOUND:                -1.854
REMARK SMILES CCCCCCCCCCCCCCCC(=O)[O-]
REMARK SMILES IDX 9 1 10 2 11 3 12 4 13 5 14 6 15 7 16 8 17 9 18 10 8 11 7 12
REMARK SMILES IDX 6 13 5 14 4 15 3 16 2 17 1 18
REMARK H PARENT
REMARK Flexibility Score: inf
ROOT
ATOM      1  C   UNL     1    -103.429  32.207 -35.810  1.00  0.00     0.000 C 
ENDROOT
BRANCH   1   2
ATOM      2  C   UNL     1    -103.638  31.188 -36.943  1.00  0.00     0.000 C 
BRANCH   2   3
ATOM      3  C   UNL     1    -104.122  31.785 -38.280  1.00  0.00     0.000 C 
BRANCH   3   4
ATOM      4  C   UNL     1    -105.141  32.933 -38.118  1.00  0.00     0.000 C 
BRANCH   4   5
ATOM      5  C   UNL     1    -106.563  32.417 -37.855  1.00  0.00     0.000 C 
BRANCH   5   6
ATOM      6  C   UNL     1    -107.049  32.829 -36.460  1.00  0.00     0.006 C 
BRANCH   6   7
ATOM      7  C   UNL     1    -107.092  31.623 -35.516  1.00  0.00     0.053 C 
BRANCH   7   8
ATOM      8  C   UNL     1    -106.799  32.044 -34.112  1.00  0.00     0.041 C 
ATOM      9  O   UNL     1    -106.292  33.174 -33.882  1.00  0.00    -0.550 OA
ATOM     10  O   UNL     1    -107.039  31.171 -33.059  1.00  0.00    -0.550 OA
ENDBRANCH   7   8
ENDBRANCH   6   7
ENDBRANCH   5   6
ENDBRANCH   4   5
ENDBRANCH   3   4
ENDBRANCH   2   3
ENDBRANCH   1   2
BRANCH   1  11
ATOM     11  C   UNL     1    -103.097  31.542 -34.462  1.00  0.00     0.000 C 
BRANCH  11  12
ATOM     12  C   UNL     1    -101.672  31.862 -33.975  1.00  0.00    -0.000 C 
BRANCH  12  13
ATOM     13  C   UNL     1    -100.711  30.659 -33.934  1.00  0.00    -0.000 C 
BRANCH  13  14
ATOM     14  C   UNL     1     -99.799  30.511 -35.166  1.00  0.00    -0.000 C 
BRANCH  14  15
ATOM     15  C   UNL     1     -99.659  31.804 -35.997  1.00  0.00    -0.000 C 
BRANCH  15  16
ATOM     16  C   UNL     1    -100.100  31.616 -37.457  1.00  0.00    -0.000 C 
BRANCH  16  17
ATOM     17  C   UNL     1     -98.953  31.933 -38.423  1.00  0.00    -0.003 C 
ATOM     18  C   UNL     1     -98.403  33.336 -38.185  1.00  0.00     0.004 C 
ENDBRANCH  16  17
ENDBRANCH  15  16
ENDBRANCH  14  15
ENDBRANCH  13  14
ENDBRANCH  12  13
ENDBRANCH  11  12
ENDBRANCH   1  11
TORSDOF 14
ENDMDL
