MODEL 1
REMARK VINA RESULT:    -3.354      0.000      0.000
REMARK INTER + INTRA:          -4.080
REMARK INTER:                  -3.943
REMARK INTRA:                  -0.137
REMARK UNBOUND:                -0.137
REMARK SMILES O=C([O-])C=Cc1ccc(O)c(O)c1
REMARK SMILES IDX 6 1 13 2 7 3 11 4 8 5 9 6 5 7 4 8 2 9 1 10 3 11 12 12 10 14
REMARK H PARENT 12 13 10 15
REMARK Flexibility Score: inf
ROOT
ATOM      1  C   UNL     1       3.117   1.457 -17.985  1.00  0.00    -0.022 A 
ATOM      2  C   UNL     1       3.176   0.131 -18.460  1.00  0.00     0.058 A 
ATOM      3  C   UNL     1       2.952   2.502 -18.909  1.00  0.00     0.012 A 
ATOM      4  C   UNL     1       3.098  -0.138 -19.835  1.00  0.00     0.157 A 
ATOM      5  C   UNL     1       2.877   2.234 -20.278  1.00  0.00     0.051 A 
ATOM      6  C   UNL     1       2.951   0.920 -20.747  1.00  0.00     0.157 A 
ENDROOT
BRANCH   1   7
ATOM      7  C   UNL     1       3.183   1.792 -16.540  1.00  0.00     0.010 C 
ATOM      8  C   UNL     1       4.025   2.697 -16.023  1.00  0.00     0.025 C 
BRANCH   8   9
ATOM      9  C   UNL     1       4.055   3.012 -14.585  1.00  0.00     0.064 C 
ATOM     10  O   UNL     1       3.018   3.397 -13.981  1.00  0.00    -0.545 OA
ATOM     11  O   UNL     1       5.245   2.880 -13.883  1.00  0.00    -0.545 OA
ENDBRANCH   8   9
ENDBRANCH   1   7
BRANCH   4  12
ATOM     12  O   UNL     1       3.161  -1.452 -20.295  1.00  0.00    -0.504 OA
ATOM     13  H   UNL     1       3.100  -1.674 -21.281  1.00  0.00     0.293 HD
ENDBRANCH   4  12
BRANCH   6  14
ATOM     14  O   UNL     1       2.875   0.684 -22.120  1.00  0.00    -0.504 OA
ATOM     15  H   UNL     1       3.096   1.399 -22.802  1.00  0.00     0.293 HD
ENDBRANCH   6  14
TORSDOF 4
ENDMDL
MODEL 2
REMARK VINA RESULT:    -2.891      1.473      5.815
REMARK INTER + INTRA:          -3.536
REMARK INTER:                  -3.411
REMARK INTRA:                  -0.124
REMARK UNBOUND:                -0.137
REMARK SMILES O=C([O-])C=Cc1ccc(O)c(O)c1
REMARK SMILES IDX 6 1 13 2 7 3 11 4 8 5 9 6 5 7 4 8 2 9 1 10 3 11 12 12 10 14
REMARK H PARENT 12 13 10 15
REMARK Flexibility Score: inf
ROOT
ATOM      1  C   UNL     1       3.147   1.219 -18.566  1.00  0.00    -0.022 A 
ATOM      2  C   UNL     1       3.621   0.371 -17.544  1.00  0.00     0.058 A 
ATOM      3  C   UNL     1       2.960   2.582 -18.284  1.00  0.00     0.012 A 
ATOM      4  C   UNL     1       3.875   0.876 -16.260  1.00  0.00     0.157 A 
ATOM      5  C   UNL     1       3.211   3.084 -17.005  1.00  0.00     0.051 A 
ATOM      6  C   UNL     1       3.665   2.238 -15.990  1.00  0.00     0.157 A 
ENDROOT
BRANCH   1   7
ATOM      7  C   UNL     1       2.875   0.735 -19.943  1.00  0.00     0.010 C 
ATOM      8  C   UNL     1       3.326  -0.431 -20.425  1.00  0.00     0.025 C 
BRANCH   8   9
ATOM      9  C   UNL     1       3.026  -0.885 -21.793  1.00  0.00     0.064 C 
ATOM     10  O   UNL     1       2.882  -0.061 -22.736  1.00  0.00    -0.545 OA
ATOM     11  O   UNL     1       2.901  -2.244 -22.049  1.00  0.00    -0.545 OA
ENDBRANCH   8   9
ENDBRANCH   1   7
BRANCH   4  12
ATOM     12  O   UNL     1       4.339   0.029 -15.255  1.00  0.00    -0.504 OA
ATOM     13  H   UNL     1       4.968   0.357 -14.532  1.00  0.00     0.293 HD
ENDBRANCH   4  12
BRANCH   6  14
ATOM     14  O   UNL     1       3.906   2.768 -14.722  1.00  0.00    -0.504 OA
ATOM     15  H   UNL     1       4.842   2.961 -14.388  1.00  0.00     0.293 HD
ENDBRANCH   6  14
TORSDOF 4
ENDMDL
MODEL 3
REMARK VINA RESULT:    -2.867      1.505      6.111
REMARK INTER + INTRA:          -3.507
REMARK INTER:                  -3.371
REMARK INTRA:                  -0.136
REMARK UNBOUND:                -0.137
REMARK SMILES O=C([O-])C=Cc1ccc(O)c(O)c1
REMARK SMILES IDX 6 1 13 2 7 3 11 4 8 5 9 6 5 7 4 8 2 9 1 10 3 11 12 12 10 14
REMARK H PARENT 12 13 10 15
REMARK Flexibility Score: inf
ROOT
ATOM      1  C   UNL     1       3.235   1.029 -18.595  1.00  0.00    -0.022 A 
ATOM      2  C   UNL     1       3.620   2.365 -18.360  1.00  0.00     0.058 A 
ATOM      3  C   UNL     1       3.151   0.146 -17.506  1.00  0.00     0.012 A 
ATOM      4  C   UNL     1       3.939   2.797 -17.064  1.00  0.00     0.157 A 
ATOM      5  C   UNL     1       3.470   0.576 -16.216  1.00  0.00     0.051 A 
ATOM      6  C   UNL     1       3.866   1.896 -15.988  1.00  0.00     0.157 A 
ENDROOT
BRANCH   1   7
ATOM      7  C   UNL     1       2.878   0.527 -19.945  1.00  0.00     0.010 C 
ATOM      8  C   UNL     1       3.469  -0.525 -20.529  1.00  0.00     0.025 C 
BRANCH   8   9
ATOM      9  C   UNL     1       3.080  -1.003 -21.866  1.00  0.00     0.064 C 
ATOM     10  O   UNL     1       2.905  -2.230 -22.095  1.00  0.00    -0.545 OA
ATOM     11  O   UNL     1       2.899  -0.085 -22.892  1.00  0.00    -0.545 OA
ENDBRANCH   8   9
ENDBRANCH   1   7
BRANCH   4  12
ATOM     12  O   UNL     1       4.321   4.119 -16.841  1.00  0.00    -0.504 OA
ATOM     13  H   UNL     1       3.739   4.760 -16.317  1.00  0.00     0.293 HD
ENDBRANCH   4  12
BRANCH   6  14
ATOM     14  O   UNL     1       4.180   2.297 -14.689  1.00  0.00    -0.504 OA
ATOM     15  H   UNL     1       5.015   1.975 -14.214  1.00  0.00     0.293 HD
ENDBRANCH   6  14
TORSDOF 4
ENDMDL
MODEL 4
REMARK VINA RESULT:    -1.616      1.276      5.964
REMARK INTER + INTRA:          -2.037
REMARK INTER:                  -1.901
REMARK INTRA:                  -0.135
REMARK UNBOUND:                -0.137
REMARK SMILES O=C([O-])C=Cc1ccc(O)c(O)c1
REMARK SMILES IDX 6 1 13 2 7 3 11 4 8 5 9 6 5 7 4 8 2 9 1 10 3 11 12 12 10 14
REMARK H PARENT 12 13 10 15
REMARK Flexibility Score: inf
ROOT
ATOM      1  C   UNL     1       4.150   2.443 -17.570  1.00  0.00    -0.022 A 
ATOM      2  C   UNL     1       3.433   2.647 -16.373  1.00  0.00     0.058 A 
ATOM      3  C   UNL     1       5.513   2.779 -17.609  1.00  0.00     0.012 A 
ATOM      4  C   UNL     1       4.065   3.198 -15.249  1.00  0.00     0.157 A 
ATOM      5  C   UNL     1       6.142   3.330 -16.490  1.00  0.00     0.051 A 
ATOM      6  C   UNL     1       5.425   3.544 -15.310  1.00  0.00     0.157 A 
ENDROOT
BRANCH   1   7
ATOM      7  C   UNL     1       3.529   1.853 -18.782  1.00  0.00     0.010 C 
ATOM      8  C   UNL     1       3.812   0.626 -19.242  1.00  0.00     0.025 C 
BRANCH   8   9
ATOM      9  C   UNL     1       3.167   0.069 -20.442  1.00  0.00     0.064 C 
ATOM     10  O   UNL     1       2.875   0.801 -21.426  1.00  0.00    -0.545 OA
ATOM     11  O   UNL     1       2.878  -1.288 -20.492  1.00  0.00    -0.545 OA
ENDBRANCH   8   9
ENDBRANCH   1   7
BRANCH   4  12
ATOM     12  O   UNL     1       3.347   3.398 -14.070  1.00  0.00    -0.504 OA
ATOM     13  H   UNL     1       3.205   4.324 -13.685  1.00  0.00     0.293 HD
ENDBRANCH   4  12
BRANCH   6  14
ATOM     14  O   UNL     1       6.079   4.098 -14.209  1.00  0.00    -0.504 OA
ATOM     15  H   UNL     1       5.621   4.214 -13.314  1.00  0.00     0.293 HD
ENDBRANCH   6  14
TORSDOF 4
ENDMDL
MODEL 5
REMARK VINA RESULT:    -0.788      2.258      6.016
REMARK INTER + INTRA:          -1.063
REMARK INTER:                  -0.935
REMARK INTRA:                  -0.128
REMARK UNBOUND:                -0.137
REMARK SMILES O=C([O-])C=Cc1ccc(O)c(O)c1
REMARK SMILES IDX 6 1 13 2 7 3 11 4 8 5 9 6 5 7 4 8 2 9 1 10 3 11 12 12 10 14
REMARK H PARENT 12 13 10 15
REMARK Flexibility Score: inf
ROOT
ATOM      1  C   UNL     1       2.954   0.315 -19.870  1.00  0.00    -0.022 A 
ATOM      2  C   UNL     1       3.133   0.141 -18.483  1.00  0.00     0.058 A 
ATOM      3  C   UNL     1       2.876   1.619 -20.385  1.00  0.00     0.012 A 
ATOM      4  C   UNL     1       3.206   1.251 -17.628  1.00  0.00     0.157 A 
ATOM      5  C   UNL     1       2.946   2.725 -19.534  1.00  0.00     0.051 A 
ATOM      6  C   UNL     1       3.109   2.548 -18.158  1.00  0.00     0.157 A 
ENDROOT
BRANCH   1   7
ATOM      7  C   UNL     1       2.882  -0.827 -20.816  1.00  0.00     0.010 C 
ATOM      8  C   UNL     1       3.958  -1.455 -21.309  1.00  0.00     0.025 C 
BRANCH   8   9
ATOM      9  C   UNL     1       3.848  -2.593 -22.237  1.00  0.00     0.064 C 
ATOM     10  O   UNL     1       2.876  -2.694 -23.033  1.00  0.00    -0.545 OA
ATOM     11  O   UNL     1       4.834  -3.570 -22.237  1.00  0.00    -0.545 OA
ENDBRANCH   8   9
ENDBRANCH   1   7
BRANCH   4  12
ATOM     12  O   UNL     1       3.380   1.068 -16.257  1.00  0.00    -0.504 OA
ATOM     13  H   UNL     1       3.738   0.200 -15.878  1.00  0.00     0.293 HD
ENDBRANCH   4  12
BRANCH   6  14
ATOM     14  O   UNL     1       3.174   3.671 -17.332  1.00  0.00    -0.504 OA
ATOM     15  H   UNL     1       3.836   3.740 -16.569  1.00  0.00     0.293 HD
ENDBRANCH   6  14
TORSDOF 4
ENDMDL
