MODEL 1
REMARK VINA RESULT:    -3.309      0.000      0.000
REMARK INTER + INTRA:          -4.198
REMARK INTER:                  -3.985
REMARK INTRA:                  -0.213
REMARK UNBOUND:                -0.213
REMARK SMILES OCC(O)CO
REMARK SMILES IDX 3 1 5 2 6 3 2 5 1 6 4 8
REMARK H PARENT 6 4 1 7 4 9
REMARK Flexibility Score: inf
ROOT
ATOM      1  C   UNL     1      61.937 -51.163  33.406  1.00  0.00     0.165 C 
ENDROOT
BRANCH   1   2
ATOM      2  C   UNL     1      62.663 -52.515  33.432  1.00  0.00     0.190 C 
BRANCH   2   3
ATOM      3  O   UNL     1      62.015 -53.402  34.302  1.00  0.00    -0.394 OA
ATOM      4  H   UNL     1      61.943 -54.263  33.813  1.00  0.00     0.210 HD
ENDBRANCH   2   3
ENDBRANCH   1   2
BRANCH   1   5
ATOM      5  C   UNL     1      62.339 -50.274  34.594  1.00  0.00     0.190 C 
BRANCH   5   6
ATOM      6  O   UNL     1      62.366 -51.028  35.775  1.00  0.00    -0.394 OA
ATOM      7  H   UNL     1      63.313 -51.045  36.069  1.00  0.00     0.210 HD
ENDBRANCH   5   6
ENDBRANCH   1   5
BRANCH   1   8
ATOM      8  O   UNL     1      62.230 -50.508  32.200  1.00  0.00    -0.388 OA
ATOM      9  H   UNL     1      61.824 -51.047  31.473  1.00  0.00     0.211 HD
ENDBRANCH   1   8
TORSDOF 5
ENDMDL
MODEL 2
REMARK VINA RESULT:    -3.160      1.144      2.260
REMARK INTER + INTRA:          -4.019
REMARK INTER:                  -4.004
REMARK INTRA:                  -0.015
REMARK UNBOUND:                -0.213
REMARK SMILES OCC(O)CO
REMARK SMILES IDX 3 1 5 2 6 3 2 5 1 6 4 8
REMARK H PARENT 6 4 1 7 4 9
REMARK Flexibility Score: inf
ROOT
ATOM      1  C   UNL     1      62.462 -51.118  33.738  1.00  0.00     0.165 C 
ENDROOT
BRANCH   1   2
ATOM      2  C   UNL     1      61.717 -50.462  32.568  1.00  0.00     0.190 C 
BRANCH   2   3
ATOM      3  O   UNL     1      60.671 -49.659  33.042  1.00  0.00    -0.394 OA
ATOM      4  H   UNL     1      60.699 -49.726  34.032  1.00  0.00     0.210 HD
ENDBRANCH   2   3
ENDBRANCH   1   2
BRANCH   1   5
ATOM      5  C   UNL     1      62.233 -50.363  35.058  1.00  0.00     0.190 C 
BRANCH   5   6
ATOM      6  O   UNL     1      62.406 -51.228  36.146  1.00  0.00    -0.394 OA
ATOM      7  H   UNL     1      62.302 -50.670  36.960  1.00  0.00     0.210 HD
ENDBRANCH   5   6
ENDBRANCH   1   5
BRANCH   1   8
ATOM      8  O   UNL     1      62.032 -52.447  33.870  1.00  0.00    -0.388 OA
ATOM      9  H   UNL     1      62.572 -52.989  33.237  1.00  0.00     0.211 HD
ENDBRANCH   1   8
TORSDOF 5
ENDMDL
MODEL 3
REMARK VINA RESULT:    -3.089      9.990     10.788
REMARK INTER + INTRA:          -3.934
REMARK INTER:                  -3.714
REMARK INTRA:                  -0.220
REMARK UNBOUND:                -0.213
REMARK SMILES OCC(O)CO
REMARK SMILES IDX 3 1 5 2 6 3 2 5 1 6 4 8
REMARK H PARENT 6 4 1 7 4 9
REMARK Flexibility Score: inf
ROOT
ATOM      1  C   UNL     1      61.047 -40.426  35.199  1.00  0.00     0.165 C 
ENDROOT
BRANCH   1   2
ATOM      2  C   UNL     1      60.607 -41.818  34.729  1.00  0.00     0.190 C 
BRANCH   2   3
ATOM      3  O   UNL     1      59.314 -42.104  35.188  1.00  0.00    -0.394 OA
ATOM      4  H   UNL     1      58.988 -42.862  34.637  1.00  0.00     0.210 HD
ENDBRANCH   2   3
ENDBRANCH   1   2
BRANCH   1   5
ATOM      5  C   UNL     1      61.728 -40.476  36.576  1.00  0.00     0.190 C 
BRANCH   5   6
ATOM      6  O   UNL     1      60.860 -41.031  37.525  1.00  0.00    -0.394 OA
ATOM      7  H   UNL     1      61.403 -41.672  38.053  1.00  0.00     0.210 HD
ENDBRANCH   5   6
ENDBRANCH   1   5
BRANCH   1   8
ATOM      8  O   UNL     1      61.927 -39.878  34.253  1.00  0.00    -0.388 OA
ATOM      9  H   UNL     1      62.678 -40.520  34.153  1.00  0.00     0.211 HD
ENDBRANCH   1   8
TORSDOF 5
ENDMDL
MODEL 4
REMARK VINA RESULT:    -3.085      1.371      2.602
REMARK INTER + INTRA:          -3.928
REMARK INTER:                  -3.919
REMARK INTRA:                  -0.010
REMARK UNBOUND:                -0.213
REMARK SMILES OCC(O)CO
REMARK SMILES IDX 3 1 5 2 6 3 2 5 1 6 4 8
REMARK H PARENT 6 4 1 7 4 9
REMARK Flexibility Score: inf
ROOT
ATOM      1  C   UNL     1      62.137 -50.314  33.615  1.00  0.00     0.165 C 
ENDROOT
BRANCH   1   2
ATOM      2  C   UNL     1      62.296 -49.941  35.095  1.00  0.00     0.190 C 
BRANCH   2   3
ATOM      3  O   UNL     1      62.388 -51.096  35.884  1.00  0.00    -0.394 OA
ATOM      4  H   UNL     1      61.969 -51.824  35.355  1.00  0.00     0.210 HD
ENDBRANCH   2   3
ENDBRANCH   1   2
BRANCH   1   5
ATOM      5  C   UNL     1      62.319 -51.823  33.383  1.00  0.00     0.190 C 
BRANCH   5   6
ATOM      6  O   UNL     1      62.421 -52.092  32.011  1.00  0.00    -0.394 OA
ATOM      7  H   UNL     1      62.463 -53.079  31.927  1.00  0.00     0.210 HD
ENDBRANCH   5   6
ENDBRANCH   1   5
BRANCH   1   8
ATOM      8  O   UNL     1      60.865 -49.915  33.175  1.00  0.00    -0.388 OA
ATOM      9  H   UNL     1      60.302 -50.732  33.142  1.00  0.00     0.211 HD
ENDBRANCH   1   8
TORSDOF 5
ENDMDL
MODEL 5
REMARK VINA RESULT:    -3.062     10.312     10.995
REMARK INTER + INTRA:          -3.900
REMARK INTER:                  -3.686
REMARK INTRA:                  -0.215
REMARK UNBOUND:                -0.213
REMARK SMILES OCC(O)CO
REMARK SMILES IDX 3 1 5 2 6 3 2 5 1 6 4 8
REMARK H PARENT 6 4 1 7 4 9
REMARK Flexibility Score: inf
ROOT
ATOM      1  C   UNL     1      61.389 -40.854  35.205  1.00  0.00     0.165 C 
ENDROOT
BRANCH   1   2
ATOM      2  C   UNL     1      61.649 -40.335  36.625  1.00  0.00     0.190 C 
BRANCH   2   3
ATOM      3  O   UNL     1      60.900 -41.066  37.558  1.00  0.00    -0.394 OA
ATOM      4  H   UNL     1      59.947 -40.909  37.328  1.00  0.00     0.210 HD
ENDBRANCH   2   3
ENDBRANCH   1   2
BRANCH   1   5
ATOM      5  C   UNL     1      59.887 -41.012  34.919  1.00  0.00     0.190 C 
BRANCH   5   6
ATOM      6  O   UNL     1      59.480 -42.326  35.185  1.00  0.00    -0.394 OA
ATOM      7  H   UNL     1      59.427 -42.403  36.172  1.00  0.00     0.210 HD
ENDBRANCH   5   6
ENDBRANCH   1   5
BRANCH   1   8
ATOM      8  O   UNL     1      61.959 -39.965  34.280  1.00  0.00    -0.388 OA
ATOM      9  H   UNL     1      62.221 -39.152  34.786  1.00  0.00     0.211 HD
ENDBRANCH   1   8
TORSDOF 5
ENDMDL
MODEL 6
REMARK VINA RESULT:    -3.000      9.972     11.062
REMARK INTER + INTRA:          -3.827
REMARK INTER:                  -3.661
REMARK INTRA:                  -0.165
REMARK UNBOUND:                -0.213
REMARK SMILES OCC(O)CO
REMARK SMILES IDX 3 1 5 2 6 3 2 5 1 6 4 8
REMARK H PARENT 6 4 1 7 4 9
REMARK Flexibility Score: inf
ROOT
ATOM      1  C   UNL     1      60.410 -40.365  35.358  1.00  0.00     0.165 C 
ENDROOT
BRANCH   1   2
ATOM      2  C   UNL     1      61.494 -40.554  36.428  1.00  0.00     0.190 C 
BRANCH   2   3
ATOM      3  O   UNL     1      60.936 -41.071  37.605  1.00  0.00    -0.394 OA
ATOM      4  H   UNL     1      60.246 -40.417  37.892  1.00  0.00     0.210 HD
ENDBRANCH   2   3
ENDBRANCH   1   2
BRANCH   1   5
ATOM      5  C   UNL     1      60.205 -41.637  34.520  1.00  0.00     0.190 C 
BRANCH   5   6
ATOM      6  O   UNL     1      59.403 -42.550  35.215  1.00  0.00    -0.394 OA
ATOM      7  H   UNL     1      59.318 -43.345  34.628  1.00  0.00     0.210 HD
ENDBRANCH   5   6
ENDBRANCH   1   5
BRANCH   1   8
ATOM      8  O   UNL     1      59.205 -40.008  35.984  1.00  0.00    -0.388 OA
ATOM      9  H   UNL     1      58.492 -40.563  35.573  1.00  0.00     0.211 HD
ENDBRANCH   1   8
TORSDOF 5
ENDMDL
MODEL 7
REMARK VINA RESULT:    -2.931     10.575     11.203
REMARK INTER + INTRA:          -3.744
REMARK INTER:                  -3.741
REMARK INTRA:                  -0.002
REMARK UNBOUND:                -0.213
REMARK SMILES OCC(O)CO
REMARK SMILES IDX 3 1 5 2 6 3 2 5 1 6 4 8
REMARK H PARENT 6 4 1 7 4 9
REMARK Flexibility Score: inf
ROOT
ATOM      1  C   UNL     1      61.247 -40.972  35.288  1.00  0.00     0.165 C 
ENDROOT
BRANCH   1   2
ATOM      2  C   UNL     1      61.195 -39.898  34.193  1.00  0.00     0.190 C 
BRANCH   2   3
ATOM      3  O   UNL     1      62.271 -40.048  33.308  1.00  0.00    -0.394 OA
ATOM      4  H   UNL     1      62.017 -40.780  32.688  1.00  0.00     0.210 HD
ENDBRANCH   2   3
ENDBRANCH   1   2
BRANCH   1   5
ATOM      5  C   UNL     1      61.683 -40.388  36.642  1.00  0.00     0.190 C 
BRANCH   5   6
ATOM      6  O   UNL     1      60.974 -41.001  37.683  1.00  0.00    -0.394 OA
ATOM      7  H   UNL     1      61.588 -41.016  38.462  1.00  0.00     0.210 HD
ENDBRANCH   5   6
ENDBRANCH   1   5
BRANCH   1   8
ATOM      8  O   UNL     1      59.981 -41.565  35.411  1.00  0.00    -0.388 OA
ATOM      9  H   UNL     1      60.085 -42.344  36.018  1.00  0.00     0.211 HD
ENDBRANCH   1   8
TORSDOF 5
ENDMDL
MODEL 8
REMARK VINA RESULT:    -2.839     10.561     11.192
REMARK INTER + INTRA:          -3.632
REMARK INTER:                  -3.629
REMARK INTRA:                  -0.004
REMARK UNBOUND:                -0.213
REMARK SMILES OCC(O)CO
REMARK SMILES IDX 3 1 5 2 6 3 2 5 1 6 4 8
REMARK H PARENT 6 4 1 7 4 9
REMARK Flexibility Score: inf
ROOT
ATOM      1  C   UNL     1      60.577 -40.671  35.252  1.00  0.00     0.165 C 
ENDROOT
BRANCH   1   2
ATOM      2  C   UNL     1      61.608 -40.624  36.388  1.00  0.00     0.190 C 
BRANCH   2   3
ATOM      3  O   UNL     1      61.010 -40.965  37.608  1.00  0.00    -0.394 OA
ATOM      4  H   UNL     1      61.345 -41.872  37.834  1.00  0.00     0.210 HD
ENDBRANCH   2   3
ENDBRANCH   1   2
BRANCH   1   5
ATOM      5  C   UNL     1      61.249 -40.739  33.871  1.00  0.00     0.190 C 
BRANCH   5   6
ATOM      6  O   UNL     1      62.151 -39.678  33.720  1.00  0.00    -0.394 OA
ATOM      7  H   UNL     1      61.947 -39.037  34.449  1.00  0.00     0.210 HD
ENDBRANCH   5   6
ENDBRANCH   1   5
BRANCH   1   8
ATOM      8  O   UNL     1      59.746 -41.788  35.433  1.00  0.00    -0.388 OA
ATOM      9  H   UNL     1      59.281 -41.663  36.301  1.00  0.00     0.211 HD
ENDBRANCH   1   8
TORSDOF 5
ENDMDL
MODEL 9
REMARK VINA RESULT:    -2.731      8.252      8.802
REMARK INTER + INTRA:          -3.502
REMARK INTER:                  -3.284
REMARK INTRA:                  -0.219
REMARK UNBOUND:                -0.213
REMARK SMILES OCC(O)CO
REMARK SMILES IDX 3 1 5 2 6 3 2 5 1 6 4 8
REMARK H PARENT 6 4 1 7 4 9
REMARK Flexibility Score: inf
ROOT
ATOM      1  C   UNL     1      58.848 -43.511  32.814  1.00  0.00     0.165 C 
ENDROOT
BRANCH   1   2
ATOM      2  C   UNL     1      57.320 -43.388  32.769  1.00  0.00     0.190 C 
BRANCH   2   3
ATOM      3  O   UNL     1      56.720 -44.500  33.375  1.00  0.00    -0.394 OA
ATOM      4  H   UNL     1      56.738 -44.324  34.352  1.00  0.00     0.210 HD
ENDBRANCH   2   3
ENDBRANCH   1   2
BRANCH   1   5
ATOM      5  C   UNL     1      59.425 -43.000  34.144  1.00  0.00     0.190 C 
BRANCH   5   6
ATOM      6  O   UNL     1      58.594 -43.375  35.207  1.00  0.00    -0.394 OA
ATOM      7  H   UNL     1      58.366 -44.328  35.055  1.00  0.00     0.210 HD
ENDBRANCH   5   6
ENDBRANCH   1   5
BRANCH   1   8
ATOM      8  O   UNL     1      59.206 -44.855  32.625  1.00  0.00    -0.388 OA
ATOM      9  H   UNL     1      58.923 -45.346  33.441  1.00  0.00     0.211 HD
ENDBRANCH   1   8
TORSDOF 5
ENDMDL
