MODEL 1
REMARK VINA RESULT:    -4.716      0.000      0.000
REMARK INTER + INTRA:          -5.815
REMARK INTER:                  -5.543
REMARK INTRA:                  -0.271
REMARK UNBOUND:                -0.271
REMARK SMILES CCCC[C@@H]1OC(=O)C2=C1CCC=C2
REMARK SMILES IDX 3 1 2 2 1 3 4 4 5 5 10 6 6 7 9 8 11 9 7 10 14 11 12 12 8 13
REMARK SMILES IDX 13 14
REMARK H PARENT
REMARK Flexibility Score: inf
ROOT
ATOM      1  C   UNL     1      -6.862  -6.587  92.546  1.00  0.00     0.004 C 
ENDROOT
BRANCH   1   2
ATOM      2  C   UNL     1      -6.776  -5.558  91.411  1.00  0.00    -0.003 C 
ATOM      3  C   UNL     1      -5.584  -4.625  91.604  1.00  0.00     0.004 C 
ENDBRANCH   1   2
BRANCH   1   4
ATOM      4  C   UNL     1      -7.464  -7.926  92.089  1.00  0.00     0.050 C 
BRANCH   4   5
ATOM      5  C   UNL     1      -8.491  -7.768  90.956  1.00  0.00     0.204 C 
ATOM      6  C   UNL     1      -8.596  -9.029  90.131  1.00  0.00    -0.015 C 
ATOM      7  O   UNL     1      -9.813  -7.618  91.485  1.00  0.00    -0.454 OA
ATOM      8  C   UNL     1      -9.830  -9.505  90.160  1.00  0.00     0.062 C 
ATOM      9  C   UNL     1      -7.580  -9.556  89.155  1.00  0.00     0.040 C 
ATOM     10  C   UNL     1     -10.612  -8.642  91.007  1.00  0.00     0.338 C 
ATOM     11  C   UNL     1     -10.264 -10.643  89.340  1.00  0.00     0.011 C 
ATOM     12  C   UNL     1      -7.866 -11.036  88.805  1.00  0.00     0.032 C 
ATOM     13  O   UNL     1     -11.834  -8.774  91.275  1.00  0.00    -0.246 OA
ATOM     14  C   UNL     1      -9.345 -11.325  88.642  1.00  0.00    -0.026 C 
ENDBRANCH   4   5
ENDBRANCH   1   4
TORSDOF 3
ENDMDL
MODEL 2
REMARK VINA RESULT:    -4.465      1.471      4.570
REMARK INTER + INTRA:          -5.519
REMARK INTER:                  -4.899
REMARK INTRA:                  -0.620
REMARK UNBOUND:                -0.271
REMARK SMILES CCCC[C@@H]1OC(=O)C2=C1CCC=C2
REMARK SMILES IDX 3 1 2 2 1 3 4 4 5 5 10 6 6 7 9 8 11 9 7 10 14 11 12 12 8 13
REMARK SMILES IDX 13 14
REMARK H PARENT
REMARK Flexibility Score: inf
ROOT
ATOM      1  C   UNL     1     -10.333 -10.532  88.798  1.00  0.00     0.004 C 
ENDROOT
BRANCH   1   2
ATOM      2  C   UNL     1      -9.068 -11.400  88.742  1.00  0.00    -0.003 C 
ATOM      3  C   UNL     1      -7.813 -10.556  88.948  1.00  0.00     0.004 C 
ENDBRANCH   1   2
BRANCH   1   4
ATOM      4  C   UNL     1     -10.879 -10.370  90.225  1.00  0.00     0.050 C 
BRANCH   4   5
ATOM      5  C   UNL     1     -10.921  -8.906  90.692  1.00  0.00     0.204 C 
ATOM      6  C   UNL     1      -9.608  -8.489  91.310  1.00  0.00    -0.015 C 
ATOM      7  O   UNL     1     -11.047  -8.020  89.575  1.00  0.00    -0.454 OA
ATOM      8  C   UNL     1      -9.083  -7.470  90.648  1.00  0.00     0.062 C 
ATOM      9  C   UNL     1      -9.065  -8.913  92.647  1.00  0.00     0.040 C 
ATOM     10  C   UNL     1      -9.963  -7.161  89.551  1.00  0.00     0.338 C 
ATOM     11  C   UNL     1      -7.878  -6.763  91.101  1.00  0.00     0.011 C 
ATOM     12  C   UNL     1      -7.555  -8.592  92.756  1.00  0.00     0.032 C 
ATOM     13  O   UNL     1      -9.796  -6.250  88.700  1.00  0.00    -0.246 OA
ATOM     14  C   UNL     1      -7.194  -7.253  92.143  1.00  0.00    -0.026 C 
ENDBRANCH   4   5
ENDBRANCH   1   4
TORSDOF 3
ENDMDL
MODEL 3
REMARK VINA RESULT:    -4.425      2.455      3.706
REMARK INTER + INTRA:          -5.472
REMARK INTER:                  -5.147
REMARK INTRA:                  -0.326
REMARK UNBOUND:                -0.271
REMARK SMILES CCCC[C@@H]1OC(=O)C2=C1CCC=C2
REMARK SMILES IDX 3 1 2 2 1 3 4 4 5 5 10 6 6 7 9 8 11 9 7 10 14 11 12 12 8 13
REMARK SMILES IDX 13 14
REMARK H PARENT
REMARK Flexibility Score: inf
ROOT
ATOM      1  C   UNL     1      -9.899 -10.021  92.892  1.00  0.00     0.004 C 
ENDROOT
BRANCH   1   2
ATOM      2  C   UNL     1     -11.078 -10.362  93.815  1.00  0.00    -0.003 C 
ATOM      3  C   UNL     1     -11.005 -11.811  94.288  1.00  0.00     0.004 C 
ENDBRANCH   1   2
BRANCH   1   4
ATOM      4  C   UNL     1      -9.969  -8.585  92.349  1.00  0.00     0.050 C 
BRANCH   4   5
ATOM      5  C   UNL     1     -10.376  -8.521  90.868  1.00  0.00     0.204 C 
ATOM      6  C   UNL     1      -9.553  -9.470  90.030  1.00  0.00    -0.015 C 
ATOM      7  O   UNL     1     -11.711  -9.005  90.686  1.00  0.00    -0.454 OA
ATOM      8  C   UNL     1     -10.331 -10.351  89.423  1.00  0.00     0.062 C 
ATOM      9  C   UNL     1      -8.105  -9.317  89.653  1.00  0.00     0.040 C 
ATOM     10  C   UNL     1     -11.688 -10.086  89.822  1.00  0.00     0.338 C 
ATOM     11  C   UNL     1      -9.824 -11.312  88.434  1.00  0.00     0.011 C 
ATOM     12  C   UNL     1      -7.528 -10.653  89.127  1.00  0.00     0.032 C 
ATOM     13  O   UNL     1     -12.710 -10.718  89.447  1.00  0.00    -0.246 OA
ATOM     14  C   UNL     1      -8.501 -11.405  88.242  1.00  0.00    -0.026 C 
ENDBRANCH   4   5
ENDBRANCH   1   4
TORSDOF 3
ENDMDL
MODEL 4
REMARK VINA RESULT:    -4.406      1.902      4.170
REMARK INTER + INTRA:          -5.449
REMARK INTER:                  -4.908
REMARK INTRA:                  -0.542
REMARK UNBOUND:                -0.271
REMARK SMILES CCCC[C@@H]1OC(=O)C2=C1CCC=C2
REMARK SMILES IDX 3 1 2 2 1 3 4 4 5 5 10 6 6 7 9 8 11 9 7 10 14 11 12 12 8 13
REMARK SMILES IDX 13 14
REMARK H PARENT
REMARK Flexibility Score: inf
ROOT
ATOM      1  C   UNL     1     -11.105  -7.060  88.663  1.00  0.00     0.004 C 
ENDROOT
BRANCH   1   2
ATOM      2  C   UNL     1     -12.217  -7.123  87.607  1.00  0.00    -0.003 C 
ATOM      3  C   UNL     1     -12.371  -8.537  87.054  1.00  0.00     0.004 C 
ENDBRANCH   1   2
BRANCH   1   4
ATOM      4  C   UNL     1     -11.595  -7.461  90.064  1.00  0.00     0.050 C 
BRANCH   4   5
ATOM      5  C   UNL     1     -10.537  -8.225  90.876  1.00  0.00     0.204 C 
ATOM      6  C   UNL     1      -9.849  -9.272  90.034  1.00  0.00    -0.015 C 
ATOM      7  O   UNL     1      -9.463  -7.358  91.254  1.00  0.00    -0.454 OA
ATOM      8  C   UNL     1      -8.547  -9.046  89.979  1.00  0.00     0.062 C 
ATOM      9  C   UNL     1     -10.436 -10.571  89.552  1.00  0.00     0.040 C 
ATOM     10  C   UNL     1      -8.279  -7.847  90.730  1.00  0.00     0.338 C 
ATOM     11  C   UNL     1      -7.603  -9.976  89.346  1.00  0.00     0.011 C 
ATOM     12  C   UNL     1      -9.573 -11.179  88.420  1.00  0.00     0.032 C 
ATOM     13  O   UNL     1      -7.151  -7.317  90.905  1.00  0.00    -0.246 OA
ATOM     14  C   UNL     1      -8.086 -11.026  88.668  1.00  0.00    -0.026 C 
ENDBRANCH   4   5
ENDBRANCH   1   4
TORSDOF 3
ENDMDL
MODEL 5
REMARK VINA RESULT:    -4.315      7.194      9.312
REMARK INTER + INTRA:          -5.343
REMARK INTER:                  -4.880
REMARK INTRA:                  -0.462
REMARK UNBOUND:                -0.271
REMARK SMILES CCCC[C@@H]1OC(=O)C2=C1CCC=C2
REMARK SMILES IDX 3 1 2 2 1 3 4 4 5 5 10 6 6 7 9 8 11 9 7 10 14 11 12 12 8 13
REMARK SMILES IDX 13 14
REMARK H PARENT
REMARK Flexibility Score: inf
ROOT
ATOM      1  C   UNL     1     -12.153 -11.534  94.448  1.00  0.00     0.004 C 
ENDROOT
BRANCH   1   2
ATOM      2  C   UNL     1     -13.490 -12.160  94.028  1.00  0.00    -0.003 C 
ATOM      3  C   UNL     1     -14.328 -11.176  93.219  1.00  0.00     0.004 C 
ENDBRANCH   1   2
BRANCH   1   4
ATOM      4  C   UNL     1     -11.904 -11.627  95.962  1.00  0.00     0.050 C 
BRANCH   4   5
ATOM      5  C   UNL     1     -11.835 -10.252  96.646  1.00  0.00     0.204 C 
ATOM      6  C   UNL     1     -13.176  -9.852  97.212  1.00  0.00    -0.015 C 
ATOM      7  O   UNL     1     -10.998 -10.303  97.806  1.00  0.00    -0.454 OA
ATOM      8  C   UNL     1     -13.094  -9.663  98.519  1.00  0.00     0.062 C 
ATOM      9  C   UNL     1     -14.391  -9.420  96.436  1.00  0.00     0.040 C 
ATOM     10  C   UNL     1     -11.740  -9.945  98.918  1.00  0.00     0.338 C 
ATOM     11  C   UNL     1     -14.208  -9.135  99.318  1.00  0.00     0.011 C 
ATOM     12  C   UNL     1     -15.657  -9.465  97.324  1.00  0.00     0.032 C 
ATOM     13  O   UNL     1     -11.280  -9.874 100.087  1.00  0.00    -0.246 OA
ATOM     14  C   UNL     1     -15.403  -8.973  98.735  1.00  0.00    -0.026 C 
ENDBRANCH   4   5
ENDBRANCH   1   4
TORSDOF 3
ENDMDL
MODEL 6
REMARK VINA RESULT:    -4.237      3.214      5.276
REMARK INTER + INTRA:          -5.251
REMARK INTER:                  -5.009
REMARK INTRA:                  -0.242
REMARK UNBOUND:                -0.271
REMARK SMILES CCCC[C@@H]1OC(=O)C2=C1CCC=C2
REMARK SMILES IDX 3 1 2 2 1 3 4 4 5 5 10 6 6 7 9 8 11 9 7 10 14 11 12 12 8 13
REMARK SMILES IDX 13 14
REMARK H PARENT
REMARK Flexibility Score: inf
ROOT
ATOM      1  C   UNL     1     -12.227 -11.918  94.482  1.00  0.00     0.004 C 
ENDROOT
BRANCH   1   2
ATOM      2  C   UNL     1     -12.668 -11.515  95.896  1.00  0.00    -0.003 C 
ATOM      3  C   UNL     1     -11.549 -10.789  96.636  1.00  0.00     0.004 C 
ENDBRANCH   1   2
BRANCH   1   4
ATOM      4  C   UNL     1     -10.937 -11.209  94.040  1.00  0.00     0.050 C 
BRANCH   4   5
ATOM      5  C   UNL     1     -11.187 -10.077  93.031  1.00  0.00     0.204 C 
ATOM      6  C   UNL     1      -9.888  -9.483  92.539  1.00  0.00    -0.015 C 
ATOM      7  O   UNL     1     -11.782 -10.585  91.833  1.00  0.00    -0.454 OA
ATOM      8  C   UNL     1      -9.786  -9.606  91.226  1.00  0.00     0.062 C 
ATOM      9  C   UNL     1      -8.948  -8.602  93.316  1.00  0.00     0.040 C 
ATOM     10  C   UNL     1     -10.958 -10.300  90.759  1.00  0.00     0.338 C 
ATOM     11  C   UNL     1      -8.695  -8.998  90.452  1.00  0.00     0.011 C 
ATOM     12  C   UNL     1      -7.570  -8.515  92.617  1.00  0.00     0.032 C 
ATOM     13  O   UNL     1     -11.216 -10.599  89.564  1.00  0.00    -0.246 OA
ATOM     14  C   UNL     1      -7.681  -8.419  91.109  1.00  0.00    -0.026 C 
ENDBRANCH   4   5
ENDBRANCH   1   4
TORSDOF 3
ENDMDL
MODEL 7
REMARK VINA RESULT:    -4.222      6.433      8.661
REMARK INTER + INTRA:          -5.234
REMARK INTER:                  -4.650
REMARK INTRA:                  -0.584
REMARK UNBOUND:                -0.271
REMARK SMILES CCCC[C@@H]1OC(=O)C2=C1CCC=C2
REMARK SMILES IDX 3 1 2 2 1 3 4 4 5 5 10 6 6 7 9 8 11 9 7 10 14 11 12 12 8 13
REMARK SMILES IDX 13 14
REMARK H PARENT
REMARK Flexibility Score: inf
ROOT
ATOM      1  C   UNL     1     -13.303 -10.907  93.820  1.00  0.00     0.004 C 
ENDROOT
BRANCH   1   2
ATOM      2  C   UNL     1     -12.715 -12.204  94.392  1.00  0.00    -0.003 C 
ATOM      3  C   UNL     1     -11.196 -12.115  94.509  1.00  0.00     0.004 C 
ENDBRANCH   1   2
BRANCH   1   4
ATOM      4  C   UNL     1     -14.368 -10.285  94.737  1.00  0.00     0.050 C 
BRANCH   4   5
ATOM      5  C   UNL     1     -13.809  -9.178  95.646  1.00  0.00     0.204 C 
ATOM      6  C   UNL     1     -13.488  -9.708  97.023  1.00  0.00    -0.015 C 
ATOM      7  O   UNL     1     -12.537  -8.725  95.171  1.00  0.00    -0.454 OA
ATOM      8  C   UNL     1     -12.206  -9.537  97.303  1.00  0.00     0.062 C 
ATOM      9  C   UNL     1     -14.473 -10.105  98.089  1.00  0.00     0.040 C 
ATOM     10  C   UNL     1     -11.586  -8.929  96.155  1.00  0.00     0.338 C 
ATOM     11  C   UNL     1     -11.634  -9.830  98.623  1.00  0.00     0.011 C 
ATOM     12  C   UNL     1     -13.784 -10.945  99.192  1.00  0.00     0.032 C 
ATOM     13  O   UNL     1     -10.373  -8.612  96.047  1.00  0.00    -0.246 OA
ATOM     14  C   UNL     1     -12.401 -10.432  99.542  1.00  0.00    -0.026 C 
ENDBRANCH   4   5
ENDBRANCH   1   4
TORSDOF 3
ENDMDL
MODEL 8
REMARK VINA RESULT:    -4.219      2.068      3.940
REMARK INTER + INTRA:          -5.231
REMARK INTER:                  -4.617
REMARK INTRA:                  -0.613
REMARK UNBOUND:                -0.271
REMARK SMILES CCCC[C@@H]1OC(=O)C2=C1CCC=C2
REMARK SMILES IDX 3 1 2 2 1 3 4 4 5 5 10 6 6 7 9 8 11 9 7 10 14 11 12 12 8 13
REMARK SMILES IDX 13 14
REMARK H PARENT
REMARK Flexibility Score: inf
ROOT
ATOM      1  C   UNL     1     -11.705  -7.902  89.346  1.00  0.00     0.004 C 
ENDROOT
BRANCH   1   2
ATOM      2  C   UNL     1     -11.257  -6.804  88.372  1.00  0.00    -0.003 C 
ATOM      3  C   UNL     1     -10.030  -6.067  88.901  1.00  0.00     0.004 C 
ENDBRANCH   1   2
BRANCH   1   4
ATOM      4  C   UNL     1     -11.470  -9.317  88.792  1.00  0.00     0.050 C 
BRANCH   4   5
ATOM      5  C   UNL     1     -10.772 -10.248  89.795  1.00  0.00     0.204 C 
ATOM      6  C   UNL     1      -9.627  -9.549  90.488  1.00  0.00    -0.015 C 
ATOM      7  O   UNL     1     -11.648 -10.580  90.877  1.00  0.00    -0.454 OA
ATOM      8  C   UNL     1      -9.817  -9.526  91.797  1.00  0.00     0.062 C 
ATOM      9  C   UNL     1      -8.299  -9.178  89.886  1.00  0.00     0.040 C 
ATOM     10  C   UNL     1     -11.081 -10.161  92.067  1.00  0.00     0.338 C 
ATOM     11  C   UNL     1      -8.804  -9.034  92.740  1.00  0.00     0.011 C 
ATOM     12  C   UNL     1      -7.556  -8.153  90.777  1.00  0.00     0.032 C 
ATOM     13  O   UNL     1     -11.600 -10.329  93.200  1.00  0.00    -0.246 OA
ATOM     14  C   UNL     1      -7.701  -8.448  92.257  1.00  0.00    -0.026 C 
ENDBRANCH   4   5
ENDBRANCH   1   4
TORSDOF 3
ENDMDL
MODEL 9
REMARK VINA RESULT:    -4.207      5.941      7.705
REMARK INTER + INTRA:          -5.216
REMARK INTER:                  -4.641
REMARK INTRA:                  -0.575
REMARK UNBOUND:                -0.271
REMARK SMILES CCCC[C@@H]1OC(=O)C2=C1CCC=C2
REMARK SMILES IDX 3 1 2 2 1 3 4 4 5 5 10 6 6 7 9 8 11 9 7 10 14 11 12 12 8 13
REMARK SMILES IDX 13 14
REMARK H PARENT
REMARK Flexibility Score: inf
ROOT
ATOM      1  C   UNL     1     -13.383 -10.183  98.323  1.00  0.00     0.004 C 
ENDROOT
BRANCH   1   2
ATOM      2  C   UNL     1     -14.864  -9.799  98.446  1.00  0.00    -0.003 C 
ATOM      3  C   UNL     1     -15.429  -9.352  97.100  1.00  0.00     0.004 C 
ENDBRANCH   1   2
BRANCH   1   4
ATOM      4  C   UNL     1     -13.155 -11.373  97.378  1.00  0.00     0.050 C 
BRANCH   4   5
ATOM      5  C   UNL     1     -12.237 -11.034  96.193  1.00  0.00     0.204 C 
ATOM      6  C   UNL     1     -13.014 -10.961  94.900  1.00  0.00    -0.015 C 
ATOM      7  O   UNL     1     -11.705  -9.712  96.324  1.00  0.00    -0.454 OA
ATOM      8  C   UNL     1     -12.900  -9.762  94.353  1.00  0.00     0.062 C 
ATOM      9  C   UNL     1     -13.601 -12.115  94.134  1.00  0.00     0.040 C 
ATOM     10  C   UNL     1     -12.089  -8.957  95.229  1.00  0.00     0.338 C 
ATOM     11  C   UNL     1     -13.434  -9.440  93.024  1.00  0.00     0.011 C 
ATOM     12  C   UNL     1     -14.632 -11.619  93.092  1.00  0.00     0.032 C 
ATOM     13  O   UNL     1     -11.760  -7.757  95.042  1.00  0.00    -0.246 OA
ATOM     14  C   UNL     1     -14.195 -10.345  92.395  1.00  0.00    -0.026 C 
ENDBRANCH   4   5
ENDBRANCH   1   4
TORSDOF 3
ENDMDL
