MODEL 1
REMARK VINA RESULT:    -4.984      0.000      0.000
REMARK INTER + INTRA:          -6.098
REMARK INTER:                  -6.004
REMARK INTRA:                  -0.094
REMARK UNBOUND:                -0.094
REMARK SMILES COC(=O)c1cc(O)c(O)c(O)c1
REMARK SMILES IDX 5 1 13 2 11 3 9 4 7 5 6 6 3 7 4 8 2 9 1 10 12 11 8 13 10 15
REMARK H PARENT 12 12 8 14 10 16
REMARK Flexibility Score: inf
ROOT
ATOM      1  C   UNL     1     -25.430 -11.746 -30.420  1.00  0.00     0.067 A 
ATOM      2  C   UNL     1     -24.643 -11.131 -29.432  1.00  0.00     0.066 A 
ATOM      3  C   UNL     1     -23.283 -10.880 -29.657  1.00  0.00     0.162 A 
ATOM      4  C   UNL     1     -22.695 -11.245 -30.880  1.00  0.00     0.200 A 
ATOM      5  C   UNL     1     -23.476 -11.861 -31.871  1.00  0.00     0.162 A 
ATOM      6  C   UNL     1     -24.834 -12.108 -31.640  1.00  0.00     0.066 A 
ENDROOT
BRANCH   1   7
ATOM      7  C   UNL     1     -26.867 -12.007 -30.174  1.00  0.00     0.338 C 
ATOM      8  O   UNL     1     -27.361 -13.136 -30.446  1.00  0.00    -0.246 OA
BRANCH   7   9
ATOM      9  O   UNL     1     -27.677 -11.000 -29.638  1.00  0.00    -0.465 OA
ATOM     10  C   UNL     1     -28.125 -11.012 -28.288  1.00  0.00     0.282 C 
ENDBRANCH   7   9
ENDBRANCH   1   7
BRANCH   3  11
ATOM     11  O   UNL     1     -22.513 -10.268 -28.668  1.00  0.00    -0.504 OA
ATOM     12  H   UNL     1     -21.778 -10.768 -28.182  1.00  0.00     0.293 HD
ENDBRANCH   3  11
BRANCH   5  13
ATOM     13  O   UNL     1     -22.922 -12.235 -33.095  1.00  0.00    -0.504 OA
ATOM     14  H   UNL     1     -22.688 -11.558 -33.811  1.00  0.00     0.293 HD
ENDBRANCH   5  13
BRANCH   4  15
ATOM     15  O   UNL     1     -21.341 -11.003 -31.120  1.00  0.00    -0.502 OA
ATOM     16  H   UNL     1     -20.881 -10.156 -30.807  1.00  0.00     0.293 HD
ENDBRANCH   4  15
TORSDOF 5
ENDMDL
MODEL 2
REMARK VINA RESULT:    -4.971      0.035      2.334
REMARK INTER + INTRA:          -6.083
REMARK INTER:                  -5.982
REMARK INTRA:                  -0.100
REMARK UNBOUND:                -0.094
REMARK SMILES COC(=O)c1cc(O)c(O)c(O)c1
REMARK SMILES IDX 5 1 13 2 11 3 9 4 7 5 6 6 3 7 4 8 2 9 1 10 12 11 8 13 10 15
REMARK H PARENT 12 12 8 14 10 16
REMARK Flexibility Score: inf
ROOT
ATOM      1  C   UNL     1     -25.426 -11.745 -30.386  1.00  0.00     0.067 A 
ATOM      2  C   UNL     1     -24.850 -12.120 -31.611  1.00  0.00     0.066 A 
ATOM      3  C   UNL     1     -23.493 -11.880 -31.864  1.00  0.00     0.162 A 
ATOM      4  C   UNL     1     -22.696 -11.258 -30.888  1.00  0.00     0.200 A 
ATOM      5  C   UNL     1     -23.266 -10.880 -29.661  1.00  0.00     0.162 A 
ATOM      6  C   UNL     1     -24.622 -11.125 -29.415  1.00  0.00     0.066 A 
ENDROOT
BRANCH   1   7
ATOM      7  C   UNL     1     -26.861 -12.004 -30.125  1.00  0.00     0.338 C 
ATOM      8  O   UNL     1     -27.357 -13.136 -30.382  1.00  0.00    -0.246 OA
BRANCH   7   9
ATOM      9  O   UNL     1     -27.666 -10.992 -29.593  1.00  0.00    -0.465 OA
ATOM     10  C   UNL     1     -28.125 -11.004 -28.246  1.00  0.00     0.282 C 
ENDBRANCH   7   9
ENDBRANCH   1   7
BRANCH   3  11
ATOM     11  O   UNL     1     -22.933 -12.257 -33.084  1.00  0.00    -0.504 OA
ATOM     12  H   UNL     1     -22.088 -12.813 -33.132  1.00  0.00     0.293 HD
ENDBRANCH   3  11
BRANCH   5  13
ATOM     13  O   UNL     1     -22.502 -10.262 -28.672  1.00  0.00    -0.504 OA
ATOM     14  H   UNL     1     -22.613 -10.479 -27.689  1.00  0.00     0.293 HD
ENDBRANCH   5  13
BRANCH   4  15
ATOM     15  O   UNL     1     -21.343 -11.011 -31.125  1.00  0.00    -0.502 OA
ATOM     16  H   UNL     1     -21.029 -10.268 -31.739  1.00  0.00     0.293 HD
ENDBRANCH   4  15
TORSDOF 5
ENDMDL
MODEL 3
REMARK VINA RESULT:    -4.955      1.943      2.696
REMARK INTER + INTRA:          -6.062
REMARK INTER:                  -5.970
REMARK INTRA:                  -0.092
REMARK UNBOUND:                -0.094
REMARK SMILES COC(=O)c1cc(O)c(O)c(O)c1
REMARK SMILES IDX 5 1 13 2 11 3 9 4 7 5 6 6 3 7 4 8 2 9 1 10 12 11 8 13 10 15
REMARK H PARENT 12 12 8 14 10 16
REMARK Flexibility Score: inf
ROOT
ATOM      1  C   UNL     1     -25.214 -10.783 -28.854  1.00  0.00     0.067 A 
ATOM      2  C   UNL     1     -25.248  -9.404 -28.586  1.00  0.00     0.066 A 
ATOM      3  C   UNL     1     -24.092  -8.624 -28.716  1.00  0.00     0.162 A 
ATOM      4  C   UNL     1     -22.884  -9.220 -29.115  1.00  0.00     0.200 A 
ATOM      5  C   UNL     1     -22.843 -10.598 -29.384  1.00  0.00     0.162 A 
ATOM      6  C   UNL     1     -24.002 -11.371 -29.254  1.00  0.00     0.066 A 
ENDROOT
BRANCH   1   7
ATOM      7  C   UNL     1     -26.441 -11.601 -28.715  1.00  0.00     0.338 C 
ATOM      8  O   UNL     1     -27.182 -11.464 -27.702  1.00  0.00    -0.246 OA
BRANCH   7   9
ATOM      9  O   UNL     1     -26.780 -12.524 -29.710  1.00  0.00    -0.465 OA
ATOM     10  C   UNL     1     -28.045 -12.523 -30.360  1.00  0.00     0.282 C 
ENDBRANCH   7   9
ENDBRANCH   1   7
BRANCH   3  11
ATOM     11  O   UNL     1     -24.139  -7.256 -28.448  1.00  0.00    -0.504 OA
ATOM     12  H   UNL     1     -23.973  -6.891 -27.517  1.00  0.00     0.293 HD
ENDBRANCH   3  11
BRANCH   5  13
ATOM     13  O   UNL     1     -21.660 -11.219 -29.783  1.00  0.00    -0.504 OA
ATOM     14  H   UNL     1     -21.116 -10.888 -30.572  1.00  0.00     0.293 HD
ENDBRANCH   5  13
BRANCH   4  15
ATOM     15  O   UNL     1     -21.723  -8.456 -29.249  1.00  0.00    -0.502 OA
ATOM     16  H   UNL     1     -21.221  -8.091 -28.448  1.00  0.00     0.293 HD
ENDBRANCH   4  15
TORSDOF 5
ENDMDL
MODEL 4
REMARK VINA RESULT:    -4.944      1.930      3.203
REMARK INTER + INTRA:          -6.050
REMARK INTER:                  -5.957
REMARK INTRA:                  -0.093
REMARK UNBOUND:                -0.094
REMARK SMILES COC(=O)c1cc(O)c(O)c(O)c1
REMARK SMILES IDX 5 1 13 2 11 3 9 4 7 5 6 6 3 7 4 8 2 9 1 10 12 11 8 13 10 15
REMARK H PARENT 12 12 8 14 10 16
REMARK Flexibility Score: inf
ROOT
ATOM      1  C   UNL     1     -25.232 -10.790 -28.881  1.00  0.00     0.067 A 
ATOM      2  C   UNL     1     -24.016 -11.361 -29.291  1.00  0.00     0.066 A 
ATOM      3  C   UNL     1     -22.863 -10.575 -29.410  1.00  0.00     0.162 A 
ATOM      4  C   UNL     1     -22.916  -9.201 -29.119  1.00  0.00     0.200 A 
ATOM      5  C   UNL     1     -24.129  -8.623 -28.708  1.00  0.00     0.162 A 
ATOM      6  C   UNL     1     -25.277  -9.416 -28.590  1.00  0.00     0.066 A 
ENDROOT
BRANCH   1   7
ATOM      7  C   UNL     1     -26.446 -11.628 -28.756  1.00  0.00     0.338 C 
ATOM      8  O   UNL     1     -27.203 -11.502 -27.753  1.00  0.00    -0.246 OA
BRANCH   7   9
ATOM      9  O   UNL     1     -26.756 -12.559 -29.753  1.00  0.00    -0.465 OA
ATOM     10  C   UNL     1     -28.010 -12.576 -30.426  1.00  0.00     0.282 C 
ENDBRANCH   7   9
ENDBRANCH   1   7
BRANCH   3  11
ATOM     11  O   UNL     1     -21.662 -11.154 -29.818  1.00  0.00    -0.504 OA
ATOM     12  H   UNL     1     -21.048 -10.696 -30.482  1.00  0.00     0.293 HD
ENDBRANCH   3  11
BRANCH   5  13
ATOM     13  O   UNL     1     -24.215  -7.264 -28.411  1.00  0.00    -0.504 OA
ATOM     14  H   UNL     1     -24.567  -6.587 -29.077  1.00  0.00     0.293 HD
ENDBRANCH   5  13
BRANCH   4  15
ATOM     15  O   UNL     1     -21.776  -8.403 -29.232  1.00  0.00    -0.502 OA
ATOM     16  H   UNL     1     -21.814  -7.456 -29.589  1.00  0.00     0.293 HD
ENDBRANCH   4  15
TORSDOF 5
ENDMDL
MODEL 5
REMARK VINA RESULT:    -4.659      2.920      4.824
REMARK INTER + INTRA:          -5.706
REMARK INTER:                  -5.613
REMARK INTRA:                  -0.093
REMARK UNBOUND:                -0.094
REMARK SMILES COC(=O)c1cc(O)c(O)c(O)c1
REMARK SMILES IDX 5 1 13 2 11 3 9 4 7 5 6 6 3 7 4 8 2 9 1 10 12 11 8 13 10 15
REMARK H PARENT 12 12 8 14 10 16
REMARK Flexibility Score: inf
ROOT
ATOM      1  C   UNL     1     -25.752  -8.968 -28.428  1.00  0.00     0.067 A 
ATOM      2  C   UNL     1     -26.788  -9.636 -27.754  1.00  0.00     0.066 A 
ATOM      3  C   UNL     1     -27.095 -10.969 -28.059  1.00  0.00     0.162 A 
ATOM      4  C   UNL     1     -26.363 -11.649 -29.047  1.00  0.00     0.200 A 
ATOM      5  C   UNL     1     -25.326 -10.987 -29.725  1.00  0.00     0.162 A 
ATOM      6  C   UNL     1     -25.025  -9.656 -29.414  1.00  0.00     0.066 A 
ENDROOT
BRANCH   1   7
ATOM      7  C   UNL     1     -25.434  -7.560 -28.099  1.00  0.00     0.338 C 
ATOM      8  O   UNL     1     -26.364  -6.729 -27.905  1.00  0.00    -0.246 OA
BRANCH   7   9
ATOM      9  O   UNL     1     -24.100  -7.151 -28.002  1.00  0.00    -0.465 OA
ATOM     10  C   UNL     1     -23.586  -6.468 -26.864  1.00  0.00     0.282 C 
ENDBRANCH   7   9
ENDBRANCH   1   7
BRANCH   3  11
ATOM     11  O   UNL     1     -28.125 -11.620 -27.382  1.00  0.00    -0.504 OA
ATOM     12  H   UNL     1     -28.924 -11.115 -27.016  1.00  0.00     0.293 HD
ENDBRANCH   3  11
BRANCH   5  13
ATOM     13  O   UNL     1     -24.582 -11.635 -30.710  1.00  0.00    -0.504 OA
ATOM     14  H   UNL     1     -24.602 -11.344 -31.681  1.00  0.00     0.293 HD
ENDBRANCH   5  13
BRANCH   4  15
ATOM     15  O   UNL     1     -26.656 -12.977 -29.363  1.00  0.00    -0.502 OA
ATOM     16  H   UNL     1     -25.937 -13.640 -29.627  1.00  0.00     0.293 HD
ENDBRANCH   4  15
TORSDOF 5
ENDMDL
MODEL 6
REMARK VINA RESULT:    -4.656      1.707      4.842
REMARK INTER + INTRA:          -5.703
REMARK INTER:                  -5.639
REMARK INTRA:                  -0.064
REMARK UNBOUND:                -0.094
REMARK SMILES COC(=O)c1cc(O)c(O)c(O)c1
REMARK SMILES IDX 5 1 13 2 11 3 9 4 7 5 6 6 3 7 4 8 2 9 1 10 12 11 8 13 10 15
REMARK H PARENT 12 12 8 14 10 16
REMARK Flexibility Score: inf
ROOT
ATOM      1  C   UNL     1     -24.842 -10.636 -29.436  1.00  0.00     0.067 A 
ATOM      2  C   UNL     1     -24.913 -11.334 -30.653  1.00  0.00     0.066 A 
ATOM      3  C   UNL     1     -26.001 -12.171 -30.933  1.00  0.00     0.162 A 
ATOM      4  C   UNL     1     -27.034 -12.319 -29.992  1.00  0.00     0.200 A 
ATOM      5  C   UNL     1     -26.968 -11.625 -28.772  1.00  0.00     0.162 A 
ATOM      6  C   UNL     1     -25.879 -10.790 -28.500  1.00  0.00     0.066 A 
ENDROOT
BRANCH   1   7
ATOM      7  C   UNL     1     -23.688  -9.753 -29.148  1.00  0.00     0.338 C 
ATOM      8  O   UNL     1     -22.565 -10.253 -28.860  1.00  0.00    -0.246 OA
BRANCH   7   9
ATOM      9  O   UNL     1     -23.844  -8.365 -29.196  1.00  0.00    -0.465 OA
ATOM     10  C   UNL     1     -24.299  -7.603 -28.083  1.00  0.00     0.282 C 
ENDBRANCH   7   9
ENDBRANCH   1   7
BRANCH   3  11
ATOM     11  O   UNL     1     -26.061 -12.857 -32.146  1.00  0.00    -0.504 OA
ATOM     12  H   UNL     1     -26.928 -12.952 -32.661  1.00  0.00     0.293 HD
ENDBRANCH   3  11
BRANCH   5  13
ATOM     13  O   UNL     1     -27.977 -11.750 -27.817  1.00  0.00    -0.504 OA
ATOM     14  H   UNL     1     -28.808 -12.306 -27.980  1.00  0.00     0.293 HD
ENDBRANCH   5  13
BRANCH   4  15
ATOM     15  O   UNL     1     -28.125 -13.148 -30.255  1.00  0.00    -0.502 OA
ATOM     16  H   UNL     1     -28.259 -13.594 -31.155  1.00  0.00     0.293 HD
ENDBRANCH   4  15
TORSDOF 5
ENDMDL
MODEL 7
REMARK VINA RESULT:    -4.590      5.139      6.485
REMARK INTER + INTRA:          -5.623
REMARK INTER:                  -5.532
REMARK INTRA:                  -0.091
REMARK UNBOUND:                -0.094
REMARK SMILES COC(=O)c1cc(O)c(O)c(O)c1
REMARK SMILES IDX 5 1 13 2 11 3 9 4 7 5 6 6 3 7 4 8 2 9 1 10 12 11 8 13 10 15
REMARK H PARENT 12 12 8 14 10 16
REMARK Flexibility Score: inf
ROOT
ATOM      1  C   UNL     1     -24.980  -6.126 -27.027  1.00  0.00     0.067 A 
ATOM      2  C   UNL     1     -25.537  -7.210 -27.726  1.00  0.00     0.066 A 
ATOM      3  C   UNL     1     -24.715  -8.196 -28.288  1.00  0.00     0.162 A 
ATOM      4  C   UNL     1     -23.319  -8.105 -28.155  1.00  0.00     0.200 A 
ATOM      5  C   UNL     1     -22.755  -7.024 -27.457  1.00  0.00     0.162 A 
ATOM      6  C   UNL     1     -23.583  -6.044 -26.898  1.00  0.00     0.066 A 
ENDROOT
BRANCH   1   7
ATOM      7  C   UNL     1     -25.856  -5.090 -26.436  1.00  0.00     0.338 C 
ATOM      8  O   UNL     1     -25.516  -4.507 -25.368  1.00  0.00    -0.246 OA
BRANCH   7   9
ATOM      9  O   UNL     1     -27.060  -4.755 -27.062  1.00  0.00    -0.465 OA
ATOM     10  C   UNL     1     -27.976  -3.813 -26.513  1.00  0.00     0.282 C 
ENDBRANCH   7   9
ENDBRANCH   1   7
BRANCH   3  11
ATOM     11  O   UNL     1     -25.281  -9.266 -28.979  1.00  0.00    -0.504 OA
ATOM     12  H   UNL     1     -25.339 -10.192 -28.570  1.00  0.00     0.293 HD
ENDBRANCH   3  11
BRANCH   5  13
ATOM     13  O   UNL     1     -21.374  -6.906 -27.307  1.00  0.00    -0.504 OA
ATOM     14  H   UNL     1     -20.956  -6.327 -26.588  1.00  0.00     0.293 HD
ENDBRANCH   5  13
BRANCH   4  15
ATOM     15  O   UNL     1     -22.485  -9.078 -28.708  1.00  0.00    -0.502 OA
ATOM     16  H   UNL     1     -21.476  -8.989 -28.707  1.00  0.00     0.293 HD
ENDBRANCH   4  15
TORSDOF 5
ENDMDL
MODEL 8
REMARK VINA RESULT:    -4.556     20.719     21.906
REMARK INTER + INTRA:          -5.582
REMARK INTER:                  -5.505
REMARK INTRA:                  -0.077
REMARK UNBOUND:                -0.094
REMARK SMILES COC(=O)c1cc(O)c(O)c(O)c1
REMARK SMILES IDX 5 1 13 2 11 3 9 4 7 5 6 6 3 7 4 8 2 9 1 10 12 11 8 13 10 15
REMARK H PARENT 12 12 8 14 10 16
REMARK Flexibility Score: inf
ROOT
ATOM      1  C   UNL     1      -9.958  -4.017 -16.342  1.00  0.00     0.067 A 
ATOM      2  C   UNL     1     -10.652  -3.118 -15.515  1.00  0.00     0.066 A 
ATOM      3  C   UNL     1     -11.694  -3.564 -14.692  1.00  0.00     0.162 A 
ATOM      4  C   UNL     1     -12.054  -4.922 -14.689  1.00  0.00     0.200 A 
ATOM      5  C   UNL     1     -11.365  -5.827 -15.514  1.00  0.00     0.162 A 
ATOM      6  C   UNL     1     -10.324  -5.374 -16.333  1.00  0.00     0.066 A 
ENDROOT
BRANCH   1   7
ATOM      7  C   UNL     1      -8.857  -3.538 -17.208  1.00  0.00     0.338 C 
ATOM      8  O   UNL     1      -7.888  -2.902 -16.707  1.00  0.00    -0.246 OA
BRANCH   7   9
ATOM      9  O   UNL     1      -8.891  -3.791 -18.583  1.00  0.00    -0.465 OA
ATOM     10  C   UNL     1      -8.165  -4.857 -19.186  1.00  0.00     0.282 C 
ENDBRANCH   7   9
ENDBRANCH   1   7
BRANCH   3  11
ATOM     11  O   UNL     1     -12.374  -2.661 -13.875  1.00  0.00    -0.504 OA
ATOM     12  H   UNL     1     -12.242  -2.650 -12.870  1.00  0.00     0.293 HD
ENDBRANCH   3  11
BRANCH   5  13
ATOM     13  O   UNL     1     -11.698  -7.181 -15.534  1.00  0.00    -0.504 OA
ATOM     14  H   UNL     1     -11.236  -7.842 -16.147  1.00  0.00     0.293 HD
ENDBRANCH   5  13
BRANCH   4  15
ATOM     15  O   UNL     1     -13.090  -5.383 -13.875  1.00  0.00    -0.502 OA
ATOM     16  H   UNL     1     -13.693  -6.150 -14.150  1.00  0.00     0.293 HD
ENDBRANCH   4  15
TORSDOF 5
ENDMDL
MODEL 9
REMARK VINA RESULT:    -4.471      1.706      4.408
REMARK INTER + INTRA:          -5.480
REMARK INTER:                  -5.356
REMARK INTRA:                  -0.125
REMARK UNBOUND:                -0.094
REMARK SMILES COC(=O)c1cc(O)c(O)c(O)c1
REMARK SMILES IDX 5 1 13 2 11 3 9 4 7 5 6 6 3 7 4 8 2 9 1 10 12 11 8 13 10 15
REMARK H PARENT 12 12 8 14 10 16
REMARK Flexibility Score: inf
ROOT
ATOM      1  C   UNL     1     -24.667 -10.655 -29.151  1.00  0.00     0.067 A 
ATOM      2  C   UNL     1     -25.678 -10.791 -28.185  1.00  0.00     0.066 A 
ATOM      3  C   UNL     1     -26.830 -11.540 -28.458  1.00  0.00     0.162 A 
ATOM      4  C   UNL     1     -26.983 -12.162 -29.709  1.00  0.00     0.200 A 
ATOM      5  C   UNL     1     -25.976 -12.030 -30.679  1.00  0.00     0.162 A 
ATOM      6  C   UNL     1     -24.828 -11.281 -30.399  1.00  0.00     0.066 A 
ENDROOT
BRANCH   1   7
ATOM      7  C   UNL     1     -23.452  -9.863 -28.854  1.00  0.00     0.338 C 
ATOM      8  O   UNL     1     -22.321 -10.267 -29.245  1.00  0.00    -0.246 OA
BRANCH   7   9
ATOM      9  O   UNL     1     -23.558  -8.665 -28.141  1.00  0.00    -0.465 OA
ATOM     10  C   UNL     1     -24.024  -7.457 -28.732  1.00  0.00     0.282 C 
ENDBRANCH   7   9
ENDBRANCH   1   7
BRANCH   3  11
ATOM     11  O   UNL     1     -27.826 -11.667 -27.490  1.00  0.00    -0.504 OA
ATOM     12  H   UNL     1     -28.794 -11.831 -27.741  1.00  0.00     0.293 HD
ENDBRANCH   3  11
BRANCH   5  13
ATOM     13  O   UNL     1     -26.098 -12.636 -31.930  1.00  0.00    -0.504 OA
ATOM     14  H   UNL     1     -26.177 -13.640 -32.037  1.00  0.00     0.293 HD
ENDBRANCH   5  13
BRANCH   4  15
ATOM     15  O   UNL     1     -28.125 -12.911 -29.997  1.00  0.00    -0.502 OA
ATOM     16  H   UNL     1     -28.929 -12.929 -29.381  1.00  0.00     0.293 HD
ENDBRANCH   4  15
TORSDOF 5
ENDMDL
