MODEL 1
REMARK VINA RESULT:    -6.155      0.000      0.000
REMARK INTER + INTRA:          -6.695
REMARK INTER:                  -6.695
REMARK INTRA:                   0.000
REMARK UNBOUND:                 0.000
REMARK SMILES Cc1cc(O)c2c(c1)C(=O)c1cc(O)cc(O)c1C2=O
REMARK SMILES IDX 1 1 2 2 8 3 7 4 6 5 4 6 3 7 19 8 20 9 18 10 11 11 9 12 10 13
REMARK SMILES IDX 12 14 13 15 15 16 16 17 5 18 17 20 14 22
REMARK H PARENT 5 19 17 21 14 23
REMARK Flexibility Score: inf
ROOT
ATOM      1  C   UNL     1      17.654  -9.953   6.568  1.00  0.00     0.044 C 
ATOM      2  C   UNL     1      17.865 -10.469   5.175  1.00  0.00    -0.047 A 
ATOM      3  C   UNL     1      17.025 -11.460   4.656  1.00  0.00     0.016 A 
ATOM      4  C   UNL     1      17.234 -11.978   3.366  1.00  0.00     0.038 A 
ATOM      5  C   UNL     1      18.311 -11.505   2.584  1.00  0.00     0.076 A 
ATOM      6  C   UNL     1      19.171 -10.516   3.123  1.00  0.00     0.127 A 
ATOM      7  C   UNL     1      18.943 -10.013   4.411  1.00  0.00     0.050 A 
ATOM      8  C   UNL     1      18.521 -12.060   1.217  1.00  0.00     0.201 C 
ATOM      9  O   UNL     1      19.476 -11.636   0.511  1.00  0.00    -0.288 OA
ATOM     10  C   UNL     1      17.611 -13.109   0.676  1.00  0.00     0.076 A 
ATOM     11  C   UNL     1      16.540 -13.572   1.473  1.00  0.00     0.041 A 
ATOM     12  C   UNL     1      16.327 -13.019   2.830  1.00  0.00     0.194 C 
ATOM     13  O   UNL     1      15.368 -13.439   3.534  1.00  0.00    -0.289 OA
ATOM     14  C   UNL     1      15.675 -14.563   0.973  1.00  0.00     0.059 A 
ATOM     15  C   UNL     1      15.864 -15.093  -0.306  1.00  0.00     0.120 A 
ATOM     16  C   UNL     1      16.919 -14.638  -1.095  1.00  0.00     0.093 A 
ATOM     17  C   UNL     1      17.793 -13.653  -0.618  1.00  0.00     0.131 A 
ENDROOT
BRANCH   6  18
ATOM     18  O   UNL     1      20.252 -10.031   2.388  1.00  0.00    -0.507 OA
ATOM     19  H   UNL     1      20.657 -10.556   1.622  1.00  0.00     0.293 HD
ENDBRANCH   6  18
BRANCH  17  20
ATOM     20  O   UNL     1      18.839 -13.223  -1.436  1.00  0.00    -0.507 OA
ATOM     21  H   UNL     1      18.758 -12.396  -2.016  1.00  0.00     0.293 HD
ENDBRANCH  17  20
BRANCH  15  22
ATOM     22  O   UNL     1      15.007 -16.073  -0.802  1.00  0.00    -0.508 OA
ATOM     23  H   UNL     1      14.524 -16.717  -0.187  1.00  0.00     0.293 HD
ENDBRANCH  15  22
TORSDOF 3
ENDMDL
MODEL 2
REMARK VINA RESULT:    -5.893      8.623      9.893
REMARK INTER + INTRA:          -6.410
REMARK INTER:                  -6.410
REMARK INTRA:                   0.000
REMARK UNBOUND:                 0.000
REMARK SMILES Cc1cc(O)c2c(c1)C(=O)c1cc(O)cc(O)c1C2=O
REMARK SMILES IDX 1 1 2 2 8 3 7 4 6 5 4 6 3 7 19 8 20 9 18 10 11 11 9 12 10 13
REMARK SMILES IDX 12 14 13 15 15 16 16 17 5 18 17 20 14 22
REMARK H PARENT 5 19 17 21 14 23
REMARK Flexibility Score: inf
ROOT
ATOM      1  C   UNL     1      27.472 -18.113   7.846  1.00  0.00     0.044 C 
ATOM      2  C   UNL     1      25.985 -18.106   7.647  1.00  0.00    -0.047 A 
ATOM      3  C   UNL     1      25.256 -16.926   7.821  1.00  0.00     0.016 A 
ATOM      4  C   UNL     1      23.858 -16.915   7.673  1.00  0.00     0.038 A 
ATOM      5  C   UNL     1      23.174 -18.110   7.358  1.00  0.00     0.076 A 
ATOM      6  C   UNL     1      23.916 -19.307   7.203  1.00  0.00     0.127 A 
ATOM      7  C   UNL     1      25.309 -19.295   7.354  1.00  0.00     0.050 A 
ATOM      8  C   UNL     1      21.693 -18.085   7.201  1.00  0.00     0.201 C 
ATOM      9  O   UNL     1      21.077 -19.147   6.912  1.00  0.00    -0.288 OA
ATOM     10  C   UNL     1      20.932 -16.816   7.381  1.00  0.00     0.076 A 
ATOM     11  C   UNL     1      21.632 -15.630   7.699  1.00  0.00     0.041 A 
ATOM     12  C   UNL     1      23.105 -15.652   7.851  1.00  0.00     0.194 C 
ATOM     13  O   UNL     1      23.721 -14.588   8.135  1.00  0.00    -0.289 OA
ATOM     14  C   UNL     1      20.924 -14.426   7.872  1.00  0.00     0.059 A 
ATOM     15  C   UNL     1      19.535 -14.392   7.731  1.00  0.00     0.120 A 
ATOM     16  C   UNL     1      18.841 -15.559   7.418  1.00  0.00     0.093 A 
ATOM     17  C   UNL     1      19.523 -16.769   7.241  1.00  0.00     0.131 A 
ENDROOT
BRANCH   6  18
ATOM     18  O   UNL     1      23.278 -20.510   6.902  1.00  0.00    -0.507 OA
ATOM     19  H   UNL     1      22.730 -21.012   7.591  1.00  0.00     0.293 HD
ENDBRANCH   6  18
BRANCH  17  20
ATOM     20  O   UNL     1      18.796 -17.917   6.928  1.00  0.00    -0.507 OA
ATOM     21  H   UNL     1      18.588 -18.173   5.970  1.00  0.00     0.293 HD
ENDBRANCH  17  20
BRANCH  15  22
ATOM     22  O   UNL     1      18.833 -13.200   7.901  1.00  0.00    -0.508 OA
ATOM     23  H   UNL     1      19.305 -12.335   8.134  1.00  0.00     0.293 HD
ENDBRANCH  15  22
TORSDOF 3
ENDMDL
MODEL 3
REMARK VINA RESULT:    -5.829      1.780      3.679
REMARK INTER + INTRA:          -6.340
REMARK INTER:                  -6.340
REMARK INTRA:                   0.000
REMARK UNBOUND:                 0.000
REMARK SMILES Cc1cc(O)c2c(c1)C(=O)c1cc(O)cc(O)c1C2=O
REMARK SMILES IDX 1 1 2 2 8 3 7 4 6 5 4 6 3 7 19 8 20 9 18 10 11 11 9 12 10 13
REMARK SMILES IDX 12 14 13 15 15 16 16 17 5 18 17 20 14 22
REMARK H PARENT 5 19 17 21 14 23
REMARK Flexibility Score: inf
ROOT
ATOM      1  C   UNL     1      16.235  -7.363   5.296  1.00  0.00     0.044 C 
ATOM      2  C   UNL     1      16.143  -8.756   4.748  1.00  0.00    -0.047 A 
ATOM      3  C   UNL     1      16.913  -9.132   3.643  1.00  0.00     0.016 A 
ATOM      4  C   UNL     1      16.809 -10.425   3.099  1.00  0.00     0.038 A 
ATOM      5  C   UNL     1      15.907 -11.354   3.663  1.00  0.00     0.076 A 
ATOM      6  C   UNL     1      15.115 -10.961   4.769  1.00  0.00     0.127 A 
ATOM      7  C   UNL     1      15.236  -9.668   5.296  1.00  0.00     0.050 A 
ATOM      8  C   UNL     1      15.808 -12.722   3.079  1.00  0.00     0.201 C 
ATOM      9  O   UNL     1      15.011 -13.559   3.582  1.00  0.00    -0.288 OA
ATOM     10  C   UNL     1      16.642 -13.109   1.907  1.00  0.00     0.076 A 
ATOM     11  C   UNL     1      17.538 -12.164   1.354  1.00  0.00     0.041 A 
ATOM     12  C   UNL     1      17.641 -10.807   1.935  1.00  0.00     0.194 C 
ATOM     13  O   UNL     1      18.443  -9.971   1.435  1.00  0.00    -0.289 OA
ATOM     14  C   UNL     1      18.330 -12.519   0.246  1.00  0.00     0.059 A 
ATOM     15  C   UNL     1      18.242 -13.796  -0.312  1.00  0.00     0.120 A 
ATOM     16  C   UNL     1      17.362 -14.730   0.231  1.00  0.00     0.093 A 
ATOM     17  C   UNL     1      16.562 -14.401   1.332  1.00  0.00     0.131 A 
ENDROOT
BRANCH   6  18
ATOM     18  O   UNL     1      14.206 -11.846   5.348  1.00  0.00    -0.507 OA
ATOM     19  H   UNL     1      13.831 -11.696   6.278  1.00  0.00     0.293 HD
ENDBRANCH   6  18
BRANCH  17  20
ATOM     20  O   UNL     1      15.692 -15.361   1.849  1.00  0.00    -0.507 OA
ATOM     21  H   UNL     1      14.836 -15.619   1.371  1.00  0.00     0.293 HD
ENDBRANCH  17  20
BRANCH  15  22
ATOM     22  O   UNL     1      19.028 -14.148  -1.407  1.00  0.00    -0.508 OA
ATOM     23  H   UNL     1      19.361 -15.096  -1.539  1.00  0.00     0.293 HD
ENDBRANCH  15  22
TORSDOF 3
ENDMDL
MODEL 4
REMARK VINA RESULT:    -5.741      2.747      3.556
REMARK INTER + INTRA:          -6.244
REMARK INTER:                  -6.244
REMARK INTRA:                   0.000
REMARK UNBOUND:                 0.000
REMARK SMILES Cc1cc(O)c2c(c1)C(=O)c1cc(O)cc(O)c1C2=O
REMARK SMILES IDX 1 1 2 2 8 3 7 4 6 5 4 6 3 7 19 8 20 9 18 10 11 11 9 12 10 13
REMARK SMILES IDX 12 14 13 15 15 16 16 17 5 18 17 20 14 22
REMARK H PARENT 5 19 17 21 14 23
REMARK Flexibility Score: inf
ROOT
ATOM      1  C   UNL     1      18.752  -5.875   0.879  1.00  0.00     0.044 C 
ATOM      2  C   UNL     1      18.803  -7.318   0.472  1.00  0.00    -0.047 A 
ATOM      3  C   UNL     1      18.011  -8.265   1.130  1.00  0.00     0.016 A 
ATOM      4  C   UNL     1      18.077  -9.625   0.781  1.00  0.00     0.038 A 
ATOM      5  C   UNL     1      18.961 -10.049  -0.235  1.00  0.00     0.076 A 
ATOM      6  C   UNL     1      19.776  -9.088  -0.884  1.00  0.00     0.127 A 
ATOM      7  C   UNL     1      19.693  -7.737  -0.522  1.00  0.00     0.050 A 
ATOM      8  C   UNL     1      19.020 -11.493  -0.597  1.00  0.00     0.201 C 
ATOM      9  O   UNL     1      19.801 -11.877  -1.510  1.00  0.00    -0.288 OA
ATOM     10  C   UNL     1      18.162 -12.487   0.107  1.00  0.00     0.076 A 
ATOM     11  C   UNL     1      17.285 -12.046   1.125  1.00  0.00     0.041 A 
ATOM     12  C   UNL     1      17.222 -10.611   1.482  1.00  0.00     0.194 C 
ATOM     13  O   UNL     1      16.436 -10.226   2.391  1.00  0.00    -0.289 OA
ATOM     14  C   UNL     1      16.471 -12.976   1.797  1.00  0.00     0.059 A 
ATOM     15  C   UNL     1      16.521 -14.333   1.469  1.00  0.00     0.120 A 
ATOM     16  C   UNL     1      17.384 -14.772   0.467  1.00  0.00     0.093 A 
ATOM     17  C   UNL     1      18.204 -13.866  -0.217  1.00  0.00     0.131 A 
ENDROOT
BRANCH   6  18
ATOM     18  O   UNL     1      20.669  -9.467  -1.886  1.00  0.00    -0.507 OA
ATOM     19  H   UNL     1      20.429  -9.403  -2.868  1.00  0.00     0.293 HD
ENDBRANCH   6  18
BRANCH  17  20
ATOM     20  O   UNL     1      19.056 -14.342  -1.214  1.00  0.00    -0.507 OA
ATOM     21  H   UNL     1      18.824 -15.155  -1.771  1.00  0.00     0.293 HD
ENDBRANCH  17  20
BRANCH  15  22
ATOM     22  O   UNL     1      15.715 -15.254   2.134  1.00  0.00    -0.508 OA
ATOM     23  H   UNL     1      15.621 -16.209   1.809  1.00  0.00     0.293 HD
ENDBRANCH  15  22
TORSDOF 3
ENDMDL
MODEL 5
REMARK VINA RESULT:    -5.697      8.633      9.850
REMARK INTER + INTRA:          -6.197
REMARK INTER:                  -6.197
REMARK INTRA:                   0.000
REMARK UNBOUND:                 0.000
REMARK SMILES Cc1cc(O)c2c(c1)C(=O)c1cc(O)cc(O)c1C2=O
REMARK SMILES IDX 1 1 2 2 8 3 7 4 6 5 4 6 3 7 19 8 20 9 18 10 11 11 9 12 10 13
REMARK SMILES IDX 12 14 13 15 15 16 16 17 5 18 17 20 14 22
REMARK H PARENT 5 19 17 21 14 23
REMARK Flexibility Score: inf
ROOT
ATOM      1  C   UNL     1      18.676 -13.233   8.876  1.00  0.00     0.044 C 
ATOM      2  C   UNL     1      19.424 -14.478   8.503  1.00  0.00    -0.047 A 
ATOM      3  C   UNL     1      20.812 -14.542   8.665  1.00  0.00     0.016 A 
ATOM      4  C   UNL     1      21.529 -15.690   8.286  1.00  0.00     0.038 A 
ATOM      5  C   UNL     1      20.847 -16.791   7.723  1.00  0.00     0.076 A 
ATOM      6  C   UNL     1      19.444 -16.713   7.542  1.00  0.00     0.127 A 
ATOM      7  C   UNL     1      18.749 -15.559   7.928  1.00  0.00     0.050 A 
ATOM      8  C   UNL     1      21.618 -18.004   7.328  1.00  0.00     0.201 C 
ATOM      9  O   UNL     1      21.014 -18.994   6.831  1.00  0.00    -0.288 OA
ATOM     10  C   UNL     1      23.095 -18.058   7.515  1.00  0.00     0.076 A 
ATOM     11  C   UNL     1      23.762 -16.945   8.078  1.00  0.00     0.041 A 
ATOM     12  C   UNL     1      22.997 -15.742   8.475  1.00  0.00     0.194 C 
ATOM     13  O   UNL     1      23.601 -14.754   8.977  1.00  0.00    -0.289 OA
ATOM     14  C   UNL     1      25.157 -16.985   8.259  1.00  0.00     0.059 A 
ATOM     15  C   UNL     1      25.890 -18.115   7.889  1.00  0.00     0.120 A 
ATOM     16  C   UNL     1      25.237 -19.214   7.334  1.00  0.00     0.093 A 
ATOM     17  C   UNL     1      23.850 -19.198   7.144  1.00  0.00     0.131 A 
ENDROOT
BRANCH   6  18
ATOM     18  O   UNL     1      18.735 -17.775   6.981  1.00  0.00    -0.507 OA
ATOM     19  H   UNL     1      17.733 -17.868   7.094  1.00  0.00     0.293 HD
ENDBRANCH   6  18
BRANCH  17  20
ATOM     20  O   UNL     1      23.230 -20.316   6.585  1.00  0.00    -0.507 OA
ATOM     21  H   UNL     1      22.666 -20.948   7.141  1.00  0.00     0.293 HD
ENDBRANCH  17  20
BRANCH  15  22
ATOM     22  O   UNL     1      27.271 -18.156   8.069  1.00  0.00    -0.508 OA
ATOM     23  H   UNL     1      27.883 -17.473   7.637  1.00  0.00     0.293 HD
ENDBRANCH  15  22
TORSDOF 3
ENDMDL
MODEL 6
REMARK VINA RESULT:    -5.576      2.135      4.868
REMARK INTER + INTRA:          -6.065
REMARK INTER:                  -6.065
REMARK INTRA:                   0.000
REMARK UNBOUND:                 0.000
REMARK SMILES Cc1cc(O)c2c(c1)C(=O)c1cc(O)cc(O)c1C2=O
REMARK SMILES IDX 1 1 2 2 8 3 7 4 6 5 4 6 3 7 19 8 20 9 18 10 11 11 9 12 10 13
REMARK SMILES IDX 12 14 13 15 15 16 16 17 5 18 17 20 14 22
REMARK H PARENT 5 19 17 21 14 23
REMARK Flexibility Score: inf
ROOT
ATOM      1  C   UNL     1      20.759  -9.222  -1.355  1.00  0.00     0.044 C 
ATOM      2  C   UNL     1      19.852 -10.261  -0.766  1.00  0.00    -0.047 A 
ATOM      3  C   UNL     1      19.080  -9.965   0.363  1.00  0.00     0.016 A 
ATOM      4  C   UNL     1      18.253 -10.941   0.945  1.00  0.00     0.038 A 
ATOM      5  C   UNL     1      18.206 -12.242   0.397  1.00  0.00     0.076 A 
ATOM      6  C   UNL     1      19.005 -12.541  -0.734  1.00  0.00     0.127 A 
ATOM      7  C   UNL     1      19.822 -11.553  -1.299  1.00  0.00     0.050 A 
ATOM      8  C   UNL     1      17.323 -13.267   1.022  1.00  0.00     0.201 C 
ATOM      9  O   UNL     1      17.270 -14.428   0.532  1.00  0.00    -0.288 OA
ATOM     10  C   UNL     1      16.501 -12.932   2.218  1.00  0.00     0.076 A 
ATOM     11  C   UNL     1      16.562 -11.626   2.756  1.00  0.00     0.041 A 
ATOM     12  C   UNL     1      17.436 -10.605   2.134  1.00  0.00     0.194 C 
ATOM     13  O   UNL     1      17.483  -9.442   2.620  1.00  0.00    -0.289 OA
ATOM     14  C   UNL     1      15.791 -11.299   3.886  1.00  0.00     0.059 A 
ATOM     15  C   UNL     1      14.963 -12.253   4.483  1.00  0.00     0.120 A 
ATOM     16  C   UNL     1      14.899 -13.541   3.956  1.00  0.00     0.093 A 
ATOM     17  C   UNL     1      15.657 -13.891   2.832  1.00  0.00     0.131 A 
ENDROOT
BRANCH   6  18
ATOM     18  O   UNL     1      18.995 -13.816  -1.299  1.00  0.00    -0.507 OA
ATOM     19  H   UNL     1      18.479 -14.021  -2.147  1.00  0.00     0.293 HD
ENDBRANCH   6  18
BRANCH  17  20
ATOM     20  O   UNL     1      15.569 -15.190   2.332  1.00  0.00    -0.507 OA
ATOM     21  H   UNL     1      15.177 -15.948   2.879  1.00  0.00     0.293 HD
ENDBRANCH  17  20
BRANCH  15  22
ATOM     22  O   UNL     1      14.198 -11.929   5.601  1.00  0.00    -0.508 OA
ATOM     23  H   UNL     1      13.831 -10.996   5.741  1.00  0.00     0.293 HD
ENDBRANCH  15  22
TORSDOF 3
ENDMDL
MODEL 7
REMARK VINA RESULT:    -5.564      9.809     10.485
REMARK INTER + INTRA:          -6.052
REMARK INTER:                  -6.052
REMARK INTRA:                   0.000
REMARK UNBOUND:                 0.000
REMARK SMILES Cc1cc(O)c2c(c1)C(=O)c1cc(O)cc(O)c1C2=O
REMARK SMILES IDX 1 1 2 2 8 3 7 4 6 5 4 6 3 7 19 8 20 9 18 10 11 11 9 12 10 13
REMARK SMILES IDX 12 14 13 15 15 16 16 17 5 18 17 20 14 22
REMARK H PARENT 5 19 17 21 14 23
REMARK Flexibility Score: inf
ROOT
ATOM      1  C   UNL     1      27.737 -13.792   9.971  1.00  0.00     0.044 C 
ATOM      2  C   UNL     1      26.968 -14.918   9.345  1.00  0.00    -0.047 A 
ATOM      3  C   UNL     1      25.580 -14.828   9.200  1.00  0.00     0.016 A 
ATOM      4  C   UNL     1      24.844 -15.892   8.648  1.00  0.00     0.038 A 
ATOM      5  C   UNL     1      25.507 -17.072   8.247  1.00  0.00     0.076 A 
ATOM      6  C   UNL     1      26.911 -17.165   8.415  1.00  0.00     0.127 A 
ATOM      7  C   UNL     1      27.625 -16.093   8.966  1.00  0.00     0.050 A 
ATOM      8  C   UNL     1      24.716 -18.191   7.661  1.00  0.00     0.201 C 
ATOM      9  O   UNL     1      25.303 -19.245   7.292  1.00  0.00    -0.288 OA
ATOM     10  C   UNL     1      23.239 -18.076   7.505  1.00  0.00     0.076 A 
ATOM     11  C   UNL     1      22.591 -16.888   7.915  1.00  0.00     0.041 A 
ATOM     12  C   UNL     1      23.376 -15.774   8.493  1.00  0.00     0.194 C 
ATOM     13  O   UNL     1      22.789 -14.717   8.856  1.00  0.00    -0.289 OA
ATOM     14  C   UNL     1      21.197 -16.768   7.773  1.00  0.00     0.059 A 
ATOM     15  C   UNL     1      20.445 -17.812   7.229  1.00  0.00     0.120 A 
ATOM     16  C   UNL     1      21.079 -18.985   6.823  1.00  0.00     0.093 A 
ATOM     17  C   UNL     1      22.466 -19.127   6.955  1.00  0.00     0.131 A 
ENDROOT
BRANCH   6  18
ATOM     18  O   UNL     1      27.602 -18.317   8.040  1.00  0.00    -0.507 OA
ATOM     19  H   UNL     1      28.271 -18.764   8.656  1.00  0.00     0.293 HD
ENDBRANCH   6  18
BRANCH  17  20
ATOM     20  O   UNL     1      23.067 -20.316   6.538  1.00  0.00    -0.507 OA
ATOM     21  H   UNL     1      22.676 -21.221   6.767  1.00  0.00     0.293 HD
ENDBRANCH  17  20
BRANCH  15  22
ATOM     22  O   UNL     1      19.064 -17.694   7.087  1.00  0.00    -0.508 OA
ATOM     23  H   UNL     1      18.603 -16.792   7.111  1.00  0.00     0.293 HD
ENDBRANCH  15  22
TORSDOF 3
ENDMDL
MODEL 8
REMARK VINA RESULT:    -5.429      9.259     10.176
REMARK INTER + INTRA:          -5.905
REMARK INTER:                  -5.905
REMARK INTRA:                   0.000
REMARK UNBOUND:                 0.000
REMARK SMILES Cc1cc(O)c2c(c1)C(=O)c1cc(O)cc(O)c1C2=O
REMARK SMILES IDX 1 1 2 2 8 3 7 4 6 5 4 6 3 7 19 8 20 9 18 10 11 11 9 12 10 13
REMARK SMILES IDX 12 14 13 15 15 16 16 17 5 18 17 20 14 22
REMARK H PARENT 5 19 17 21 14 23
REMARK Flexibility Score: inf
ROOT
ATOM      1  C   UNL     1      28.123 -19.374   7.487  1.00  0.00     0.044 C 
ATOM      2  C   UNL     1      26.982 -18.415   7.660  1.00  0.00    -0.047 A 
ATOM      3  C   UNL     1      25.669 -18.831   7.421  1.00  0.00     0.016 A 
ATOM      4  C   UNL     1      24.595 -17.932   7.545  1.00  0.00     0.038 A 
ATOM      5  C   UNL     1      24.841 -16.588   7.902  1.00  0.00     0.076 A 
ATOM      6  C   UNL     1      26.175 -16.167   8.123  1.00  0.00     0.127 A 
ATOM      7  C   UNL     1      27.230 -17.080   7.995  1.00  0.00     0.050 A 
ATOM      8  C   UNL     1      23.694 -15.645   8.032  1.00  0.00     0.201 C 
ATOM      9  O   UNL     1      23.906 -14.445   8.359  1.00  0.00    -0.288 OA
ATOM     10  C   UNL     1      22.300 -16.107   7.783  1.00  0.00     0.076 A 
ATOM     11  C   UNL     1      22.072 -17.455   7.423  1.00  0.00     0.041 A 
ATOM     12  C   UNL     1      23.210 -18.394   7.298  1.00  0.00     0.194 C 
ATOM     13  O   UNL     1      22.997 -19.596   6.977  1.00  0.00    -0.289 OA
ATOM     14  C   UNL     1      20.760 -17.903   7.185  1.00  0.00     0.059 A 
ATOM     15  C   UNL     1      19.678 -17.027   7.300  1.00  0.00     0.120 A 
ATOM     16  C   UNL     1      19.897 -15.697   7.655  1.00  0.00     0.093 A 
ATOM     17  C   UNL     1      21.195 -15.229   7.897  1.00  0.00     0.131 A 
ENDROOT
BRANCH   6  18
ATOM     18  O   UNL     1      26.461 -14.846   8.467  1.00  0.00    -0.507 OA
ATOM     19  H   UNL     1      27.190 -14.612   9.131  1.00  0.00     0.293 HD
ENDBRANCH   6  18
BRANCH  17  20
ATOM     20  O   UNL     1      21.377 -13.891   8.249  1.00  0.00    -0.507 OA
ATOM     21  H   UNL     1      20.698 -13.178   8.008  1.00  0.00     0.293 HD
ENDBRANCH  17  20
BRANCH  15  22
ATOM     22  O   UNL     1      18.378 -17.469   7.065  1.00  0.00    -0.508 OA
ATOM     23  H   UNL     1      18.038 -17.643   6.127  1.00  0.00     0.293 HD
ENDBRANCH  15  22
TORSDOF 3
ENDMDL
MODEL 9
REMARK VINA RESULT:    -5.337      6.546      8.612
REMARK INTER + INTRA:          -5.805
REMARK INTER:                  -5.805
REMARK INTRA:                   0.000
REMARK UNBOUND:                 0.000
REMARK SMILES Cc1cc(O)c2c(c1)C(=O)c1cc(O)cc(O)c1C2=O
REMARK SMILES IDX 1 1 2 2 8 3 7 4 6 5 4 6 3 7 19 8 20 9 18 10 11 11 9 12 10 13
REMARK SMILES IDX 12 14 13 15 15 16 16 17 5 18 17 20 14 22
REMARK H PARENT 5 19 17 21 14 23
REMARK Flexibility Score: inf
ROOT
ATOM      1  C   UNL     1      24.333 -18.647   7.789  1.00  0.00     0.044 C 
ATOM      2  C   UNL     1      22.986 -18.015   7.597  1.00  0.00    -0.047 A 
ATOM      3  C   UNL     1      22.834 -16.630   7.718  1.00  0.00     0.016 A 
ATOM      4  C   UNL     1      21.570 -16.030   7.576  1.00  0.00     0.038 A 
ATOM      5  C   UNL     1      20.435 -16.831   7.321  1.00  0.00     0.076 A 
ATOM      6  C   UNL     1      20.593 -18.235   7.220  1.00  0.00     0.127 A 
ATOM      7  C   UNL     1      21.861 -18.813   7.364  1.00  0.00     0.050 A 
ATOM      8  C   UNL     1      19.102 -16.183   7.170  1.00  0.00     0.201 C 
ATOM      9  O   UNL     1      18.086 -16.892   6.934  1.00  0.00    -0.288 OA
ATOM     10  C   UNL     1      18.959 -14.705   7.293  1.00  0.00     0.076 A 
ATOM     11  C   UNL     1      20.105 -13.918   7.551  1.00  0.00     0.041 A 
ATOM     12  C   UNL     1      21.431 -14.560   7.697  1.00  0.00     0.194 C 
ATOM     13  O   UNL     1      22.449 -13.850   7.926  1.00  0.00    -0.289 OA
ATOM     14  C   UNL     1      19.982 -12.522   7.669  1.00  0.00     0.059 A 
ATOM     15  C   UNL     1      18.737 -11.903   7.533  1.00  0.00     0.120 A 
ATOM     16  C   UNL     1      17.604 -12.675   7.279  1.00  0.00     0.093 A 
ATOM     17  C   UNL     1      17.702 -14.066   7.157  1.00  0.00     0.131 A 
ENDROOT
BRANCH   6  18
ATOM     18  O   UNL     1      19.496 -19.062   6.980  1.00  0.00    -0.507 OA
ATOM     19  H   UNL     1      19.362 -19.528   6.089  1.00  0.00     0.293 HD
ENDBRANCH   6  18
BRANCH  17  20
ATOM     20  O   UNL     1      16.547 -14.807   6.902  1.00  0.00    -0.507 OA
ATOM     21  H   UNL     1      15.624 -14.447   7.115  1.00  0.00     0.293 HD
ENDBRANCH  17  20
BRANCH  15  22
ATOM     22  O   UNL     1      18.614 -10.521   7.649  1.00  0.00    -0.508 OA
ATOM     23  H   UNL     1      18.589  -9.920   6.834  1.00  0.00     0.293 HD
ENDBRANCH  15  22
TORSDOF 3
ENDMDL
