MODEL 1
REMARK VINA RESULT:    -5.409      0.000      0.000
REMARK INTER + INTRA:          -8.213
REMARK INTER:                  -7.939
REMARK INTRA:                  -0.274
REMARK UNBOUND:                -0.274
REMARK SMILES O=C([O-])CCCCCCCC(=O)[O-]
REMARK SMILES IDX 7 1 6 2 5 3 4 4 2 5 1 6 3 7 8 8 9 9 10 10 11 11 12 12 13 13
REMARK H PARENT
REMARK Flexibility Score: inf
ROOT
ATOM      1  C   UNL     1      -1.998   8.301 -39.404  1.00  0.00     0.000 C 
ENDROOT
BRANCH   1   2
ATOM      2  C   UNL     1      -1.026   8.817 -38.334  1.00  0.00     0.000 C 
BRANCH   2   3
ATOM      3  C   UNL     1      -1.039  10.349 -38.273  1.00  0.00     0.006 C 
BRANCH   3   4
ATOM      4  C   UNL     1       0.385  10.912 -38.282  1.00  0.00     0.053 C 
BRANCH   4   5
ATOM      5  C   UNL     1       0.390  12.334 -37.818  1.00  0.00     0.041 C 
ATOM      6  O   UNL     1       1.218  13.154 -38.296  1.00  0.00    -0.550 OA
ATOM      7  O   UNL     1      -0.553  12.766 -36.893  1.00  0.00    -0.550 OA
ENDBRANCH   4   5
ENDBRANCH   3   4
ENDBRANCH   2   3
ENDBRANCH   1   2
BRANCH   1   8
ATOM      8  C   UNL     1      -3.150   9.281 -39.693  1.00  0.00     0.000 C 
BRANCH   8   9
ATOM      9  C   UNL     1      -4.474   8.957 -38.977  1.00  0.00     0.006 C 
BRANCH   9  10
ATOM     10  C   UNL     1      -5.709   9.344 -39.799  1.00  0.00     0.053 C 
BRANCH  10  11
ATOM     11  C   UNL     1      -6.906   8.573 -39.339  1.00  0.00     0.041 C 
ATOM     12  O   UNL     1      -7.204   7.479 -39.888  1.00  0.00    -0.550 OA
ATOM     13  O   UNL     1      -7.664   9.037 -38.272  1.00  0.00    -0.550 OA
ENDBRANCH  10  11
ENDBRANCH   9  10
ENDBRANCH   8   9
ENDBRANCH   1   8
TORSDOF 8
ENDMDL
MODEL 2
REMARK VINA RESULT:    -5.369      0.126      6.897
REMARK INTER + INTRA:          -8.153
REMARK INTER:                  -7.891
REMARK INTRA:                  -0.262
REMARK UNBOUND:                -0.274
REMARK SMILES O=C([O-])CCCCCCCC(=O)[O-]
REMARK SMILES IDX 7 1 6 2 5 3 4 4 2 5 1 6 3 7 8 8 9 9 10 10 11 11 12 12 13 13
REMARK H PARENT
REMARK Flexibility Score: inf
ROOT
ATOM      1  C   UNL     1      -2.127   8.292 -39.470  1.00  0.00     0.000 C 
ENDROOT
BRANCH   1   2
ATOM      2  C   UNL     1      -3.226   9.349 -39.649  1.00  0.00     0.000 C 
BRANCH   2   3
ATOM      3  C   UNL     1      -4.519   8.923 -38.943  1.00  0.00     0.006 C 
BRANCH   3   4
ATOM      4  C   UNL     1      -5.749   9.307 -39.771  1.00  0.00     0.053 C 
BRANCH   4   5
ATOM      5  C   UNL     1      -6.947   8.535 -39.318  1.00  0.00     0.041 C 
ATOM      6  O   UNL     1      -7.674   8.977 -38.390  1.00  0.00    -0.550 OA
ATOM      7  O   UNL     1      -7.291   7.349 -39.956  1.00  0.00    -0.550 OA
ENDBRANCH   4   5
ENDBRANCH   3   4
ENDBRANCH   2   3
ENDBRANCH   1   2
BRANCH   1   8
ATOM      8  C   UNL     1      -0.969   8.774 -38.578  1.00  0.00     0.000 C 
BRANCH   8   9
ATOM      9  C   UNL     1      -0.969  10.283 -38.273  1.00  0.00     0.006 C 
BRANCH   9  10
ATOM     10  C   UNL     1       0.439  10.891 -38.259  1.00  0.00     0.053 C 
BRANCH  10  11
ATOM     11  C   UNL     1       0.381  12.335 -37.873  1.00  0.00     0.041 C 
ATOM     12  O   UNL     1       1.227  13.148 -38.333  1.00  0.00    -0.550 OA
ATOM     13  O   UNL     1      -0.636  12.794 -37.046  1.00  0.00    -0.550 OA
ENDBRANCH  10  11
ENDBRANCH   9  10
ENDBRANCH   8   9
ENDBRANCH   1   8
TORSDOF 8
ENDMDL
MODEL 3
REMARK VINA RESULT:    -5.328      1.193      1.470
REMARK INTER + INTRA:          -8.093
REMARK INTER:                  -7.853
REMARK INTRA:                  -0.240
REMARK UNBOUND:                -0.274
REMARK SMILES O=C([O-])CCCCCCCC(=O)[O-]
REMARK SMILES IDX 7 1 6 2 5 3 4 4 2 5 1 6 3 7 8 8 9 9 10 10 11 11 12 12 13 13
REMARK H PARENT
REMARK Flexibility Score: inf
ROOT
ATOM      1  C   UNL     1      -2.027   9.735 -38.259  1.00  0.00     0.000 C 
ENDROOT
BRANCH   1   2
ATOM      2  C   UNL     1      -0.492   9.768 -38.249  1.00  0.00     0.000 C 
BRANCH   2   3
ATOM      3  C   UNL     1       0.031  11.169 -38.587  1.00  0.00     0.006 C 
BRANCH   3   4
ATOM      4  C   UNL     1       0.247  11.997 -37.317  1.00  0.00     0.053 C 
BRANCH   4   5
ATOM      5  C   UNL     1      -0.959  12.832 -37.025  1.00  0.00     0.041 C 
ATOM      6  O   UNL     1      -1.217  13.843 -37.732  1.00  0.00    -0.550 OA
ATOM      7  O   UNL     1      -1.827  12.467 -36.003  1.00  0.00    -0.550 OA
ENDBRANCH   4   5
ENDBRANCH   3   4
ENDBRANCH   2   3
ENDBRANCH   1   2
BRANCH   1   8
ATOM      8  C   UNL     1      -2.602   8.952 -39.454  1.00  0.00     0.000 C 
BRANCH   8   9
ATOM      9  C   UNL     1      -4.020   9.372 -39.883  1.00  0.00     0.006 C 
BRANCH   9  10
ATOM     10  C   UNL     1      -5.107   8.891 -38.915  1.00  0.00     0.053 C 
BRANCH  10  11
ATOM     11  C   UNL     1      -6.454   8.967 -39.560  1.00  0.00     0.041 C 
ATOM     12  O   UNL     1      -7.061   7.913 -39.887  1.00  0.00    -0.550 OA
ATOM     13  O   UNL     1      -7.062  10.200 -39.758  1.00  0.00    -0.550 OA
ENDBRANCH  10  11
ENDBRANCH   9  10
ENDBRANCH   8   9
ENDBRANCH   1   8
TORSDOF 8
ENDMDL
MODEL 4
REMARK VINA RESULT:    -5.132      3.634      4.908
REMARK INTER + INTRA:          -7.806
REMARK INTER:                  -7.394
REMARK INTRA:                  -0.413
REMARK UNBOUND:                -0.274
REMARK SMILES O=C([O-])CCCCCCCC(=O)[O-]
REMARK SMILES IDX 7 1 6 2 5 3 4 4 2 5 1 6 3 7 8 8 9 9 10 10 11 11 12 12 13 13
REMARK H PARENT
REMARK Flexibility Score: inf
ROOT
ATOM      1  C   UNL     1      -1.963   9.307 -38.638  1.00  0.00     0.000 C 
ENDROOT
BRANCH   1   2
ATOM      2  C   UNL     1      -0.572   9.652 -38.087  1.00  0.00     0.000 C 
BRANCH   2   3
ATOM      3  C   UNL     1      -0.091  11.009 -38.616  1.00  0.00     0.006 C 
BRANCH   3   4
ATOM      4  C   UNL     1       0.239  11.962 -37.464  1.00  0.00     0.053 C 
BRANCH   4   5
ATOM      5  C   UNL     1      -0.957  12.783 -37.103  1.00  0.00     0.041 C 
ATOM      6  O   UNL     1      -1.215  13.842 -37.735  1.00  0.00    -0.550 OA
ATOM      7  O   UNL     1      -1.819  12.354 -36.101  1.00  0.00    -0.550 OA
ENDBRANCH   4   5
ENDBRANCH   3   4
ENDBRANCH   2   3
ENDBRANCH   1   2
BRANCH   1   8
ATOM      8  C   UNL     1      -1.909   8.395 -39.876  1.00  0.00     0.000 C 
BRANCH   8   9
ATOM      9  C   UNL     1      -0.674   7.479 -39.956  1.00  0.00     0.006 C 
BRANCH   9  10
ATOM     10  C   UNL     1      -0.010   7.487 -41.338  1.00  0.00     0.053 C 
BRANCH  10  11
ATOM     11  C   UNL     1       0.605   6.155 -41.629  1.00  0.00     0.041 C 
ATOM     12  O   UNL     1       1.617   6.075 -42.376  1.00  0.00    -0.550 OA
ATOM     13  O   UNL     1       0.094   5.008 -41.038  1.00  0.00    -0.550 OA
ENDBRANCH  10  11
ENDBRANCH   9  10
ENDBRANCH   8   9
ENDBRANCH   1   8
TORSDOF 8
ENDMDL
MODEL 5
REMARK VINA RESULT:    -5.124      3.738      6.270
REMARK INTER + INTRA:          -7.793
REMARK INTER:                  -7.655
REMARK INTRA:                  -0.139
REMARK UNBOUND:                -0.274
REMARK SMILES O=C([O-])CCCCCCCC(=O)[O-]
REMARK SMILES IDX 7 1 6 2 5 3 4 4 2 5 1 6 3 7 8 8 9 9 10 10 11 11 12 12 13 13
REMARK H PARENT
REMARK Flexibility Score: inf
ROOT
ATOM      1  C   UNL     1      -1.857   9.163 -38.705  1.00  0.00     0.000 C 
ENDROOT
BRANCH   1   2
ATOM      2  C   UNL     1      -0.666   8.297 -39.143  1.00  0.00     0.000 C 
BRANCH   2   3
ATOM      3  C   UNL     1      -1.021   7.456 -40.375  1.00  0.00     0.006 C 
BRANCH   3   4
ATOM      4  C   UNL     1       0.121   7.464 -41.394  1.00  0.00     0.053 C 
BRANCH   4   5
ATOM      5  C   UNL     1       0.713   6.097 -41.528  1.00  0.00     0.041 C 
ATOM      6  O   UNL     1       1.840   5.943 -42.068  1.00  0.00    -0.550 OA
ATOM      7  O   UNL     1       0.041   4.995 -41.013  1.00  0.00    -0.550 OA
ENDBRANCH   4   5
ENDBRANCH   3   4
ENDBRANCH   2   3
ENDBRANCH   1   2
BRANCH   1   8
ATOM      8  C   UNL     1      -1.475  10.636 -38.472  1.00  0.00     0.000 C 
BRANCH   8   9
ATOM      9  C   UNL     1       0.003  10.875 -38.112  1.00  0.00     0.006 C 
BRANCH   9  10
ATOM     10  C   UNL     1       0.298  12.329 -37.725  1.00  0.00     0.053 C 
BRANCH  10  11
ATOM     11  C   UNL     1      -0.929  12.981 -37.170  1.00  0.00     0.041 C 
ATOM     12  O   UNL     1      -1.388  12.621 -36.054  1.00  0.00    -0.550 OA
ATOM     13  O   UNL     1      -1.537  14.021 -37.862  1.00  0.00    -0.550 OA
ENDBRANCH  10  11
ENDBRANCH   9  10
ENDBRANCH   8   9
ENDBRANCH   1   8
TORSDOF 8
ENDMDL
MODEL 6
REMARK VINA RESULT:    -5.067      3.456      4.248
REMARK INTER + INTRA:          -7.710
REMARK INTER:                  -7.426
REMARK INTRA:                  -0.284
REMARK UNBOUND:                -0.274
REMARK SMILES O=C([O-])CCCCCCCC(=O)[O-]
REMARK SMILES IDX 7 1 6 2 5 3 4 4 2 5 1 6 3 7 8 8 9 9 10 10 11 11 12 12 13 13
REMARK H PARENT
REMARK Flexibility Score: inf
ROOT
ATOM      1  C   UNL     1      -2.001   9.371 -38.554  1.00  0.00     0.000 C 
ENDROOT
BRANCH   1   2
ATOM      2  C   UNL     1      -0.702   8.830 -39.170  1.00  0.00     0.000 C 
BRANCH   2   3
ATOM      3  C   UNL     1      -0.960   7.533 -39.947  1.00  0.00     0.006 C 
BRANCH   3   4
ATOM      4  C   UNL     1      -0.128   7.487 -41.231  1.00  0.00     0.053 C 
BRANCH   4   5
ATOM      5  C   UNL     1       0.560   6.166 -41.364  1.00  0.00     0.041 C 
ATOM      6  O   UNL     1       1.753   6.109 -41.764  1.00  0.00    -0.550 OA
ATOM      7  O   UNL     1      -0.099   4.999 -40.997  1.00  0.00    -0.550 OA
ENDBRANCH   4   5
ENDBRANCH   3   4
ENDBRANCH   2   3
ENDBRANCH   1   2
BRANCH   1   8
ATOM      8  C   UNL     1      -3.191   9.328 -39.530  1.00  0.00     0.000 C 
BRANCH   8   9
ATOM      9  C   UNL     1      -4.528   8.889 -38.906  1.00  0.00     0.006 C 
BRANCH   9  10
ATOM     10  C   UNL     1      -5.746   9.322 -39.732  1.00  0.00     0.053 C 
BRANCH  10  11
ATOM     11  C   UNL     1      -6.967   8.580 -39.290  1.00  0.00     0.041 C 
ATOM     12  O   UNL     1      -7.713   9.063 -38.397  1.00  0.00    -0.550 OA
ATOM     13  O   UNL     1      -7.310   7.380 -39.899  1.00  0.00    -0.550 OA
ENDBRANCH  10  11
ENDBRANCH   9  10
ENDBRANCH   8   9
ENDBRANCH   1   8
TORSDOF 8
ENDMDL
MODEL 7
REMARK VINA RESULT:    -5.063      3.502      6.809
REMARK INTER + INTRA:          -7.705
REMARK INTER:                  -7.419
REMARK INTRA:                  -0.286
REMARK UNBOUND:                -0.274
REMARK SMILES O=C([O-])CCCCCCCC(=O)[O-]
REMARK SMILES IDX 7 1 6 2 5 3 4 4 2 5 1 6 3 7 8 8 9 9 10 10 11 11 12 12 13 13
REMARK H PARENT
REMARK Flexibility Score: inf
ROOT
ATOM      1  C   UNL     1      -2.049   9.262 -38.499  1.00  0.00     0.000 C 
ENDROOT
BRANCH   1   2
ATOM      2  C   UNL     1      -3.182   9.410 -39.525  1.00  0.00     0.000 C 
BRANCH   2   3
ATOM      3  C   UNL     1      -4.471   8.751 -39.020  1.00  0.00     0.006 C 
BRANCH   3   4
ATOM      4  C   UNL     1      -5.702   9.361 -39.696  1.00  0.00     0.053 C 
BRANCH   4   5
ATOM      5  C   UNL     1      -6.937   8.609 -39.312  1.00  0.00     0.041 C 
ATOM      6  O   UNL     1      -7.211   7.513 -39.868  1.00  0.00    -0.550 OA
ATOM      7  O   UNL     1      -7.761   9.095 -38.303  1.00  0.00    -0.550 OA
ENDBRANCH   4   5
ENDBRANCH   3   4
ENDBRANCH   2   3
ENDBRANCH   1   2
BRANCH   1   8
ATOM      8  C   UNL     1      -0.750   8.711 -39.114  1.00  0.00     0.000 C 
BRANCH   8   9
ATOM      9  C   UNL     1      -0.935   7.496 -40.041  1.00  0.00     0.006 C 
BRANCH   9  10
ATOM     10  C   UNL     1       0.002   7.521 -41.255  1.00  0.00     0.053 C 
BRANCH  10  11
ATOM     11  C   UNL     1       0.622   6.176 -41.465  1.00  0.00     0.041 C 
ATOM     12  O   UNL     1       1.728   6.074 -42.060  1.00  0.00    -0.550 OA
ATOM     13  O   UNL     1       0.004   5.039 -40.961  1.00  0.00    -0.550 OA
ENDBRANCH  10  11
ENDBRANCH   9  10
ENDBRANCH   8   9
ENDBRANCH   1   8
TORSDOF 8
ENDMDL
MODEL 8
REMARK VINA RESULT:    -4.604      1.975      7.654
REMARK INTER + INTRA:          -7.030
REMARK INTER:                  -6.792
REMARK INTRA:                  -0.238
REMARK UNBOUND:                -0.274
REMARK SMILES O=C([O-])CCCCCCCC(=O)[O-]
REMARK SMILES IDX 7 1 6 2 5 3 4 4 2 5 1 6 3 7 8 8 9 9 10 10 11 11 12 12 13 13
REMARK H PARENT
REMARK Flexibility Score: inf
ROOT
ATOM      1  C   UNL     1      -5.393   9.271 -39.610  1.00  0.00     0.000 C 
ENDROOT
BRANCH   1   2
ATOM      2  C   UNL     1      -6.665   8.705 -38.962  1.00  0.00     0.000 C 
BRANCH   2   3
ATOM      3  C   UNL     1      -6.888   7.244 -39.372  1.00  0.00     0.006 C 
BRANCH   3   4
ATOM      4  C   UNL     1      -7.376   7.148 -40.820  1.00  0.00     0.053 C 
BRANCH   4   5
ATOM      5  C   UNL     1      -7.821   5.754 -41.132  1.00  0.00     0.041 C 
ATOM      6  O   UNL     1      -7.737   5.310 -42.307  1.00  0.00    -0.550 OA
ATOM      7  O   UNL     1      -8.282   4.928 -40.114  1.00  0.00    -0.550 OA
ENDBRANCH   4   5
ENDBRANCH   3   4
ENDBRANCH   2   3
ENDBRANCH   1   2
BRANCH   1   8
ATOM      8  C   UNL     1      -4.124   8.993 -38.785  1.00  0.00     0.000 C 
BRANCH   8   9
ATOM      9  C   UNL     1      -2.798   9.217 -39.535  1.00  0.00     0.006 C 
BRANCH   9  10
ATOM     10  C   UNL     1      -1.565   8.989 -38.653  1.00  0.00     0.053 C 
BRANCH  10  11
ATOM     11  C   UNL     1      -0.960  10.297 -38.254  1.00  0.00     0.041 C 
ATOM     12  O   UNL     1      -1.603  11.096 -37.522  1.00  0.00    -0.550 OA
ATOM     13  O   UNL     1       0.334  10.615 -38.648  1.00  0.00    -0.550 OA
ENDBRANCH  10  11
ENDBRANCH   9  10
ENDBRANCH   8   9
ENDBRANCH   1   8
TORSDOF 8
ENDMDL
MODEL 9
REMARK VINA RESULT:    -4.278      3.931      6.652
REMARK INTER + INTRA:          -6.553
REMARK INTER:                  -6.567
REMARK INTRA:                   0.014
REMARK UNBOUND:                -0.274
REMARK SMILES O=C([O-])CCCCCCCC(=O)[O-]
REMARK SMILES IDX 7 1 6 2 5 3 4 4 2 5 1 6 3 7 8 8 9 9 10 10 11 11 12 12 13 13
REMARK H PARENT
REMARK Flexibility Score: inf
ROOT
ATOM      1  C   UNL     1      -2.049   8.070 -39.697  1.00  0.00     0.000 C 
ENDROOT
BRANCH   1   2
ATOM      2  C   UNL     1      -0.639   7.505 -39.920  1.00  0.00     0.000 C 
BRANCH   2   3
ATOM      3  C   UNL     1      -0.005   8.092 -41.188  1.00  0.00     0.006 C 
BRANCH   3   4
ATOM      4  C   UNL     1       0.256   7.001 -42.228  1.00  0.00     0.053 C 
BRANCH   4   5
ATOM      5  C   UNL     1       0.835   5.784 -41.578  1.00  0.00     0.041 C 
ATOM      6  O   UNL     1       0.078   4.888 -41.121  1.00  0.00    -0.550 OA
ATOM      7  O   UNL     1       2.214   5.616 -41.521  1.00  0.00    -0.550 OA
ENDBRANCH   4   5
ENDBRANCH   3   4
ENDBRANCH   2   3
ENDBRANCH   1   2
BRANCH   1   8
ATOM      8  C   UNL     1      -2.040   9.500 -39.128  1.00  0.00     0.000 C 
BRANCH   8   9
ATOM      9  C   UNL     1      -0.828   9.839 -38.242  1.00  0.00     0.006 C 
BRANCH   9  10
ATOM     10  C   UNL     1      -0.703  11.339 -37.946  1.00  0.00     0.053 C 
BRANCH  10  11
ATOM     11  C   UNL     1       0.736  11.749 -37.923  1.00  0.00     0.041 C 
ATOM     12  O   UNL     1       1.109  12.785 -38.534  1.00  0.00    -0.550 OA
ATOM     13  O   UNL     1       1.656  11.015 -37.185  1.00  0.00    -0.550 OA
ENDBRANCH  10  11
ENDBRANCH   9  10
ENDBRANCH   8   9
ENDBRANCH   1   8
TORSDOF 8
ENDMDL
