MODEL 1
REMARK VINA RESULT:    -7.155      0.000      0.000
REMARK INTER + INTRA:          -8.494
REMARK INTER:                  -8.200
REMARK INTRA:                  -0.294
REMARK UNBOUND:                -0.294
REMARK SMILES O=C1C[C@@H](c2ccc(O)cc2)Oc2cc(O)cc(O)c21
REMARK SMILES IDX 3 1 4 2 12 3 13 4 14 5 15 6 17 7 18 8 20 9 2 10 1 11 5 12
REMARK SMILES IDX 6 13 11 14 7 15 10 16 8 17 9 18 19 20 16 22
REMARK H PARENT 9 19 19 21 16 23
REMARK Flexibility Score: inf
ROOT
ATOM      1  C   UNL     1      -5.335  13.940   6.436  1.00  0.00     0.131 C 
ATOM      2  C   UNL     1      -5.061  14.823   7.661  1.00  0.00     0.211 C 
ATOM      3  O   UNL     1      -5.871  16.002   7.624  1.00  0.00    -0.484 OA
ATOM      4  C   UNL     1      -7.205  15.989   7.193  1.00  0.00     0.138 A 
ATOM      5  C   UNL     1      -8.008  17.103   7.445  1.00  0.00     0.093 A 
ATOM      6  C   UNL     1      -9.346  17.113   7.040  1.00  0.00     0.123 A 
ATOM      7  C   UNL     1      -9.872  16.015   6.356  1.00  0.00     0.093 A 
ATOM      8  C   UNL     1      -9.074  14.904   6.058  1.00  0.00     0.133 A 
ATOM      9  C   UNL     1      -7.728  14.870   6.509  1.00  0.00     0.102 A 
ATOM     10  C   UNL     1      -6.814  13.718   6.313  1.00  0.00     0.174 C 
ATOM     11  O   UNL     1      -7.248  12.554   6.100  1.00  0.00    -0.294 OA
ENDROOT
BRANCH   2  12
ATOM     12  C   UNL     1      -3.601  15.201   7.729  1.00  0.00    -0.007 A 
ATOM     13  C   UNL     1      -2.781  14.710   8.762  1.00  0.00     0.011 A 
ATOM     14  C   UNL     1      -3.057  16.093   6.790  1.00  0.00     0.011 A 
ATOM     15  C   UNL     1      -1.438  15.088   8.838  1.00  0.00     0.046 A 
ATOM     16  C   UNL     1      -1.712  16.469   6.868  1.00  0.00     0.046 A 
ATOM     17  C   UNL     1      -0.899  15.966   7.892  1.00  0.00     0.115 A 
BRANCH  17  18
ATOM     18  O   UNL     1       0.442  16.332   7.981  1.00  0.00    -0.508 OA
ATOM     19  H   UNL     1       1.176  15.638   8.073  1.00  0.00     0.293 HD
ENDBRANCH  17  18
ENDBRANCH   2  12
BRANCH   8  20
ATOM     20  O   UNL     1      -9.648  13.888   5.290  1.00  0.00    -0.507 OA
ATOM     21  H   UNL     1     -10.076  13.060   5.678  1.00  0.00     0.293 HD
ENDBRANCH   8  20
BRANCH   6  22
ATOM     22  O   UNL     1     -10.160  18.212   7.306  1.00  0.00    -0.508 OA
ATOM     23  H   UNL     1     -11.170  18.129   7.332  1.00  0.00     0.293 HD
ENDBRANCH   6  22
TORSDOF 4
ENDMDL
MODEL 2
REMARK VINA RESULT:    -7.105      0.080      1.086
REMARK INTER + INTRA:          -8.438
REMARK INTER:                  -8.143
REMARK INTRA:                  -0.294
REMARK UNBOUND:                -0.294
REMARK SMILES O=C1C[C@@H](c2ccc(O)cc2)Oc2cc(O)cc(O)c21
REMARK SMILES IDX 3 1 4 2 12 3 13 4 14 5 15 6 17 7 18 8 20 9 2 10 1 11 5 12
REMARK SMILES IDX 6 13 11 14 7 15 10 16 8 17 9 18 19 20 16 22
REMARK H PARENT 9 19 19 21 16 23
REMARK Flexibility Score: inf
ROOT
ATOM      1  C   UNL     1      -5.371  13.936   6.485  1.00  0.00     0.131 C 
ATOM      2  C   UNL     1      -5.125  14.835   7.705  1.00  0.00     0.211 C 
ATOM      3  O   UNL     1      -5.947  16.004   7.643  1.00  0.00    -0.484 OA
ATOM      4  C   UNL     1      -7.274  15.972   7.190  1.00  0.00     0.138 A 
ATOM      5  C   UNL     1      -8.092  17.081   7.417  1.00  0.00     0.093 A 
ATOM      6  C   UNL     1      -9.424  17.072   6.991  1.00  0.00     0.123 A 
ATOM      7  C   UNL     1      -9.927  15.962   6.311  1.00  0.00     0.093 A 
ATOM      8  C   UNL     1      -9.113  14.856   6.038  1.00  0.00     0.133 A 
ATOM      9  C   UNL     1      -7.774  14.841   6.510  1.00  0.00     0.102 A 
ATOM     10  C   UNL     1      -6.845  13.697   6.341  1.00  0.00     0.174 C 
ATOM     11  O   UNL     1      -7.263  12.527   6.134  1.00  0.00    -0.294 OA
ENDROOT
BRANCH   2  12
ATOM     12  C   UNL     1      -3.671  15.229   7.792  1.00  0.00    -0.007 A 
ATOM     13  C   UNL     1      -3.106  16.098   6.841  1.00  0.00     0.011 A 
ATOM     14  C   UNL     1      -2.850  14.688   8.796  1.00  0.00     0.011 A 
ATOM     15  C   UNL     1      -1.752  16.435   6.908  1.00  0.00     0.046 A 
ATOM     16  C   UNL     1      -1.496  15.028   8.862  1.00  0.00     0.046 A 
ATOM     17  C   UNL     1      -0.944  15.904   7.918  1.00  0.00     0.115 A 
BRANCH  17  18
ATOM     18  O   UNL     1       0.405  16.251   7.973  1.00  0.00    -0.508 OA
ATOM     19  H   UNL     1       0.744  16.959   8.615  1.00  0.00     0.293 HD
ENDBRANCH  17  18
ENDBRANCH   2  12
BRANCH   8  20
ATOM     20  O   UNL     1      -9.664  13.826   5.271  1.00  0.00    -0.507 OA
ATOM     21  H   UNL     1     -10.430  13.243   5.576  1.00  0.00     0.293 HD
ENDBRANCH   8  20
BRANCH   6  22
ATOM     22  O   UNL     1     -10.254  18.165   7.232  1.00  0.00    -0.508 OA
ATOM     23  H   UNL     1     -10.847  18.208   8.053  1.00  0.00     0.293 HD
ENDBRANCH   6  22
TORSDOF 4
ENDMDL
MODEL 3
REMARK VINA RESULT:    -6.931      2.255      6.808
REMARK INTER + INTRA:          -8.237
REMARK INTER:                  -7.929
REMARK INTRA:                  -0.308
REMARK UNBOUND:                -0.294
REMARK SMILES O=C1C[C@@H](c2ccc(O)cc2)Oc2cc(O)cc(O)c21
REMARK SMILES IDX 3 1 4 2 12 3 13 4 14 5 15 6 17 7 18 8 20 9 2 10 1 11 5 12
REMARK SMILES IDX 6 13 11 14 7 15 10 16 8 17 9 18 19 20 16 22
REMARK H PARENT 9 19 19 21 16 23
REMARK Flexibility Score: inf
ROOT
ATOM      1  C   UNL     1      -7.226  14.613   6.535  1.00  0.00     0.131 C 
ATOM      2  C   UNL     1      -7.577  16.078   6.827  1.00  0.00     0.211 C 
ATOM      3  O   UNL     1      -7.090  16.465   8.116  1.00  0.00    -0.484 OA
ATOM      4  C   UNL     1      -5.847  16.045   8.611  1.00  0.00     0.138 A 
ATOM      5  C   UNL     1      -5.320  16.677   9.739  1.00  0.00     0.093 A 
ATOM      6  C   UNL     1      -4.077  16.290  10.248  1.00  0.00     0.123 A 
ATOM      7  C   UNL     1      -3.374  15.247   9.641  1.00  0.00     0.093 A 
ATOM      8  C   UNL     1      -3.902  14.573   8.533  1.00  0.00     0.133 A 
ATOM      9  C   UNL     1      -5.142  14.995   7.985  1.00  0.00     0.102 A 
ATOM     10  C   UNL     1      -5.761  14.402   6.774  1.00  0.00     0.174 C 
ATOM     11  O   UNL     1      -5.079  13.774   5.920  1.00  0.00    -0.294 OA
ENDROOT
BRANCH   2  12
ATOM     12  C   UNL     1      -9.068  16.295   6.752  1.00  0.00    -0.007 A 
ATOM     13  C   UNL     1      -9.651  17.460   7.284  1.00  0.00     0.011 A 
ATOM     14  C   UNL     1      -9.900  15.307   6.198  1.00  0.00     0.011 A 
ATOM     15  C   UNL     1     -11.036  17.642   7.239  1.00  0.00     0.046 A 
ATOM     16  C   UNL     1     -11.285  15.492   6.155  1.00  0.00     0.046 A 
ATOM     17  C   UNL     1     -11.856  16.661   6.675  1.00  0.00     0.115 A 
BRANCH  17  18
ATOM     18  O   UNL     1     -13.235  16.857   6.637  1.00  0.00    -0.508 OA
ATOM     19  H   UNL     1     -13.747  17.179   7.451  1.00  0.00     0.293 HD
ENDBRANCH  17  18
ENDBRANCH   2  12
BRANCH   8  20
ATOM     20  O   UNL     1      -3.182  13.481   8.043  1.00  0.00    -0.507 OA
ATOM     21  H   UNL     1      -3.362  12.522   8.304  1.00  0.00     0.293 HD
ENDBRANCH   8  20
BRANCH   6  22
ATOM     22  O   UNL     1      -3.534  16.930  11.360  1.00  0.00    -0.508 OA
ATOM     23  H   UNL     1      -3.426  17.937  11.391  1.00  0.00     0.293 HD
ENDBRANCH   6  22
TORSDOF 4
ENDMDL
MODEL 4
REMARK VINA RESULT:    -6.446      1.830      2.714
REMARK INTER + INTRA:          -7.682
REMARK INTER:                  -7.372
REMARK INTRA:                  -0.310
REMARK UNBOUND:                -0.294
REMARK SMILES O=C1C[C@@H](c2ccc(O)cc2)Oc2cc(O)cc(O)c21
REMARK SMILES IDX 3 1 4 2 12 3 13 4 14 5 15 6 17 7 18 8 20 9 2 10 1 11 5 12
REMARK SMILES IDX 6 13 11 14 7 15 10 16 8 17 9 18 19 20 16 22
REMARK H PARENT 9 19 19 21 16 23
REMARK Flexibility Score: inf
ROOT
ATOM      1  C   UNL     1      -7.479  15.446   6.292  1.00  0.00     0.131 C 
ATOM      2  C   UNL     1      -7.141  15.129   7.755  1.00  0.00     0.211 C 
ATOM      3  O   UNL     1      -7.810  16.037   8.635  1.00  0.00    -0.484 OA
ATOM      4  C   UNL     1      -9.123  16.474   8.414  1.00  0.00     0.138 A 
ATOM      5  C   UNL     1      -9.801  17.128   9.445  1.00  0.00     0.093 A 
ATOM      6  C   UNL     1     -11.117  17.561   9.260  1.00  0.00     0.123 A 
ATOM      7  C   UNL     1     -11.745  17.364   8.028  1.00  0.00     0.093 A 
ATOM      8  C   UNL     1     -11.071  16.746   6.968  1.00  0.00     0.133 A 
ATOM      9  C   UNL     1      -9.751  16.262   7.168  1.00  0.00     0.102 A 
ATOM     10  C   UNL     1      -8.969  15.531   6.140  1.00  0.00     0.174 C 
ATOM     11  O   UNL     1      -9.527  14.938   5.179  1.00  0.00    -0.294 OA
ENDROOT
BRANCH   2  12
ATOM     12  C   UNL     1      -5.650  15.192   7.983  1.00  0.00    -0.007 A 
ATOM     13  C   UNL     1      -4.795  14.243   7.394  1.00  0.00     0.011 A 
ATOM     14  C   UNL     1      -5.105  16.170   8.833  1.00  0.00     0.011 A 
ATOM     15  C   UNL     1      -3.418  14.287   7.634  1.00  0.00     0.046 A 
ATOM     16  C   UNL     1      -3.728  16.212   9.070  1.00  0.00     0.046 A 
ATOM     17  C   UNL     1      -2.881  15.271   8.469  1.00  0.00     0.115 A 
BRANCH  17  18
ATOM     18  O   UNL     1      -1.507  15.303   8.697  1.00  0.00    -0.508 OA
ATOM     19  H   UNL     1      -1.018  16.176   8.865  1.00  0.00     0.293 HD
ENDBRANCH  17  18
ENDBRANCH   2  12
BRANCH   8  20
ATOM     20  O   UNL     1     -11.735  16.671   5.741  1.00  0.00    -0.507 OA
ATOM     21  H   UNL     1     -11.806  15.829   5.188  1.00  0.00     0.293 HD
ENDBRANCH   8  20
BRANCH   6  22
ATOM     22  O   UNL     1     -11.808  18.196  10.290  1.00  0.00    -0.508 OA
ATOM     23  H   UNL     1     -11.544  18.069  11.261  1.00  0.00     0.293 HD
ENDBRANCH   6  22
TORSDOF 4
ENDMDL
MODEL 5
REMARK VINA RESULT:    -6.411      2.593      6.677
REMARK INTER + INTRA:          -7.642
REMARK INTER:                  -7.329
REMARK INTRA:                  -0.313
REMARK UNBOUND:                -0.294
REMARK SMILES O=C1C[C@@H](c2ccc(O)cc2)Oc2cc(O)cc(O)c21
REMARK SMILES IDX 3 1 4 2 12 3 13 4 14 5 15 6 17 7 18 8 20 9 2 10 1 11 5 12
REMARK SMILES IDX 6 13 11 14 7 15 10 16 8 17 9 18 19 20 16 22
REMARK H PARENT 9 19 19 21 16 23
REMARK Flexibility Score: inf
ROOT
ATOM      1  C   UNL     1      -9.697  16.021   6.903  1.00  0.00     0.131 C 
ATOM      2  C   UNL     1      -8.894  16.894   7.878  1.00  0.00     0.211 C 
ATOM      3  O   UNL     1      -7.755  16.181   8.371  1.00  0.00    -0.484 OA
ATOM      4  C   UNL     1      -6.983  15.338   7.560  1.00  0.00     0.138 A 
ATOM      5  C   UNL     1      -5.741  14.901   8.027  1.00  0.00     0.093 A 
ATOM      6  C   UNL     1      -4.942  14.072   7.235  1.00  0.00     0.123 A 
ATOM      7  C   UNL     1      -5.401  13.655   5.983  1.00  0.00     0.093 A 
ATOM      8  C   UNL     1      -6.660  14.048   5.512  1.00  0.00     0.133 A 
ATOM      9  C   UNL     1      -7.454  14.929   6.294  1.00  0.00     0.102 A 
ATOM     10  C   UNL     1      -8.769  15.466   5.864  1.00  0.00     0.174 C 
ATOM     11  O   UNL     1      -9.101  15.515   4.649  1.00  0.00    -0.294 OA
ENDROOT
BRANCH   2  12
ATOM     12  C   UNL     1      -9.760  17.342   9.029  1.00  0.00    -0.007 A 
ATOM     13  C   UNL     1      -9.183  17.724  10.254  1.00  0.00     0.011 A 
ATOM     14  C   UNL     1     -11.160  17.331   8.908  1.00  0.00     0.011 A 
ATOM     15  C   UNL     1      -9.991  18.110  11.327  1.00  0.00     0.046 A 
ATOM     16  C   UNL     1     -11.966  17.718   9.983  1.00  0.00     0.046 A 
ATOM     17  C   UNL     1     -11.382  18.109  11.195  1.00  0.00     0.115 A 
BRANCH  17  18
ATOM     18  O   UNL     1     -12.175  18.497  12.273  1.00  0.00    -0.508 OA
ATOM     19  H   UNL     1     -12.971  19.113  12.151  1.00  0.00     0.293 HD
ENDBRANCH  17  18
ENDBRANCH   2  12
BRANCH   8  20
ATOM     20  O   UNL     1      -7.085  13.513   4.294  1.00  0.00    -0.507 OA
ATOM     21  H   UNL     1      -7.709  12.724   4.211  1.00  0.00     0.293 HD
ENDBRANCH   8  20
BRANCH   6  22
ATOM     22  O   UNL     1      -3.693  13.649   7.684  1.00  0.00    -0.508 OA
ATOM     23  H   UNL     1      -3.593  13.096   8.528  1.00  0.00     0.293 HD
ENDBRANCH   6  22
TORSDOF 4
ENDMDL
MODEL 6
REMARK VINA RESULT:    -6.367      1.736      6.993
REMARK INTER + INTRA:          -7.591
REMARK INTER:                  -7.306
REMARK INTRA:                  -0.286
REMARK UNBOUND:                -0.294
REMARK SMILES O=C1C[C@@H](c2ccc(O)cc2)Oc2cc(O)cc(O)c21
REMARK SMILES IDX 3 1 4 2 12 3 13 4 14 5 15 6 17 7 18 8 20 9 2 10 1 11 5 12
REMARK SMILES IDX 6 13 11 14 7 15 10 16 8 17 9 18 19 20 16 22
REMARK H PARENT 9 19 19 21 16 23
REMARK Flexibility Score: inf
ROOT
ATOM      1  C   UNL     1      -4.317  14.392   8.130  1.00  0.00     0.131 C 
ATOM      2  C   UNL     1      -4.486  14.758   6.649  1.00  0.00     0.211 C 
ATOM      3  O   UNL     1      -3.661  15.877   6.309  1.00  0.00    -0.484 OA
ATOM      4  C   UNL     1      -2.362  16.038   6.813  1.00  0.00     0.138 A 
ATOM      5  C   UNL     1      -1.524  16.990   6.229  1.00  0.00     0.093 A 
ATOM      6  C   UNL     1      -0.219  17.164   6.700  1.00  0.00     0.123 A 
ATOM      7  C   UNL     1       0.236  16.401   7.778  1.00  0.00     0.093 A 
ATOM      8  C   UNL     1      -0.601  15.469   8.404  1.00  0.00     0.133 A 
ATOM      9  C   UNL     1      -1.910  15.256   7.898  1.00  0.00     0.102 A 
ATOM     10  C   UNL     1      -2.856  14.248   8.436  1.00  0.00     0.174 C 
ATOM     11  O   UNL     1      -2.458  13.249   9.094  1.00  0.00    -0.294 OA
ENDROOT
BRANCH   2  12
ATOM     12  C   UNL     1      -5.930  15.068   6.338  1.00  0.00    -0.007 A 
ATOM     13  C   UNL     1      -6.671  15.934   7.163  1.00  0.00     0.011 A 
ATOM     14  C   UNL     1      -6.567  14.451   5.248  1.00  0.00     0.011 A 
ATOM     15  C   UNL     1      -8.016  16.194   6.888  1.00  0.00     0.046 A 
ATOM     16  C   UNL     1      -7.913  14.713   4.975  1.00  0.00     0.046 A 
ATOM     17  C   UNL     1      -8.640  15.587   5.795  1.00  0.00     0.115 A 
BRANCH  17  18
ATOM     18  O   UNL     1      -9.982  15.856   5.533  1.00  0.00    -0.508 OA
ATOM     19  H   UNL     1     -10.654  15.978   6.282  1.00  0.00     0.293 HD
ENDBRANCH  17  18
ENDBRANCH   2  12
BRANCH   8  20
ATOM     20  O   UNL     1      -0.102  14.814   9.533  1.00  0.00    -0.507 OA
ATOM     21  H   UNL     1      -0.465  13.940   9.885  1.00  0.00     0.293 HD
ENDBRANCH   8  20
BRANCH   6  22
ATOM     22  O   UNL     1       0.631  18.096   6.110  1.00  0.00    -0.508 OA
ATOM     23  H   UNL     1       0.285  18.788   5.455  1.00  0.00     0.293 HD
ENDBRANCH   6  22
TORSDOF 4
ENDMDL
MODEL 7
REMARK VINA RESULT:    -6.104      3.016      3.497
REMARK INTER + INTRA:          -7.290
REMARK INTER:                  -6.977
REMARK INTRA:                  -0.313
REMARK UNBOUND:                -0.294
REMARK SMILES O=C1C[C@@H](c2ccc(O)cc2)Oc2cc(O)cc(O)c21
REMARK SMILES IDX 3 1 4 2 12 3 13 4 14 5 15 6 17 7 18 8 20 9 2 10 1 11 5 12
REMARK SMILES IDX 6 13 11 14 7 15 10 16 8 17 9 18 19 20 16 22
REMARK H PARENT 9 19 19 21 16 23
REMARK Flexibility Score: inf
ROOT
ATOM      1  C   UNL     1      -5.159  15.327   8.212  1.00  0.00     0.131 C 
ATOM      2  C   UNL     1      -6.139  15.619   9.356  1.00  0.00     0.211 C 
ATOM      3  O   UNL     1      -7.302  16.293   8.864  1.00  0.00    -0.484 OA
ATOM      4  C   UNL     1      -7.903  15.966   7.640  1.00  0.00     0.138 A 
ATOM      5  C   UNL     1      -9.177  16.463   7.358  1.00  0.00     0.093 A 
ATOM      6  C   UNL     1      -9.808  16.142   6.153  1.00  0.00     0.123 A 
ATOM      7  C   UNL     1      -9.148  15.344   5.216  1.00  0.00     0.093 A 
ATOM      8  C   UNL     1      -7.855  14.867   5.461  1.00  0.00     0.133 A 
ATOM      9  C   UNL     1      -7.230  15.152   6.704  1.00  0.00     0.102 A 
ATOM     10  C   UNL     1      -5.894  14.641   7.099  1.00  0.00     0.174 C 
ATOM     11  O   UNL     1      -5.389  13.618   6.563  1.00  0.00    -0.294 OA
ENDROOT
BRANCH   2  12
ATOM     12  C   UNL     1      -5.476  16.450  10.428  1.00  0.00    -0.007 A 
ATOM     13  C   UNL     1      -4.112  16.276  10.727  1.00  0.00     0.011 A 
ATOM     14  C   UNL     1      -6.229  17.369  11.178  1.00  0.00     0.011 A 
ATOM     15  C   UNL     1      -3.510  17.026  11.741  1.00  0.00     0.046 A 
ATOM     16  C   UNL     1      -5.623  18.118  12.191  1.00  0.00     0.046 A 
ATOM     17  C   UNL     1      -4.261  17.949  12.474  1.00  0.00     0.115 A 
BRANCH  17  18
ATOM     18  O   UNL     1      -3.647  18.690  13.482  1.00  0.00    -0.508 OA
ATOM     19  H   UNL     1      -2.762  19.161  13.328  1.00  0.00     0.293 HD
ENDBRANCH  17  18
ENDBRANCH   2  12
BRANCH   8  20
ATOM     20  O   UNL     1      -7.228  14.155   4.436  1.00  0.00    -0.507 OA
ATOM     21  H   UNL     1      -7.722  13.629   3.730  1.00  0.00     0.293 HD
ENDBRANCH   8  20
BRANCH   6  22
ATOM     22  O   UNL     1     -11.087  16.617   5.872  1.00  0.00    -0.508 OA
ATOM     23  H   UNL     1     -11.908  16.037   6.006  1.00  0.00     0.293 HD
ENDBRANCH   6  22
TORSDOF 4
ENDMDL
MODEL 8
REMARK VINA RESULT:    -6.070      3.631      6.428
REMARK INTER + INTRA:          -7.251
REMARK INTER:                  -6.935
REMARK INTRA:                  -0.315
REMARK UNBOUND:                -0.294
REMARK SMILES O=C1C[C@@H](c2ccc(O)cc2)Oc2cc(O)cc(O)c21
REMARK SMILES IDX 3 1 4 2 12 3 13 4 14 5 15 6 17 7 18 8 20 9 2 10 1 11 5 12
REMARK SMILES IDX 6 13 11 14 7 15 10 16 8 17 9 18 19 20 16 22
REMARK H PARENT 9 19 19 21 16 23
REMARK Flexibility Score: inf
ROOT
ATOM      1  C   UNL     1     -10.468  16.231   8.135  1.00  0.00     0.131 C 
ATOM      2  C   UNL     1     -10.424  16.136   6.603  1.00  0.00     0.211 C 
ATOM      3  O   UNL     1     -11.612  15.516   6.102  1.00  0.00    -0.484 OA
ATOM      4  C   UNL     1     -12.881  15.768   6.641  1.00  0.00     0.138 A 
ATOM      5  C   UNL     1     -14.011  15.352   5.934  1.00  0.00     0.093 A 
ATOM      6  C   UNL     1     -15.290  15.602   6.439  1.00  0.00     0.123 A 
ATOM      7  C   UNL     1     -15.436  16.246   7.669  1.00  0.00     0.093 A 
ATOM      8  C   UNL     1     -14.316  16.636   8.414  1.00  0.00     0.133 A 
ATOM      9  C   UNL     1     -13.017  16.426   7.882  1.00  0.00     0.102 A 
ATOM     10  C   UNL     1     -11.765  16.861   8.549  1.00  0.00     0.174 C 
ATOM     11  O   UNL     1     -11.757  17.780   9.412  1.00  0.00    -0.294 OA
ENDROOT
BRANCH   2  12
ATOM     12  C   UNL     1      -9.208  15.364   6.152  1.00  0.00    -0.007 A 
ATOM     13  C   UNL     1      -9.348  14.157   5.443  1.00  0.00     0.011 A 
ATOM     14  C   UNL     1      -7.919  15.816   6.485  1.00  0.00     0.011 A 
ATOM     15  C   UNL     1      -8.219  13.430   5.055  1.00  0.00     0.046 A 
ATOM     16  C   UNL     1      -6.792  15.087   6.094  1.00  0.00     0.046 A 
ATOM     17  C   UNL     1      -6.940  13.893   5.377  1.00  0.00     0.115 A 
BRANCH  17  18
ATOM     18  O   UNL     1      -5.824  13.158   4.982  1.00  0.00    -0.508 OA
ATOM     19  H   UNL     1      -5.072  12.947   5.629  1.00  0.00     0.293 HD
ENDBRANCH  17  18
ENDBRANCH   2  12
BRANCH   8  20
ATOM     20  O   UNL     1     -14.545  17.189   9.676  1.00  0.00    -0.507 OA
ATOM     21  H   UNL     1     -15.461  17.295  10.089  1.00  0.00     0.293 HD
ENDBRANCH   8  20
BRANCH   6  22
ATOM     22  O   UNL     1     -16.423  15.210   5.729  1.00  0.00    -0.508 OA
ATOM     23  H   UNL     1     -16.552  14.251   5.426  1.00  0.00     0.293 HD
ENDBRANCH   6  22
TORSDOF 4
ENDMDL
MODEL 9
REMARK VINA RESULT:    -6.043      4.133      6.480
REMARK INTER + INTRA:          -7.220
REMARK INTER:                  -6.925
REMARK INTRA:                  -0.295
REMARK UNBOUND:                -0.294
REMARK SMILES O=C1C[C@@H](c2ccc(O)cc2)Oc2cc(O)cc(O)c21
REMARK SMILES IDX 3 1 4 2 12 3 13 4 14 5 15 6 17 7 18 8 20 9 2 10 1 11 5 12
REMARK SMILES IDX 6 13 11 14 7 15 10 16 8 17 9 18 19 20 16 22
REMARK H PARENT 9 19 19 21 16 23
REMARK Flexibility Score: inf
ROOT
ATOM      1  C   UNL     1      -4.983  15.502  10.620  1.00  0.00     0.131 C 
ATOM      2  C   UNL     1      -5.871  14.254  10.718  1.00  0.00     0.211 C 
ATOM      3  O   UNL     1      -6.530  14.005   9.472  1.00  0.00    -0.484 OA
ATOM      4  C   UNL     1      -5.896  14.183   8.234  1.00  0.00     0.138 A 
ATOM      5  C   UNL     1      -6.496  13.661   7.086  1.00  0.00     0.093 A 
ATOM      6  C   UNL     1      -5.881  13.810   5.840  1.00  0.00     0.123 A 
ATOM      7  C   UNL     1      -4.676  14.509   5.740  1.00  0.00     0.093 A 
ATOM      8  C   UNL     1      -4.077  15.074   6.873  1.00  0.00     0.133 A 
ATOM      9  C   UNL     1      -4.674  14.884   8.147  1.00  0.00     0.102 A 
ATOM     10  C   UNL     1      -4.093  15.377   9.420  1.00  0.00     0.174 C 
ATOM     11  O   UNL     1      -2.865  15.640   9.531  1.00  0.00    -0.294 OA
ENDROOT
BRANCH   2  12
ATOM     12  C   UNL     1      -6.891  14.411  11.819  1.00  0.00    -0.007 A 
ATOM     13  C   UNL     1      -6.908  15.567  12.621  1.00  0.00     0.011 A 
ATOM     14  C   UNL     1      -7.803  13.377  12.091  1.00  0.00     0.011 A 
ATOM     15  C   UNL     1      -7.835  15.694  13.659  1.00  0.00     0.046 A 
ATOM     16  C   UNL     1      -8.730  13.507  13.131  1.00  0.00     0.046 A 
ATOM     17  C   UNL     1      -8.748  14.668  13.916  1.00  0.00     0.115 A 
BRANCH  17  18
ATOM     18  O   UNL     1      -9.667  14.809  14.954  1.00  0.00    -0.508 OA
ATOM     19  H   UNL     1     -10.326  14.073  15.181  1.00  0.00     0.293 HD
ENDBRANCH  17  18
ENDBRANCH   2  12
BRANCH   8  20
ATOM     20  O   UNL     1      -2.923  15.837   6.675  1.00  0.00    -0.507 OA
ATOM     21  H   UNL     1      -2.672  16.263   5.795  1.00  0.00     0.293 HD
ENDBRANCH   8  20
BRANCH   6  22
ATOM     22  O   UNL     1      -6.462  13.274   4.692  1.00  0.00    -0.508 OA
ATOM     23  H   UNL     1      -6.733  13.862   3.912  1.00  0.00     0.293 HD
ENDBRANCH   6  22
TORSDOF 4
ENDMDL
