MODEL 1
REMARK VINA RESULT:    -4.728      0.000      0.000
REMARK INTER + INTRA:         -13.118
REMARK INTER:                 -10.256
REMARK INTRA:                  -2.862
REMARK UNBOUND:                -2.862
REMARK SMILES CCCCCCCCCCCCCCCCCCCCCC(=O)[O-]
REMARK SMILES IDX 12 1 11 2 10 3 9 4 8 5 7 6 6 7 5 8 4 9 3 10 2 11 1 12 13 13
REMARK SMILES IDX 14 14 15 15 16 16 17 17 18 18 19 19 20 20 21 21 22 22 23 23
REMARK SMILES IDX 24 24
REMARK H PARENT
REMARK Flexibility Score: inf
ROOT
ATOM      1  C   UNL     1      14.138  61.490  30.311  1.00  0.00     0.000 C 
ENDROOT
BRANCH   1   2
ATOM      2  C   UNL     1      13.307  62.778  30.175  1.00  0.00     0.000 C 
BRANCH   2   3
ATOM      3  C   UNL     1      11.943  62.753  30.888  1.00  0.00     0.000 C 
BRANCH   3   4
ATOM      4  C   UNL     1      11.876  63.713  32.089  1.00  0.00    -0.000 C 
BRANCH   4   5
ATOM      5  C   UNL     1      11.565  62.985  33.414  1.00  0.00    -0.000 C 
BRANCH   5   6
ATOM      6  C   UNL     1      12.557  61.856  33.755  1.00  0.00    -0.000 C 
BRANCH   6   7
ATOM      7  C   UNL     1      11.954  60.440  33.766  1.00  0.00    -0.000 C 
BRANCH   7   8
ATOM      8  C   UNL     1      12.462  59.506  32.649  1.00  0.00    -0.000 C 
BRANCH   8   9
ATOM      9  C   UNL     1      11.364  58.900  31.753  1.00  0.00    -0.000 C 
BRANCH   9  10
ATOM     10  C   UNL     1       9.945  58.941  32.347  1.00  0.00    -0.000 C 
BRANCH  10  11
ATOM     11  C   UNL     1       9.065  60.029  31.714  1.00  0.00    -0.003 C 
ATOM     12  C   UNL     1       8.473  59.557  30.389  1.00  0.00     0.004 C 
ENDBRANCH  10  11
ENDBRANCH   9  10
ENDBRANCH   8   9
ENDBRANCH   7   8
ENDBRANCH   6   7
ENDBRANCH   5   6
ENDBRANCH   4   5
ENDBRANCH   3   4
ENDBRANCH   2   3
ENDBRANCH   1   2
BRANCH   1  13
ATOM     13  C   UNL     1      15.365  61.661  31.224  1.00  0.00     0.000 C 
BRANCH  13  14
ATOM     14  C   UNL     1      15.657  63.137  31.540  1.00  0.00     0.000 C 
BRANCH  14  15
ATOM     15  C   UNL     1      15.751  63.406  33.052  1.00  0.00     0.000 C 
BRANCH  15  16
ATOM     16  C   UNL     1      15.000  64.678  33.473  1.00  0.00     0.000 C 
BRANCH  16  17
ATOM     17  C   UNL     1      15.700  65.963  32.996  1.00  0.00     0.000 C 
BRANCH  17  18
ATOM     18  C   UNL     1      14.727  66.926  32.283  1.00  0.00     0.000 C 
BRANCH  18  19
ATOM     19  C   UNL     1      15.140  68.405  32.384  1.00  0.00     0.000 C 
BRANCH  19  20
ATOM     20  C   UNL     1      16.237  68.648  33.433  1.00  0.00     0.006 C 
BRANCH  20  21
ATOM     21  C   UNL     1      16.984  69.967  33.196  1.00  0.00     0.053 C 
BRANCH  21  22
ATOM     22  C   UNL     1      17.448  70.581  34.482  1.00  0.00     0.041 C 
ATOM     23  O   UNL     1      17.478  71.833  34.611  1.00  0.00    -0.550 OA
ATOM     24  O   UNL     1      17.880  69.771  35.525  1.00  0.00    -0.550 OA
ENDBRANCH  21  22
ENDBRANCH  20  21
ENDBRANCH  19  20
ENDBRANCH  18  19
ENDBRANCH  17  18
ENDBRANCH  16  17
ENDBRANCH  15  16
ENDBRANCH  14  15
ENDBRANCH  13  14
ENDBRANCH   1  13
TORSDOF 20
ENDMDL
MODEL 2
REMARK VINA RESULT:    -4.527      3.883      6.371
REMARK INTER + INTRA:         -12.682
REMARK INTER:                  -9.972
REMARK INTRA:                  -2.710
REMARK UNBOUND:                -2.862
REMARK SMILES CCCCCCCCCCCCCCCCCCCCCC(=O)[O-]
REMARK SMILES IDX 12 1 11 2 10 3 9 4 8 5 7 6 6 7 5 8 4 9 3 10 2 11 1 12 13 13
REMARK SMILES IDX 14 14 15 15 16 16 17 17 18 18 19 19 20 20 21 21 22 22 23 23
REMARK SMILES IDX 24 24
REMARK H PARENT
REMARK Flexibility Score: inf
ROOT
ATOM      1  C   UNL     1      18.145  65.178  38.398  1.00  0.00     0.000 C 
ENDROOT
BRANCH   1   2
ATOM      2  C   UNL     1      16.997  65.632  37.479  1.00  0.00     0.000 C 
BRANCH   2   3
ATOM      3  C   UNL     1      17.185  65.302  35.988  1.00  0.00     0.000 C 
BRANCH   3   4
ATOM      4  C   UNL     1      16.344  66.200  35.063  1.00  0.00    -0.000 C 
BRANCH   4   5
ATOM      5  C   UNL     1      16.403  65.752  33.587  1.00  0.00    -0.000 C 
BRANCH   5   6
ATOM      6  C   UNL     1      15.081  65.951  32.821  1.00  0.00    -0.000 C 
BRANCH   6   7
ATOM      7  C   UNL     1      14.082  64.784  32.930  1.00  0.00    -0.000 C 
BRANCH   7   8
ATOM      8  C   UNL     1      14.721  63.381  32.959  1.00  0.00    -0.000 C 
BRANCH   8   9
ATOM      9  C   UNL     1      13.991  62.313  32.120  1.00  0.00    -0.000 C 
BRANCH   9  10
ATOM     10  C   UNL     1      13.558  62.772  30.717  1.00  0.00    -0.000 C 
BRANCH  10  11
ATOM     11  C   UNL     1      12.038  62.949  30.591  1.00  0.00    -0.003 C 
ATOM     12  C   UNL     1      11.303  62.197  31.698  1.00  0.00     0.004 C 
ENDBRANCH  10  11
ENDBRANCH   9  10
ENDBRANCH   8   9
ENDBRANCH   7   8
ENDBRANCH   6   7
ENDBRANCH   5   6
ENDBRANCH   4   5
ENDBRANCH   3   4
ENDBRANCH   2   3
ENDBRANCH   1   2
BRANCH   1  13
ATOM     13  C   UNL     1      19.537  65.478  37.813  1.00  0.00     0.000 C 
BRANCH  13  14
ATOM     14  C   UNL     1      20.537  65.932  38.888  1.00  0.00     0.000 C 
BRANCH  14  15
ATOM     15  C   UNL     1      19.839  66.477  40.146  1.00  0.00     0.000 C 
BRANCH  15  16
ATOM     16  C   UNL     1      19.892  68.010  40.232  1.00  0.00     0.000 C 
BRANCH  16  17
ATOM     17  C   UNL     1      18.491  68.649  40.245  1.00  0.00     0.000 C 
BRANCH  17  18
ATOM     18  C   UNL     1      17.963  68.923  38.821  1.00  0.00     0.000 C 
BRANCH  18  19
ATOM     19  C   UNL     1      19.062  69.330  37.825  1.00  0.00     0.000 C 
BRANCH  19  20
ATOM     20  C   UNL     1      18.785  68.839  36.395  1.00  0.00     0.006 C 
BRANCH  20  21
ATOM     21  C   UNL     1      17.421  69.310  35.873  1.00  0.00     0.053 C 
BRANCH  21  22
ATOM     22  C   UNL     1      17.518  69.857  34.482  1.00  0.00     0.041 C 
ATOM     23  O   UNL     1      17.906  69.121  33.537  1.00  0.00    -0.550 OA
ATOM     24  O   UNL     1      17.214  71.190  34.235  1.00  0.00    -0.550 OA
ENDBRANCH  21  22
ENDBRANCH  20  21
ENDBRANCH  19  20
ENDBRANCH  18  19
ENDBRANCH  17  18
ENDBRANCH  16  17
ENDBRANCH  15  16
ENDBRANCH  14  15
ENDBRANCH  13  14
ENDBRANCH   1  13
TORSDOF 20
ENDMDL
MODEL 3
REMARK VINA RESULT:    -4.504      5.079      9.541
REMARK INTER + INTRA:         -12.632
REMARK INTER:                 -10.082
REMARK INTRA:                  -2.550
REMARK UNBOUND:                -2.862
REMARK SMILES CCCCCCCCCCCCCCCCCCCCCC(=O)[O-]
REMARK SMILES IDX 12 1 11 2 10 3 9 4 8 5 7 6 6 7 5 8 4 9 3 10 2 11 1 12 13 13
REMARK SMILES IDX 14 14 15 15 16 16 17 17 18 18 19 19 20 20 21 21 22 22 23 23
REMARK SMILES IDX 24 24
REMARK H PARENT
REMARK Flexibility Score: inf
ROOT
ATOM      1  C   UNL     1      18.131  68.654  36.989  1.00  0.00     0.000 C 
ENDROOT
BRANCH   1   2
ATOM      2  C   UNL     1      18.442  69.424  38.285  1.00  0.00     0.000 C 
BRANCH   2   3
ATOM      3  C   UNL     1      17.956  68.747  39.579  1.00  0.00     0.000 C 
BRANCH   3   4
ATOM      4  C   UNL     1      18.987  68.822  40.719  1.00  0.00    -0.000 C 
BRANCH   4   5
ATOM      5  C   UNL     1      20.250  67.981  40.435  1.00  0.00    -0.000 C 
BRANCH   5   6
ATOM      6  C   UNL     1      20.134  66.510  40.880  1.00  0.00    -0.000 C 
BRANCH   6   7
ATOM      7  C   UNL     1      19.911  65.500  39.739  1.00  0.00    -0.000 C 
BRANCH   7   8
ATOM      8  C   UNL     1      20.277  66.014  38.332  1.00  0.00    -0.000 C 
BRANCH   8   9
ATOM      9  C   UNL     1      19.626  65.247  37.165  1.00  0.00    -0.000 C 
BRANCH   9  10
ATOM     10  C   UNL     1      18.104  65.054  37.283  1.00  0.00    -0.000 C 
BRANCH  10  11
ATOM     11  C   UNL     1      17.662  63.612  36.992  1.00  0.00    -0.003 C 
ATOM     12  C   UNL     1      17.841  62.723  38.220  1.00  0.00     0.004 C 
ENDBRANCH  10  11
ENDBRANCH   9  10
ENDBRANCH   8   9
ENDBRANCH   7   8
ENDBRANCH   6   7
ENDBRANCH   5   6
ENDBRANCH   4   5
ENDBRANCH   3   4
ENDBRANCH   2   3
ENDBRANCH   1   2
BRANCH   1  13
ATOM     13  C   UNL     1      18.663  69.360  35.729  1.00  0.00     0.000 C 
BRANCH  13  14
ATOM     14  C   UNL     1      17.532  69.932  34.859  1.00  0.00     0.000 C 
BRANCH  14  15
ATOM     15  C   UNL     1      17.339  69.140  33.553  1.00  0.00     0.000 C 
BRANCH  15  16
ATOM     16  C   UNL     1      15.917  68.577  33.410  1.00  0.00     0.000 C 
BRANCH  16  17
ATOM     17  C   UNL     1      15.598  67.501  34.464  1.00  0.00     0.000 C 
BRANCH  17  18
ATOM     18  C   UNL     1      16.400  66.203  34.231  1.00  0.00     0.000 C 
BRANCH  18  19
ATOM     19  C   UNL     1      15.868  65.353  33.064  1.00  0.00     0.000 C 
BRANCH  19  20
ATOM     20  C   UNL     1      14.333  65.292  33.020  1.00  0.00     0.006 C 
BRANCH  20  21
ATOM     21  C   UNL     1      13.807  63.852  33.073  1.00  0.00     0.053 C 
BRANCH  21  22
ATOM     22  C   UNL     1      12.934  63.536  31.897  1.00  0.00     0.041 C 
ATOM     23  O   UNL     1      11.697  63.764  31.948  1.00  0.00    -0.550 OA
ATOM     24  O   UNL     1      13.480  62.957  30.758  1.00  0.00    -0.550 OA
ENDBRANCH  21  22
ENDBRANCH  20  21
ENDBRANCH  19  20
ENDBRANCH  18  19
ENDBRANCH  17  18
ENDBRANCH  16  17
ENDBRANCH  15  16
ENDBRANCH  14  15
ENDBRANCH  13  14
ENDBRANCH   1  13
TORSDOF 20
ENDMDL
MODEL 4
REMARK VINA RESULT:    -4.491      3.226      5.613
REMARK INTER + INTRA:         -12.604
REMARK INTER:                 -10.826
REMARK INTRA:                  -1.779
REMARK UNBOUND:                -2.862
REMARK SMILES CCCCCCCCCCCCCCCCCCCCCC(=O)[O-]
REMARK SMILES IDX 12 1 11 2 10 3 9 4 8 5 7 6 6 7 5 8 4 9 3 10 2 11 1 12 13 13
REMARK SMILES IDX 14 14 15 15 16 16 17 17 18 18 19 19 20 20 21 21 22 22 23 23
REMARK SMILES IDX 24 24
REMARK H PARENT
REMARK Flexibility Score: inf
ROOT
ATOM      1  C   UNL     1      15.419  69.279  32.385  1.00  0.00     0.000 C 
ENDROOT
BRANCH   1   2
ATOM      2  C   UNL     1      14.940  67.822  32.264  1.00  0.00     0.000 C 
BRANCH   2   3
ATOM      3  C   UNL     1      15.155  66.958  33.519  1.00  0.00     0.000 C 
BRANCH   3   4
ATOM      4  C   UNL     1      15.778  65.586  33.203  1.00  0.00    -0.000 C 
BRANCH   4   5
ATOM      5  C   UNL     1      14.841  64.688  32.367  1.00  0.00    -0.000 C 
BRANCH   5   6
ATOM      6  C   UNL     1      13.442  64.498  32.984  1.00  0.00    -0.000 C 
BRANCH   6   7
ATOM      7  C   UNL     1      12.397  63.866  32.047  1.00  0.00    -0.000 C 
BRANCH   7   8
ATOM      8  C   UNL     1      11.413  62.894  32.730  1.00  0.00    -0.000 C 
BRANCH   8   9
ATOM      9  C   UNL     1      12.065  61.845  33.653  1.00  0.00    -0.000 C 
BRANCH   9  10
ATOM     10  C   UNL     1      12.952  60.811  32.938  1.00  0.00    -0.000 C 
BRANCH  10  11
ATOM     11  C   UNL     1      12.441  59.372  33.103  1.00  0.00    -0.003 C 
ATOM     12  C   UNL     1      10.958  59.271  32.754  1.00  0.00     0.004 C 
ENDBRANCH  10  11
ENDBRANCH   9  10
ENDBRANCH   8   9
ENDBRANCH   7   8
ENDBRANCH   6   7
ENDBRANCH   5   6
ENDBRANCH   4   5
ENDBRANCH   3   4
ENDBRANCH   2   3
ENDBRANCH   1   2
BRANCH   1  13
ATOM     13  C   UNL     1      16.888  69.393  32.831  1.00  0.00     0.000 C 
BRANCH  13  14
ATOM     14  C   UNL     1      17.036  70.139  34.168  1.00  0.00     0.000 C 
BRANCH  14  15
ATOM     15  C   UNL     1      18.257  69.662  34.974  1.00  0.00     0.000 C 
BRANCH  15  16
ATOM     16  C   UNL     1      17.876  69.136  36.366  1.00  0.00     0.000 C 
BRANCH  16  17
ATOM     17  C   UNL     1      17.086  67.816  36.303  1.00  0.00     0.000 C 
BRANCH  17  18
ATOM     18  C   UNL     1      17.863  66.642  36.936  1.00  0.00     0.000 C 
BRANCH  18  19
ATOM     19  C   UNL     1      17.069  65.891  38.018  1.00  0.00     0.000 C 
BRANCH  19  20
ATOM     20  C   UNL     1      17.575  66.181  39.440  1.00  0.00     0.006 C 
BRANCH  20  21
ATOM     21  C   UNL     1      18.841  67.048  39.440  1.00  0.00     0.053 C 
BRANCH  21  22
ATOM     22  C   UNL     1      18.617  68.357  40.132  1.00  0.00     0.041 C 
ATOM     23  O   UNL     1      17.631  69.076  39.824  1.00  0.00    -0.550 OA
ATOM     24  O   UNL     1      19.518  68.801  41.093  1.00  0.00    -0.550 OA
ENDBRANCH  21  22
ENDBRANCH  20  21
ENDBRANCH  19  20
ENDBRANCH  18  19
ENDBRANCH  17  18
ENDBRANCH  16  17
ENDBRANCH  15  16
ENDBRANCH  14  15
ENDBRANCH  13  14
ENDBRANCH   1  13
TORSDOF 20
ENDMDL
MODEL 5
REMARK VINA RESULT:    -4.467      4.550      9.164
REMARK INTER + INTRA:         -12.553
REMARK INTER:                  -9.721
REMARK INTRA:                  -2.832
REMARK UNBOUND:                -2.862
REMARK SMILES CCCCCCCCCCCCCCCCCCCCCC(=O)[O-]
REMARK SMILES IDX 12 1 11 2 10 3 9 4 8 5 7 6 6 7 5 8 4 9 3 10 2 11 1 12 13 13
REMARK SMILES IDX 14 14 15 15 16 16 17 17 18 18 19 19 20 20 21 21 22 22 23 23
REMARK SMILES IDX 24 24
REMARK H PARENT
REMARK Flexibility Score: inf
ROOT
ATOM      1  C   UNL     1      16.149  68.240  35.623  1.00  0.00     0.000 C 
ENDROOT
BRANCH   1   2
ATOM      2  C   UNL     1      17.218  68.975  34.796  1.00  0.00     0.000 C 
BRANCH   2   3
ATOM      3  C   UNL     1      18.501  69.339  35.563  1.00  0.00     0.000 C 
BRANCH   3   4
ATOM      4  C   UNL     1      18.367  69.142  37.084  1.00  0.00    -0.000 C 
BRANCH   4   5
ATOM      5  C   UNL     1      19.713  68.800  37.759  1.00  0.00    -0.000 C 
BRANCH   5   6
ATOM      6  C   UNL     1      19.567  68.076  39.112  1.00  0.00    -0.000 C 
BRANCH   6   7
ATOM      7  C   UNL     1      18.132  67.652  39.473  1.00  0.00    -0.000 C 
BRANCH   7   8
ATOM      8  C   UNL     1      17.845  66.143  39.340  1.00  0.00    -0.000 C 
BRANCH   8   9
ATOM      9  C   UNL     1      17.103  65.729  38.054  1.00  0.00    -0.000 C 
BRANCH   9  10
ATOM     10  C   UNL     1      18.006  65.227  36.914  1.00  0.00    -0.000 C 
BRANCH  10  11
ATOM     11  C   UNL     1      17.282  64.268  35.957  1.00  0.00    -0.003 C 
ATOM     12  C   UNL     1      17.798  64.422  34.529  1.00  0.00     0.004 C 
ENDBRANCH  10  11
ENDBRANCH   9  10
ENDBRANCH   8   9
ENDBRANCH   7   8
ENDBRANCH   6   7
ENDBRANCH   5   6
ENDBRANCH   4   5
ENDBRANCH   3   4
ENDBRANCH   2   3
ENDBRANCH   1   2
BRANCH   1  13
ATOM     13  C   UNL     1      15.397  67.167  34.815  1.00  0.00     0.000 C 
BRANCH  13  14
ATOM     14  C   UNL     1      15.494  67.403  33.299  1.00  0.00     0.000 C 
BRANCH  14  15
ATOM     15  C   UNL     1      14.943  66.219  32.485  1.00  0.00     0.000 C 
BRANCH  15  16
ATOM     16  C   UNL     1      14.064  65.282  33.327  1.00  0.00     0.000 C 
BRANCH  16  17
ATOM     17  C   UNL     1      14.010  63.853  32.759  1.00  0.00     0.000 C 
BRANCH  17  18
ATOM     18  C   UNL     1      15.279  63.497  31.955  1.00  0.00     0.000 C 
BRANCH  18  19
ATOM     19  C   UNL     1      15.088  62.309  30.997  1.00  0.00     0.000 C 
BRANCH  19  20
ATOM     20  C   UNL     1      13.701  62.292  30.335  1.00  0.00     0.006 C 
BRANCH  20  21
ATOM     21  C   UNL     1      12.876  61.066  30.745  1.00  0.00     0.053 C 
BRANCH  21  22
ATOM     22  C   UNL     1      11.537  61.456  31.291  1.00  0.00     0.041 C 
ATOM     23  O   UNL     1      11.112  62.632  31.147  1.00  0.00    -0.550 OA
ATOM     24  O   UNL     1      10.772  60.529  31.989  1.00  0.00    -0.550 OA
ENDBRANCH  21  22
ENDBRANCH  20  21
ENDBRANCH  19  20
ENDBRANCH  18  19
ENDBRANCH  17  18
ENDBRANCH  16  17
ENDBRANCH  15  16
ENDBRANCH  14  15
ENDBRANCH  13  14
ENDBRANCH   1  13
TORSDOF 20
ENDMDL
MODEL 6
REMARK VINA RESULT:    -4.466      1.410      2.948
REMARK INTER + INTRA:         -12.550
REMARK INTER:                 -10.662
REMARK INTRA:                  -1.888
REMARK UNBOUND:                -2.862
REMARK SMILES CCCCCCCCCCCCCCCCCCCCCC(=O)[O-]
REMARK SMILES IDX 12 1 11 2 10 3 9 4 8 5 7 6 6 7 5 8 4 9 3 10 2 11 1 12 13 13
REMARK SMILES IDX 14 14 15 15 16 16 17 17 18 18 19 19 20 20 21 21 22 22 23 23
REMARK SMILES IDX 24 24
REMARK H PARENT
REMARK Flexibility Score: inf
ROOT
ATOM      1  C   UNL     1      16.491  63.968  32.265  1.00  0.00     0.000 C 
ENDROOT
BRANCH   1   2
ATOM      2  C   UNL     1      15.750  63.353  31.065  1.00  0.00     0.000 C 
BRANCH   2   3
ATOM      3  C   UNL     1      14.843  62.156  31.401  1.00  0.00     0.000 C 
BRANCH   3   4
ATOM      4  C   UNL     1      13.737  61.929  30.355  1.00  0.00    -0.000 C 
BRANCH   4   5
ATOM      5  C   UNL     1      12.581  62.943  30.483  1.00  0.00    -0.000 C 
BRANCH   5   6
ATOM      6  C   UNL     1      12.007  63.060  31.909  1.00  0.00    -0.000 C 
BRANCH   6   7
ATOM      7  C   UNL     1      11.145  61.869  32.365  1.00  0.00    -0.000 C 
BRANCH   7   8
ATOM      8  C   UNL     1      11.817  60.934  33.390  1.00  0.00    -0.000 C 
BRANCH   8   9
ATOM      9  C   UNL     1      12.023  59.481  32.916  1.00  0.00    -0.000 C 
BRANCH   9  10
ATOM     10  C   UNL     1      10.863  58.522  33.237  1.00  0.00    -0.000 C 
BRANCH  10  11
ATOM     11  C   UNL     1       9.892  58.346  32.061  1.00  0.00    -0.003 C 
ATOM     12  C   UNL     1       8.609  59.144  32.281  1.00  0.00     0.004 C 
ENDBRANCH  10  11
ENDBRANCH   9  10
ENDBRANCH   8   9
ENDBRANCH   7   8
ENDBRANCH   6   7
ENDBRANCH   5   6
ENDBRANCH   4   5
ENDBRANCH   3   4
ENDBRANCH   2   3
ENDBRANCH   1   2
BRANCH   1  13
ATOM     13  C   UNL     1      15.562  64.264  33.457  1.00  0.00     0.000 C 
BRANCH  13  14
ATOM     14  C   UNL     1      14.509  65.334  33.125  1.00  0.00     0.000 C 
BRANCH  14  15
ATOM     15  C   UNL     1      15.120  66.559  32.421  1.00  0.00     0.000 C 
BRANCH  15  16
ATOM     16  C   UNL     1      15.250  67.772  33.354  1.00  0.00     0.000 C 
BRANCH  16  17
ATOM     17  C   UNL     1      15.559  69.074  32.592  1.00  0.00     0.000 C 
BRANCH  17  18
ATOM     18  C   UNL     1      16.970  69.612  32.909  1.00  0.00     0.000 C 
BRANCH  18  19
ATOM     19  C   UNL     1      16.996  70.629  34.063  1.00  0.00     0.000 C 
BRANCH  19  20
ATOM     20  C   UNL     1      18.066  70.307  35.119  1.00  0.00     0.006 C 
BRANCH  20  21
ATOM     21  C   UNL     1      17.886  68.908  35.721  1.00  0.00     0.053 C 
BRANCH  21  22
ATOM     22  C   UNL     1      18.474  68.815  37.095  1.00  0.00     0.041 C 
ATOM     23  O   UNL     1      17.758  68.459  38.068  1.00  0.00    -0.550 OA
ATOM     24  O   UNL     1      19.804  69.156  37.309  1.00  0.00    -0.550 OA
ENDBRANCH  21  22
ENDBRANCH  20  21
ENDBRANCH  19  20
ENDBRANCH  18  19
ENDBRANCH  17  18
ENDBRANCH  16  17
ENDBRANCH  15  16
ENDBRANCH  14  15
ENDBRANCH  13  14
ENDBRANCH   1  13
TORSDOF 20
ENDMDL
MODEL 7
REMARK VINA RESULT:    -4.461      2.796      4.783
REMARK INTER + INTRA:         -12.540
REMARK INTER:                 -10.203
REMARK INTRA:                  -2.336
REMARK UNBOUND:                -2.862
REMARK SMILES CCCCCCCCCCCCCCCCCCCCCC(=O)[O-]
REMARK SMILES IDX 12 1 11 2 10 3 9 4 8 5 7 6 6 7 5 8 4 9 3 10 2 11 1 12 13 13
REMARK SMILES IDX 14 14 15 15 16 16 17 17 18 18 19 19 20 20 21 21 22 22 23 23
REMARK SMILES IDX 24 24
REMARK H PARENT
REMARK Flexibility Score: inf
ROOT
ATOM      1  C   UNL     1      17.725  63.804  34.583  1.00  0.00     0.000 C 
ENDROOT
BRANCH   1   2
ATOM      2  C   UNL     1      17.129  64.985  33.795  1.00  0.00     0.000 C 
BRANCH   2   3
ATOM      3  C   UNL     1      15.624  64.874  33.494  1.00  0.00     0.000 C 
BRANCH   3   4
ATOM      4  C   UNL     1      15.288  65.123  32.013  1.00  0.00    -0.000 C 
BRANCH   4   5
ATOM      5  C   UNL     1      15.524  63.877  31.133  1.00  0.00    -0.000 C 
BRANCH   5   6
ATOM      6  C   UNL     1      14.494  62.752  31.356  1.00  0.00    -0.000 C 
BRANCH   6   7
ATOM      7  C   UNL     1      13.453  62.589  30.233  1.00  0.00    -0.000 C 
BRANCH   7   8
ATOM      8  C   UNL     1      12.039  63.097  30.578  1.00  0.00    -0.000 C 
BRANCH   8   9
ATOM      9  C   UNL     1      11.880  63.677  31.998  1.00  0.00    -0.000 C 
BRANCH   9  10
ATOM     10  C   UNL     1      11.746  62.629  33.117  1.00  0.00    -0.000 C 
BRANCH  10  11
ATOM     11  C   UNL     1      11.020  61.356  32.657  1.00  0.00    -0.003 C 
ATOM     12  C   UNL     1      11.878  60.117  32.893  1.00  0.00     0.004 C 
ENDBRANCH  10  11
ENDBRANCH   9  10
ENDBRANCH   8   9
ENDBRANCH   7   8
ENDBRANCH   6   7
ENDBRANCH   5   6
ENDBRANCH   4   5
ENDBRANCH   3   4
ENDBRANCH   2   3
ENDBRANCH   1   2
BRANCH   1  13
ATOM     13  C   UNL     1      17.479  63.908  36.098  1.00  0.00     0.000 C 
BRANCH  13  14
ATOM     14  C   UNL     1      18.158  65.140  36.717  1.00  0.00     0.000 C 
BRANCH  14  15
ATOM     15  C   UNL     1      17.275  65.829  37.773  1.00  0.00     0.000 C 
BRANCH  15  16
ATOM     16  C   UNL     1      18.002  66.975  38.493  1.00  0.00     0.000 C 
BRANCH  16  17
ATOM     17  C   UNL     1      19.426  67.202  37.954  1.00  0.00     0.000 C 
BRANCH  17  18
ATOM     18  C   UNL     1      19.663  68.669  37.535  1.00  0.00     0.000 C 
BRANCH  18  19
ATOM     19  C   UNL     1      18.395  69.375  37.025  1.00  0.00     0.000 C 
BRANCH  19  20
ATOM     20  C   UNL     1      18.247  69.308  35.496  1.00  0.00     0.006 C 
BRANCH  20  21
ATOM     21  C   UNL     1      17.007  68.514  35.067  1.00  0.00     0.053 C 
BRANCH  21  22
ATOM     22  C   UNL     1      16.528  68.926  33.708  1.00  0.00     0.041 C 
ATOM     23  O   UNL     1      17.221  69.702  33.000  1.00  0.00    -0.550 OA
ATOM     24  O   UNL     1      15.298  68.481  33.239  1.00  0.00    -0.550 OA
ENDBRANCH  21  22
ENDBRANCH  20  21
ENDBRANCH  19  20
ENDBRANCH  18  19
ENDBRANCH  17  18
ENDBRANCH  16  17
ENDBRANCH  15  16
ENDBRANCH  14  15
ENDBRANCH  13  14
ENDBRANCH   1  13
TORSDOF 20
ENDMDL
MODEL 8
REMARK VINA RESULT:    -4.405      4.131      9.015
REMARK INTER + INTRA:         -12.418
REMARK INTER:                  -9.866
REMARK INTRA:                  -2.552
REMARK UNBOUND:                -2.862
REMARK SMILES CCCCCCCCCCCCCCCCCCCCCC(=O)[O-]
REMARK SMILES IDX 12 1 11 2 10 3 9 4 8 5 7 6 6 7 5 8 4 9 3 10 2 11 1 12 13 13
REMARK SMILES IDX 14 14 15 15 16 16 17 17 18 18 19 19 20 20 21 21 22 22 23 23
REMARK SMILES IDX 24 24
REMARK H PARENT
REMARK Flexibility Score: inf
ROOT
ATOM      1  C   UNL     1      16.675  65.844  34.016  1.00  0.00     0.000 C 
ENDROOT
BRANCH   1   2
ATOM      2  C   UNL     1      15.271  66.423  33.769  1.00  0.00     0.000 C 
BRANCH   2   3
ATOM      3  C   UNL     1      14.888  66.601  32.289  1.00  0.00     0.000 C 
BRANCH   3   4
ATOM      4  C   UNL     1      14.889  68.073  31.842  1.00  0.00    -0.000 C 
BRANCH   4   5
ATOM      5  C   UNL     1      15.316  69.037  32.970  1.00  0.00    -0.000 C 
BRANCH   5   6
ATOM      6  C   UNL     1      16.679  69.714  32.729  1.00  0.00    -0.000 C 
BRANCH   6   7
ATOM      7  C   UNL     1      17.474  70.051  34.004  1.00  0.00    -0.000 C 
BRANCH   7   8
ATOM      8  C   UNL     1      17.156  69.162  35.224  1.00  0.00    -0.000 C 
BRANCH   8   9
ATOM      9  C   UNL     1      18.313  68.990  36.227  1.00  0.00    -0.000 C 
BRANCH   9  10
ATOM     10  C   UNL     1      17.967  68.173  37.485  1.00  0.00    -0.000 C 
BRANCH  10  11
ATOM     11  C   UNL     1      18.203  66.667  37.301  1.00  0.00    -0.003 C 
ATOM     12  C   UNL     1      16.991  65.860  37.760  1.00  0.00     0.004 C 
ENDBRANCH  10  11
ENDBRANCH   9  10
ENDBRANCH   8   9
ENDBRANCH   7   8
ENDBRANCH   6   7
ENDBRANCH   5   6
ENDBRANCH   4   5
ENDBRANCH   3   4
ENDBRANCH   2   3
ENDBRANCH   1   2
BRANCH   1  13
ATOM     13  C   UNL     1      16.656  64.340  34.341  1.00  0.00     0.000 C 
BRANCH  13  14
ATOM     14  C   UNL     1      16.592  63.470  33.074  1.00  0.00     0.000 C 
BRANCH  14  15
ATOM     15  C   UNL     1      15.406  62.490  33.096  1.00  0.00     0.000 C 
BRANCH  15  16
ATOM     16  C   UNL     1      15.051  61.963  31.697  1.00  0.00     0.000 C 
BRANCH  16  17
ATOM     17  C   UNL     1      14.183  62.951  30.896  1.00  0.00     0.000 C 
BRANCH  17  18
ATOM     18  C   UNL     1      13.171  63.696  31.793  1.00  0.00     0.000 C 
BRANCH  18  19
ATOM     19  C   UNL     1      11.770  63.062  31.797  1.00  0.00     0.000 C 
BRANCH  19  20
ATOM     20  C   UNL     1      11.423  62.386  33.133  1.00  0.00     0.006 C 
BRANCH  20  21
ATOM     21  C   UNL     1      11.628  60.866  33.085  1.00  0.00     0.053 C 
BRANCH  21  22
ATOM     22  C   UNL     1      11.257  60.298  31.749  1.00  0.00     0.041 C 
ATOM     23  O   UNL     1      10.047  60.146  31.439  1.00  0.00    -0.550 OA
ATOM     24  O   UNL     1      12.250  59.903  30.861  1.00  0.00    -0.550 OA
ENDBRANCH  21  22
ENDBRANCH  20  21
ENDBRANCH  19  20
ENDBRANCH  18  19
ENDBRANCH  17  18
ENDBRANCH  16  17
ENDBRANCH  15  16
ENDBRANCH  14  15
ENDBRANCH  13  14
ENDBRANCH   1  13
TORSDOF 20
ENDMDL
MODEL 9
REMARK VINA RESULT:    -4.405      5.043      9.512
REMARK INTER + INTRA:         -12.417
REMARK INTER:                 -10.282
REMARK INTRA:                  -2.134
REMARK UNBOUND:                -2.862
REMARK SMILES CCCCCCCCCCCCCCCCCCCCCC(=O)[O-]
REMARK SMILES IDX 12 1 11 2 10 3 9 4 8 5 7 6 6 7 5 8 4 9 3 10 2 11 1 12 13 13
REMARK SMILES IDX 14 14 15 15 16 16 17 17 18 18 19 19 20 20 21 21 22 22 23 23
REMARK SMILES IDX 24 24
REMARK H PARENT
REMARK Flexibility Score: inf
ROOT
ATOM      1  C   UNL     1      14.951  63.887  33.007  1.00  0.00     0.000 C 
ENDROOT
BRANCH   1   2
ATOM      2  C   UNL     1      14.508  65.333  33.293  1.00  0.00     0.000 C 
BRANCH   2   3
ATOM      3  C   UNL     1      15.077  66.392  32.333  1.00  0.00     0.000 C 
BRANCH   3   4
ATOM      4  C   UNL     1      15.255  67.770  32.995  1.00  0.00    -0.000 C 
BRANCH   4   5
ATOM      5  C   UNL     1      15.509  67.670  34.514  1.00  0.00    -0.000 C 
BRANCH   5   6
ATOM      6  C   UNL     1      16.827  68.326  34.972  1.00  0.00    -0.000 C 
BRANCH   6   7
ATOM      7  C   UNL     1      17.451  67.718  36.241  1.00  0.00    -0.000 C 
BRANCH   7   8
ATOM      8  C   UNL     1      16.756  66.444  36.763  1.00  0.00    -0.000 C 
BRANCH   8   9
ATOM      9  C   UNL     1      17.525  65.682  37.861  1.00  0.00    -0.000 C 
BRANCH   9  10
ATOM     10  C   UNL     1      17.461  66.320  39.260  1.00  0.00    -0.000 C 
BRANCH  10  11
ATOM     11  C   UNL     1      18.804  66.922  39.702  1.00  0.00    -0.003 C 
ATOM     12  C   UNL     1      19.956  66.370  38.866  1.00  0.00     0.004 C 
ENDBRANCH  10  11
ENDBRANCH   9  10
ENDBRANCH   8   9
ENDBRANCH   7   8
ENDBRANCH   6   7
ENDBRANCH   5   6
ENDBRANCH   4   5
ENDBRANCH   3   4
ENDBRANCH   2   3
ENDBRANCH   1   2
BRANCH   1  13
ATOM     13  C   UNL     1      15.106  63.594  31.504  1.00  0.00     0.000 C 
BRANCH  13  14
ATOM     14  C   UNL     1      14.386  62.302  31.083  1.00  0.00     0.000 C 
BRANCH  14  15
ATOM     15  C   UNL     1      13.092  62.580  30.298  1.00  0.00     0.000 C 
BRANCH  15  16
ATOM     16  C   UNL     1      12.069  63.384  31.114  1.00  0.00     0.000 C 
BRANCH  16  17
ATOM     17  C   UNL     1      11.156  62.485  31.967  1.00  0.00     0.000 C 
BRANCH  17  18
ATOM     18  C   UNL     1      11.649  62.371  33.426  1.00  0.00     0.000 C 
BRANCH  18  19
ATOM     19  C   UNL     1      12.283  61.009  33.756  1.00  0.00     0.000 C 
BRANCH  19  20
ATOM     20  C   UNL     1      11.933  59.921  32.728  1.00  0.00     0.006 C 
BRANCH  20  21
ATOM     21  C   UNL     1      10.819  58.991  33.223  1.00  0.00     0.053 C 
BRANCH  21  22
ATOM     22  C   UNL     1       9.664  58.952  32.270  1.00  0.00     0.041 C 
ATOM     23  O   UNL     1       8.558  58.472  32.634  1.00  0.00    -0.550 OA
ATOM     24  O   UNL     1       9.818  59.413  30.969  1.00  0.00    -0.550 OA
ENDBRANCH  21  22
ENDBRANCH  20  21
ENDBRANCH  19  20
ENDBRANCH  18  19
ENDBRANCH  17  18
ENDBRANCH  16  17
ENDBRANCH  15  16
ENDBRANCH  14  15
ENDBRANCH  13  14
ENDBRANCH   1  13
TORSDOF 20
ENDMDL
