MODEL 1
REMARK VINA RESULT:   134.584      0.000      0.000
REMARK INTER + INTRA:         146.212
REMARK INTER:                 146.386
REMARK INTRA:                  -0.173
REMARK UNBOUND:                -0.173
REMARK SMILES C=C(C)[C@@H]1CC[C@]2(C)CC[C@@]3(C)[C@@H](CC[C@@H]4[C@@]5(C)CC[C@H](O)C(C)(C)[C@@H]5CC[C@@]43C)[C@H]12
REMARK SMILES IDX 4 1 5 2 6 3 7 4 31 5 13 6 14 7 15 8 16 9 17 10 19 11 20 12
REMARK SMILES IDX 21 13 23 14 26 15 27 16 28 17 29 18 11 19 10 20 9 21 12 22
REMARK SMILES IDX 30 23 24 24 25 25 18 26 8 27 2 28 3 29 1 30 22 31
REMARK H PARENT 22 32
REMARK Flexibility Score: inf
ROOT
ATOM      1  C   UNL     1      80.772  -1.904  69.501  1.00  0.00     0.018 C 
ATOM      2  C   UNL     1      79.710  -2.757  68.811  1.00  0.00     0.009 C 
ATOM      3  C   UNL     1      79.792  -2.384  67.339  1.00  0.00     0.008 C 
ATOM      4  C   UNL     1      81.160  -1.677  67.116  1.00  0.00    -0.029 C 
ATOM      5  C   UNL     1      81.940  -1.812  68.479  1.00  0.00     0.006 C 
ATOM      6  C   UNL     1      82.950  -3.023  68.574  1.00  0.00    -0.000 C 
ATOM      7  C   UNL     1      83.872  -2.920  69.824  1.00  0.00     0.005 C 
ATOM      8  C   UNL     1      85.336  -3.311  69.639  1.00  0.00     0.005 C 
ATOM      9  C   UNL     1      85.540  -4.592  68.781  1.00  0.00     0.002 C 
ATOM     10  C   UNL     1      87.077  -5.023  68.623  1.00  0.00    -0.026 C 
ATOM     11  C   UNL     1      87.643  -5.330  70.056  1.00  0.00     0.010 C 
ATOM     12  C   UNL     1      88.967  -6.101  70.072  1.00  0.00     0.033 C 
ATOM     13  C   UNL     1      88.866  -7.411  69.276  1.00  0.00     0.120 C 
ATOM     14  C   UNL     1      88.445  -7.185  67.787  1.00  0.00    -0.006 C 
ATOM     15  C   UNL     1      87.104  -6.341  67.767  1.00  0.00     0.003 C 
ATOM     16  C   UNL     1      86.485  -6.153  66.348  1.00  0.00     0.005 C 
ATOM     17  C   UNL     1      85.526  -4.949  66.210  1.00  0.00     0.008 C 
ATOM     18  C   UNL     1      84.633  -4.681  67.463  1.00  0.00    -0.024 C 
ATOM     19  C   UNL     1      83.738  -3.347  67.254  1.00  0.00    -0.024 C 
ATOM     20  C   UNL     1      82.654  -3.545  66.147  1.00  0.00     0.008 C 
ATOM     21  C   UNL     1      81.869  -2.264  65.864  1.00  0.00     0.007 C 
ATOM     22  C   UNL     1      84.634  -2.139  66.811  1.00  0.00     0.012 C 
ATOM     23  C   UNL     1      83.699  -5.940  67.594  1.00  0.00     0.012 C 
ATOM     24  C   UNL     1      88.173  -8.577  67.162  1.00  0.00     0.014 C 
ATOM     25  C   UNL     1      89.611  -6.542  66.985  1.00  0.00     0.014 C 
ATOM     26  C   UNL     1      87.961  -3.908  67.968  1.00  0.00     0.012 C 
ATOM     27  C   UNL     1      80.901  -0.172  66.828  1.00  0.00     0.011 C 
ENDROOT
BRANCH   1  28
ATOM     28  C   UNL     1      81.100  -2.283  70.947  1.00  0.00    -0.077 C 
ATOM     29  C   UNL     1      81.910  -1.328  71.780  1.00  0.00     0.039 C 
ATOM     30  C   UNL     1      80.680  -3.424  71.528  1.00  0.00     0.008 C 
ENDBRANCH   1  28
BRANCH  13  31
ATOM     31  O   UNL     1      90.061  -8.156  69.379  1.00  0.00    -0.393 OA
ATOM     32  H   UNL     1      90.492  -8.182  68.486  1.00  0.00     0.210 HD
ENDBRANCH  13  31
TORSDOF 2
ENDMDL
