MODEL 1
REMARK VINA RESULT:    68.932      0.000      0.000
REMARK INTER + INTRA:         111.865
REMARK INTER:                 101.170
REMARK INTRA:                  10.695
REMARK UNBOUND:                10.695
REMARK SMILES Cc1cc2c(C(C)C)c(O)c(O)c(C=O)c2c(O)c1-c1c(C)cc2c(C(C)C)c(O)c(O)c(C=O)c2c1O
REMARK SMILES IDX 1 1 2 2 3 3 4 4 16 5 13 6 11 7 9 8 5 9 17 10 19 11 20 12
REMARK SMILES IDX 37 13 21 14 36 15 23 16 22 17 24 18 33 19 25 20 31 21 29 22
REMARK SMILES IDX 38 23 34 25 35 26 26 27 27 28 28 29 32 30 30 32 18 34 6 36
REMARK SMILES IDX 7 37 8 38 14 39 15 40 10 41 12 43
REMARK H PARENT 38 24 32 31 30 33 18 35 10 42 12 44
REMARK Flexibility Score: inf
ROOT
ATOM      1  C   UNL     1      24.426   9.668  17.718  1.00  0.00     0.045 C 
ATOM      2  C   UNL     1      23.510   8.471  17.802  1.00  0.00    -0.039 A 
ATOM      3  C   UNL     1      24.051   7.188  17.706  1.00  0.00     0.013 A 
ATOM      4  C   UNL     1      23.247   6.030  17.804  1.00  0.00    -0.006 A 
ATOM      5  C   UNL     1      21.831   6.184  17.911  1.00  0.00     0.039 A 
ATOM      6  C   UNL     1      21.013   5.015  17.949  1.00  0.00     0.072 A 
ATOM      7  C   UNL     1      21.585   3.752  17.702  1.00  0.00     0.169 A 
ATOM      8  C   UNL     1      22.971   3.616  17.569  1.00  0.00     0.162 A 
ATOM      9  C   UNL     1      23.826   4.723  17.753  1.00  0.00     0.008 A 
ATOM     10  C   UNL     1      21.277   7.499  17.924  1.00  0.00     0.132 A 
ATOM     11  C   UNL     1      22.120   8.631  17.916  1.00  0.00     0.031 A 
ENDROOT
BRANCH  11  12
ATOM     12  C   UNL     1      21.539   9.997  17.981  1.00  0.00     0.031 A 
ATOM     13  C   UNL     1      20.277  10.208  18.577  1.00  0.00     0.132 A 
ATOM     14  C   UNL     1      22.255  11.082  17.451  1.00  0.00    -0.039 A 
ATOM     15  C   UNL     1      19.733  11.523  18.669  1.00  0.00     0.039 A 
ATOM     16  C   UNL     1      21.672  12.351  17.439  1.00  0.00     0.013 A 
ATOM     17  C   UNL     1      23.637  10.895  16.875  1.00  0.00     0.045 C 
ATOM     18  C   UNL     1      20.383  12.582  17.969  1.00  0.00    -0.006 A 
ATOM     19  C   UNL     1      18.551  11.811  19.410  1.00  0.00     0.072 A 
ATOM     20  C   UNL     1      19.749  13.855  17.845  1.00  0.00     0.008 A 
ATOM     21  C   UNL     1      18.005  13.108  19.392  1.00  0.00     0.169 A 
ATOM     22  C   UNL     1      18.618  14.132  18.643  1.00  0.00     0.162 A 
BRANCH  13  23
ATOM     23  O   UNL     1      19.547   9.108  19.043  1.00  0.00    -0.507 OA
ATOM     24  H   UNL     1      18.839   9.166  19.763  1.00  0.00     0.293 HD
ENDBRANCH  13  23
BRANCH  19  25
ATOM     25  C   UNL     1      17.937  10.820  20.327  1.00  0.00     0.264 C 
ATOM     26  O   UNL     1      17.488  11.165  21.452  1.00  0.00    -0.298 OA
ENDBRANCH  19  25
BRANCH  20  27
ATOM     27  C   UNL     1      20.283  14.925  16.875  1.00  0.00     0.017 C 
ATOM     28  C   UNL     1      21.780  15.170  17.096  1.00  0.00     0.012 C 
ATOM     29  C   UNL     1      19.488  16.244  16.910  1.00  0.00     0.012 C 
ENDBRANCH  20  27
BRANCH  21  30
ATOM     30  O   UNL     1      16.846  13.352  20.140  1.00  0.00    -0.504 OA
ATOM     31  H   UNL     1      16.314  14.210  20.115  1.00  0.00     0.293 HD
ENDBRANCH  21  30
BRANCH  22  32
ATOM     32  O   UNL     1      18.147  15.447  18.706  1.00  0.00    -0.504 OA
ATOM     33  H   UNL     1      17.580  15.821  19.455  1.00  0.00     0.293 HD
ENDBRANCH  22  32
ENDBRANCH  11  12
BRANCH  10  34
ATOM     34  O   UNL     1      19.890   7.683  17.904  1.00  0.00    -0.507 OA
ATOM     35  H   UNL     1      19.233   7.092  18.396  1.00  0.00     0.293 HD
ENDBRANCH  10  34
BRANCH   9  36
ATOM     36  C   UNL     1      25.345   4.503  17.860  1.00  0.00     0.017 C 
ATOM     37  C   UNL     1      25.660   3.291  18.744  1.00  0.00     0.012 C 
ATOM     38  C   UNL     1      26.125   5.748  18.320  1.00  0.00     0.012 C 
ENDBRANCH   9  36
BRANCH   6  39
ATOM     39  C   UNL     1      19.574   5.067  18.282  1.00  0.00     0.264 C 
ATOM     40  O   UNL     1      19.088   4.268  19.127  1.00  0.00    -0.298 OA
ENDBRANCH   6  39
BRANCH   8  41
ATOM     41  O   UNL     1      23.507   2.365  17.259  1.00  0.00    -0.504 OA
ATOM     42  H   UNL     1      23.053   1.493  17.504  1.00  0.00     0.293 HD
ENDBRANCH   8  41
BRANCH   7  43
ATOM     43  O   UNL     1      20.799   2.596  17.614  1.00  0.00    -0.504 OA
ATOM     44  H   UNL     1      19.963   2.519  17.050  1.00  0.00     0.293 HD
ENDBRANCH   7  43
TORSDOF 11
ENDMDL
MODEL 2
REMARK VINA RESULT:    69.186      2.527      3.630
REMARK INTER + INTRA:         112.238
REMARK INTER:                 108.608
REMARK INTRA:                   3.629
REMARK UNBOUND:                10.695
REMARK SMILES Cc1cc2c(C(C)C)c(O)c(O)c(C=O)c2c(O)c1-c1c(C)cc2c(C(C)C)c(O)c(O)c(C=O)c2c1O
REMARK SMILES IDX 1 1 2 2 3 3 4 4 16 5 13 6 11 7 9 8 5 9 17 10 19 11 20 12
REMARK SMILES IDX 37 13 21 14 36 15 23 16 22 17 24 18 33 19 25 20 31 21 29 22
REMARK SMILES IDX 38 23 34 25 35 26 26 27 27 28 28 29 32 30 30 32 18 34 6 36
REMARK SMILES IDX 7 37 8 38 14 39 15 40 10 41 12 43
REMARK H PARENT 38 24 32 31 30 33 18 35 10 42 12 44
REMARK Flexibility Score: inf
ROOT
ATOM      1  C   UNL     1      22.083   8.065  22.921  1.00  0.00     0.045 C 
ATOM      2  C   UNL     1      22.154   7.216  21.674  1.00  0.00    -0.039 A 
ATOM      3  C   UNL     1      23.069   6.164  21.615  1.00  0.00     0.013 A 
ATOM      4  C   UNL     1      23.164   5.320  20.485  1.00  0.00    -0.006 A 
ATOM      5  C   UNL     1      22.362   5.612  19.340  1.00  0.00     0.039 A 
ATOM      6  C   UNL     1      22.501   4.798  18.177  1.00  0.00     0.072 A 
ATOM      7  C   UNL     1      23.535   3.845  18.109  1.00  0.00     0.169 A 
ATOM      8  C   UNL     1      24.334   3.586  19.228  1.00  0.00     0.162 A 
ATOM      9  C   UNL     1      24.073   4.216  20.463  1.00  0.00     0.008 A 
ATOM     10  C   UNL     1      21.489   6.741  19.377  1.00  0.00     0.132 A 
ATOM     11  C   UNL     1      21.357   7.506  20.556  1.00  0.00     0.031 A 
ENDROOT
BRANCH  11  12
ATOM     12  C   UNL     1      20.408   8.648  20.604  1.00  0.00     0.031 A 
ATOM     13  C   UNL     1      19.533   8.803  21.699  1.00  0.00     0.132 A 
ATOM     14  C   UNL     1      20.389   9.580  19.553  1.00  0.00    -0.039 A 
ATOM     15  C   UNL     1      18.644   9.917  21.761  1.00  0.00     0.039 A 
ATOM     16  C   UNL     1      19.441  10.606  19.560  1.00  0.00     0.013 A 
ATOM     17  C   UNL     1      21.366   9.478  18.407  1.00  0.00     0.045 C 
ATOM     18  C   UNL     1      18.508  10.748  20.611  1.00  0.00    -0.006 A 
ATOM     19  C   UNL     1      17.868  10.213  22.919  1.00  0.00     0.072 A 
ATOM     20  C   UNL     1      17.470  11.725  20.550  1.00  0.00     0.008 A 
ATOM     21  C   UNL     1      16.938  11.269  22.896  1.00  0.00     0.169 A 
ATOM     22  C   UNL     1      16.763  12.042  21.731  1.00  0.00     0.162 A 
BRANCH  13  23
ATOM     23  O   UNL     1      19.517   7.831  22.707  1.00  0.00    -0.507 OA
ATOM     24  H   UNL     1      18.911   7.868  23.516  1.00  0.00     0.293 HD
ENDBRANCH  13  23
BRANCH  19  25
ATOM     25  C   UNL     1      18.100   9.530  24.216  1.00  0.00     0.264 C 
ATOM     26  O   UNL     1      17.244   8.741  24.698  1.00  0.00    -0.298 OA
ENDBRANCH  19  25
BRANCH  20  27
ATOM     27  C   UNL     1      17.120  12.443  19.233  1.00  0.00     0.017 C 
ATOM     28  C   UNL     1      18.120  13.566  18.936  1.00  0.00     0.012 C 
ATOM     29  C   UNL     1      15.668  12.955  19.174  1.00  0.00     0.012 C 
ENDBRANCH  20  27
BRANCH  21  30
ATOM     30  O   UNL     1      16.200  11.530  24.057  1.00  0.00    -0.504 OA
ATOM     31  H   UNL     1      16.068  12.446  24.462  1.00  0.00     0.293 HD
ENDBRANCH  21  30
BRANCH  22  32
ATOM     32  O   UNL     1      15.924  13.160  21.732  1.00  0.00    -0.504 OA
ATOM     33  H   UNL     1      15.811  13.797  20.957  1.00  0.00     0.293 HD
ENDBRANCH  22  32
ENDBRANCH  11  12
BRANCH  10  34
ATOM     34  O   UNL     1      20.783   7.127  18.232  1.00  0.00    -0.507 OA
ATOM     35  H   UNL     1      21.201   7.230  17.317  1.00  0.00     0.293 HD
ENDBRANCH  10  34
BRANCH   9  36
ATOM     36  C   UNL     1      24.791   3.728  21.734  1.00  0.00     0.017 C 
ATOM     37  C   UNL     1      26.121   4.463  21.926  1.00  0.00     0.012 C 
ATOM     38  C   UNL     1      24.982   2.202  21.794  1.00  0.00     0.012 C 
ENDBRANCH   9  36
BRANCH   6  39
ATOM     39  C   UNL     1      21.565   4.881  17.037  1.00  0.00     0.264 C 
ATOM     40  O   UNL     1      20.442   4.310  17.092  1.00  0.00    -0.298 OA
ENDBRANCH   6  39
BRANCH   8  41
ATOM     41  O   UNL     1      25.395   2.685  19.115  1.00  0.00    -0.504 OA
ATOM     42  H   UNL     1      25.625   2.208  18.251  1.00  0.00     0.293 HD
ENDBRANCH   8  41
BRANCH   7  43
ATOM     43  O   UNL     1      23.778   3.107  16.943  1.00  0.00    -0.504 OA
ATOM     44  H   UNL     1      24.697   2.957  16.548  1.00  0.00     0.293 HD
ENDBRANCH   7  43
TORSDOF 11
ENDMDL
MODEL 3
REMARK VINA RESULT:    70.192      2.618      8.825
REMARK INTER + INTRA:         113.715
REMARK INTER:                 108.218
REMARK INTRA:                   5.497
REMARK UNBOUND:                10.695
REMARK SMILES Cc1cc2c(C(C)C)c(O)c(O)c(C=O)c2c(O)c1-c1c(C)cc2c(C(C)C)c(O)c(O)c(C=O)c2c1O
REMARK SMILES IDX 1 1 2 2 3 3 4 4 16 5 13 6 11 7 9 8 5 9 17 10 19 11 20 12
REMARK SMILES IDX 37 13 21 14 36 15 23 16 22 17 24 18 33 19 25 20 31 21 29 22
REMARK SMILES IDX 38 23 34 25 35 26 26 27 27 28 28 29 32 30 30 32 18 34 6 36
REMARK SMILES IDX 7 37 8 38 14 39 15 40 10 41 12 43
REMARK H PARENT 38 24 32 31 30 33 18 35 10 42 12 44
REMARK Flexibility Score: inf
ROOT
ATOM      1  C   UNL     1      21.053   8.245  22.921  1.00  0.00     0.045 C 
ATOM      2  C   UNL     1      20.016   9.146  22.296  1.00  0.00    -0.039 A 
ATOM      3  C   UNL     1      19.136   9.851  23.119  1.00  0.00     0.013 A 
ATOM      4  C   UNL     1      18.162  10.728  22.592  1.00  0.00    -0.006 A 
ATOM      5  C   UNL     1      18.018  10.823  21.175  1.00  0.00     0.039 A 
ATOM      6  C   UNL     1      16.994  11.662  20.642  1.00  0.00     0.072 A 
ATOM      7  C   UNL     1      16.040  12.236  21.504  1.00  0.00     0.169 A 
ATOM      8  C   UNL     1      16.175  12.113  22.891  1.00  0.00     0.162 A 
ATOM      9  C   UNL     1      17.303  11.479  23.454  1.00  0.00     0.008 A 
ATOM     10  C   UNL     1      18.865  10.035  20.339  1.00  0.00     0.132 A 
ATOM     11  C   UNL     1      19.885   9.239  20.901  1.00  0.00     0.031 A 
ENDROOT
BRANCH  11  12
ATOM     12  C   UNL     1      20.797   8.461  20.022  1.00  0.00     0.031 A 
ATOM     13  C   UNL     1      21.009   7.086  20.253  1.00  0.00     0.132 A 
ATOM     14  C   UNL     1      21.446   9.102  18.954  1.00  0.00    -0.039 A 
ATOM     15  C   UNL     1      21.859   6.332  19.391  1.00  0.00     0.039 A 
ATOM     16  C   UNL     1      22.364   8.389  18.180  1.00  0.00     0.013 A 
ATOM     17  C   UNL     1      21.179  10.554  18.641  1.00  0.00     0.045 C 
ATOM     18  C   UNL     1      22.647   7.028  18.428  1.00  0.00    -0.006 A 
ATOM     19  C   UNL     1      21.969   4.914  19.475  1.00  0.00     0.072 A 
ATOM     20  C   UNL     1      23.672   6.343  17.710  1.00  0.00     0.008 A 
ATOM     21  C   UNL     1      22.892   4.227  18.663  1.00  0.00     0.169 A 
ATOM     22  C   UNL     1      23.714   4.933  17.762  1.00  0.00     0.162 A 
BRANCH  13  23
ATOM     23  O   UNL     1      20.407   6.476  21.360  1.00  0.00    -0.507 OA
ATOM     24  H   UNL     1      20.641   5.549  21.689  1.00  0.00     0.293 HD
ENDBRANCH  13  23
BRANCH  19  25
ATOM     25  C   UNL     1      21.041   4.101  20.299  1.00  0.00     0.264 C 
ATOM     26  O   UNL     1      21.475   3.241  21.111  1.00  0.00    -0.298 OA
ENDBRANCH  19  25
BRANCH  20  27
ATOM     27  C   UNL     1      24.715   7.109  16.875  1.00  0.00     0.017 C 
ATOM     28  C   UNL     1      26.125   6.557  17.115  1.00  0.00     0.012 C 
ATOM     29  C   UNL     1      24.669   8.636  17.077  1.00  0.00     0.012 C 
ENDBRANCH  20  27
BRANCH  21  30
ATOM     30  O   UNL     1      22.964   2.833  18.772  1.00  0.00    -0.504 OA
ATOM     31  H   UNL     1      23.088   2.200  17.995  1.00  0.00     0.293 HD
ENDBRANCH  21  30
BRANCH  22  32
ATOM     32  O   UNL     1      24.553   4.252  16.875  1.00  0.00    -0.504 OA
ATOM     33  H   UNL     1      24.629   4.448  15.887  1.00  0.00     0.293 HD
ENDBRANCH  22  32
ENDBRANCH  11  12
BRANCH  10  34
ATOM     34  O   UNL     1      18.668  10.011  18.953  1.00  0.00    -0.507 OA
ATOM     35  H   UNL     1      17.955   9.462  18.492  1.00  0.00     0.293 HD
ENDBRANCH  10  34
BRANCH   9  36
ATOM     36  C   UNL     1      17.559  11.583  24.968  1.00  0.00     0.017 C 
ATOM     37  C   UNL     1      17.562  10.195  25.617  1.00  0.00     0.012 C 
ATOM     38  C   UNL     1      16.597  12.539  25.698  1.00  0.00     0.012 C 
ENDBRANCH   9  36
BRANCH   6  39
ATOM     39  C   UNL     1      16.913  11.997  19.205  1.00  0.00     0.264 C 
ATOM     40  O   UNL     1      16.347  13.058  18.830  1.00  0.00    -0.298 OA
ENDBRANCH   6  39
BRANCH   8  41
ATOM     41  O   UNL     1      15.180  12.634  23.722  1.00  0.00    -0.504 OA
ATOM     42  H   UNL     1      14.935  13.617  23.741  1.00  0.00     0.293 HD
ENDBRANCH   8  41
BRANCH   7  43
ATOM     43  O   UNL     1      14.953  12.970  21.012  1.00  0.00    -0.504 OA
ATOM     44  H   UNL     1      14.718  13.907  21.312  1.00  0.00     0.293 HD
ENDBRANCH   7  43
TORSDOF 11
ENDMDL
MODEL 4
REMARK VINA RESULT:    70.599      3.012      9.304
REMARK INTER + INTRA:         114.312
REMARK INTER:                 111.521
REMARK INTRA:                   2.791
REMARK UNBOUND:                10.695
REMARK SMILES Cc1cc2c(C(C)C)c(O)c(O)c(C=O)c2c(O)c1-c1c(C)cc2c(C(C)C)c(O)c(O)c(C=O)c2c1O
REMARK SMILES IDX 1 1 2 2 3 3 4 4 16 5 13 6 11 7 9 8 5 9 17 10 19 11 20 12
REMARK SMILES IDX 37 13 21 14 36 15 23 16 22 17 24 18 33 19 25 20 31 21 29 22
REMARK SMILES IDX 38 23 34 25 35 26 26 27 27 28 28 29 32 30 30 32 18 34 6 36
REMARK SMILES IDX 7 37 8 38 14 39 15 40 10 41 12 43
REMARK H PARENT 38 24 32 31 30 33 18 35 10 42 12 44
REMARK Flexibility Score: inf
ROOT
ATOM      1  C   UNL     1      21.739   9.127  18.226  1.00  0.00     0.045 C 
ATOM      2  C   UNL     1      20.971   9.109  19.525  1.00  0.00    -0.039 A 
ATOM      3  C   UNL     1      20.223  10.228  19.894  1.00  0.00     0.013 A 
ATOM      4  C   UNL     1      19.464  10.260  21.085  1.00  0.00    -0.006 A 
ATOM      5  C   UNL     1      19.541   9.148  21.978  1.00  0.00     0.039 A 
ATOM      6  C   UNL     1      18.823   9.204  23.210  1.00  0.00     0.072 A 
ATOM      7  C   UNL     1      18.205  10.406  23.605  1.00  0.00     0.169 A 
ATOM      8  C   UNL     1      18.160  11.499  22.734  1.00  0.00     0.162 A 
ATOM      9  C   UNL     1      18.665  11.397  21.421  1.00  0.00     0.008 A 
ATOM     10  C   UNL     1      20.374   8.041  21.635  1.00  0.00     0.132 A 
ATOM     11  C   UNL     1      21.046   8.008  20.394  1.00  0.00     0.031 A 
ENDROOT
BRANCH  11  12
ATOM     12  C   UNL     1      21.871   6.830  20.021  1.00  0.00     0.031 A 
ATOM     13  C   UNL     1      22.842   6.327  20.913  1.00  0.00     0.132 A 
ATOM     14  C   UNL     1      21.675   6.212  18.775  1.00  0.00    -0.039 A 
ATOM     15  C   UNL     1      23.612   5.177  20.568  1.00  0.00     0.039 A 
ATOM     16  C   UNL     1      22.507   5.157  18.393  1.00  0.00     0.013 A 
ATOM     17  C   UNL     1      20.593   6.684  17.835  1.00  0.00     0.045 C 
ATOM     18  C   UNL     1      23.531   4.675  19.236  1.00  0.00    -0.006 A 
ATOM     19  C   UNL     1      24.477   4.531  21.497  1.00  0.00     0.072 A 
ATOM     20  C   UNL     1      24.449   3.678  18.789  1.00  0.00     0.008 A 
ATOM     21  C   UNL     1      25.284   3.456  21.080  1.00  0.00     0.169 A 
ATOM     22  C   UNL     1      25.246   3.010  19.744  1.00  0.00     0.162 A 
BRANCH  13  23
ATOM     23  O   UNL     1      23.070   6.993  22.123  1.00  0.00    -0.507 OA
ATOM     24  H   UNL     1      23.676   6.642  22.854  1.00  0.00     0.293 HD
ENDBRANCH  13  23
BRANCH  19  25
ATOM     25  C   UNL     1      24.463   4.859  22.944  1.00  0.00     0.264 C 
ATOM     26  O   UNL     1      24.970   4.078  23.793  1.00  0.00    -0.298 OA
ENDBRANCH  19  25
BRANCH  20  27
ATOM     27  C   UNL     1      24.574   3.313  17.298  1.00  0.00     0.017 C 
ATOM     28  C   UNL     1      23.546   2.247  16.905  1.00  0.00     0.012 C 
ATOM     29  C   UNL     1      25.998   2.902  16.878  1.00  0.00     0.012 C 
ENDBRANCH  20  27
BRANCH  21  30
ATOM     30  O   UNL     1      26.116   2.843  22.026  1.00  0.00    -0.504 OA
ATOM     31  H   UNL     1      26.248   1.846  22.117  1.00  0.00     0.293 HD
ENDBRANCH  21  30
BRANCH  22  32
ATOM     32  O   UNL     1      25.960   1.875  19.347  1.00  0.00    -0.504 OA
ATOM     33  H   UNL     1      26.252   1.679  18.400  1.00  0.00     0.293 HD
ENDBRANCH  22  32
ENDBRANCH  11  12
BRANCH  10  34
ATOM     34  O   UNL     1      20.568   6.993  22.542  1.00  0.00    -0.507 OA
ATOM     35  H   UNL     1      20.144   6.952  23.459  1.00  0.00     0.293 HD
ENDBRANCH  10  34
BRANCH   9  36
ATOM     36  C   UNL     1      18.374  12.515  20.404  1.00  0.00     0.017 C 
ATOM     37  C   UNL     1      17.141  12.178  19.559  1.00  0.00     0.012 C 
ATOM     38  C   UNL     1      19.578  12.877  19.515  1.00  0.00     0.012 C 
ENDBRANCH   9  36
BRANCH   6  39
ATOM     39  C   UNL     1      18.661   8.025  24.086  1.00  0.00     0.264 C 
ATOM     40  O   UNL     1      17.534   7.748  24.577  1.00  0.00    -0.298 OA
ENDBRANCH   6  39
BRANCH   8  41
ATOM     41  O   UNL     1      17.600  12.701  23.175  1.00  0.00    -0.504 OA
ATOM     42  H   UNL     1      17.095  13.331  22.563  1.00  0.00     0.293 HD
ENDBRANCH   8  41
BRANCH   7  43
ATOM     43  O   UNL     1      17.590  10.537  24.857  1.00  0.00    -0.504 OA
ATOM     44  H   UNL     1      17.715  11.332  25.471  1.00  0.00     0.293 HD
ENDBRANCH   7  43
TORSDOF 11
ENDMDL
MODEL 5
REMARK VINA RESULT:    71.286      1.879      9.003
REMARK INTER + INTRA:         115.321
REMARK INTER:                 105.795
REMARK INTRA:                   9.525
REMARK UNBOUND:                10.695
REMARK SMILES Cc1cc2c(C(C)C)c(O)c(O)c(C=O)c2c(O)c1-c1c(C)cc2c(C(C)C)c(O)c(O)c(C=O)c2c1O
REMARK SMILES IDX 1 1 2 2 3 3 4 4 16 5 13 6 11 7 9 8 5 9 17 10 19 11 20 12
REMARK SMILES IDX 37 13 21 14 36 15 23 16 22 17 24 18 33 19 25 20 31 21 29 22
REMARK SMILES IDX 38 23 34 25 35 26 26 27 27 28 28 29 32 30 30 32 18 34 6 36
REMARK SMILES IDX 7 37 8 38 14 39 15 40 10 41 12 43
REMARK H PARENT 38 24 32 31 30 33 18 35 10 42 12 44
REMARK Flexibility Score: inf
ROOT
ATOM      1  C   UNL     1      23.529  10.471  17.714  1.00  0.00     0.045 C 
ATOM      2  C   UNL     1      22.152  10.967  18.085  1.00  0.00    -0.039 A 
ATOM      3  C   UNL     1      21.810  12.294  17.821  1.00  0.00     0.013 A 
ATOM      4  C   UNL     1      20.529  12.808  18.122  1.00  0.00    -0.006 A 
ATOM      5  C   UNL     1      19.593  11.968  18.799  1.00  0.00     0.039 A 
ATOM      6  C   UNL     1      18.321  12.505  19.158  1.00  0.00     0.072 A 
ATOM      7  C   UNL     1      18.074  13.883  19.005  1.00  0.00     0.169 A 
ATOM      8  C   UNL     1      19.010  14.703  18.366  1.00  0.00     0.162 A 
ATOM      9  C   UNL     1      20.180  14.157  17.798  1.00  0.00     0.008 A 
ATOM     10  C   UNL     1      19.980  10.638  19.141  1.00  0.00     0.132 A 
ATOM     11  C   UNL     1      21.236  10.132  18.744  1.00  0.00     0.031 A 
ENDROOT
BRANCH  11  12
ATOM     12  C   UNL     1      21.612   8.729  19.059  1.00  0.00     0.031 A 
ATOM     13  C   UNL     1      22.505   8.025  18.224  1.00  0.00     0.132 A 
ATOM     14  C   UNL     1      21.077   8.107  20.199  1.00  0.00    -0.039 A 
ATOM     15  C   UNL     1      22.891   6.690  18.543  1.00  0.00     0.039 A 
ATOM     16  C   UNL     1      21.367   6.764  20.448  1.00  0.00     0.013 A 
ATOM     17  C   UNL     1      20.179   8.862  21.148  1.00  0.00     0.045 C 
ATOM     18  C   UNL     1      22.205   6.013  19.594  1.00  0.00    -0.006 A 
ATOM     19  C   UNL     1      23.916   6.000  17.834  1.00  0.00     0.072 A 
ATOM     20  C   UNL     1      22.399   4.613  19.792  1.00  0.00     0.008 A 
ATOM     21  C   UNL     1      24.195   4.652  18.128  1.00  0.00     0.169 A 
ATOM     22  C   UNL     1      23.465   3.972  19.124  1.00  0.00     0.162 A 
BRANCH  13  23
ATOM     23  O   UNL     1      22.979   8.637  17.057  1.00  0.00    -0.507 OA
ATOM     24  H   UNL     1      23.869   8.420  16.628  1.00  0.00     0.293 HD
ENDBRANCH  13  23
BRANCH  19  25
ATOM     25  C   UNL     1      24.812   6.693  16.876  1.00  0.00     0.264 C 
ATOM     26  O   UNL     1      26.053   6.763  17.079  1.00  0.00    -0.298 OA
ENDBRANCH  19  25
BRANCH  20  27
ATOM     27  C   UNL     1      21.481   3.800  20.724  1.00  0.00     0.017 C 
ATOM     28  C   UNL     1      20.043   3.774  20.194  1.00  0.00     0.012 C 
ATOM     29  C   UNL     1      21.529   4.259  22.194  1.00  0.00     0.012 C 
ENDBRANCH  20  27
BRANCH  21  30
ATOM     30  O   UNL     1      25.215   4.013  17.413  1.00  0.00    -0.504 OA
ATOM     31  H   UNL     1      25.424   4.175  16.438  1.00  0.00     0.293 HD
ENDBRANCH  21  30
BRANCH  22  32
ATOM     32  O   UNL     1      23.807   2.670  19.499  1.00  0.00    -0.504 OA
ATOM     33  H   UNL     1      23.287   2.102  20.153  1.00  0.00     0.293 HD
ENDBRANCH  22  32
ENDBRANCH  11  12
BRANCH  10  34
ATOM     34  O   UNL     1      19.135   9.831  19.912  1.00  0.00    -0.507 OA
ATOM     35  H   UNL     1      18.135   9.763  19.774  1.00  0.00     0.293 HD
ENDBRANCH  10  34
BRANCH   9  36
ATOM     36  C   UNL     1      21.060  15.026  16.882  1.00  0.00     0.017 C 
ATOM     37  C   UNL     1      22.516  14.549  16.910  1.00  0.00     0.012 C 
ATOM     38  C   UNL     1      20.960  16.535  17.172  1.00  0.00     0.012 C 
ENDBRANCH   9  36
BRANCH   6  39
ATOM     39  C   UNL     1      17.216  11.658  19.653  1.00  0.00     0.264 C 
ATOM     40  O   UNL     1      17.342  11.012  20.728  1.00  0.00    -0.298 OA
ENDBRANCH   6  39
BRANCH   8  41
ATOM     41  O   UNL     1      18.771  16.077  18.287  1.00  0.00    -0.504 OA
ATOM     42  H   UNL     1      19.086  16.734  18.991  1.00  0.00     0.293 HD
ENDBRANCH   8  41
BRANCH   7  43
ATOM     43  O   UNL     1      16.883  14.468  19.453  1.00  0.00    -0.504 OA
ATOM     44  H   UNL     1      16.064  13.945  19.735  1.00  0.00     0.293 HD
ENDBRANCH   7  43
TORSDOF 11
ENDMDL
MODEL 6
REMARK VINA RESULT:    71.670      2.768      9.443
REMARK INTER + INTRA:         115.884
REMARK INTER:                 110.889
REMARK INTRA:                   4.995
REMARK UNBOUND:                10.695
REMARK SMILES Cc1cc2c(C(C)C)c(O)c(O)c(C=O)c2c(O)c1-c1c(C)cc2c(C(C)C)c(O)c(O)c(C=O)c2c1O
REMARK SMILES IDX 1 1 2 2 3 3 4 4 16 5 13 6 11 7 9 8 5 9 17 10 19 11 20 12
REMARK SMILES IDX 37 13 21 14 36 15 23 16 22 17 24 18 33 19 25 20 31 21 29 22
REMARK SMILES IDX 38 23 34 25 35 26 26 27 27 28 28 29 32 30 30 32 18 34 6 36
REMARK SMILES IDX 7 37 8 38 14 39 15 40 10 41 12 43
REMARK H PARENT 38 24 32 31 30 33 18 35 10 42 12 44
REMARK Flexibility Score: inf
ROOT
ATOM      1  C   UNL     1      20.844   9.031  18.363  1.00  0.00     0.045 C 
ATOM      2  C   UNL     1      20.054   9.288  19.624  1.00  0.00    -0.039 A 
ATOM      3  C   UNL     1      19.110  10.316  19.642  1.00  0.00     0.013 A 
ATOM      4  C   UNL     1      18.324  10.587  20.784  1.00  0.00    -0.006 A 
ATOM      5  C   UNL     1      18.570   9.845  21.979  1.00  0.00     0.039 A 
ATOM      6  C   UNL     1      17.819  10.159  23.151  1.00  0.00     0.072 A 
ATOM      7  C   UNL     1      16.986  11.295  23.165  1.00  0.00     0.169 A 
ATOM      8  C   UNL     1      16.773  12.031  21.995  1.00  0.00     0.162 A 
ATOM      9  C   UNL     1      17.326  11.611  20.767  1.00  0.00     0.008 A 
ATOM     10  C   UNL     1      19.596   8.853  21.979  1.00  0.00     0.132 A 
ATOM     11  C   UNL     1      20.298   8.550  20.793  1.00  0.00     0.031 A 
ENDROOT
BRANCH  11  12
ATOM     12  C   UNL     1      21.329   7.480  20.787  1.00  0.00     0.031 A 
ATOM     13  C   UNL     1      21.420   6.582  19.702  1.00  0.00     0.132 A 
ATOM     14  C   UNL     1      22.221   7.368  21.866  1.00  0.00    -0.039 A 
ATOM     15  C   UNL     1      22.430   5.575  19.680  1.00  0.00     0.039 A 
ATOM     16  C   UNL     1      23.134   6.312  21.897  1.00  0.00     0.013 A 
ATOM     17  C   UNL     1      22.193   8.360  23.003  1.00  0.00     0.045 C 
ATOM     18  C   UNL     1      23.204   5.359  20.857  1.00  0.00    -0.006 A 
ATOM     19  C   UNL     1      22.672   4.761  18.537  1.00  0.00     0.072 A 
ATOM     20  C   UNL     1      24.058   4.220  20.955  1.00  0.00     0.008 A 
ATOM     21  C   UNL     1      23.618   3.719  18.599  1.00  0.00     0.169 A 
ATOM     22  C   UNL     1      24.330   3.471  19.789  1.00  0.00     0.162 A 
BRANCH  13  23
ATOM     23  O   UNL     1      20.484   6.665  18.664  1.00  0.00    -0.507 OA
ATOM     24  H   UNL     1      20.057   7.530  18.357  1.00  0.00     0.293 HD
ENDBRANCH  13  23
BRANCH  19  25
ATOM     25  C   UNL     1      22.060   5.054  17.218  1.00  0.00     0.264 C 
ATOM     26  O   UNL     1      20.966   4.531  16.878  1.00  0.00    -0.298 OA
ENDBRANCH  19  25
BRANCH  20  27
ATOM     27  C   UNL     1      24.692   3.805  22.296  1.00  0.00     0.017 C 
ATOM     28  C   UNL     1      25.996   4.570  22.548  1.00  0.00     0.012 C 
ATOM     29  C   UNL     1      24.896   2.285  22.440  1.00  0.00     0.012 C 
ENDBRANCH  20  27
BRANCH  21  30
ATOM     30  O   UNL     1      23.831   2.946  17.451  1.00  0.00    -0.504 OA
ATOM     31  H   UNL     1      24.739   2.711  17.075  1.00  0.00     0.293 HD
ENDBRANCH  21  30
BRANCH  22  32
ATOM     32  O   UNL     1      25.348   2.513  19.828  1.00  0.00    -0.504 OA
ATOM     33  H   UNL     1      26.140   2.487  19.202  1.00  0.00     0.293 HD
ENDBRANCH  22  32
ENDBRANCH  11  12
BRANCH  10  34
ATOM     34  O   UNL     1      19.946   8.196  23.164  1.00  0.00    -0.507 OA
ATOM     35  H   UNL     1      20.889   7.914  23.398  1.00  0.00     0.293 HD
ENDBRANCH  10  34
BRANCH   9  36
ATOM     36  C   UNL     1      16.872  12.282  19.458  1.00  0.00     0.017 C 
ATOM     37  C   UNL     1      17.910  13.301  18.977  1.00  0.00     0.012 C 
ATOM     38  C   UNL     1      15.467  12.908  19.534  1.00  0.00     0.012 C 
ENDBRANCH   9  36
BRANCH   6  39
ATOM     39  C   UNL     1      17.843   9.308  24.358  1.00  0.00     0.264 C 
ATOM     40  O   UNL     1      16.991   8.391  24.507  1.00  0.00    -0.298 OA
ENDBRANCH   6  39
BRANCH   8  41
ATOM     41  O   UNL     1      15.997  13.191  22.050  1.00  0.00    -0.504 OA
ATOM     42  H   UNL     1      16.394  14.117  22.157  1.00  0.00     0.293 HD
ENDBRANCH   8  41
BRANCH   7  43
ATOM     43  O   UNL     1      16.323  11.703  24.329  1.00  0.00    -0.504 OA
ATOM     44  H   UNL     1      16.776  12.156  25.112  1.00  0.00     0.293 HD
ENDBRANCH   7  43
TORSDOF 11
ENDMDL
