MODEL 1
REMARK VINA RESULT:    -3.498      0.000      0.000
REMARK INTER + INTRA:          -8.227
REMARK INTER:                  -6.157
REMARK INTRA:                  -2.070
REMARK UNBOUND:                -2.070
REMARK SMILES CCCCCCC=CCCCCCCCC(=O)[O-]
REMARK SMILES IDX 10 1 11 2 12 3 13 4 14 5 15 6 16 7 17 8 18 9 9 10 8 11 7 12
REMARK SMILES IDX 6 13 5 14 4 15 3 16 2 17 1 18
REMARK H PARENT
REMARK Flexibility Score: inf
ROOT
ATOM      1  C   UNL     1      61.573  31.484  59.125  1.00  0.00     0.004 C 
ENDROOT
BRANCH   1   2
ATOM      2  C   UNL     1      61.095  31.523  60.592  1.00  0.00     0.000 C 
BRANCH   2   3
ATOM      3  C   UNL     1      61.706  30.449  61.514  1.00  0.00     0.000 C 
BRANCH   3   4
ATOM      4  C   UNL     1      63.184  30.118  61.242  1.00  0.00     0.000 C 
BRANCH   4   5
ATOM      5  C   UNL     1      63.412  28.640  60.896  1.00  0.00     0.006 C 
BRANCH   5   6
ATOM      6  C   UNL     1      62.109  27.844  61.023  1.00  0.00     0.053 C 
BRANCH   6   7
ATOM      7  C   UNL     1      62.391  26.429  61.418  1.00  0.00     0.041 C 
ATOM      8  O   UNL     1      63.175  25.723  60.730  1.00  0.00    -0.550 OA
ATOM      9  O   UNL     1      61.810  25.895  62.561  1.00  0.00    -0.550 OA
ENDBRANCH   6   7
ENDBRANCH   5   6
ENDBRANCH   4   5
ENDBRANCH   3   4
ENDBRANCH   2   3
ENDBRANCH   1   2
BRANCH   1  10
ATOM     10  C   UNL     1      62.233  32.783  58.636  1.00  0.00     0.027 C 
BRANCH  10  11
ATOM     11  C   UNL     1      63.727  32.644  58.468  1.00  0.00    -0.031 C 
ATOM     12  C   UNL     1      64.606  33.022  59.412  1.00  0.00    -0.031 C 
BRANCH  12  13
ATOM     13  C   UNL     1      64.183  33.606  60.739  1.00  0.00     0.027 C 
BRANCH  13  14
ATOM     14  C   UNL     1      64.892  34.935  61.051  1.00  0.00     0.004 C 
BRANCH  14  15
ATOM     15  C   UNL     1      63.968  36.172  61.027  1.00  0.00     0.000 C 
BRANCH  15  16
ATOM     16  C   UNL     1      62.499  35.890  60.654  1.00  0.00    -0.000 C 
BRANCH  16  17
ATOM     17  C   UNL     1      62.048  36.482  59.308  1.00  0.00    -0.003 C 
ATOM     18  C   UNL     1      63.137  36.422  58.237  1.00  0.00     0.004 C 
ENDBRANCH  16  17
ENDBRANCH  15  16
ENDBRANCH  14  15
ENDBRANCH  13  14
ENDBRANCH  12  13
ENDBRANCH  10  11
ENDBRANCH   1  10
TORSDOF 13
ENDMDL
MODEL 2
REMARK VINA RESULT:    -3.421     10.536     12.661
REMARK INTER + INTRA:          -8.090
REMARK INTER:                  -5.682
REMARK INTRA:                  -2.409
REMARK UNBOUND:                -2.070
REMARK SMILES CCCCCCC=CCCCCCCCC(=O)[O-]
REMARK SMILES IDX 10 1 11 2 12 3 13 4 14 5 15 6 16 7 17 8 18 9 9 10 8 11 7 12
REMARK SMILES IDX 6 13 5 14 4 15 3 16 2 17 1 18
REMARK H PARENT
REMARK Flexibility Score: inf
ROOT
ATOM      1  C   UNL     1      58.054  28.080  52.691  1.00  0.00     0.004 C 
ENDROOT
BRANCH   1   2
ATOM      2  C   UNL     1      58.059  29.488  52.061  1.00  0.00     0.000 C 
BRANCH   2   3
ATOM      3  C   UNL     1      59.167  29.742  51.018  1.00  0.00     0.000 C 
BRANCH   3   4
ATOM      4  C   UNL     1      58.856  29.235  49.599  1.00  0.00     0.000 C 
BRANCH   4   5
ATOM      5  C   UNL     1      60.005  28.417  48.991  1.00  0.00     0.006 C 
BRANCH   5   6
ATOM      6  C   UNL     1      59.886  26.940  49.381  1.00  0.00     0.053 C 
BRANCH   6   7
ATOM      7  C   UNL     1      61.199  26.415  49.869  1.00  0.00     0.041 C 
ATOM      8  O   UNL     1      62.047  27.198  50.372  1.00  0.00    -0.550 OA
ATOM      9  O   UNL     1      61.478  25.057  49.794  1.00  0.00    -0.550 OA
ENDBRANCH   6   7
ENDBRANCH   5   6
ENDBRANCH   4   5
ENDBRANCH   3   4
ENDBRANCH   2   3
ENDBRANCH   1   2
BRANCH   1  10
ATOM     10  C   UNL     1      56.711  27.341  52.587  1.00  0.00     0.027 C 
BRANCH  10  11
ATOM     11  C   UNL     1      56.813  26.062  51.792  1.00  0.00    -0.031 C 
ATOM     12  C   UNL     1      56.456  25.975  50.499  1.00  0.00    -0.031 C 
BRANCH  12  13
ATOM     13  C   UNL     1      55.931  27.153  49.713  1.00  0.00     0.027 C 
BRANCH  13  14
ATOM     14  C   UNL     1      54.395  27.212  49.692  1.00  0.00     0.004 C 
BRANCH  14  15
ATOM     15  C   UNL     1      53.808  28.631  49.847  1.00  0.00     0.000 C 
BRANCH  15  16
ATOM     16  C   UNL     1      54.816  29.718  50.274  1.00  0.00    -0.000 C 
BRANCH  16  17
ATOM     17  C   UNL     1      54.344  30.624  51.424  1.00  0.00    -0.003 C 
ATOM     18  C   UNL     1      54.153  29.866  52.738  1.00  0.00     0.004 C 
ENDBRANCH  16  17
ENDBRANCH  15  16
ENDBRANCH  14  15
ENDBRANCH  13  14
ENDBRANCH  12  13
ENDBRANCH  10  11
ENDBRANCH   1  10
TORSDOF 13
ENDMDL
MODEL 3
REMARK VINA RESULT:    -3.420      3.926      6.439
REMARK INTER + INTRA:          -8.090
REMARK INTER:                  -5.444
REMARK INTRA:                  -2.645
REMARK UNBOUND:                -2.070
REMARK SMILES CCCCCCC=CCCCCCCCC(=O)[O-]
REMARK SMILES IDX 10 1 11 2 12 3 13 4 14 5 15 6 16 7 17 8 18 9 9 10 8 11 7 12
REMARK SMILES IDX 6 13 5 14 4 15 3 16 2 17 1 18
REMARK H PARENT
REMARK Flexibility Score: inf
ROOT
ATOM      1  C   UNL     1      64.024  29.390  60.748  1.00  0.00     0.004 C 
ENDROOT
BRANCH   1   2
ATOM      2  C   UNL     1      64.463  30.866  60.845  1.00  0.00     0.000 C 
BRANCH   2   3
ATOM      3  C   UNL     1      64.894  31.515  59.515  1.00  0.00     0.000 C 
BRANCH   3   4
ATOM      4  C   UNL     1      64.526  33.001  59.364  1.00  0.00     0.000 C 
BRANCH   4   5
ATOM      5  C   UNL     1      63.829  33.574  60.606  1.00  0.00     0.006 C 
BRANCH   5   6
ATOM      6  C   UNL     1      62.770  34.608  60.207  1.00  0.00     0.053 C 
BRANCH   6   7
ATOM      7  C   UNL     1      63.078  35.940  60.815  1.00  0.00     0.041 C 
ATOM      8  O   UNL     1      62.167  36.798  60.954  1.00  0.00    -0.550 OA
ATOM      9  O   UNL     1      64.364  36.225  61.253  1.00  0.00    -0.550 OA
ENDBRANCH   6   7
ENDBRANCH   5   6
ENDBRANCH   4   5
ENDBRANCH   3   4
ENDBRANCH   2   3
ENDBRANCH   1   2
BRANCH   1  10
ATOM     10  C   UNL     1      62.523  29.155  60.975  1.00  0.00     0.027 C 
BRANCH  10  11
ATOM     11  C   UNL     1      61.831  30.363  61.561  1.00  0.00    -0.031 C 
ATOM     12  C   UNL     1      61.008  31.150  60.847  1.00  0.00    -0.031 C 
BRANCH  12  13
ATOM     13  C   UNL     1      60.682  30.894  59.395  1.00  0.00     0.027 C 
BRANCH  13  14
ATOM     14  C   UNL     1      60.633  32.187  58.564  1.00  0.00     0.004 C 
BRANCH  14  15
ATOM     15  C   UNL     1      61.580  32.199  57.345  1.00  0.00     0.000 C 
BRANCH  15  16
ATOM     16  C   UNL     1      61.700  30.860  56.590  1.00  0.00    -0.000 C 
BRANCH  16  17
ATOM     17  C   UNL     1      63.115  30.258  56.560  1.00  0.00    -0.003 C 
ATOM     18  C   UNL     1      63.207  28.917  57.290  1.00  0.00     0.004 C 
ENDBRANCH  16  17
ENDBRANCH  15  16
ENDBRANCH  14  15
ENDBRANCH  13  14
ENDBRANCH  12  13
ENDBRANCH  10  11
ENDBRANCH   1  10
TORSDOF 13
ENDMDL
MODEL 4
REMARK VINA RESULT:    -3.362     11.630     13.290
REMARK INTER + INTRA:          -7.987
REMARK INTER:                  -6.664
REMARK INTRA:                  -1.323
REMARK UNBOUND:                -2.070
REMARK SMILES CCCCCCC=CCCCCCCCC(=O)[O-]
REMARK SMILES IDX 10 1 11 2 12 3 13 4 14 5 15 6 16 7 17 8 18 9 9 10 8 11 7 12
REMARK SMILES IDX 6 13 5 14 4 15 3 16 2 17 1 18
REMARK H PARENT
REMARK Flexibility Score: inf
ROOT
ATOM      1  C   UNL     1      61.603  28.205  49.717  1.00  0.00     0.004 C 
ENDROOT
BRANCH   1   2
ATOM      2  C   UNL     1      62.360  26.873  49.894  1.00  0.00     0.000 C 
BRANCH   2   3
ATOM      3  C   UNL     1      61.615  25.792  50.705  1.00  0.00     0.000 C 
BRANCH   3   4
ATOM      4  C   UNL     1      61.036  24.635  49.873  1.00  0.00     0.000 C 
BRANCH   4   5
ATOM      5  C   UNL     1      61.917  23.378  49.902  1.00  0.00     0.006 C 
BRANCH   5   6
ATOM      6  C   UNL     1      61.192  22.191  49.259  1.00  0.00     0.053 C 
BRANCH   6   7
ATOM      7  C   UNL     1      60.993  21.092  50.254  1.00  0.00     0.041 C 
ATOM      8  O   UNL     1      61.300  21.267  51.462  1.00  0.00    -0.550 OA
ATOM      9  O   UNL     1      60.442  19.882  49.853  1.00  0.00    -0.550 OA
ENDBRANCH   6   7
ENDBRANCH   5   6
ENDBRANCH   4   5
ENDBRANCH   3   4
ENDBRANCH   2   3
ENDBRANCH   1   2
BRANCH   1  10
ATOM     10  C   UNL     1      60.311  28.098  48.892  1.00  0.00     0.027 C 
BRANCH  10  11
ATOM     11  C   UNL     1      59.223  29.014  49.399  1.00  0.00    -0.031 C 
ATOM     12  C   UNL     1      58.262  28.607  50.246  1.00  0.00    -0.031 C 
BRANCH  12  13
ATOM     13  C   UNL     1      58.186  27.199  50.785  1.00  0.00     0.027 C 
BRANCH  13  14
ATOM     14  C   UNL     1      57.474  26.235  49.820  1.00  0.00     0.004 C 
BRANCH  14  15
ATOM     15  C   UNL     1      56.022  25.894  50.216  1.00  0.00     0.000 C 
BRANCH  15  16
ATOM     16  C   UNL     1      54.985  26.010  49.080  1.00  0.00    -0.000 C 
BRANCH  16  17
ATOM     17  C   UNL     1      53.869  27.040  49.325  1.00  0.00    -0.003 C 
ATOM     18  C   UNL     1      54.401  28.387  49.816  1.00  0.00     0.004 C 
ENDBRANCH  16  17
ENDBRANCH  15  16
ENDBRANCH  14  15
ENDBRANCH  13  14
ENDBRANCH  12  13
ENDBRANCH  10  11
ENDBRANCH   1  10
TORSDOF 13
ENDMDL
MODEL 5
REMARK VINA RESULT:    -3.354     10.791     13.078
REMARK INTER + INTRA:          -7.972
REMARK INTER:                  -6.201
REMARK INTRA:                  -1.772
REMARK UNBOUND:                -2.070
REMARK SMILES CCCCCCC=CCCCCCCCC(=O)[O-]
REMARK SMILES IDX 10 1 11 2 12 3 13 4 14 5 15 6 16 7 17 8 18 9 9 10 8 11 7 12
REMARK SMILES IDX 6 13 5 14 4 15 3 16 2 17 1 18
REMARK H PARENT
REMARK Flexibility Score: inf
ROOT
ATOM      1  C   UNL     1      57.898  29.119  52.650  1.00  0.00     0.004 C 
ENDROOT
BRANCH   1   2
ATOM      2  C   UNL     1      58.375  29.789  51.345  1.00  0.00     0.000 C 
BRANCH   2   3
ATOM      3  C   UNL     1      58.429  28.866  50.110  1.00  0.00     0.000 C 
BRANCH   3   4
ATOM      4  C   UNL     1      59.566  29.166  49.119  1.00  0.00     0.000 C 
BRANCH   4   5
ATOM      5  C   UNL     1      60.538  27.990  48.950  1.00  0.00     0.006 C 
BRANCH   5   6
ATOM      6  C   UNL     1      59.875  26.673  49.366  1.00  0.00     0.053 C 
BRANCH   6   7
ATOM      7  C   UNL     1      60.899  25.696  49.852  1.00  0.00     0.041 C 
ATOM      8  O   UNL     1      62.035  26.098  50.216  1.00  0.00    -0.550 OA
ATOM      9  O   UNL     1      60.591  24.345  49.930  1.00  0.00    -0.550 OA
ENDBRANCH   6   7
ENDBRANCH   5   6
ENDBRANCH   4   5
ENDBRANCH   3   4
ENDBRANCH   2   3
ENDBRANCH   1   2
BRANCH   1  10
ATOM     10  C   UNL     1      56.377  29.155  52.866  1.00  0.00     0.027 C 
BRANCH  10  11
ATOM     11  C   UNL     1      55.728  30.346  52.204  1.00  0.00    -0.031 C 
ATOM     12  C   UNL     1      54.651  30.241  51.406  1.00  0.00    -0.031 C 
BRANCH  12  13
ATOM     13  C   UNL     1      53.977  28.923  51.108  1.00  0.00     0.027 C 
BRANCH  13  14
ATOM     14  C   UNL     1      54.322  28.387  49.708  1.00  0.00     0.004 C 
BRANCH  14  15
ATOM     15  C   UNL     1      53.818  26.955  49.432  1.00  0.00     0.000 C 
BRANCH  15  16
ATOM     16  C   UNL     1      54.917  25.919  49.117  1.00  0.00    -0.000 C 
BRANCH  16  17
ATOM     17  C   UNL     1      56.287  26.216  49.750  1.00  0.00    -0.003 C 
ATOM     18  C   UNL     1      56.355  25.829  51.228  1.00  0.00     0.004 C 
ENDBRANCH  16  17
ENDBRANCH  15  16
ENDBRANCH  14  15
ENDBRANCH  13  14
ENDBRANCH  12  13
ENDBRANCH  10  11
ENDBRANCH   1  10
TORSDOF 13
ENDMDL
MODEL 6
REMARK VINA RESULT:    -3.301      3.841      6.078
REMARK INTER + INTRA:          -7.879
REMARK INTER:                  -5.744
REMARK INTRA:                  -2.135
REMARK UNBOUND:                -2.070
REMARK SMILES CCCCCCC=CCCCCCCCC(=O)[O-]
REMARK SMILES IDX 10 1 11 2 12 3 13 4 14 5 15 6 16 7 17 8 18 9 9 10 8 11 7 12
REMARK SMILES IDX 6 13 5 14 4 15 3 16 2 17 1 18
REMARK H PARENT
REMARK Flexibility Score: inf
ROOT
ATOM      1  C   UNL     1      64.263  29.511  59.933  1.00  0.00     0.004 C 
ENDROOT
BRANCH   1   2
ATOM      2  C   UNL     1      64.774  30.927  60.274  1.00  0.00     0.000 C 
BRANCH   2   3
ATOM      3  C   UNL     1      65.074  31.831  59.061  1.00  0.00     0.000 C 
BRANCH   3   4
ATOM      4  C   UNL     1      64.548  33.272  59.176  1.00  0.00     0.000 C 
BRANCH   4   5
ATOM      5  C   UNL     1      64.459  33.763  60.628  1.00  0.00     0.006 C 
BRANCH   5   6
ATOM      6  C   UNL     1      65.180  35.104  60.794  1.00  0.00     0.053 C 
BRANCH   6   7
ATOM      7  C   UNL     1      64.253  36.137  61.351  1.00  0.00     0.041 C 
ATOM      8  O   UNL     1      63.027  36.107  61.068  1.00  0.00    -0.550 OA
ATOM      9  O   UNL     1      64.737  37.119  62.206  1.00  0.00    -0.550 OA
ENDBRANCH   6   7
ENDBRANCH   5   6
ENDBRANCH   4   5
ENDBRANCH   3   4
ENDBRANCH   2   3
ENDBRANCH   1   2
BRANCH   1  10
ATOM     10  C   UNL     1      63.316  28.907  60.982  1.00  0.00     0.027 C 
BRANCH  10  11
ATOM     11  C   UNL     1      61.940  28.629  60.427  1.00  0.00    -0.031 C 
ATOM     12  C   UNL     1      60.896  29.453  60.618  1.00  0.00    -0.031 C 
BRANCH  12  13
ATOM     13  C   UNL     1      61.001  30.745  61.393  1.00  0.00     0.027 C 
BRANCH  13  14
ATOM     14  C   UNL     1      61.303  31.952  60.488  1.00  0.00     0.004 C 
BRANCH  14  15
ATOM     15  C   UNL     1      61.102  31.685  58.981  1.00  0.00     0.000 C 
BRANCH  15  16
ATOM     16  C   UNL     1      60.792  32.932  58.127  1.00  0.00    -0.000 C 
BRANCH  16  17
ATOM     17  C   UNL     1      61.038  34.277  58.831  1.00  0.00    -0.003 C 
ATOM     18  C   UNL     1      61.617  35.339  57.896  1.00  0.00     0.004 C 
ENDBRANCH  16  17
ENDBRANCH  15  16
ENDBRANCH  14  15
ENDBRANCH  13  14
ENDBRANCH  12  13
ENDBRANCH  10  11
ENDBRANCH   1  10
TORSDOF 13
ENDMDL
MODEL 7
REMARK VINA RESULT:    -3.287     11.608     13.627
REMARK INTER + INTRA:          -7.855
REMARK INTER:                  -5.912
REMARK INTRA:                  -1.942
REMARK UNBOUND:                -2.070
REMARK SMILES CCCCCCC=CCCCCCCCC(=O)[O-]
REMARK SMILES IDX 10 1 11 2 12 3 13 4 14 5 15 6 16 7 17 8 18 9 9 10 8 11 7 12
REMARK SMILES IDX 6 13 5 14 4 15 3 16 2 17 1 18
REMARK H PARENT
REMARK Flexibility Score: inf
ROOT
ATOM      1  C   UNL     1      56.645  26.443  49.825  1.00  0.00     0.004 C 
ENDROOT
BRANCH   1   2
ATOM      2  C   UNL     1      55.293  25.749  50.088  1.00  0.00     0.000 C 
BRANCH   2   3
ATOM      3  C   UNL     1      54.315  25.733  48.894  1.00  0.00     0.000 C 
BRANCH   3   4
ATOM      4  C   UNL     1      53.283  26.874  48.881  1.00  0.00     0.000 C 
BRANCH   4   5
ATOM      5  C   UNL     1      53.244  27.661  50.198  1.00  0.00     0.006 C 
BRANCH   5   6
ATOM      6  C   UNL     1      53.592  29.134  49.962  1.00  0.00     0.053 C 
BRANCH   6   7
ATOM      7  C   UNL     1      53.965  29.802  51.248  1.00  0.00     0.041 C 
ATOM      8  O   UNL     1      54.035  29.133  52.312  1.00  0.00    -0.550 OA
ATOM      9  O   UNL     1      54.263  31.158  51.268  1.00  0.00    -0.550 OA
ENDBRANCH   6   7
ENDBRANCH   5   6
ENDBRANCH   4   5
ENDBRANCH   3   4
ENDBRANCH   2   3
ENDBRANCH   1   2
BRANCH   1  10
ATOM     10  C   UNL     1      56.989  27.565  50.818  1.00  0.00     0.027 C 
BRANCH  10  11
ATOM     11  C   UNL     1      57.363  28.854  50.128  1.00  0.00    -0.031 C 
ATOM     12  C   UNL     1      58.613  29.349  50.133  1.00  0.00    -0.031 C 
BRANCH  12  13
ATOM     13  C   UNL     1      59.767  28.654  50.816  1.00  0.00     0.027 C 
BRANCH  13  14
ATOM     14  C   UNL     1      61.047  28.663  49.965  1.00  0.00     0.004 C 
BRANCH  14  15
ATOM     15  C   UNL     1      61.466  27.277  49.428  1.00  0.00     0.000 C 
BRANCH  15  16
ATOM     16  C   UNL     1      60.327  26.242  49.316  1.00  0.00    -0.000 C 
BRANCH  16  17
ATOM     17  C   UNL     1      60.532  24.962  50.143  1.00  0.00    -0.003 C 
ATOM     18  C   UNL     1      59.646  24.911  51.388  1.00  0.00     0.004 C 
ENDBRANCH  16  17
ENDBRANCH  15  16
ENDBRANCH  14  15
ENDBRANCH  13  14
ENDBRANCH  12  13
ENDBRANCH  10  11
ENDBRANCH   1  10
TORSDOF 13
ENDMDL
MODEL 8
REMARK VINA RESULT:    -3.258     11.331     13.490
REMARK INTER + INTRA:          -7.805
REMARK INTER:                  -6.122
REMARK INTRA:                  -1.682
REMARK UNBOUND:                -2.070
REMARK SMILES CCCCCCC=CCCCCCCCC(=O)[O-]
REMARK SMILES IDX 10 1 11 2 12 3 13 4 14 5 15 6 16 7 17 8 18 9 9 10 8 11 7 12
REMARK SMILES IDX 6 13 5 14 4 15 3 16 2 17 1 18
REMARK H PARENT
REMARK Flexibility Score: inf
ROOT
ATOM      1  C   UNL     1      57.416  26.424  49.982  1.00  0.00     0.004 C 
ENDROOT
BRANCH   1   2
ATOM      2  C   UNL     1      58.107  27.541  50.792  1.00  0.00     0.000 C 
BRANCH   2   3
ATOM      3  C   UNL     1      58.545  28.774  49.975  1.00  0.00     0.000 C 
BRANCH   3   4
ATOM      4  C   UNL     1      59.680  28.521  48.969  1.00  0.00     0.000 C 
BRANCH   4   5
ATOM      5  C   UNL     1      60.741  27.543  49.496  1.00  0.00     0.006 C 
BRANCH   5   6
ATOM      6  C   UNL     1      62.135  28.178  49.453  1.00  0.00     0.053 C 
BRANCH   6   7
ATOM      7  C   UNL     1      62.220  29.331  50.402  1.00  0.00     0.041 C 
ATOM      8  O   UNL     1      62.334  30.506  49.963  1.00  0.00    -0.550 OA
ATOM      9  O   UNL     1      62.145  29.113  51.771  1.00  0.00    -0.550 OA
ENDBRANCH   6   7
ENDBRANCH   5   6
ENDBRANCH   4   5
ENDBRANCH   3   4
ENDBRANCH   2   3
ENDBRANCH   1   2
BRANCH   1  10
ATOM     10  C   UNL     1      55.896  26.331  50.194  1.00  0.00     0.027 C 
BRANCH  10  11
ATOM     11  C   UNL     1      55.183  25.732  49.006  1.00  0.00    -0.031 C 
ATOM     12  C   UNL     1      53.864  25.885  48.793  1.00  0.00    -0.031 C 
BRANCH  12  13
ATOM     13  C   UNL     1      52.973  26.686  49.712  1.00  0.00     0.027 C 
BRANCH  13  14
ATOM     14  C   UNL     1      52.875  28.164  49.300  1.00  0.00     0.004 C 
BRANCH  14  15
ATOM     15  C   UNL     1      53.247  29.164  50.415  1.00  0.00     0.000 C 
BRANCH  15  16
ATOM     16  C   UNL     1      54.658  29.777  50.307  1.00  0.00    -0.000 C 
BRANCH  16  17
ATOM     17  C   UNL     1      55.398  29.939  51.646  1.00  0.00    -0.003 C 
ATOM     18  C   UNL     1      54.989  28.892  52.682  1.00  0.00     0.004 C 
ENDBRANCH  16  17
ENDBRANCH  15  16
ENDBRANCH  14  15
ENDBRANCH  13  14
ENDBRANCH  12  13
ENDBRANCH  10  11
ENDBRANCH   1  10
TORSDOF 13
ENDMDL
MODEL 9
REMARK VINA RESULT:    -3.230     10.623     12.497
REMARK INTER + INTRA:          -7.754
REMARK INTER:                  -5.538
REMARK INTRA:                  -2.216
REMARK UNBOUND:                -2.070
REMARK SMILES CCCCCCC=CCCCCCCCC(=O)[O-]
REMARK SMILES IDX 10 1 11 2 12 3 13 4 14 5 15 6 16 7 17 8 18 9 9 10 8 11 7 12
REMARK SMILES IDX 6 13 5 14 4 15 3 16 2 17 1 18
REMARK H PARENT
REMARK Flexibility Score: inf
ROOT
ATOM      1  C   UNL     1      59.741  29.320  50.007  1.00  0.00     0.004 C 
ENDROOT
BRANCH   1   2
ATOM      2  C   UNL     1      58.344  29.424  50.652  1.00  0.00     0.000 C 
BRANCH   2   3
ATOM      3  C   UNL     1      57.317  28.376  50.177  1.00  0.00     0.000 C 
BRANCH   3   4
ATOM      4  C   UNL     1      55.864  28.643  50.607  1.00  0.00     0.000 C 
BRANCH   4   5
ATOM      5  C   UNL     1      54.842  27.823  49.806  1.00  0.00     0.006 C 
BRANCH   5   6
ATOM      6  C   UNL     1      55.426  26.462  49.413  1.00  0.00     0.053 C 
BRANCH   6   7
ATOM      7  C   UNL     1      54.673  25.353  50.076  1.00  0.00     0.041 C 
ATOM      8  O   UNL     1      54.054  24.504  49.382  1.00  0.00    -0.550 OA
ATOM      9  O   UNL     1      54.675  25.239  51.460  1.00  0.00    -0.550 OA
ENDBRANCH   6   7
ENDBRANCH   5   6
ENDBRANCH   4   5
ENDBRANCH   3   4
ENDBRANCH   2   3
ENDBRANCH   1   2
BRANCH   1  10
ATOM     10  C   UNL     1      59.900  28.155  49.017  1.00  0.00     0.027 C 
BRANCH  10  11
ATOM     11  C   UNL     1      61.048  27.243  49.376  1.00  0.00    -0.031 C 
ATOM     12  C   UNL     1      60.872  26.009  49.877  1.00  0.00    -0.031 C 
BRANCH  12  13
ATOM     13  C   UNL     1      59.507  25.407  50.114  1.00  0.00     0.027 C 
BRANCH  13  14
ATOM     14  C   UNL     1      59.001  25.637  51.548  1.00  0.00     0.004 C 
BRANCH  14  15
ATOM     15  C   UNL     1      60.116  25.902  52.582  1.00  0.00     0.000 C 
BRANCH  15  16
ATOM     16  C   UNL     1      60.112  27.312  53.209  1.00  0.00    -0.000 C 
BRANCH  16  17
ATOM     17  C   UNL     1      61.486  27.812  53.685  1.00  0.00    -0.003 C 
ATOM     18  C   UNL     1      62.219  28.635  52.624  1.00  0.00     0.004 C 
ENDBRANCH  16  17
ENDBRANCH  15  16
ENDBRANCH  14  15
ENDBRANCH  13  14
ENDBRANCH  12  13
ENDBRANCH  10  11
ENDBRANCH   1  10
TORSDOF 13
ENDMDL
