MODEL 1
REMARK VINA RESULT:    -2.239      0.000      0.000
REMARK INTER + INTRA:          -3.982
REMARK INTER:                  -3.810
REMARK INTRA:                  -0.172
REMARK UNBOUND:                -0.172
REMARK SMILES CCCCCCCCCCCCCC(=O)[O-]
REMARK SMILES IDX 8 1 9 2 10 3 11 4 12 5 13 6 14 7 15 8 16 9 7 10 6 11 5 12
REMARK SMILES IDX 4 13 3 14 2 15 1 16
REMARK H PARENT
REMARK Flexibility Score: inf
ROOT
ATOM      1  C   UNL     1       4.197 134.584 153.476  1.00  0.00     0.000 C 
ENDROOT
BRANCH   1   2
ATOM      2  C   UNL     1       4.640 133.474 154.444  1.00  0.00     0.000 C 
BRANCH   2   3
ATOM      3  C   UNL     1       3.782 132.201 154.326  1.00  0.00     0.000 C 
BRANCH   3   4
ATOM      4  C   UNL     1       2.403 132.396 153.663  1.00  0.00     0.000 C 
BRANCH   4   5
ATOM      5  C   UNL     1       2.322 131.971 152.186  1.00  0.00     0.006 C 
BRANCH   5   6
ATOM      6  C   UNL     1       3.010 132.965 151.242  1.00  0.00     0.053 C 
BRANCH   6   7
ATOM      7  C   UNL     1       4.253 132.363 150.667  1.00  0.00     0.041 C 
ATOM      8  O   UNL     1       5.284 132.238 151.378  1.00  0.00    -0.550 OA
ATOM      9  O   UNL     1       4.258 131.893 149.359  1.00  0.00    -0.550 OA
ENDBRANCH   6   7
ENDBRANCH   5   6
ENDBRANCH   4   5
ENDBRANCH   3   4
ENDBRANCH   2   3
ENDBRANCH   1   2
BRANCH   1  10
ATOM     10  C   UNL     1       4.122 135.961 154.153  1.00  0.00     0.000 C 
BRANCH  10  11
ATOM     11  C   UNL     1       3.735 135.874 155.638  1.00  0.00    -0.000 C 
BRANCH  11  12
ATOM     12  C   UNL     1       2.277 135.425 155.799  1.00  0.00    -0.000 C 
BRANCH  12  13
ATOM     13  C   UNL     1       1.573 136.228 156.900  1.00  0.00    -0.000 C 
BRANCH  13  14
ATOM     14  C   UNL     1       2.556 137.173 157.607  1.00  0.00    -0.000 C 
BRANCH  14  15
ATOM     15  C   UNL     1       1.921 137.901 158.801  1.00  0.00    -0.003 C 
ATOM     16  C   UNL     1       1.577 136.959 159.953  1.00  0.00     0.004 C 
ENDBRANCH  14  15
ENDBRANCH  13  14
ENDBRANCH  12  13
ENDBRANCH  11  12
ENDBRANCH  10  11
ENDBRANCH   1  10
TORSDOF 12
ENDMDL
MODEL 2
REMARK VINA RESULT:    -1.814      3.936      7.337
REMARK INTER + INTRA:          -3.258
REMARK INTER:                  -2.889
REMARK INTRA:                  -0.369
REMARK UNBOUND:                -0.172
REMARK SMILES CCCCCCCCCCCCCC(=O)[O-]
REMARK SMILES IDX 8 1 9 2 10 3 11 4 12 5 13 6 14 7 15 8 16 9 7 10 6 11 5 12
REMARK SMILES IDX 4 13 3 14 2 15 1 16
REMARK H PARENT
REMARK Flexibility Score: inf
ROOT
ATOM      1  C   UNL     1       4.225 134.506 153.525  1.00  0.00     0.000 C 
ENDROOT
BRANCH   1   2
ATOM      2  C   UNL     1       4.230 135.890 154.196  1.00  0.00     0.000 C 
BRANCH   2   3
ATOM      3  C   UNL     1       3.686 135.858 155.636  1.00  0.00     0.000 C 
BRANCH   3   4
ATOM      4  C   UNL     1       2.149 135.855 155.759  1.00  0.00     0.000 C 
BRANCH   4   5
ATOM      5  C   UNL     1       1.604 136.197 157.157  1.00  0.00     0.006 C 
BRANCH   5   6
ATOM      6  C   UNL     1       2.355 137.357 157.821  1.00  0.00     0.053 C 
BRANCH   6   7
ATOM      7  C   UNL     1       1.915 137.520 159.241  1.00  0.00     0.041 C 
ATOM      8  O   UNL     1       1.410 136.549 159.863  1.00  0.00    -0.550 OA
ATOM      9  O   UNL     1       2.107 138.731 159.895  1.00  0.00    -0.550 OA
ENDBRANCH   6   7
ENDBRANCH   5   6
ENDBRANCH   4   5
ENDBRANCH   3   4
ENDBRANCH   2   3
ENDBRANCH   1   2
BRANCH   1  10
ATOM     10  C   UNL     1       4.585 133.376 154.502  1.00  0.00     0.000 C 
BRANCH  10  11
ATOM     11  C   UNL     1       3.669 132.150 154.356  1.00  0.00    -0.000 C 
BRANCH  11  12
ATOM     12  C   UNL     1       2.290 132.556 153.823  1.00  0.00    -0.000 C 
BRANCH  12  13
ATOM     13  C   UNL     1       2.096 132.081 152.378  1.00  0.00    -0.000 C 
BRANCH  13  14
ATOM     14  C   UNL     1       2.821 133.008 151.392  1.00  0.00    -0.000 C 
BRANCH  14  15
ATOM     15  C   UNL     1       3.885 132.273 150.562  1.00  0.00    -0.003 C 
ATOM     16  C   UNL     1       5.292 132.424 151.138  1.00  0.00     0.004 C 
ENDBRANCH  14  15
ENDBRANCH  13  14
ENDBRANCH  12  13
ENDBRANCH  11  12
ENDBRANCH  10  11
ENDBRANCH   1  10
TORSDOF 12
ENDMDL
MODEL 3
REMARK VINA RESULT:    -1.355      0.964      1.394
REMARK INTER + INTRA:          -2.478
REMARK INTER:                  -2.352
REMARK INTRA:                  -0.126
REMARK UNBOUND:                -0.172
REMARK SMILES CCCCCCCCCCCCCC(=O)[O-]
REMARK SMILES IDX 8 1 9 2 10 3 11 4 12 5 13 6 14 7 15 8 16 9 7 10 6 11 5 12
REMARK SMILES IDX 4 13 3 14 2 15 1 16
REMARK H PARENT
REMARK Flexibility Score: inf
ROOT
ATOM      1  C   UNL     1       4.641 133.403 154.492  1.00  0.00     0.000 C 
ENDROOT
BRANCH   1   2
ATOM      2  C   UNL     1       3.844 132.117 154.215  1.00  0.00     0.000 C 
BRANCH   2   3
ATOM      3  C   UNL     1       2.358 132.387 153.919  1.00  0.00     0.000 C 
BRANCH   3   4
ATOM      4  C   UNL     1       1.968 132.358 152.427  1.00  0.00     0.000 C 
BRANCH   4   5
ATOM      5  C   UNL     1       2.803 133.275 151.515  1.00  0.00     0.006 C 
BRANCH   5   6
ATOM      6  C   UNL     1       3.679 132.493 150.528  1.00  0.00     0.053 C 
BRANCH   6   7
ATOM      7  C   UNL     1       5.018 132.209 151.130  1.00  0.00     0.041 C 
ATOM      8  O   UNL     1       5.865 133.132 151.257  1.00  0.00    -0.550 OA
ATOM      9  O   UNL     1       5.315 130.935 151.599  1.00  0.00    -0.550 OA
ENDBRANCH   6   7
ENDBRANCH   5   6
ENDBRANCH   4   5
ENDBRANCH   3   4
ENDBRANCH   2   3
ENDBRANCH   1   2
BRANCH   1  10
ATOM     10  C   UNL     1       3.877 134.671 154.079  1.00  0.00     0.000 C 
BRANCH  10  11
ATOM     11  C   UNL     1       3.979 135.793 155.124  1.00  0.00    -0.000 C 
BRANCH  11  12
ATOM     12  C   UNL     1       2.674 135.922 155.920  1.00  0.00    -0.000 C 
BRANCH  12  13
ATOM     13  C   UNL     1       2.875 136.786 157.171  1.00  0.00    -0.000 C 
BRANCH  13  14
ATOM     14  C   UNL     1       1.539 137.035 157.887  1.00  0.00    -0.000 C 
BRANCH  14  15
ATOM     15  C   UNL     1       1.693 137.123 159.412  1.00  0.00    -0.003 C 
ATOM     16  C   UNL     1       2.079 138.522 159.889  1.00  0.00     0.004 C 
ENDBRANCH  14  15
ENDBRANCH  13  14
ENDBRANCH  12  13
ENDBRANCH  11  12
ENDBRANCH  10  11
ENDBRANCH   1  10
TORSDOF 12
ENDMDL
MODEL 4
REMARK VINA RESULT:    -1.348      3.997      7.109
REMARK INTER + INTRA:          -2.466
REMARK INTER:                  -2.022
REMARK INTRA:                  -0.444
REMARK UNBOUND:                -0.172
REMARK SMILES CCCCCCCCCCCCCC(=O)[O-]
REMARK SMILES IDX 8 1 9 2 10 3 11 4 12 5 13 6 14 7 15 8 16 9 7 10 6 11 5 12
REMARK SMILES IDX 4 13 3 14 2 15 1 16
REMARK H PARENT
REMARK Flexibility Score: inf
ROOT
ATOM      1  C   UNL     1       4.356 134.521 154.095  1.00  0.00     0.000 C 
ENDROOT
BRANCH   1   2
ATOM      2  C   UNL     1       4.022 135.972 154.481  1.00  0.00     0.000 C 
BRANCH   2   3
ATOM      3  C   UNL     1       3.591 136.114 155.952  1.00  0.00     0.000 C 
BRANCH   3   4
ATOM      4  C   UNL     1       2.144 135.679 156.259  1.00  0.00     0.000 C 
BRANCH   4   5
ATOM      5  C   UNL     1       1.339 136.655 157.135  1.00  0.00     0.006 C 
BRANCH   5   6
ATOM      6  C   UNL     1       2.232 137.624 157.920  1.00  0.00     0.053 C 
BRANCH   6   7
ATOM      7  C   UNL     1       1.875 137.601 159.373  1.00  0.00     0.041 C 
ATOM      8  O   UNL     1       1.443 136.544 159.903  1.00  0.00    -0.550 OA
ATOM      9  O   UNL     1       2.068 138.734 160.155  1.00  0.00    -0.550 OA
ENDBRANCH   6   7
ENDBRANCH   5   6
ENDBRANCH   4   5
ENDBRANCH   3   4
ENDBRANCH   2   3
ENDBRANCH   1   2
BRANCH   1  10
ATOM     10  C   UNL     1       4.743 134.379 152.614  1.00  0.00     0.000 C 
BRANCH  10  11
ATOM     11  C   UNL     1       5.349 133.005 152.287  1.00  0.00    -0.000 C 
BRANCH  11  12
ATOM     12  C   UNL     1       4.306 132.085 151.641  1.00  0.00    -0.000 C 
BRANCH  12  13
ATOM     13  C   UNL     1       3.001 132.842 151.362  1.00  0.00    -0.000 C 
BRANCH  13  14
ATOM     14  C   UNL     1       1.910 132.444 152.367  1.00  0.00    -0.000 C 
BRANCH  14  15
ATOM     15  C   UNL     1       2.464 131.645 153.556  1.00  0.00    -0.003 C 
ATOM     16  C   UNL     1       2.215 132.330 154.898  1.00  0.00     0.004 C 
ENDBRANCH  14  15
ENDBRANCH  13  14
ENDBRANCH  12  13
ENDBRANCH  11  12
ENDBRANCH  10  11
ENDBRANCH   1  10
TORSDOF 12
ENDMDL
MODEL 5
REMARK VINA RESULT:    -1.156      1.873      2.719
REMARK INTER + INTRA:          -2.139
REMARK INTER:                  -2.688
REMARK INTRA:                   0.549
REMARK UNBOUND:                -0.172
REMARK SMILES CCCCCCCCCCCCCC(=O)[O-]
REMARK SMILES IDX 8 1 9 2 10 3 11 4 12 5 13 6 14 7 15 8 16 9 7 10 6 11 5 12
REMARK SMILES IDX 4 13 3 14 2 15 1 16
REMARK H PARENT
REMARK Flexibility Score: inf
ROOT
ATOM      1  C   UNL     1       5.031 133.635 153.230  1.00  0.00     0.000 C 
ENDROOT
BRANCH   1   2
ATOM      2  C   UNL     1       5.429 133.022 151.877  1.00  0.00     0.000 C 
BRANCH   2   3
ATOM      3  C   UNL     1       4.283 132.233 151.218  1.00  0.00     0.000 C 
BRANCH   3   4
ATOM      4  C   UNL     1       2.949 132.996 151.086  1.00  0.00     0.000 C 
BRANCH   4   5
ATOM      5  C   UNL     1       1.866 132.601 152.105  1.00  0.00     0.006 C 
BRANCH   5   6
ATOM      6  C   UNL     1       2.314 131.472 153.042  1.00  0.00     0.053 C 
BRANCH   6   7
ATOM      7  C   UNL     1       2.607 132.012 154.406  1.00  0.00     0.041 C 
ATOM      8  O   UNL     1       1.730 132.663 155.032  1.00  0.00    -0.550 OA
ATOM      9  O   UNL     1       3.833 131.754 155.008  1.00  0.00    -0.550 OA
ENDBRANCH   6   7
ENDBRANCH   5   6
ENDBRANCH   4   5
ENDBRANCH   3   4
ENDBRANCH   2   3
ENDBRANCH   1   2
BRANCH   1  10
ATOM     10  C   UNL     1       4.240 134.943 153.075  1.00  0.00     0.000 C 
BRANCH  10  11
ATOM     11  C   UNL     1       4.379 135.870 154.292  1.00  0.00    -0.000 C 
BRANCH  11  12
ATOM     12  C   UNL     1       3.264 135.608 155.312  1.00  0.00    -0.000 C 
BRANCH  12  13
ATOM     13  C   UNL     1       3.350 136.588 156.488  1.00  0.00    -0.000 C 
BRANCH  13  14
ATOM     14  C   UNL     1       2.080 136.527 157.349  1.00  0.00    -0.000 C 
BRANCH  14  15
ATOM     15  C   UNL     1       1.959 137.721 158.308  1.00  0.00    -0.003 C 
ATOM     16  C   UNL     1       1.533 137.308 159.716  1.00  0.00     0.004 C 
ENDBRANCH  14  15
ENDBRANCH  13  14
ENDBRANCH  12  13
ENDBRANCH  11  12
ENDBRANCH  10  11
ENDBRANCH   1  10
TORSDOF 12
ENDMDL
MODEL 6
REMARK VINA RESULT:    -0.854      3.781      7.425
REMARK INTER + INTRA:          -1.625
REMARK INTER:                  -1.332
REMARK INTRA:                  -0.293
REMARK UNBOUND:                -0.172
REMARK SMILES CCCCCCCCCCCCCC(=O)[O-]
REMARK SMILES IDX 8 1 9 2 10 3 11 4 12 5 13 6 14 7 15 8 16 9 7 10 6 11 5 12
REMARK SMILES IDX 4 13 3 14 2 15 1 16
REMARK H PARENT
REMARK Flexibility Score: inf
ROOT
ATOM      1  C   UNL     1       2.510 133.650 154.884  1.00  0.00     0.000 C 
ENDROOT
BRANCH   1   2
ATOM      2  C   UNL     1       3.838 134.357 154.567  1.00  0.00     0.000 C 
BRANCH   2   3
ATOM      3  C   UNL     1       3.781 135.875 154.817  1.00  0.00     0.000 C 
BRANCH   3   4
ATOM      4  C   UNL     1       3.644 136.294 156.295  1.00  0.00     0.000 C 
BRANCH   4   5
ATOM      5  C   UNL     1       2.199 136.483 156.790  1.00  0.00     0.006 C 
BRANCH   5   6
ATOM      6  C   UNL     1       2.039 137.701 157.708  1.00  0.00     0.053 C 
BRANCH   6   7
ATOM      7  C   UNL     1       1.810 137.263 159.120  1.00  0.00     0.041 C 
ATOM      8  O   UNL     1       1.692 138.116 160.037  1.00  0.00    -0.550 OA
ATOM      9  O   UNL     1       1.676 135.911 159.416  1.00  0.00    -0.550 OA
ENDBRANCH   6   7
ENDBRANCH   5   6
ENDBRANCH   4   5
ENDBRANCH   3   4
ENDBRANCH   2   3
ENDBRANCH   1   2
BRANCH   1  10
ATOM     10  C   UNL     1       2.631 132.119 154.835  1.00  0.00     0.000 C 
BRANCH  10  11
ATOM     11  C   UNL     1       2.895 131.588 153.417  1.00  0.00    -0.000 C 
BRANCH  11  12
ATOM     12  C   UNL     1       2.057 132.348 152.382  1.00  0.00    -0.000 C 
BRANCH  12  13
ATOM     13  C   UNL     1       2.940 133.252 151.514  1.00  0.00    -0.000 C 
BRANCH  13  14
ATOM     14  C   UNL     1       3.642 132.442 150.414  1.00  0.00    -0.000 C 
BRANCH  14  15
ATOM     15  C   UNL     1       5.097 132.100 150.769  1.00  0.00    -0.003 C 
ATOM     16  C   UNL     1       5.636 132.940 151.926  1.00  0.00     0.004 C 
ENDBRANCH  14  15
ENDBRANCH  13  14
ENDBRANCH  12  13
ENDBRANCH  11  12
ENDBRANCH  10  11
ENDBRANCH   1  10
TORSDOF 12
ENDMDL
MODEL 7
REMARK VINA RESULT:    -0.069      3.995      7.235
REMARK INTER + INTRA:          -0.290
REMARK INTER:                  -0.347
REMARK INTRA:                   0.057
REMARK UNBOUND:                -0.172
REMARK SMILES CCCCCCCCCCCCCC(=O)[O-]
REMARK SMILES IDX 8 1 9 2 10 3 11 4 12 5 13 6 14 7 15 8 16 9 7 10 6 11 5 12
REMARK SMILES IDX 4 13 3 14 2 15 1 16
REMARK H PARENT
REMARK Flexibility Score: inf
ROOT
ATOM      1  C   UNL     1       2.541 132.158 154.882  1.00  0.00     0.000 C 
ENDROOT
BRANCH   1   2
ATOM      2  C   UNL     1       1.838 133.520 155.018  1.00  0.00     0.000 C 
BRANCH   2   3
ATOM      3  C   UNL     1       2.731 134.591 155.670  1.00  0.00     0.000 C 
BRANCH   3   4
ATOM      4  C   UNL     1       1.990 135.845 156.176  1.00  0.00     0.000 C 
BRANCH   4   5
ATOM      5  C   UNL     1       2.755 136.682 157.217  1.00  0.00     0.006 C 
BRANCH   5   6
ATOM      6  C   UNL     1       1.889 137.775 157.855  1.00  0.00     0.053 C 
BRANCH   6   7
ATOM      7  C   UNL     1       1.866 137.620 159.343  1.00  0.00     0.041 C 
ATOM      8  O   UNL     1       2.031 138.621 160.087  1.00  0.00    -0.550 OA
ATOM      9  O   UNL     1       1.613 136.376 159.909  1.00  0.00    -0.550 OA
ENDBRANCH   6   7
ENDBRANCH   5   6
ENDBRANCH   4   5
ENDBRANCH   3   4
ENDBRANCH   2   3
ENDBRANCH   1   2
BRANCH   1  10
ATOM     10  C   UNL     1       2.425 131.573 153.466  1.00  0.00     0.000 C 
BRANCH  10  11
ATOM     11  C   UNL     1       1.800 132.557 152.465  1.00  0.00    -0.000 C 
BRANCH  11  12
ATOM     12  C   UNL     1       2.836 133.026 151.436  1.00  0.00    -0.000 C 
BRANCH  12  13
ATOM     13  C   UNL     1       4.073 132.119 151.449  1.00  0.00    -0.000 C 
BRANCH  13  14
ATOM     14  C   UNL     1       5.320 132.897 151.897  1.00  0.00    -0.000 C 
BRANCH  14  15
ATOM     15  C   UNL     1       5.152 133.531 153.286  1.00  0.00    -0.003 C 
ATOM     16  C   UNL     1       4.516 134.918 153.230  1.00  0.00     0.004 C 
ENDBRANCH  14  15
ENDBRANCH  13  14
ENDBRANCH  12  13
ENDBRANCH  11  12
ENDBRANCH  10  11
ENDBRANCH   1  10
TORSDOF 12
ENDMDL
MODEL 8
REMARK VINA RESULT:    -0.000      1.732      2.536
REMARK INTER + INTRA:          -0.173
REMARK INTER:                  -0.703
REMARK INTRA:                   0.530
REMARK UNBOUND:                -0.172
REMARK SMILES CCCCCCCCCCCCCC(=O)[O-]
REMARK SMILES IDX 8 1 9 2 10 3 11 4 12 5 13 6 14 7 15 8 16 9 7 10 6 11 5 12
REMARK SMILES IDX 4 13 3 14 2 15 1 16
REMARK H PARENT
REMARK Flexibility Score: inf
ROOT
ATOM      1  C   UNL     1       4.278 135.888 154.026  1.00  0.00     0.000 C 
ENDROOT
BRANCH   1   2
ATOM      2  C   UNL     1       3.966 134.630 153.198  1.00  0.00     0.000 C 
BRANCH   2   3
ATOM      3  C   UNL     1       5.225 133.816 152.850  1.00  0.00     0.000 C 
BRANCH   3   4
ATOM      4  C   UNL     1       5.028 132.725 151.777  1.00  0.00     0.000 C 
BRANCH   4   5
ATOM      5  C   UNL     1       4.311 131.452 152.262  1.00  0.00     0.006 C 
BRANCH   5   6
ATOM      6  C   UNL     1       3.847 131.550 153.720  1.00  0.00     0.053 C 
BRANCH   6   7
ATOM      7  C   UNL     1       2.450 132.080 153.789  1.00  0.00     0.041 C 
ATOM      8  O   UNL     1       1.905 132.290 154.904  1.00  0.00    -0.550 OA
ATOM      9  O   UNL     1       1.764 132.389 152.619  1.00  0.00    -0.550 OA
ENDBRANCH   6   7
ENDBRANCH   5   6
ENDBRANCH   4   5
ENDBRANCH   3   4
ENDBRANCH   2   3
ENDBRANCH   1   2
BRANCH   1  10
ATOM     10  C   UNL     1       3.813 135.764 155.485  1.00  0.00     0.000 C 
BRANCH  10  11
ATOM     11  C   UNL     1       2.292 135.584 155.612  1.00  0.00    -0.000 C 
BRANCH  11  12
ATOM     12  C   UNL     1       1.757 136.297 156.859  1.00  0.00    -0.000 C 
BRANCH  12  13
ATOM     13  C   UNL     1       2.855 137.131 157.530  1.00  0.00    -0.000 C 
BRANCH  13  14
ATOM     14  C   UNL     1       2.258 138.096 158.565  1.00  0.00    -0.000 C 
BRANCH  14  15
ATOM     15  C   UNL     1       1.350 137.386 159.581  1.00  0.00    -0.003 C 
ATOM     16  C   UNL     1       1.966 136.098 160.124  1.00  0.00     0.004 C 
ENDBRANCH  14  15
ENDBRANCH  13  14
ENDBRANCH  12  13
ENDBRANCH  11  12
ENDBRANCH  10  11
ENDBRANCH   1  10
TORSDOF 12
ENDMDL
