MODEL 1
REMARK VINA RESULT:    -4.037      0.000      0.000
REMARK INTER + INTRA:          -4.463
REMARK INTER:                  -4.391
REMARK INTRA:                  -0.072
REMARK UNBOUND:                -0.072
REMARK SMILES CCc1cccc(O)c1
REMARK SMILES IDX 3 1 9 2 7 3 6 4 5 5 4 6 2 7 1 8 8 9
REMARK H PARENT 8 10
REMARK Flexibility Score: inf
ROOT
ATOM      1  C   UNL     1     174.705 179.219 179.993  1.00  0.00    -0.045 A 
ATOM      2  C   UNL     1     175.461 179.447 178.831  1.00  0.00     0.049 A 
ATOM      3  C   UNL     1     176.839 179.692 178.921  1.00  0.00     0.115 A 
ATOM      4  C   UNL     1     177.461 179.719 180.175  1.00  0.00     0.046 A 
ATOM      5  C   UNL     1     176.710 179.506 181.334  1.00  0.00     0.004 A 
ATOM      6  C   UNL     1     175.336 179.262 181.246  1.00  0.00     0.004 A 
ENDROOT
BRANCH   1   7
ATOM      7  C   UNL     1     173.220 178.990 179.899  1.00  0.00     0.032 C 
ATOM      8  C   UNL     1     172.495 179.653 181.065  1.00  0.00     0.009 C 
ENDBRANCH   1   7
BRANCH   3   9
ATOM      9  O   UNL     1     177.597 179.913 177.773  1.00  0.00    -0.508 OA
ATOM     10  H   UNL     1     177.253 179.660 176.855  1.00  0.00     0.293 HD
ENDBRANCH   3   9
TORSDOF 2
ENDMDL
MODEL 2
REMARK VINA RESULT:    -4.020      1.538      2.228
REMARK INTER + INTRA:          -4.444
REMARK INTER:                  -4.397
REMARK INTRA:                  -0.047
REMARK UNBOUND:                -0.072
REMARK SMILES CCc1cccc(O)c1
REMARK SMILES IDX 3 1 9 2 7 3 6 4 5 5 4 6 2 7 1 8 8 9
REMARK H PARENT 8 10
REMARK Flexibility Score: inf
ROOT
ATOM      1  C   UNL     1     174.645 179.313 179.957  1.00  0.00    -0.045 A 
ATOM      2  C   UNL     1     175.382 179.382 181.151  1.00  0.00     0.049 A 
ATOM      3  C   UNL     1     176.728 179.776 181.131  1.00  0.00     0.115 A 
ATOM      4  C   UNL     1     177.341 180.094 179.914  1.00  0.00     0.046 A 
ATOM      5  C   UNL     1     176.616 180.014 178.722  1.00  0.00     0.004 A 
ATOM      6  C   UNL     1     175.275 179.621 178.740  1.00  0.00     0.004 A 
ENDROOT
BRANCH   1   7
ATOM      7  C   UNL     1     173.211 178.858 179.975  1.00  0.00     0.032 C 
ATOM      8  C   UNL     1     172.428 179.580 181.068  1.00  0.00     0.009 C 
ENDBRANCH   1   7
BRANCH   3   9
ATOM      9  O   UNL     1     177.463 179.853 182.311  1.00  0.00    -0.508 OA
ATOM     10  H   UNL     1     178.415 180.197 182.321  1.00  0.00     0.293 HD
ENDBRANCH   3   9
TORSDOF 2
ENDMDL
MODEL 3
REMARK VINA RESULT:    -3.964      9.604     11.114
REMARK INTER + INTRA:          -4.383
REMARK INTER:                  -4.337
REMARK INTRA:                  -0.046
REMARK UNBOUND:                -0.072
REMARK SMILES CCc1cccc(O)c1
REMARK SMILES IDX 3 1 9 2 7 3 6 4 5 5 4 6 2 7 1 8 8 9
REMARK H PARENT 8 10
REMARK Flexibility Score: inf
ROOT
ATOM      1  C   UNL     1     163.805 178.782 181.292  1.00  0.00    -0.045 A 
ATOM      2  C   UNL     1     164.856 179.574 180.800  1.00  0.00     0.049 A 
ATOM      3  C   UNL     1     166.029 178.974 180.318  1.00  0.00     0.115 A 
ATOM      4  C   UNL     1     166.156 177.581 180.338  1.00  0.00     0.046 A 
ATOM      5  C   UNL     1     165.119 176.789 180.839  1.00  0.00     0.004 A 
ATOM      6  C   UNL     1     163.949 177.386 181.319  1.00  0.00     0.004 A 
ENDROOT
BRANCH   1   7
ATOM      7  C   UNL     1     162.560 179.428 181.839  1.00  0.00     0.032 C 
ATOM      8  C   UNL     1     161.780 180.125 180.729  1.00  0.00     0.009 C 
ENDBRANCH   1   7
BRANCH   3   9
ATOM      9  O   UNL     1     167.072 179.753 179.822  1.00  0.00    -0.508 OA
ATOM     10  H   UNL     1     166.973 180.752 179.695  1.00  0.00     0.293 HD
ENDBRANCH   3   9
TORSDOF 2
ENDMDL
MODEL 4
REMARK VINA RESULT:    -3.953     13.430     13.837
REMARK INTER + INTRA:          -4.372
REMARK INTER:                  -4.304
REMARK INTRA:                  -0.068
REMARK UNBOUND:                -0.072
REMARK SMILES CCc1cccc(O)c1
REMARK SMILES IDX 3 1 9 2 7 3 6 4 5 5 4 6 2 7 1 8 8 9
REMARK H PARENT 8 10
REMARK Flexibility Score: inf
ROOT
ATOM      1  C   UNL     1     161.961 177.334 180.192  1.00  0.00    -0.045 A 
ATOM      2  C   UNL     1     161.964 178.032 178.973  1.00  0.00     0.049 A 
ATOM      3  C   UNL     1     162.122 179.427 178.957  1.00  0.00     0.115 A 
ATOM      4  C   UNL     1     162.266 180.124 180.161  1.00  0.00     0.046 A 
ATOM      5  C   UNL     1     162.249 179.436 181.377  1.00  0.00     0.004 A 
ATOM      6  C   UNL     1     162.092 178.047 181.395  1.00  0.00     0.004 A 
ENDROOT
BRANCH   1   7
ATOM      7  C   UNL     1     161.759 175.843 180.212  1.00  0.00     0.032 C 
ATOM      8  C   UNL     1     160.614 175.465 181.146  1.00  0.00     0.009 C 
ENDBRANCH   1   7
BRANCH   3   9
ATOM      9  O   UNL     1     162.133 180.125 177.751  1.00  0.00    -0.508 OA
ATOM     10  H   UNL     1     162.212 179.646 176.863  1.00  0.00     0.293 HD
ENDBRANCH   3   9
TORSDOF 2
ENDMDL
MODEL 5
REMARK VINA RESULT:    -3.946     13.737     14.171
REMARK INTER + INTRA:          -4.364
REMARK INTER:                  -4.317
REMARK INTRA:                  -0.047
REMARK UNBOUND:                -0.072
REMARK SMILES CCc1cccc(O)c1
REMARK SMILES IDX 3 1 9 2 7 3 6 4 5 5 4 6 2 7 1 8 8 9
REMARK H PARENT 8 10
REMARK Flexibility Score: inf
ROOT
ATOM      1  C   UNL     1     161.782 177.250 179.930  1.00  0.00    -0.045 A 
ATOM      2  C   UNL     1     161.925 177.987 181.117  1.00  0.00     0.049 A 
ATOM      3  C   UNL     1     162.008 179.387 181.076  1.00  0.00     0.115 A 
ATOM      4  C   UNL     1     161.957 180.050 179.845  1.00  0.00     0.046 A 
ATOM      5  C   UNL     1     161.828 179.320 178.660  1.00  0.00     0.004 A 
ATOM      6  C   UNL     1     161.745 177.926 178.700  1.00  0.00     0.004 A 
ENDROOT
BRANCH   1   7
ATOM      7  C   UNL     1     161.727 175.747 179.973  1.00  0.00     0.032 C 
ATOM      8  C   UNL     1     160.732 175.272 181.027  1.00  0.00     0.009 C 
ENDBRANCH   1   7
BRANCH   3   9
ATOM      9  O   UNL     1     162.144 180.125 182.249  1.00  0.00    -0.508 OA
ATOM     10  H   UNL     1     161.346 180.348 182.831  1.00  0.00     0.293 HD
ENDBRANCH   3   9
TORSDOF 2
ENDMDL
MODEL 6
REMARK VINA RESULT:    -3.926     12.611     13.724
REMARK INTER + INTRA:          -4.342
REMARK INTER:                  -4.291
REMARK INTRA:                  -0.051
REMARK UNBOUND:                -0.072
REMARK SMILES CCc1cccc(O)c1
REMARK SMILES IDX 3 1 9 2 7 3 6 4 5 5 4 6 2 7 1 8 8 9
REMARK H PARENT 8 10
REMARK Flexibility Score: inf
ROOT
ATOM      1  C   UNL     1     162.945 177.892 181.337  1.00  0.00    -0.045 A 
ATOM      2  C   UNL     1     161.687 177.389 180.968  1.00  0.00     0.049 A 
ATOM      3  C   UNL     1     161.501 176.010 180.790  1.00  0.00     0.115 A 
ATOM      4  C   UNL     1     162.576 175.134 180.972  1.00  0.00     0.046 A 
ATOM      5  C   UNL     1     163.833 175.631 181.327  1.00  0.00     0.004 A 
ATOM      6  C   UNL     1     164.020 177.005 181.504  1.00  0.00     0.004 A 
ENDROOT
BRANCH   1   7
ATOM      7  C   UNL     1     163.152 179.375 181.495  1.00  0.00     0.032 C 
ATOM      8  C   UNL     1     161.833 180.124 181.339  1.00  0.00     0.009 C 
ENDBRANCH   1   7
BRANCH   3   9
ATOM      9  O   UNL     1     160.254 175.502 180.430  1.00  0.00    -0.508 OA
ATOM     10  H   UNL     1     159.447 176.104 180.328  1.00  0.00     0.293 HD
ENDBRANCH   3   9
TORSDOF 2
ENDMDL
MODEL 7
REMARK VINA RESULT:    -3.925      2.451      4.062
REMARK INTER + INTRA:          -4.341
REMARK INTER:                  -4.289
REMARK INTRA:                  -0.052
REMARK UNBOUND:                -0.072
REMARK SMILES CCc1cccc(O)c1
REMARK SMILES IDX 3 1 9 2 7 3 6 4 5 5 4 6 2 7 1 8 8 9
REMARK H PARENT 8 10
REMARK Flexibility Score: inf
ROOT
ATOM      1  C   UNL     1     175.525 178.398 181.355  1.00  0.00    -0.045 A 
ATOM      2  C   UNL     1     174.611 179.410 181.018  1.00  0.00     0.049 A 
ATOM      3  C   UNL     1     173.251 179.110 180.854  1.00  0.00     0.115 A 
ATOM      4  C   UNL     1     172.805 177.794 181.018  1.00  0.00     0.046 A 
ATOM      5  C   UNL     1     173.712 176.781 181.340  1.00  0.00     0.004 A 
ATOM      6  C   UNL     1     175.068 177.079 181.503  1.00  0.00     0.004 A 
ENDROOT
BRANCH   1   7
ATOM      7  C   UNL     1     176.990 178.715 181.497  1.00  0.00     0.032 C 
ATOM      8  C   UNL     1     177.297 180.107 180.954  1.00  0.00     0.009 C 
ENDBRANCH   1   7
BRANCH   3   9
ATOM      9  O   UNL     1     172.338 180.110 180.527  1.00  0.00    -0.508 OA
ATOM     10  H   UNL     1     172.555 181.090 180.659  1.00  0.00     0.293 HD
ENDBRANCH   3   9
TORSDOF 2
ENDMDL
MODEL 8
REMARK VINA RESULT:    -3.852      9.877     12.385
REMARK INTER + INTRA:          -4.262
REMARK INTER:                  -4.216
REMARK INTRA:                  -0.046
REMARK UNBOUND:                -0.072
REMARK SMILES CCc1cccc(O)c1
REMARK SMILES IDX 3 1 9 2 7 3 6 4 5 5 4 6 2 7 1 8 8 9
REMARK H PARENT 8 10
REMARK Flexibility Score: inf
ROOT
ATOM      1  C   UNL     1     164.262 178.825 180.560  1.00  0.00    -0.045 A 
ATOM      2  C   UNL     1     163.835 179.167 179.266  1.00  0.00     0.049 A 
ATOM      3  C   UNL     1     162.587 179.777 179.072  1.00  0.00     0.115 A 
ATOM      4  C   UNL     1     161.761 180.037 180.171  1.00  0.00     0.046 A 
ATOM      5  C   UNL     1     162.176 179.687 181.458  1.00  0.00     0.004 A 
ATOM      6  C   UNL     1     163.419 179.078 181.654  1.00  0.00     0.004 A 
ENDROOT
BRANCH   1   7
ATOM      7  C   UNL     1     165.587 178.140 180.765  1.00  0.00     0.032 C 
ATOM      8  C   UNL     1     166.734 179.031 180.299  1.00  0.00     0.009 C 
ENDBRANCH   1   7
BRANCH   3   9
ATOM      9  O   UNL     1     162.159 180.125 177.792  1.00  0.00    -0.508 OA
ATOM     10  H   UNL     1     162.013 181.091 177.527  1.00  0.00     0.293 HD
ENDBRANCH   3   9
TORSDOF 2
ENDMDL
MODEL 9
REMARK VINA RESULT:    -3.761      2.807      4.351
REMARK INTER + INTRA:          -4.162
REMARK INTER:                  -4.094
REMARK INTRA:                  -0.069
REMARK UNBOUND:                -0.072
REMARK SMILES CCc1cccc(O)c1
REMARK SMILES IDX 3 1 9 2 7 3 6 4 5 5 4 6 2 7 1 8 8 9
REMARK H PARENT 8 10
REMARK Flexibility Score: inf
ROOT
ATOM      1  C   UNL     1     175.461 178.473 181.355  1.00  0.00    -0.045 A 
ATOM      2  C   UNL     1     175.198 177.099 181.484  1.00  0.00     0.049 A 
ATOM      3  C   UNL     1     173.892 176.611 181.329  1.00  0.00     0.115 A 
ATOM      4  C   UNL     1     172.845 177.498 181.056  1.00  0.00     0.046 A 
ATOM      5  C   UNL     1     173.100 178.867 180.941  1.00  0.00     0.004 A 
ATOM      6  C   UNL     1     174.400 179.356 181.095  1.00  0.00     0.004 A 
ENDROOT
BRANCH   1   7
ATOM      7  C   UNL     1     176.856 179.000 181.554  1.00  0.00     0.032 C 
ATOM      8  C   UNL     1     177.166 180.102 180.545  1.00  0.00     0.009 C 
ENDBRANCH   1   7
BRANCH   3   9
ATOM      9  O   UNL     1     173.625 175.248 181.448  1.00  0.00    -0.508 OA
ATOM     10  H   UNL     1     173.565 174.647 180.636  1.00  0.00     0.293 HD
ENDBRANCH   3   9
TORSDOF 2
ENDMDL
