MODEL 1
REMARK VINA RESULT:    -4.333      0.000      0.000
REMARK INTER + INTRA:          -7.104
REMARK INTER:                  -6.360
REMARK INTRA:                  -0.744
REMARK UNBOUND:                -0.744
REMARK SMILES CCCOC(=O)c1ccccc1C(=O)OCCC
REMARK SMILES IDX 7 1 8 2 9 3 10 4 11 5 12 6 5 7 6 8 4 9 3 10 2 11 1 12 13 13
REMARK SMILES IDX 14 14 15 15 16 16 17 17 18 18
REMARK H PARENT
REMARK Flexibility Score: inf
ROOT
ATOM      1  C   UNL     1     118.150 122.206 132.682  1.00  0.00     0.074 A 
ATOM      2  C   UNL     1     118.049 122.877 131.451  1.00  0.00     0.016 A 
ATOM      3  C   UNL     1     116.804 123.124 130.873  1.00  0.00     0.001 A 
ATOM      4  C   UNL     1     115.641 122.707 131.513  1.00  0.00     0.001 A 
ATOM      5  C   UNL     1     115.717 122.018 132.725  1.00  0.00     0.016 A 
ATOM      6  C   UNL     1     116.963 121.738 133.315  1.00  0.00     0.074 A 
ENDROOT
BRANCH   1   7
ATOM      7  C   UNL     1     119.491 122.075 133.292  1.00  0.00     0.339 C 
ATOM      8  O   UNL     1     119.899 122.933 134.122  1.00  0.00    -0.246 OA
BRANCH   7   9
ATOM      9  O   UNL     1     120.329 121.025 132.895  1.00  0.00    -0.462 OA
BRANCH   9  10
ATOM     10  C   UNL     1     121.682 121.211 132.486  1.00  0.00     0.233 C 
BRANCH  10  11
ATOM     11  C   UNL     1     122.634 120.470 133.428  1.00  0.00     0.038 C 
ATOM     12  C   UNL     1     123.014 121.337 134.624  1.00  0.00     0.007 C 
ENDBRANCH  10  11
ENDBRANCH   9  10
ENDBRANCH   7   9
ENDBRANCH   1   7
BRANCH   6  13
ATOM     13  C   UNL     1     116.978 120.906 134.539  1.00  0.00     0.339 C 
ATOM     14  O   UNL     1     116.806 119.658 134.463  1.00  0.00    -0.246 OA
BRANCH  13  15
ATOM     15  O   UNL     1     117.132 121.521 135.788  1.00  0.00    -0.462 OA
BRANCH  15  16
ATOM     16  C   UNL     1     116.183 122.433 136.339  1.00  0.00     0.233 C 
BRANCH  16  17
ATOM     17  C   UNL     1     114.973 121.676 136.894  1.00  0.00     0.038 C 
ATOM     18  C   UNL     1     114.161 122.552 137.842  1.00  0.00     0.007 C 
ENDBRANCH  16  17
ENDBRANCH  15  16
ENDBRANCH  13  15
ENDBRANCH   6  13
TORSDOF 8
ENDMDL
MODEL 2
REMARK VINA RESULT:    -3.909      1.134      5.625
REMARK INTER + INTRA:          -6.481
REMARK INTER:                  -5.969
REMARK INTRA:                  -0.511
REMARK UNBOUND:                -0.744
REMARK SMILES CCCOC(=O)c1ccccc1C(=O)OCCC
REMARK SMILES IDX 7 1 8 2 9 3 10 4 11 5 12 6 5 7 6 8 4 9 3 10 2 11 1 12 13 13
REMARK SMILES IDX 14 14 15 15 16 16 17 17 18 18
REMARK H PARENT
REMARK Flexibility Score: inf
ROOT
ATOM      1  C   UNL     1     116.436 122.141 133.382  1.00  0.00     0.074 A 
ATOM      2  C   UNL     1     115.545 122.332 132.311  1.00  0.00     0.016 A 
ATOM      3  C   UNL     1     115.998 122.820 131.085  1.00  0.00     0.001 A 
ATOM      4  C   UNL     1     117.345 123.125 130.908  1.00  0.00     0.001 A 
ATOM      5  C   UNL     1     118.243 122.966 131.965  1.00  0.00     0.016 A 
ATOM      6  C   UNL     1     117.805 122.496 133.217  1.00  0.00     0.074 A 
ENDROOT
BRANCH   1   7
ATOM      7  C   UNL     1     115.911 121.517 134.616  1.00  0.00     0.339 C 
ATOM      8  O   UNL     1     115.924 120.263 134.749  1.00  0.00    -0.246 OA
BRANCH   7   9
ATOM      9  O   UNL     1     115.345 122.326 135.610  1.00  0.00    -0.462 OA
BRANCH   9  10
ATOM     10  C   UNL     1     115.628 122.178 136.999  1.00  0.00     0.233 C 
BRANCH  10  11
ATOM     11  C   UNL     1     114.576 122.906 137.841  1.00  0.00     0.038 C 
ATOM     12  C   UNL     1     113.222 122.208 137.759  1.00  0.00     0.007 C 
ENDBRANCH  10  11
ENDBRANCH   9  10
ENDBRANCH   7   9
ENDBRANCH   1   7
BRANCH   6  13
ATOM     13  C   UNL     1     118.786 122.460 134.324  1.00  0.00     0.339 C 
ATOM     14  O   UNL     1     118.582 123.122 135.379  1.00  0.00    -0.246 OA
BRANCH  13  15
ATOM     15  O   UNL     1     119.969 121.725 134.172  1.00  0.00    -0.462 OA
BRANCH  15  16
ATOM     16  C   UNL     1     121.248 122.196 134.594  1.00  0.00     0.233 C 
BRANCH  16  17
ATOM     17  C   UNL     1     122.320 121.827 133.566  1.00  0.00     0.038 C 
ATOM     18  C   UNL     1     122.299 120.333 133.257  1.00  0.00     0.007 C 
ENDBRANCH  16  17
ENDBRANCH  15  16
ENDBRANCH  13  15
ENDBRANCH   6  13
TORSDOF 8
ENDMDL
MODEL 3
REMARK VINA RESULT:    -3.716     16.185     17.982
REMARK INTER + INTRA:          -6.198
REMARK INTER:                  -5.395
REMARK INTRA:                  -0.803
REMARK UNBOUND:                -0.744
REMARK SMILES CCCOC(=O)c1ccccc1C(=O)OCCC
REMARK SMILES IDX 7 1 8 2 9 3 10 4 11 5 12 6 5 7 6 8 4 9 3 10 2 11 1 12 13 13
REMARK SMILES IDX 14 14 15 15 16 16 17 17 18 18
REMARK H PARENT
REMARK Flexibility Score: inf
ROOT
ATOM      1  C   UNL     1     117.081 103.933 134.149  1.00  0.00     0.074 A 
ATOM      2  C   UNL     1     115.679 103.851 134.204  1.00  0.00     0.016 A 
ATOM      3  C   UNL     1     114.930 103.644 133.045  1.00  0.00     0.001 A 
ATOM      4  C   UNL     1     115.569 103.513 131.815  1.00  0.00     0.001 A 
ATOM      5  C   UNL     1     116.958 103.614 131.733  1.00  0.00     0.016 A 
ATOM      6  C   UNL     1     117.731 103.846 132.885  1.00  0.00     0.074 A 
ENDROOT
BRANCH   1   7
ATOM      7  C   UNL     1     117.819 104.043 135.426  1.00  0.00     0.339 C 
ATOM      8  O   UNL     1     118.266 103.009 135.994  1.00  0.00    -0.246 OA
BRANCH   7   9
ATOM      9  O   UNL     1     117.965 105.298 136.032  1.00  0.00    -0.462 OA
BRANCH   9  10
ATOM     10  C   UNL     1     117.611 105.562 137.387  1.00  0.00     0.233 C 
BRANCH  10  11
ATOM     11  C   UNL     1     116.107 105.821 137.509  1.00  0.00     0.038 C 
ATOM     12  C   UNL     1     115.388 104.625 138.125  1.00  0.00     0.007 C 
ENDBRANCH  10  11
ENDBRANCH   9  10
ENDBRANCH   7   9
ENDBRANCH   1   7
BRANCH   6  13
ATOM     13  C   UNL     1     119.187 104.056 132.711  1.00  0.00     0.339 C 
ATOM     14  O   UNL     1     119.919 103.120 132.288  1.00  0.00    -0.246 OA
BRANCH  13  15
ATOM     15  O   UNL     1     119.752 105.286 133.070  1.00  0.00    -0.462 OA
BRANCH  15  16
ATOM     16  C   UNL     1     120.837 105.889 132.366  1.00  0.00     0.233 C 
BRANCH  16  17
ATOM     17  C   UNL     1     120.312 106.861 131.306  1.00  0.00     0.038 C 
ATOM     18  C   UNL     1     121.457 107.482 130.512  1.00  0.00     0.007 C 
ENDBRANCH  16  17
ENDBRANCH  15  16
ENDBRANCH  13  15
ENDBRANCH   6  13
TORSDOF 8
ENDMDL
MODEL 4
REMARK VINA RESULT:    -3.647     16.171     17.335
REMARK INTER + INTRA:          -6.096
REMARK INTER:                  -5.268
REMARK INTRA:                  -0.828
REMARK UNBOUND:                -0.744
REMARK SMILES CCCOC(=O)c1ccccc1C(=O)OCCC
REMARK SMILES IDX 7 1 8 2 9 3 10 4 11 5 12 6 5 7 6 8 4 9 3 10 2 11 1 12 13 13
REMARK SMILES IDX 14 14 15 15 16 16 17 17 18 18
REMARK H PARENT
REMARK Flexibility Score: inf
ROOT
ATOM      1  C   UNL     1     117.760 103.842 133.040  1.00  0.00     0.074 A 
ATOM      2  C   UNL     1     117.017 103.600 131.871  1.00  0.00     0.016 A 
ATOM      3  C   UNL     1     115.624 103.548 131.910  1.00  0.00     0.001 A 
ATOM      4  C   UNL     1     114.950 103.737 133.113  1.00  0.00     0.001 A 
ATOM      5  C   UNL     1     115.667 103.956 134.290  1.00  0.00     0.016 A 
ATOM      6  C   UNL     1     117.074 103.990 134.279  1.00  0.00     0.074 A 
ENDROOT
BRANCH   1   7
ATOM      7  C   UNL     1     119.225 103.994 132.911  1.00  0.00     0.339 C 
ATOM      8  O   UNL     1     119.971 102.977 132.895  1.00  0.00    -0.246 OA
BRANCH   7   9
ATOM      9  O   UNL     1     119.784 105.278 132.868  1.00  0.00    -0.462 OA
BRANCH   9  10
ATOM     10  C   UNL     1     120.807 105.660 131.951  1.00  0.00     0.233 C 
BRANCH  10  11
ATOM     11  C   UNL     1     120.414 106.942 131.212  1.00  0.00     0.038 C 
ATOM     12  C   UNL     1     121.646 107.743 130.800  1.00  0.00     0.007 C 
ENDBRANCH  10  11
ENDBRANCH   9  10
ENDBRANCH   7   9
ENDBRANCH   1   7
BRANCH   6  13
ATOM     13  C   UNL     1     117.773 104.112 135.578  1.00  0.00     0.339 C 
ATOM     14  O   UNL     1     118.283 103.096 136.125  1.00  0.00    -0.246 OA
BRANCH  13  15
ATOM     15  O   UNL     1     117.819 105.356 136.221  1.00  0.00    -0.462 OA
BRANCH  15  16
ATOM     16  C   UNL     1     117.469 105.547 137.591  1.00  0.00     0.233 C 
BRANCH  16  17
ATOM     17  C   UNL     1     115.966 105.800 137.728  1.00  0.00     0.038 C 
ATOM     18  C   UNL     1     115.226 104.526 138.125  1.00  0.00     0.007 C 
ENDBRANCH  16  17
ENDBRANCH  15  16
ENDBRANCH  13  15
ENDBRANCH   6  13
TORSDOF 8
ENDMDL
MODEL 5
REMARK VINA RESULT:    -3.598     15.986     17.829
REMARK INTER + INTRA:          -6.025
REMARK INTER:                  -5.065
REMARK INTRA:                  -0.960
REMARK UNBOUND:                -0.744
REMARK SMILES CCCOC(=O)c1ccccc1C(=O)OCCC
REMARK SMILES IDX 7 1 8 2 9 3 10 4 11 5 12 6 5 7 6 8 4 9 3 10 2 11 1 12 13 13
REMARK SMILES IDX 14 14 15 15 16 16 17 17 18 18
REMARK H PARENT
REMARK Flexibility Score: inf
ROOT
ATOM      1  C   UNL     1     118.423 104.041 133.247  1.00  0.00     0.074 A 
ATOM      2  C   UNL     1     117.166 103.459 133.006  1.00  0.00     0.016 A 
ATOM      3  C   UNL     1     116.756 103.159 131.707  1.00  0.00     0.001 A 
ATOM      4  C   UNL     1     117.593 103.432 130.629  1.00  0.00     0.001 A 
ATOM      5  C   UNL     1     118.835 104.030 130.842  1.00  0.00     0.016 A 
ATOM      6  C   UNL     1     119.260 104.363 132.141  1.00  0.00     0.074 A 
ENDROOT
BRANCH   1   7
ATOM      7  C   UNL     1     118.840 104.232 134.653  1.00  0.00     0.339 C 
ATOM      8  O   UNL     1     119.526 103.350 135.238  1.00  0.00    -0.246 OA
BRANCH   7   9
ATOM      9  O   UNL     1     118.416 105.371 135.349  1.00  0.00    -0.462 OA
BRANCH   9  10
ATOM     10  C   UNL     1     117.843 105.327 136.653  1.00  0.00     0.233 C 
BRANCH  10  11
ATOM     11  C   UNL     1     116.329 105.119 136.568  1.00  0.00     0.038 C 
ATOM     12  C   UNL     1     115.950 103.676 136.887  1.00  0.00     0.007 C 
ENDBRANCH  10  11
ENDBRANCH   9  10
ENDBRANCH   7   9
ENDBRANCH   1   7
BRANCH   6  13
ATOM     13  C   UNL     1     120.537 105.098 132.285  1.00  0.00     0.339 C 
ATOM     14  O   UNL     1     121.627 104.469 132.379  1.00  0.00    -0.246 OA
BRANCH  13  15
ATOM     15  O   UNL     1     120.521 106.496 132.366  1.00  0.00    -0.462 OA
BRANCH  15  16
ATOM     16  C   UNL     1     120.451 107.351 131.226  1.00  0.00     0.233 C 
BRANCH  16  17
ATOM     17  C   UNL     1     121.841 107.885 130.872  1.00  0.00     0.038 C 
ATOM     18  C   UNL     1     122.452 107.109 129.709  1.00  0.00     0.007 C 
ENDBRANCH  16  17
ENDBRANCH  15  16
ENDBRANCH  13  15
ENDBRANCH   6  13
TORSDOF 8
ENDMDL
MODEL 6
REMARK VINA RESULT:    -3.452     16.070     17.237
REMARK INTER + INTRA:          -5.811
REMARK INTER:                  -5.020
REMARK INTRA:                  -0.791
REMARK UNBOUND:                -0.744
REMARK SMILES CCCOC(=O)c1ccccc1C(=O)OCCC
REMARK SMILES IDX 7 1 8 2 9 3 10 4 11 5 12 6 5 7 6 8 4 9 3 10 2 11 1 12 13 13
REMARK SMILES IDX 14 14 15 15 16 16 17 17 18 18
REMARK H PARENT
REMARK Flexibility Score: inf
ROOT
ATOM      1  C   UNL     1     119.389 104.213 132.389  1.00  0.00     0.074 A 
ATOM      2  C   UNL     1     119.108 103.999 131.028  1.00  0.00     0.016 A 
ATOM      3  C   UNL     1     117.832 103.614 130.615  1.00  0.00     0.001 A 
ATOM      4  C   UNL     1     116.817 103.440 131.552  1.00  0.00     0.001 A 
ATOM      5  C   UNL     1     117.079 103.625 132.910  1.00  0.00     0.016 A 
ATOM      6  C   UNL     1     118.364 103.990 133.352  1.00  0.00     0.074 A 
ENDROOT
BRANCH   1   7
ATOM      7  C   UNL     1     120.729 104.725 132.748  1.00  0.00     0.339 C 
ATOM      8  O   UNL     1     121.603 103.945 133.218  1.00  0.00    -0.246 OA
BRANCH   7   9
ATOM      9  O   UNL     1     121.002 106.093 132.619  1.00  0.00    -0.462 OA
BRANCH   9  10
ATOM     10  C   UNL     1     122.004 106.617 131.751  1.00  0.00     0.233 C 
BRANCH  10  11
ATOM     11  C   UNL     1     121.362 107.399 130.602  1.00  0.00     0.038 C 
ATOM     12  C   UNL     1     122.416 108.120 129.767  1.00  0.00     0.007 C 
ENDBRANCH  10  11
ENDBRANCH   9  10
ENDBRANCH   7   9
ENDBRANCH   1   7
BRANCH   6  13
ATOM     13  C   UNL     1     118.600 104.058 134.812  1.00  0.00     0.339 C 
ATOM     14  O   UNL     1     119.071 103.062 135.428  1.00  0.00    -0.246 OA
BRANCH  13  15
ATOM     15  O   UNL     1     118.249 105.218 135.513  1.00  0.00    -0.462 OA
BRANCH  15  16
ATOM     16  C   UNL     1     117.830 105.217 136.877  1.00  0.00     0.233 C 
BRANCH  16  17
ATOM     17  C   UNL     1     116.306 105.111 136.968  1.00  0.00     0.038 C 
ATOM     18  C   UNL     1     115.868 103.681 137.267  1.00  0.00     0.007 C 
ENDBRANCH  16  17
ENDBRANCH  15  16
ENDBRANCH  13  15
ENDBRANCH   6  13
TORSDOF 8
ENDMDL
MODEL 7
REMARK VINA RESULT:    -3.195     15.894     18.126
REMARK INTER + INTRA:          -5.434
REMARK INTER:                  -4.603
REMARK INTRA:                  -0.831
REMARK UNBOUND:                -0.744
REMARK SMILES CCCOC(=O)c1ccccc1C(=O)OCCC
REMARK SMILES IDX 7 1 8 2 9 3 10 4 11 5 12 6 5 7 6 8 4 9 3 10 2 11 1 12 13 13
REMARK SMILES IDX 14 14 15 15 16 16 17 17 18 18
REMARK H PARENT
REMARK Flexibility Score: inf
ROOT
ATOM      1  C   UNL     1     120.201 104.023 133.527  1.00  0.00     0.074 A 
ATOM      2  C   UNL     1     121.051 103.348 134.421  1.00  0.00     0.016 A 
ATOM      3  C   UNL     1     122.364 103.042 134.062  1.00  0.00     0.001 A 
ATOM      4  C   UNL     1     122.850 103.405 132.809  1.00  0.00     0.001 A 
ATOM      5  C   UNL     1     122.017 104.055 131.897  1.00  0.00     0.016 A 
ATOM      6  C   UNL     1     120.683 104.354 132.229  1.00  0.00     0.074 A 
ENDROOT
BRANCH   1   7
ATOM      7  C   UNL     1     118.859 104.414 134.010  1.00  0.00     0.339 C 
ATOM      8  O   UNL     1     118.728 105.380 134.811  1.00  0.00    -0.246 OA
BRANCH   7   9
ATOM      9  O   UNL     1     117.741 103.666 133.619  1.00  0.00    -0.462 OA
BRANCH   9  10
ATOM     10  C   UNL     1     116.400 104.135 133.739  1.00  0.00     0.233 C 
BRANCH  10  11
ATOM     11  C   UNL     1     115.541 103.603 132.589  1.00  0.00     0.038 C 
ATOM     12  C   UNL     1     114.387 104.552 132.276  1.00  0.00     0.007 C 
ENDBRANCH  10  11
ENDBRANCH   9  10
ENDBRANCH   7   9
ENDBRANCH   1   7
BRANCH   6  13
ATOM     13  C   UNL     1     119.823 104.941 131.176  1.00  0.00     0.339 C 
ATOM     14  O   UNL     1     118.966 104.229 130.583  1.00  0.00    -0.246 OA
BRANCH  13  15
ATOM     15  O   UNL     1     120.004 106.280 130.806  1.00  0.00    -0.462 OA
BRANCH  15  16
ATOM     16  C   UNL     1     120.336 107.313 131.732  1.00  0.00     0.233 C 
BRANCH  16  17
ATOM     17  C   UNL     1     121.610 108.039 131.289  1.00  0.00     0.038 C 
ATOM     18  C   UNL     1     122.145 107.466 129.980  1.00  0.00     0.007 C 
ENDBRANCH  16  17
ENDBRANCH  15  16
ENDBRANCH  13  15
ENDBRANCH   6  13
TORSDOF 8
ENDMDL
MODEL 8
REMARK VINA RESULT:    -3.163     16.044     17.809
REMARK INTER + INTRA:          -5.386
REMARK INTER:                  -4.374
REMARK INTRA:                  -1.012
REMARK UNBOUND:                -0.744
REMARK SMILES CCCOC(=O)c1ccccc1C(=O)OCCC
REMARK SMILES IDX 7 1 8 2 9 3 10 4 11 5 12 6 5 7 6 8 4 9 3 10 2 11 1 12 13 13
REMARK SMILES IDX 14 14 15 15 16 16 17 17 18 18
REMARK H PARENT
REMARK Flexibility Score: inf
ROOT
ATOM      1  C   UNL     1     121.092 105.505 131.279  1.00  0.00     0.074 A 
ATOM      2  C   UNL     1     121.000 106.734 130.602  1.00  0.00     0.016 A 
ATOM      3  C   UNL     1     121.871 107.782 130.904  1.00  0.00     0.001 A 
ATOM      4  C   UNL     1     122.847 107.619 131.884  1.00  0.00     0.001 A 
ATOM      5  C   UNL     1     122.941 106.416 132.585  1.00  0.00     0.016 A 
ATOM      6  C   UNL     1     122.059 105.354 132.313  1.00  0.00     0.074 A 
ENDROOT
BRANCH   1   7
ATOM      7  C   UNL     1     120.212 104.403 130.835  1.00  0.00     0.339 C 
ATOM      8  O   UNL     1     120.702 103.385 130.272  1.00  0.00    -0.246 OA
BRANCH   7   9
ATOM      9  O   UNL     1     118.825 104.524 130.987  1.00  0.00    -0.462 OA
BRANCH   9  10
ATOM     10  C   UNL     1     117.897 103.533 130.551  1.00  0.00     0.233 C 
BRANCH  10  11
ATOM     11  C   UNL     1     117.159 102.926 131.747  1.00  0.00     0.038 C 
ATOM     12  C   UNL     1     115.789 103.569 131.937  1.00  0.00     0.007 C 
ENDBRANCH  10  11
ENDBRANCH   9  10
ENDBRANCH   7   9
ENDBRANCH   1   7
BRANCH   6  13
ATOM     13  C   UNL     1     122.141 104.150 133.170  1.00  0.00     0.339 C 
ATOM     14  O   UNL     1     122.877 103.181 132.839  1.00  0.00    -0.246 OA
BRANCH  13  15
ATOM     15  O   UNL     1     121.354 104.074 134.327  1.00  0.00    -0.462 OA
BRANCH  15  16
ATOM     16  C   UNL     1     120.011 103.591 134.334  1.00  0.00     0.233 C 
BRANCH  16  17
ATOM     17  C   UNL     1     119.024 104.759 134.414  1.00  0.00     0.038 C 
ATOM     18  C   UNL     1     117.813 104.400 135.270  1.00  0.00     0.007 C 
ENDBRANCH  16  17
ENDBRANCH  15  16
ENDBRANCH  13  15
ENDBRANCH   6  13
TORSDOF 8
ENDMDL
MODEL 9
REMARK VINA RESULT:    -2.415     16.078     18.044
REMARK INTER + INTRA:          -4.288
REMARK INTER:                  -4.079
REMARK INTRA:                  -0.209
REMARK UNBOUND:                -0.744
REMARK SMILES CCCOC(=O)c1ccccc1C(=O)OCCC
REMARK SMILES IDX 7 1 8 2 9 3 10 4 11 5 12 6 5 7 6 8 4 9 3 10 2 11 1 12 13 13
REMARK SMILES IDX 14 14 15 15 16 16 17 17 18 18
REMARK H PARENT
REMARK Flexibility Score: inf
ROOT
ATOM      1  C   UNL     1     117.685 103.844 133.787  1.00  0.00     0.074 A 
ATOM      2  C   UNL     1     116.650 103.369 134.612  1.00  0.00     0.016 A 
ATOM      3  C   UNL     1     116.549 103.785 135.940  1.00  0.00     0.001 A 
ATOM      4  C   UNL     1     117.477 104.681 136.464  1.00  0.00     0.001 A 
ATOM      5  C   UNL     1     118.526 105.147 135.670  1.00  0.00     0.016 A 
ATOM      6  C   UNL     1     118.661 104.723 134.336  1.00  0.00     0.074 A 
ENDROOT
BRANCH   1   7
ATOM      7  C   UNL     1     117.671 103.449 132.362  1.00  0.00     0.339 C 
ATOM      8  O   UNL     1     118.671 102.875 131.850  1.00  0.00    -0.246 OA
BRANCH   7   9
ATOM      9  O   UNL     1     116.562 103.772 131.568  1.00  0.00    -0.462 OA
BRANCH   9  10
ATOM     10  C   UNL     1     115.272 103.193 131.747  1.00  0.00     0.233 C 
BRANCH  10  11
ATOM     11  C   UNL     1     114.209 104.285 131.890  1.00  0.00     0.038 C 
ATOM     12  C   UNL     1     114.174 105.187 130.660  1.00  0.00     0.007 C 
ENDBRANCH  10  11
ENDBRANCH   9  10
ENDBRANCH   7   9
ENDBRANCH   1   7
BRANCH   6  13
ATOM     13  C   UNL     1     119.858 105.167 133.587  1.00  0.00     0.339 C 
ATOM     14  O   UNL     1     120.948 104.540 133.699  1.00  0.00    -0.246 OA
BRANCH  13  15
ATOM     15  O   UNL     1     119.786 106.318 132.793  1.00  0.00    -0.462 OA
BRANCH  15  16
ATOM     16  C   UNL     1     120.381 106.421 131.500  1.00  0.00     0.233 C 
BRANCH  16  17
ATOM     17  C   UNL     1     121.173 107.725 131.378  1.00  0.00     0.038 C 
ATOM     18  C   UNL     1     122.013 107.745 130.104  1.00  0.00     0.007 C 
ENDBRANCH  16  17
ENDBRANCH  15  16
ENDBRANCH  13  15
ENDBRANCH   6  13
TORSDOF 8
ENDMDL
