MODEL 1
REMARK VINA RESULT:    -2.031      0.000      0.000
REMARK INTER + INTRA:          -3.828
REMARK INTER:                  -3.692
REMARK INTRA:                  -0.135
REMARK UNBOUND:                -0.135
REMARK SMILES CCCCCCCCCCCCCCCC(=O)[O-]
REMARK SMILES IDX 9 1 10 2 11 3 12 4 13 5 14 6 15 7 16 8 17 9 18 10 8 11 7 12
REMARK SMILES IDX 6 13 5 14 4 15 3 16 2 17 1 18
REMARK H PARENT
REMARK Flexibility Score: inf
ROOT
ATOM      1  C   UNL     1      18.692  12.706 -14.214  1.00  0.00     0.000 C 
ENDROOT
BRANCH   1   2
ATOM      2  C   UNL     1      18.639  11.227 -13.799  1.00  0.00     0.000 C 
BRANCH   2   3
ATOM      3  C   UNL     1      19.782  10.401 -14.406  1.00  0.00     0.000 C 
BRANCH   3   4
ATOM      4  C   UNL     1      19.253   9.105 -15.033  1.00  0.00     0.000 C 
BRANCH   4   5
ATOM      5  C   UNL     1      17.824   9.294 -15.563  1.00  0.00     0.000 C 
BRANCH   5   6
ATOM      6  C   UNL     1      16.989   8.007 -15.486  1.00  0.00     0.006 C 
BRANCH   6   7
ATOM      7  C   UNL     1      16.165   7.913 -14.194  1.00  0.00     0.053 C 
BRANCH   7   8
ATOM      8  C   UNL     1      14.789   8.458 -14.413  1.00  0.00     0.041 C 
ATOM      9  O   UNL     1      14.402   9.473 -13.776  1.00  0.00    -0.550 OA
ATOM     10  O   UNL     1      13.952   7.876 -15.355  1.00  0.00    -0.550 OA
ENDBRANCH   7   8
ENDBRANCH   6   7
ENDBRANCH   5   6
ENDBRANCH   4   5
ENDBRANCH   3   4
ENDBRANCH   2   3
ENDBRANCH   1   2
BRANCH   1  11
ATOM     11  C   UNL     1      19.148  12.897 -15.668  1.00  0.00     0.000 C 
BRANCH  11  12
ATOM     12  C   UNL     1      20.635  12.561 -15.827  1.00  0.00    -0.000 C 
BRANCH  12  13
ATOM     13  C   UNL     1      21.513  13.577 -15.081  1.00  0.00    -0.000 C 
BRANCH  13  14
ATOM     14  C   UNL     1      22.095  14.661 -16.006  1.00  0.00    -0.000 C 
BRANCH  14  15
ATOM     15  C   UNL     1      21.250  15.944 -16.113  1.00  0.00    -0.000 C 
BRANCH  15  16
ATOM     16  C   UNL     1      22.098  17.226 -16.054  1.00  0.00    -0.000 C 
BRANCH  16  17
ATOM     17  C   UNL     1      21.343  18.402 -15.417  1.00  0.00    -0.003 C 
ATOM     18  C   UNL     1      21.705  19.746 -16.049  1.00  0.00     0.004 C 
ENDBRANCH  16  17
ENDBRANCH  15  16
ENDBRANCH  14  15
ENDBRANCH  13  14
ENDBRANCH  12  13
ENDBRANCH  11  12
ENDBRANCH   1  11
TORSDOF 14
ENDMDL
MODEL 2
REMARK VINA RESULT:    -1.742     14.003     16.861
REMARK INTER + INTRA:          -3.303
REMARK INTER:                  -2.864
REMARK INTRA:                  -0.438
REMARK UNBOUND:                -0.135
REMARK SMILES CCCCCCCCCCCCCCCC(=O)[O-]
REMARK SMILES IDX 9 1 10 2 11 3 12 4 13 5 14 6 15 7 16 8 17 9 18 10 8 11 7 12
REMARK SMILES IDX 6 13 5 14 4 15 3 16 2 17 1 18
REMARK H PARENT
REMARK Flexibility Score: inf
ROOT
ATOM      1  C   UNL     1       3.245  11.090 -13.191  1.00  0.00     0.000 C 
ENDROOT
BRANCH   1   2
ATOM      2  C   UNL     1       1.890  10.869 -13.881  1.00  0.00     0.000 C 
BRANCH   2   3
ATOM      3  C   UNL     1       2.018  10.705 -15.402  1.00  0.00     0.000 C 
BRANCH   3   4
ATOM      4  C   UNL     1       1.875  12.054 -16.116  1.00  0.00     0.000 C 
BRANCH   4   5
ATOM      5  C   UNL     1       3.203  12.824 -16.110  1.00  0.00     0.000 C 
BRANCH   5   6
ATOM      6  C   UNL     1       3.234  13.944 -15.059  1.00  0.00     0.006 C 
BRANCH   6   7
ATOM      7  C   UNL     1       2.215  15.054 -15.348  1.00  0.00     0.053 C 
BRANCH   7   8
ATOM      8  C   UNL     1       2.917  16.333 -15.683  1.00  0.00     0.041 C 
ATOM      9  O   UNL     1       4.112  16.314 -16.079  1.00  0.00    -0.550 OA
ATOM     10  O   UNL     1       2.237  17.541 -15.604  1.00  0.00    -0.550 OA
ENDBRANCH   7   8
ENDBRANCH   6   7
ENDBRANCH   5   6
ENDBRANCH   4   5
ENDBRANCH   3   4
ENDBRANCH   2   3
ENDBRANCH   1   2
BRANCH   1  11
ATOM     11  C   UNL     1       4.419  10.512 -13.995  1.00  0.00     0.000 C 
BRANCH  11  12
ATOM     12  C   UNL     1       5.719  10.559 -13.184  1.00  0.00    -0.000 C 
BRANCH  12  13
ATOM     13  C   UNL     1       6.538   9.275 -13.380  1.00  0.00    -0.000 C 
BRANCH  13  14
ATOM     14  C   UNL     1       6.876   8.569 -12.054  1.00  0.00    -0.000 C 
BRANCH  14  15
ATOM     15  C   UNL     1       5.675   7.922 -11.340  1.00  0.00    -0.000 C 
BRANCH  15  16
ATOM     16  C   UNL     1       4.753   8.953 -10.666  1.00  0.00    -0.000 C 
BRANCH  16  17
ATOM     17  C   UNL     1       4.177   8.446  -9.336  1.00  0.00    -0.003 C 
ATOM     18  C   UNL     1       2.719   8.855  -9.132  1.00  0.00     0.004 C 
ENDBRANCH  16  17
ENDBRANCH  15  16
ENDBRANCH  14  15
ENDBRANCH  13  14
ENDBRANCH  12  13
ENDBRANCH  11  12
ENDBRANCH   1  11
TORSDOF 14
ENDMDL
MODEL 3
REMARK VINA RESULT:     0.023      3.931      8.121
REMARK INTER + INTRA:          -0.094
REMARK INTER:                   1.086
REMARK INTRA:                  -1.180
REMARK UNBOUND:                -0.135
REMARK SMILES CCCCCCCCCCCCCCCC(=O)[O-]
REMARK SMILES IDX 9 1 10 2 11 3 12 4 13 5 14 6 15 7 16 8 17 9 18 10 8 11 7 12
REMARK SMILES IDX 6 13 5 14 4 15 3 16 2 17 1 18
REMARK H PARENT
REMARK Flexibility Score: inf
ROOT
ATOM      1  C   UNL     1      18.264  13.375 -14.311  1.00  0.00     0.000 C 
ENDROOT
BRANCH   1   2
ATOM      2  C   UNL     1      18.857  13.537 -15.720  1.00  0.00     0.000 C 
BRANCH   2   3
ATOM      3  C   UNL     1      20.310  13.050 -15.810  1.00  0.00     0.000 C 
BRANCH   3   4
ATOM      4  C   UNL     1      21.168  13.663 -14.697  1.00  0.00     0.000 C 
BRANCH   4   5
ATOM      5  C   UNL     1      22.125  14.724 -15.259  1.00  0.00     0.000 C 
BRANCH   5   6
ATOM      6  C   UNL     1      21.402  15.791 -16.095  1.00  0.00     0.006 C 
BRANCH   6   7
ATOM      7  C   UNL     1      22.061  17.173 -15.987  1.00  0.00     0.053 C 
BRANCH   7   8
ATOM      8  C   UNL     1      21.019  18.236 -15.834  1.00  0.00     0.041 C 
ATOM      9  O   UNL     1      21.351  19.403 -15.498  1.00  0.00    -0.550 OA
ATOM     10  O   UNL     1      19.689  17.952 -16.113  1.00  0.00    -0.550 OA
ENDBRANCH   7   8
ENDBRANCH   6   7
ENDBRANCH   5   6
ENDBRANCH   4   5
ENDBRANCH   3   4
ENDBRANCH   2   3
ENDBRANCH   1   2
BRANCH   1  11
ATOM     11  C   UNL     1      17.698  11.969 -14.066  1.00  0.00     0.000 C 
BRANCH  11  12
ATOM     12  C   UNL     1      18.475  11.248 -12.958  1.00  0.00    -0.000 C 
BRANCH  12  13
ATOM     13  C   UNL     1      18.638   9.755 -13.281  1.00  0.00    -0.000 C 
BRANCH  13  14
ATOM     14  C   UNL     1      17.615   9.249 -14.314  1.00  0.00    -0.000 C 
BRANCH  14  15
ATOM     15  C   UNL     1      18.187   8.984 -15.719  1.00  0.00    -0.000 C 
BRANCH  15  16
ATOM     16  C   UNL     1      19.698   9.257 -15.809  1.00  0.00    -0.000 C 
BRANCH  16  17
ATOM     17  C   UNL     1      20.511   7.982 -16.080  1.00  0.00    -0.003 C 
ATOM     18  C   UNL     1      21.998   8.155 -15.772  1.00  0.00     0.004 C 
ENDBRANCH  16  17
ENDBRANCH  15  16
ENDBRANCH  14  15
ENDBRANCH  13  14
ENDBRANCH  12  13
ENDBRANCH  11  12
ENDBRANCH   1  11
TORSDOF 14
ENDMDL
MODEL 4
REMARK VINA RESULT:     0.345      3.629      8.366
REMARK INTER + INTRA:           0.492
REMARK INTER:                  -0.356
REMARK INTRA:                   0.848
REMARK UNBOUND:                -0.135
REMARK SMILES CCCCCCCCCCCCCCCC(=O)[O-]
REMARK SMILES IDX 9 1 10 2 11 3 12 4 13 5 14 6 15 7 16 8 17 9 18 10 8 11 7 12
REMARK SMILES IDX 6 13 5 14 4 15 3 16 2 17 1 18
REMARK H PARENT
REMARK Flexibility Score: inf
ROOT
ATOM      1  C   UNL     1      18.482  12.267 -14.395  1.00  0.00     0.000 C 
ENDROOT
BRANCH   1   2
ATOM      2  C   UNL     1      18.877  12.540 -15.855  1.00  0.00     0.000 C 
BRANCH   2   3
ATOM      3  C   UNL     1      20.378  12.342 -16.110  1.00  0.00     0.000 C 
BRANCH   3   4
ATOM      4  C   UNL     1      21.103  11.919 -14.827  1.00  0.00     0.000 C 
BRANCH   4   5
ATOM      5  C   UNL     1      22.071  13.013 -14.354  1.00  0.00     0.000 C 
BRANCH   5   6
ATOM      6  C   UNL     1      21.464  14.421 -14.445  1.00  0.00     0.006 C 
BRANCH   6   7
ATOM      7  C   UNL     1      21.377  14.936 -15.888  1.00  0.00     0.053 C 
BRANCH   7   8
ATOM      8  C   UNL     1      21.101  16.407 -15.901  1.00  0.00     0.041 C 
ATOM      9  O   UNL     1      19.935  16.830 -16.116  1.00  0.00    -0.550 OA
ATOM     10  O   UNL     1      22.121  17.308 -15.624  1.00  0.00    -0.550 OA
ENDBRANCH   7   8
ENDBRANCH   6   7
ENDBRANCH   5   6
ENDBRANCH   4   5
ENDBRANCH   3   4
ENDBRANCH   2   3
ENDBRANCH   1   2
BRANCH   1  11
ATOM     11  C   UNL     1      17.952  10.841 -14.183  1.00  0.00     0.000 C 
BRANCH  11  12
ATOM     12  C   UNL     1      18.194   9.973 -15.423  1.00  0.00    -0.000 C 
BRANCH  12  13
ATOM     13  C   UNL     1      18.498   8.520 -15.027  1.00  0.00    -0.000 C 
BRANCH  13  14
ATOM     14  C   UNL     1      17.685   8.047 -13.808  1.00  0.00    -0.000 C 
BRANCH  14  15
ATOM     15  C   UNL     1      16.196   8.439 -13.830  1.00  0.00    -0.000 C 
BRANCH  15  16
ATOM     16  C   UNL     1      15.448   7.877 -15.051  1.00  0.00    -0.000 C 
BRANCH  16  17
ATOM     17  C   UNL     1      13.922   7.917 -14.875  1.00  0.00    -0.003 C 
ATOM     18  C   UNL     1      13.198   8.417 -16.125  1.00  0.00     0.004 C 
ENDBRANCH  16  17
ENDBRANCH  15  16
ENDBRANCH  14  15
ENDBRANCH  13  14
ENDBRANCH  12  13
ENDBRANCH  11  12
ENDBRANCH   1  11
TORSDOF 14
ENDMDL
MODEL 5
REMARK VINA RESULT:     0.605      2.303      4.182
REMARK INTER + INTRA:           0.965
REMARK INTER:                   2.206
REMARK INTRA:                  -1.241
REMARK UNBOUND:                -0.135
REMARK SMILES CCCCCCCCCCCCCCCC(=O)[O-]
REMARK SMILES IDX 9 1 10 2 11 3 12 4 13 5 14 6 15 7 16 8 17 9 18 10 8 11 7 12
REMARK SMILES IDX 6 13 5 14 4 15 3 16 2 17 1 18
REMARK H PARENT
REMARK Flexibility Score: inf
ROOT
ATOM      1  C   UNL     1      18.452  12.305 -14.148  1.00  0.00     0.000 C 
ENDROOT
BRANCH   1   2
ATOM      2  C   UNL     1      18.878  10.831 -14.240  1.00  0.00     0.000 C 
BRANCH   2   3
ATOM      3  C   UNL     1      18.454  10.014 -13.011  1.00  0.00     0.000 C 
BRANCH   3   4
ATOM      4  C   UNL     1      17.967   8.619 -13.419  1.00  0.00     0.000 C 
BRANCH   4   5
ATOM      5  C   UNL     1      17.786   8.521 -14.941  1.00  0.00     0.000 C 
BRANCH   5   6
ATOM      6  C   UNL     1      16.400   7.994 -15.340  1.00  0.00     0.006 C 
BRANCH   6   7
ATOM      7  C   UNL     1      15.419   7.957 -14.160  1.00  0.00     0.053 C 
BRANCH   7   8
ATOM      8  C   UNL     1      14.159   8.686 -14.506  1.00  0.00     0.041 C 
ATOM      9  O   UNL     1      13.276   8.126 -15.208  1.00  0.00    -0.550 OA
ATOM     10  O   UNL     1      13.937   9.965 -14.012  1.00  0.00    -0.550 OA
ENDBRANCH   7   8
ENDBRANCH   6   7
ENDBRANCH   5   6
ENDBRANCH   4   5
ENDBRANCH   3   4
ENDBRANCH   2   3
ENDBRANCH   1   2
BRANCH   1  11
ATOM     11  C   UNL     1      19.200  13.201 -15.144  1.00  0.00     0.000 C 
BRANCH  11  12
ATOM     12  C   UNL     1      20.296  14.011 -14.441  1.00  0.00    -0.000 C 
BRANCH  12  13
ATOM     13  C   UNL     1      21.683  13.404 -14.704  1.00  0.00    -0.000 C 
BRANCH  13  14
ATOM     14  C   UNL     1      21.802  12.755 -16.094  1.00  0.00    -0.000 C 
BRANCH  14  15
ATOM     15  C   UNL     1      22.067  11.238 -16.082  1.00  0.00    -0.000 C 
BRANCH  15  16
ATOM     16  C   UNL     1      21.798  10.596 -14.710  1.00  0.00    -0.000 C 
BRANCH  16  17
ATOM     17  C   UNL     1      21.945   9.067 -14.737  1.00  0.00    -0.003 C 
ATOM     18  C   UNL     1      21.697   8.476 -16.125  1.00  0.00     0.004 C 
ENDBRANCH  16  17
ENDBRANCH  15  16
ENDBRANCH  14  15
ENDBRANCH  13  14
ENDBRANCH  12  13
ENDBRANCH  11  12
ENDBRANCH   1  11
TORSDOF 14
ENDMDL
MODEL 6
REMARK VINA RESULT:     0.630      3.683      7.087
REMARK INTER + INTRA:           1.010
REMARK INTER:                   0.616
REMARK INTRA:                   0.394
REMARK UNBOUND:                -0.135
REMARK SMILES CCCCCCCCCCCCCCCC(=O)[O-]
REMARK SMILES IDX 9 1 10 2 11 3 12 4 13 5 14 6 15 7 16 8 17 9 18 10 8 11 7 12
REMARK SMILES IDX 6 13 5 14 4 15 3 16 2 17 1 18
REMARK H PARENT
REMARK Flexibility Score: inf
ROOT
ATOM      1  C   UNL     1      18.286   8.248 -15.784  1.00  0.00     0.000 C 
ENDROOT
BRANCH   1   2
ATOM      2  C   UNL     1      19.545   9.031 -15.380  1.00  0.00     0.000 C 
BRANCH   2   3
ATOM      3  C   UNL     1      20.824   8.465 -16.015  1.00  0.00     0.000 C 
BRANCH   3   4
ATOM      4  C   UNL     1      21.910   9.542 -16.122  1.00  0.00     0.000 C 
BRANCH   4   5
ATOM      5  C   UNL     1      21.496  10.818 -15.373  1.00  0.00     0.000 C 
BRANCH   5   6
ATOM      6  C   UNL     1      21.983  12.097 -16.069  1.00  0.00     0.006 C 
BRANCH   6   7
ATOM      7  C   UNL     1      20.904  13.187 -16.125  1.00  0.00     0.053 C 
BRANCH   7   8
ATOM      8  C   UNL     1      21.239  14.301 -15.183  1.00  0.00     0.041 C 
ATOM      9  O   UNL     1      21.227  15.494 -15.584  1.00  0.00    -0.550 OA
ATOM     10  O   UNL     1      21.514  14.025 -13.850  1.00  0.00    -0.550 OA
ENDBRANCH   7   8
ENDBRANCH   6   7
ENDBRANCH   5   6
ENDBRANCH   4   5
ENDBRANCH   3   4
ENDBRANCH   2   3
ENDBRANCH   1   2
BRANCH   1  11
ATOM     11  C   UNL     1      17.229   8.213 -14.671  1.00  0.00     0.000 C 
BRANCH  11  12
ATOM     12  C   UNL     1      15.816   8.100 -15.257  1.00  0.00    -0.000 C 
BRANCH  12  13
ATOM     13  C   UNL     1      14.755   8.477 -14.213  1.00  0.00    -0.000 C 
BRANCH  13  14
ATOM     14  C   UNL     1      14.943   9.898 -13.651  1.00  0.00    -0.000 C 
BRANCH  14  15
ATOM     15  C   UNL     1      16.409  10.344 -13.492  1.00  0.00    -0.000 C 
BRANCH  15  16
ATOM     16  C   UNL     1      16.543  11.802 -13.021  1.00  0.00    -0.000 C 
BRANCH  16  17
ATOM     17  C   UNL     1      17.946  12.120 -12.485  1.00  0.00    -0.003 C 
ATOM     18  C   UNL     1      19.028  12.001 -13.558  1.00  0.00     0.004 C 
ENDBRANCH  16  17
ENDBRANCH  15  16
ENDBRANCH  14  15
ENDBRANCH  13  14
ENDBRANCH  12  13
ENDBRANCH  11  12
ENDBRANCH   1  11
TORSDOF 14
ENDMDL
