MODEL 1
REMARK VINA RESULT:    -2.121      0.000      0.000
REMARK INTER + INTRA:          -2.559
REMARK INTER:                  -2.555
REMARK INTRA:                  -0.004
REMARK UNBOUND:                -0.004
REMARK SMILES OCC(O)CO
REMARK SMILES IDX 3 1 5 2 6 3 2 5 1 6 4 8
REMARK H PARENT 6 4 1 7 4 9
REMARK Flexibility Score: inf
ROOT
ATOM      1  C   UNL     1       2.121  -0.055  -6.436  1.00  0.00     0.165 C 
ENDROOT
BRANCH   1   2
ATOM      2  C   UNL     1       1.643   1.039  -5.469  1.00  0.00     0.190 C 
BRANCH   2   3
ATOM      3  O   UNL     1       2.737   1.552  -4.760  1.00  0.00    -0.394 OA
ATOM      4  H   UNL     1       2.369   2.242  -4.148  1.00  0.00     0.210 HD
ENDBRANCH   2   3
ENDBRANCH   1   2
BRANCH   1   5
ATOM      5  C   UNL     1       1.551   0.146  -7.852  1.00  0.00     0.190 C 
BRANCH   5   6
ATOM      6  O   UNL     1       2.583   0.327  -8.785  1.00  0.00    -0.394 OA
ATOM      7  H   UNL     1       2.260   1.002  -9.437  1.00  0.00     0.210 HD
ENDBRANCH   5   6
ENDBRANCH   1   5
BRANCH   1   8
ATOM      8  O   UNL     1       3.526  -0.098  -6.479  1.00  0.00    -0.388 OA
ATOM      9  H   UNL     1       3.829  -0.729  -5.774  1.00  0.00     0.211 HD
ENDBRANCH   1   8
TORSDOF 5
ENDMDL
MODEL 2
REMARK VINA RESULT:    -1.137      1.256      3.051
REMARK INTER + INTRA:          -1.373
REMARK INTER:                  -1.353
REMARK INTRA:                  -0.021
REMARK UNBOUND:                -0.004
REMARK SMILES OCC(O)CO
REMARK SMILES IDX 3 1 5 2 6 3 2 5 1 6 4 8
REMARK H PARENT 6 4 1 7 4 9
REMARK Flexibility Score: inf
ROOT
ATOM      1  C   UNL     1       1.576   0.025  -6.967  1.00  0.00     0.165 C 
ENDROOT
BRANCH   1   2
ATOM      2  C   UNL     1       1.550   0.030  -8.503  1.00  0.00     0.190 C 
BRANCH   2   3
ATOM      3  O   UNL     1       2.802   0.422  -8.995  1.00  0.00    -0.394 OA
ATOM      4  H   UNL     1       2.714   0.442  -9.983  1.00  0.00     0.210 HD
ENDBRANCH   2   3
ENDBRANCH   1   2
BRANCH   1   5
ATOM      5  C   UNL     1       3.016   0.025  -6.421  1.00  0.00     0.190 C 
BRANCH   5   6
ATOM      6  O   UNL     1       3.103   0.778  -5.240  1.00  0.00    -0.394 OA
ATOM      7  H   UNL     1       2.588   1.612  -5.397  1.00  0.00     0.210 HD
ENDBRANCH   5   6
ENDBRANCH   1   5
BRANCH   1   8
ATOM      8  O   UNL     1       0.863   1.124  -6.456  1.00  0.00    -0.388 OA
ATOM      9  H   UNL     1       1.517   1.724  -6.008  1.00  0.00     0.211 HD
ENDBRANCH   1   8
TORSDOF 5
ENDMDL
MODEL 3
REMARK VINA RESULT:    -0.884     12.961     13.242
REMARK INTER + INTRA:          -1.069
REMARK INTER:                  -0.882
REMARK INTRA:                  -0.187
REMARK UNBOUND:                -0.004
REMARK SMILES OCC(O)CO
REMARK SMILES IDX 3 1 5 2 6 3 2 5 1 6 4 8
REMARK H PARENT 6 4 1 7 4 9
REMARK Flexibility Score: inf
ROOT
ATOM      1  C   UNL     1      -4.585   4.065 -18.037  1.00  0.00     0.165 C 
ENDROOT
BRANCH   1   2
ATOM      2  C   UNL     1      -5.620   4.123 -16.904  1.00  0.00     0.190 C 
BRANCH   2   3
ATOM      3  O   UNL     1      -4.964   4.159 -15.667  1.00  0.00    -0.394 OA
ATOM      4  H   UNL     1      -4.945   5.114 -15.394  1.00  0.00     0.210 HD
ENDBRANCH   2   3
ENDBRANCH   1   2
BRANCH   1   5
ATOM      5  C   UNL     1      -3.759   5.362 -18.123  1.00  0.00     0.190 C 
BRANCH   5   6
ATOM      6  O   UNL     1      -2.569   5.247 -17.389  1.00  0.00    -0.394 OA
ATOM      7  H   UNL     1      -2.730   5.693 -16.517  1.00  0.00     0.210 HD
ENDBRANCH   5   6
ENDBRANCH   1   5
BRANCH   1   8
ATOM      8  O   UNL     1      -3.733   2.958 -17.873  1.00  0.00    -0.388 OA
ATOM      9  H   UNL     1      -4.305   2.150 -17.782  1.00  0.00     0.211 HD
ENDBRANCH   1   8
TORSDOF 5
ENDMDL
MODEL 4
REMARK VINA RESULT:    -0.856      1.298      1.885
REMARK INTER + INTRA:          -1.036
REMARK INTER:                  -0.856
REMARK INTRA:                  -0.180
REMARK UNBOUND:                -0.004
REMARK SMILES OCC(O)CO
REMARK SMILES IDX 3 1 5 2 6 3 2 5 1 6 4 8
REMARK H PARENT 6 4 1 7 4 9
REMARK Flexibility Score: inf
ROOT
ATOM      1  C   UNL     1       1.684   0.698  -6.920  1.00  0.00     0.165 C 
ENDROOT
BRANCH   1   2
ATOM      2  C   UNL     1       2.490  -0.151  -5.925  1.00  0.00     0.190 C 
BRANCH   2   3
ATOM      3  O   UNL     1       3.830  -0.208  -6.331  1.00  0.00    -0.394 OA
ATOM      4  H   UNL     1       3.965  -1.118  -6.705  1.00  0.00     0.210 HD
ENDBRANCH   2   3
ENDBRANCH   1   2
BRANCH   1   5
ATOM      5  C   UNL     1       1.512  -0.018  -8.272  1.00  0.00     0.190 C 
BRANCH   5   6
ATOM      6  O   UNL     1       2.531   0.348  -9.165  1.00  0.00    -0.394 OA
ATOM      7  H   UNL     1       2.096   0.503 -10.043  1.00  0.00     0.210 HD
ENDBRANCH   5   6
ENDBRANCH   1   5
BRANCH   1   8
ATOM      8  O   UNL     1       0.428   1.030  -6.382  1.00  0.00    -0.388 OA
ATOM      9  H   UNL     1       0.043   0.204  -5.984  1.00  0.00     0.211 HD
ENDBRANCH   1   8
TORSDOF 5
ENDMDL
MODEL 5
REMARK VINA RESULT:    -0.840      5.868      6.891
REMARK INTER + INTRA:          -1.016
REMARK INTER:                  -1.000
REMARK INTRA:                  -0.015
REMARK UNBOUND:                -0.004
REMARK SMILES OCC(O)CO
REMARK SMILES IDX 3 1 5 2 6 3 2 5 1 6 4 8
REMARK H PARENT 6 4 1 7 4 9
REMARK Flexibility Score: inf
ROOT
ATOM      1  C   UNL     1      -2.520   4.470  -3.521  1.00  0.00     0.165 C 
ENDROOT
BRANCH   1   2
ATOM      2  C   UNL     1      -2.708   5.717  -4.397  1.00  0.00     0.190 C 
BRANCH   2   3
ATOM      3  O   UNL     1      -2.350   6.861  -3.672  1.00  0.00    -0.394 OA
ATOM      4  H   UNL     1      -1.946   6.535  -2.826  1.00  0.00     0.210 HD
ENDBRANCH   2   3
ENDBRANCH   1   2
BRANCH   1   5
ATOM      5  C   UNL     1      -2.212   3.220  -4.365  1.00  0.00     0.190 C 
BRANCH   5   6
ATOM      6  O   UNL     1      -1.557   3.570  -5.555  1.00  0.00    -0.394 OA
ATOM      7  H   UNL     1      -1.196   4.485  -5.422  1.00  0.00     0.210 HD
ENDBRANCH   5   6
ENDBRANCH   1   5
BRANCH   1   8
ATOM      8  O   UNL     1      -1.501   4.680  -2.574  1.00  0.00    -0.388 OA
ATOM      9  H   UNL     1      -1.001   5.494  -2.846  1.00  0.00     0.211 HD
ENDBRANCH   1   8
TORSDOF 5
ENDMDL
MODEL 6
REMARK VINA RESULT:    -0.828      5.784      7.147
REMARK INTER + INTRA:          -1.002
REMARK INTER:                  -1.000
REMARK INTRA:                  -0.002
REMARK UNBOUND:                -0.004
REMARK SMILES OCC(O)CO
REMARK SMILES IDX 3 1 5 2 6 3 2 5 1 6 4 8
REMARK H PARENT 6 4 1 7 4 9
REMARK Flexibility Score: inf
ROOT
ATOM      1  C   UNL     1      -2.530   4.249  -4.132  1.00  0.00     0.165 C 
ENDROOT
BRANCH   1   2
ATOM      2  C   UNL     1      -1.392   3.315  -4.571  1.00  0.00     0.190 C 
BRANCH   2   3
ATOM      3  O   UNL     1      -1.675   2.791  -5.839  1.00  0.00    -0.394 OA
ATOM      4  H   UNL     1      -1.100   3.289  -6.477  1.00  0.00     0.210 HD
ENDBRANCH   2   3
ENDBRANCH   1   2
BRANCH   1   5
ATOM      5  C   UNL     1      -2.093   5.184  -2.991  1.00  0.00     0.190 C 
BRANCH   5   6
ATOM      6  O   UNL     1      -2.241   6.529  -3.362  1.00  0.00    -0.394 OA
ATOM      7  H   UNL     1      -1.824   7.070  -2.641  1.00  0.00     0.210 HD
ENDBRANCH   5   6
ENDBRANCH   1   5
BRANCH   1   8
ATOM      8  O   UNL     1      -3.002   5.001  -5.223  1.00  0.00    -0.388 OA
ATOM      9  H   UNL     1      -3.984   5.108  -5.111  1.00  0.00     0.211 HD
ENDBRANCH   1   8
TORSDOF 5
ENDMDL
MODEL 7
REMARK VINA RESULT:    -0.780      1.062      2.829
REMARK INTER + INTRA:          -0.943
REMARK INTER:                  -0.912
REMARK INTRA:                  -0.031
REMARK UNBOUND:                -0.004
REMARK SMILES OCC(O)CO
REMARK SMILES IDX 3 1 5 2 6 3 2 5 1 6 4 8
REMARK H PARENT 6 4 1 7 4 9
REMARK Flexibility Score: inf
ROOT
ATOM      1  C   UNL     1       1.834   0.100  -6.251  1.00  0.00     0.165 C 
ENDROOT
BRANCH   1   2
ATOM      2  C   UNL     1       3.347  -0.132  -6.127  1.00  0.00     0.190 C 
BRANCH   2   3
ATOM      3  O   UNL     1       3.953   0.033  -7.380  1.00  0.00    -0.394 OA
ATOM      4  H   UNL     1       4.224   0.987  -7.430  1.00  0.00     0.210 HD
ENDBRANCH   2   3
ENDBRANCH   1   2
BRANCH   1   5
ATOM      5  C   UNL     1       1.350   1.226  -5.319  1.00  0.00     0.190 C 
BRANCH   5   6
ATOM      6  O   UNL     1       2.432   1.828  -4.659  1.00  0.00    -0.394 OA
ATOM      7  H   UNL     1       2.507   1.385  -3.774  1.00  0.00     0.210 HD
ENDBRANCH   5   6
ENDBRANCH   1   5
BRANCH   1   8
ATOM      8  O   UNL     1       1.485   0.389  -7.583  1.00  0.00    -0.388 OA
ATOM      9  H   UNL     1       0.729   1.034  -7.562  1.00  0.00     0.211 HD
ENDBRANCH   1   8
TORSDOF 5
ENDMDL
MODEL 8
REMARK VINA RESULT:    -0.534     12.583     13.160
REMARK INTER + INTRA:          -0.647
REMARK INTER:                  -0.645
REMARK INTRA:                  -0.003
REMARK UNBOUND:                -0.004
REMARK SMILES OCC(O)CO
REMARK SMILES IDX 3 1 5 2 6 3 2 5 1 6 4 8
REMARK H PARENT 6 4 1 7 4 9
REMARK Flexibility Score: inf
ROOT
ATOM      1  C   UNL     1      -3.888   4.054 -17.212  1.00  0.00     0.165 C 
ENDROOT
BRANCH   1   2
ATOM      2  C   UNL     1      -3.541   5.240 -18.125  1.00  0.00     0.190 C 
BRANCH   2   3
ATOM      3  O   UNL     1      -2.193   5.583 -17.960  1.00  0.00    -0.394 OA
ATOM      4  H   UNL     1      -2.178   6.330 -17.306  1.00  0.00     0.210 HD
ENDBRANCH   2   3
ENDBRANCH   1   2
BRANCH   1   5
ATOM      5  C   UNL     1      -5.308   4.175 -16.632  1.00  0.00     0.190 C 
BRANCH   5   6
ATOM      6  O   UNL     1      -5.279   4.156 -15.229  1.00  0.00    -0.394 OA
ATOM      7  H   UNL     1      -4.948   5.047 -14.941  1.00  0.00     0.210 HD
ENDBRANCH   5   6
ENDBRANCH   1   5
BRANCH   1   8
ATOM      8  O   UNL     1      -3.749   2.838 -17.907  1.00  0.00    -0.388 OA
ATOM      9  H   UNL     1      -4.636   2.610 -18.292  1.00  0.00     0.211 HD
ENDBRANCH   1   8
TORSDOF 5
ENDMDL
MODEL 9
REMARK VINA RESULT:    -0.363     11.419     12.165
REMARK INTER + INTRA:          -0.441
REMARK INTER:                  -0.439
REMARK INTRA:                  -0.002
REMARK UNBOUND:                -0.004
REMARK SMILES OCC(O)CO
REMARK SMILES IDX 3 1 5 2 6 3 2 5 1 6 4 8
REMARK H PARENT 6 4 1 7 4 9
REMARK Flexibility Score: inf
ROOT
ATOM      1  C   UNL     1      -5.419  -4.173   0.985  1.00  0.00     0.165 C 
ENDROOT
BRANCH   1   2
ATOM      2  C   UNL     1      -4.272  -3.829   1.947  1.00  0.00     0.190 C 
BRANCH   2   3
ATOM      3  O   UNL     1      -3.314  -4.852   1.923  1.00  0.00    -0.394 OA
ATOM      4  H   UNL     1      -3.822  -5.702   1.857  1.00  0.00     0.210 HD
ENDBRANCH   2   3
ENDBRANCH   1   2
BRANCH   1   5
ATOM      5  C   UNL     1      -6.689  -3.361   1.297  1.00  0.00     0.190 C 
BRANCH   5   6
ATOM      6  O   UNL     1      -7.792  -4.209   1.479  1.00  0.00    -0.394 OA
ATOM      7  H   UNL     1      -8.261  -3.894   2.295  1.00  0.00     0.210 HD
ENDBRANCH   5   6
ENDBRANCH   1   5
BRANCH   1   8
ATOM      8  O   UNL     1      -5.025  -3.964  -0.349  1.00  0.00    -0.388 OA
ATOM      9  H   UNL     1      -5.565  -4.572  -0.921  1.00  0.00     0.211 HD
ENDBRANCH   1   8
TORSDOF 5
ENDMDL
