MODEL 1
REMARK VINA RESULT:    -4.304      0.000      0.000
REMARK INTER + INTRA:          -9.372
REMARK INTER:                  -7.576
REMARK INTRA:                  -1.796
REMARK UNBOUND:                -1.796
REMARK SMILES CCCCCCCCCCCCCCC(=O)[O-]
REMARK SMILES IDX 9 1 10 2 11 3 12 4 13 5 14 6 15 7 16 8 17 9 8 10 7 11 6 12
REMARK SMILES IDX 5 13 4 14 3 15 2 16 1 17
REMARK H PARENT
REMARK Flexibility Score: inf
ROOT
ATOM      1  C   UNL     1       8.897  29.203 -12.690  1.00  0.00     0.000 C 
ENDROOT
BRANCH   1   2
ATOM      2  C   UNL     1       7.838  28.084 -12.594  1.00  0.00     0.000 C 
BRANCH   2   3
ATOM      3  C   UNL     1       6.924  28.043 -13.832  1.00  0.00     0.000 C 
BRANCH   3   4
ATOM      4  C   UNL     1       7.424  28.953 -14.966  1.00  0.00     0.000 C 
BRANCH   4   5
ATOM      5  C   UNL     1       6.275  29.534 -15.808  1.00  0.00     0.006 C 
BRANCH   5   6
ATOM      6  C   UNL     1       5.787  30.884 -15.268  1.00  0.00     0.053 C 
BRANCH   6   7
ATOM      7  C   UNL     1       6.233  32.021 -16.134  1.00  0.00     0.041 C 
ATOM      8  O   UNL     1       7.195  32.752 -15.778  1.00  0.00    -0.550 OA
ATOM      9  O   UNL     1       5.563  32.297 -17.319  1.00  0.00    -0.550 OA
ENDBRANCH   6   7
ENDBRANCH   5   6
ENDBRANCH   4   5
ENDBRANCH   3   4
ENDBRANCH   2   3
ENDBRANCH   1   2
BRANCH   1  10
ATOM     10  C   UNL     1      10.345  28.683 -12.697  1.00  0.00     0.000 C 
BRANCH  10  11
ATOM     11  C   UNL     1      10.974  28.686 -14.099  1.00  0.00    -0.000 C 
BRANCH  11  12
ATOM     12  C   UNL     1      10.798  27.344 -14.827  1.00  0.00    -0.000 C 
BRANCH  12  13
ATOM     13  C   UNL     1      10.743  26.147 -13.861  1.00  0.00    -0.000 C 
BRANCH  13  14
ATOM     14  C   UNL     1       9.645  25.137 -14.231  1.00  0.00    -0.000 C 
BRANCH  14  15
ATOM     15  C   UNL     1       9.163  24.320 -13.020  1.00  0.00    -0.000 C 
BRANCH  15  16
ATOM     16  C   UNL     1       9.519  24.987 -11.681  1.00  0.00    -0.003 C 
ATOM     17  C   UNL     1       8.813  24.340 -10.491  1.00  0.00     0.004 C 
ENDBRANCH  15  16
ENDBRANCH  14  15
ENDBRANCH  13  14
ENDBRANCH  12  13
ENDBRANCH  11  12
ENDBRANCH  10  11
ENDBRANCH   1  10
TORSDOF 13
ENDMDL
MODEL 2
REMARK VINA RESULT:    -4.240      8.792     10.627
REMARK INTER + INTRA:          -9.258
REMARK INTER:                  -8.518
REMARK INTRA:                  -0.739
REMARK UNBOUND:                -1.796
REMARK SMILES CCCCCCCCCCCCCCC(=O)[O-]
REMARK SMILES IDX 9 1 10 2 11 3 12 4 13 5 14 6 15 7 16 8 17 9 8 10 7 11 6 12
REMARK SMILES IDX 5 13 4 14 3 15 2 16 1 17
REMARK H PARENT
REMARK Flexibility Score: inf
ROOT
ATOM      1  C   UNL     1       2.148  21.885 -12.402  1.00  0.00     0.000 C 
ENDROOT
BRANCH   1   2
ATOM      2  C   UNL     1       2.863  22.504 -13.623  1.00  0.00     0.000 C 
BRANCH   2   3
ATOM      3  C   UNL     1       2.834  21.570 -14.846  1.00  0.00     0.000 C 
BRANCH   3   4
ATOM      4  C   UNL     1       3.526  22.181 -16.074  1.00  0.00     0.000 C 
BRANCH   4   5
ATOM      5  C   UNL     1       2.526  22.639 -17.150  1.00  0.00     0.006 C 
BRANCH   5   6
ATOM      6  C   UNL     1       1.648  21.486 -17.653  1.00  0.00     0.053 C 
BRANCH   6   7
ATOM      7  C   UNL     1       1.717  21.346 -19.142  1.00  0.00     0.041 C 
ATOM      8  O   UNL     1       0.863  20.653 -19.755  1.00  0.00    -0.550 OA
ATOM      9  O   UNL     1       2.748  21.951 -19.851  1.00  0.00    -0.550 OA
ENDBRANCH   6   7
ENDBRANCH   5   6
ENDBRANCH   4   5
ENDBRANCH   3   4
ENDBRANCH   2   3
ENDBRANCH   1   2
BRANCH   1  10
ATOM     10  C   UNL     1       2.140  20.347 -12.406  1.00  0.00     0.000 C 
BRANCH  10  11
ATOM     11  C   UNL     1       2.612  19.745 -11.074  1.00  0.00    -0.000 C 
BRANCH  11  12
ATOM     12  C   UNL     1       2.034  20.481  -9.855  1.00  0.00    -0.000 C 
BRANCH  12  13
ATOM     13  C   UNL     1       3.111  20.855  -8.820  1.00  0.00    -0.000 C 
BRANCH  13  14
ATOM     14  C   UNL     1       2.514  21.410  -7.517  1.00  0.00    -0.000 C 
BRANCH  14  15
ATOM     15  C   UNL     1       0.978  21.489  -7.559  1.00  0.00    -0.000 C 
BRANCH  15  16
ATOM     16  C   UNL     1       0.335  21.148  -6.205  1.00  0.00    -0.003 C 
ATOM     17  C   UNL     1       1.260  20.338  -5.297  1.00  0.00     0.004 C 
ENDBRANCH  15  16
ENDBRANCH  14  15
ENDBRANCH  13  14
ENDBRANCH  12  13
ENDBRANCH  11  12
ENDBRANCH  10  11
ENDBRANCH   1  10
TORSDOF 13
ENDMDL
MODEL 3
REMARK VINA RESULT:    -4.216      9.780     11.868
REMARK INTER + INTRA:          -9.215
REMARK INTER:                  -8.477
REMARK INTRA:                  -0.738
REMARK UNBOUND:                -1.796
REMARK SMILES CCCCCCCCCCCCCCC(=O)[O-]
REMARK SMILES IDX 9 1 10 2 11 3 12 4 13 5 14 6 15 7 16 8 17 9 8 10 7 11 6 12
REMARK SMILES IDX 5 13 4 14 3 15 2 16 1 17
REMARK H PARENT
REMARK Flexibility Score: inf
ROOT
ATOM      1  C   UNL     1       2.866  22.541 -13.567  1.00  0.00     0.000 C 
ENDROOT
BRANCH   1   2
ATOM      2  C   UNL     1       2.311  21.827 -12.316  1.00  0.00     0.000 C 
BRANCH   2   3
ATOM      3  C   UNL     1       2.193  20.305 -12.522  1.00  0.00     0.000 C 
BRANCH   3   4
ATOM      4  C   UNL     1       2.178  19.528 -11.197  1.00  0.00     0.000 C 
BRANCH   4   5
ATOM      5  C   UNL     1       3.113  20.142 -10.140  1.00  0.00     0.006 C 
BRANCH   5   6
ATOM      6  C   UNL     1       2.366  20.510  -8.851  1.00  0.00     0.053 C 
BRANCH   6   7
ATOM      7  C   UNL     1       2.814  19.673  -7.693  1.00  0.00     0.041 C 
ATOM      8  O   UNL     1       2.908  20.177  -6.543  1.00  0.00    -0.550 OA
ATOM      9  O   UNL     1       3.164  18.343  -7.890  1.00  0.00    -0.550 OA
ENDBRANCH   6   7
ENDBRANCH   5   6
ENDBRANCH   4   5
ENDBRANCH   3   4
ENDBRANCH   2   3
ENDBRANCH   1   2
BRANCH   1  10
ATOM     10  C   UNL     1       2.883  21.658 -14.826  1.00  0.00     0.000 C 
BRANCH  10  11
ATOM     11  C   UNL     1       3.747  22.242 -15.954  1.00  0.00    -0.000 C 
BRANCH  11  12
ATOM     12  C   UNL     1       2.923  22.613 -17.197  1.00  0.00    -0.000 C 
BRANCH  12  13
ATOM     13  C   UNL     1       1.695  21.703 -17.389  1.00  0.00    -0.000 C 
BRANCH  13  14
ATOM     14  C   UNL     1       0.952  21.982 -18.706  1.00  0.00    -0.000 C 
BRANCH  14  15
ATOM     15  C   UNL     1       1.020  20.797 -19.684  1.00  0.00    -0.000 C 
BRANCH  15  16
ATOM     16  C   UNL     1       2.416  20.627 -20.305  1.00  0.00    -0.003 C 
ATOM     17  C   UNL     1       2.719  19.181 -20.695  1.00  0.00     0.004 C 
ENDBRANCH  15  16
ENDBRANCH  14  15
ENDBRANCH  13  14
ENDBRANCH  12  13
ENDBRANCH  11  12
ENDBRANCH  10  11
ENDBRANCH   1  10
TORSDOF 13
ENDMDL
MODEL 4
REMARK VINA RESULT:    -4.163      1.553      1.879
REMARK INTER + INTRA:          -9.123
REMARK INTER:                  -7.594
REMARK INTRA:                  -1.529
REMARK UNBOUND:                -1.796
REMARK SMILES CCCCCCCCCCCCCCC(=O)[O-]
REMARK SMILES IDX 9 1 10 2 11 3 12 4 13 5 14 6 15 7 16 8 17 9 8 10 7 11 6 12
REMARK SMILES IDX 5 13 4 14 3 15 2 16 1 17
REMARK H PARENT
REMARK Flexibility Score: inf
ROOT
ATOM      1  C   UNL     1       9.305  28.390 -12.756  1.00  0.00     0.000 C 
ENDROOT
BRANCH   1   2
ATOM      2  C   UNL     1       7.830  28.836 -12.849  1.00  0.00     0.000 C 
BRANCH   2   3
ATOM      3  C   UNL     1       7.068  28.091 -13.959  1.00  0.00     0.000 C 
BRANCH   3   4
ATOM      4  C   UNL     1       6.444  29.043 -14.991  1.00  0.00     0.000 C 
BRANCH   4   5
ATOM      5  C   UNL     1       6.566  30.522 -14.581  1.00  0.00     0.006 C 
BRANCH   5   6
ATOM      6  C   UNL     1       5.627  31.425 -15.391  1.00  0.00     0.053 C 
BRANCH   6   7
ATOM      7  C   UNL     1       4.865  32.365 -14.507  1.00  0.00     0.041 C 
ATOM      8  O   UNL     1       4.915  32.240 -13.255  1.00  0.00    -0.550 OA
ATOM      9  O   UNL     1       4.069  33.356 -15.068  1.00  0.00    -0.550 OA
ENDBRANCH   6   7
ENDBRANCH   5   6
ENDBRANCH   4   5
ENDBRANCH   3   4
ENDBRANCH   2   3
ENDBRANCH   1   2
BRANCH   1  10
ATOM     10  C   UNL     1      10.093  28.585 -14.062  1.00  0.00     0.000 C 
BRANCH  10  11
ATOM     11  C   UNL     1      10.510  27.257 -14.713  1.00  0.00    -0.000 C 
BRANCH  11  12
ATOM     12  C   UNL     1      10.486  26.082 -13.722  1.00  0.00    -0.000 C 
BRANCH  12  13
ATOM     13  C   UNL     1       9.680  24.879 -14.247  1.00  0.00    -0.000 C 
BRANCH  13  14
ATOM     14  C   UNL     1       9.211  23.944 -13.122  1.00  0.00    -0.000 C 
BRANCH  14  15
ATOM     15  C   UNL     1       8.844  24.706 -11.837  1.00  0.00    -0.000 C 
BRANCH  15  16
ATOM     16  C   UNL     1       7.393  24.449 -11.395  1.00  0.00    -0.003 C 
ATOM     17  C   UNL     1       6.368  24.945 -12.414  1.00  0.00     0.004 C 
ENDBRANCH  15  16
ENDBRANCH  14  15
ENDBRANCH  13  14
ENDBRANCH  12  13
ENDBRANCH  11  12
ENDBRANCH  10  11
ENDBRANCH   1  10
TORSDOF 13
ENDMDL
MODEL 5
REMARK VINA RESULT:    -4.129     11.109     13.449
REMARK INTER + INTRA:          -9.063
REMARK INTER:                  -7.110
REMARK INTRA:                  -1.954
REMARK UNBOUND:                -1.796
REMARK SMILES CCCCCCCCCCCCCCC(=O)[O-]
REMARK SMILES IDX 9 1 10 2 11 3 12 4 13 5 14 6 15 7 16 8 17 9 8 10 7 11 6 12
REMARK SMILES IDX 5 13 4 14 3 15 2 16 1 17
REMARK H PARENT
REMARK Flexibility Score: inf
ROOT
ATOM      1  C   UNL     1       0.628  18.064  -8.460  1.00  0.00     0.000 C 
ENDROOT
BRANCH   1   2
ATOM      2  C   UNL     1       1.885  17.190  -8.663  1.00  0.00     0.000 C 
BRANCH   2   3
ATOM      3  C   UNL     1       3.074  18.004  -9.205  1.00  0.00     0.000 C 
BRANCH   3   4
ATOM      4  C   UNL     1       3.489  17.572 -10.620  1.00  0.00     0.000 C 
BRANCH   4   5
ATOM      5  C   UNL     1       2.573  18.155 -11.710  1.00  0.00     0.006 C 
BRANCH   5   6
ATOM      6  C   UNL     1       2.537  19.689 -11.675  1.00  0.00     0.053 C 
BRANCH   6   7
ATOM      7  C   UNL     1       1.138  20.207 -11.545  1.00  0.00     0.041 C 
ATOM      8  O   UNL     1       0.157  19.450 -11.765  1.00  0.00    -0.550 OA
ATOM      9  O   UNL     1       0.917  21.539 -11.214  1.00  0.00    -0.550 OA
ENDBRANCH   6   7
ENDBRANCH   5   6
ENDBRANCH   4   5
ENDBRANCH   3   4
ENDBRANCH   2   3
ENDBRANCH   1   2
BRANCH   1  10
ATOM     10  C   UNL     1      -0.121  17.772  -7.148  1.00  0.00     0.000 C 
BRANCH  10  11
ATOM     11  C   UNL     1       0.804  17.263  -6.032  1.00  0.00    -0.000 C 
BRANCH  11  12
ATOM     12  C   UNL     1       1.563  18.401  -5.330  1.00  0.00    -0.000 C 
BRANCH  12  13
ATOM     13  C   UNL     1       0.634  19.542  -4.875  1.00  0.00    -0.000 C 
BRANCH  13  14
ATOM     14  C   UNL     1       1.115  20.923  -5.349  1.00  0.00    -0.000 C 
BRANCH  14  15
ATOM     15  C   UNL     1       0.440  21.364  -6.660  1.00  0.00    -0.000 C 
BRANCH  15  16
ATOM     16  C   UNL     1       1.454  21.612  -7.789  1.00  0.00    -0.003 C 
ATOM     17  C   UNL     1       2.875  21.199  -7.409  1.00  0.00     0.004 C 
ENDBRANCH  15  16
ENDBRANCH  14  15
ENDBRANCH  13  14
ENDBRANCH  12  13
ENDBRANCH  11  12
ENDBRANCH  10  11
ENDBRANCH   1  10
TORSDOF 13
ENDMDL
MODEL 6
REMARK VINA RESULT:    -4.126      9.738     11.897
REMARK INTER + INTRA:          -9.058
REMARK INTER:                  -8.485
REMARK INTRA:                  -0.573
REMARK UNBOUND:                -1.796
REMARK SMILES CCCCCCCCCCCCCCC(=O)[O-]
REMARK SMILES IDX 9 1 10 2 11 3 12 4 13 5 14 6 15 7 16 8 17 9 8 10 7 11 6 12
REMARK SMILES IDX 5 13 4 14 3 15 2 16 1 17
REMARK H PARENT
REMARK Flexibility Score: inf
ROOT
ATOM      1  C   UNL     1       2.293  20.488 -13.278  1.00  0.00     0.000 C 
ENDROOT
BRANCH   1   2
ATOM      2  C   UNL     1       2.521  20.201 -11.778  1.00  0.00     0.000 C 
BRANCH   2   3
ATOM      3  C   UNL     1       1.972  21.328 -10.883  1.00  0.00     0.000 C 
BRANCH   3   4
ATOM      4  C   UNL     1       2.918  21.677  -9.725  1.00  0.00     0.000 C 
BRANCH   4   5
ATOM      5  C   UNL     1       2.210  21.672  -8.359  1.00  0.00     0.006 C 
BRANCH   5   6
ATOM      6  C   UNL     1       3.075  21.040  -7.261  1.00  0.00     0.053 C 
BRANCH   6   7
ATOM      7  C   UNL     1       2.261  20.191  -6.334  1.00  0.00     0.041 C 
ATOM      8  O   UNL     1       2.826  19.376  -5.558  1.00  0.00    -0.550 OA
ATOM      9  O   UNL     1       0.874  20.274  -6.352  1.00  0.00    -0.550 OA
ENDBRANCH   6   7
ENDBRANCH   5   6
ENDBRANCH   4   5
ENDBRANCH   3   4
ENDBRANCH   2   3
ENDBRANCH   1   2
BRANCH   1  10
ATOM     10  C   UNL     1       2.553  21.952 -13.673  1.00  0.00     0.000 C 
BRANCH  10  11
ATOM     11  C   UNL     1       3.384  22.084 -14.959  1.00  0.00    -0.000 C 
BRANCH  11  12
ATOM     12  C   UNL     1       2.512  22.099 -16.225  1.00  0.00    -0.000 C 
BRANCH  12  13
ATOM     13  C   UNL     1       3.258  22.653 -17.453  1.00  0.00    -0.000 C 
BRANCH  13  14
ATOM     14  C   UNL     1       2.418  22.581 -18.738  1.00  0.00    -0.000 C 
BRANCH  14  15
ATOM     15  C   UNL     1       1.350  21.475 -18.684  1.00  0.00    -0.000 C 
BRANCH  15  16
ATOM     16  C   UNL     1       1.476  20.479 -19.849  1.00  0.00    -0.003 C 
ATOM     17  C   UNL     1       2.791  20.626 -20.614  1.00  0.00     0.004 C 
ENDBRANCH  15  16
ENDBRANCH  14  15
ENDBRANCH  13  14
ENDBRANCH  12  13
ENDBRANCH  11  12
ENDBRANCH  10  11
ENDBRANCH   1  10
TORSDOF 13
ENDMDL
MODEL 7
REMARK VINA RESULT:    -4.081      1.625      2.724
REMARK INTER + INTRA:          -8.978
REMARK INTER:                  -8.061
REMARK INTRA:                  -0.917
REMARK UNBOUND:                -1.796
REMARK SMILES CCCCCCCCCCCCCCC(=O)[O-]
REMARK SMILES IDX 9 1 10 2 11 3 12 4 13 5 14 6 15 7 16 8 17 9 8 10 7 11 6 12
REMARK SMILES IDX 5 13 4 14 3 15 2 16 1 17
REMARK H PARENT
REMARK Flexibility Score: inf
ROOT
ATOM      1  C   UNL     1       7.807  30.352 -12.458  1.00  0.00     0.000 C 
ENDROOT
BRANCH   1   2
ATOM      2  C   UNL     1       8.480  31.542 -13.177  1.00  0.00     0.000 C 
BRANCH   2   3
ATOM      3  C   UNL     1       7.461  32.614 -13.603  1.00  0.00     0.000 C 
BRANCH   3   4
ATOM      4  C   UNL     1       6.007  32.175 -13.366  1.00  0.00     0.000 C 
BRANCH   4   5
ATOM      5  C   UNL     1       5.159  32.219 -14.649  1.00  0.00     0.006 C 
BRANCH   5   6
ATOM      6  C   UNL     1       5.880  31.579 -15.842  1.00  0.00     0.053 C 
BRANCH   6   7
ATOM      7  C   UNL     1       6.002  32.531 -16.992  1.00  0.00     0.041 C 
ATOM      8  O   UNL     1       5.492  32.248 -18.107  1.00  0.00    -0.550 OA
ATOM      9  O   UNL     1       6.712  33.716 -16.841  1.00  0.00    -0.550 OA
ENDBRANCH   6   7
ENDBRANCH   5   6
ENDBRANCH   4   5
ENDBRANCH   3   4
ENDBRANCH   2   3
ENDBRANCH   1   2
BRANCH   1  10
ATOM     10  C   UNL     1       8.435  28.990 -12.798  1.00  0.00     0.000 C 
BRANCH  10  11
ATOM     11  C   UNL     1       7.410  27.846 -12.811  1.00  0.00    -0.000 C 
BRANCH  11  12
ATOM     12  C   UNL     1       8.061  26.473 -13.038  1.00  0.00    -0.000 C 
BRANCH  12  13
ATOM     13  C   UNL     1       9.566  26.468 -12.712  1.00  0.00    -0.000 C 
BRANCH  13  14
ATOM     14  C   UNL     1       9.934  25.443 -11.627  1.00  0.00    -0.000 C 
BRANCH  14  15
ATOM     15  C   UNL     1       8.899  24.311 -11.510  1.00  0.00    -0.000 C 
BRANCH  15  16
ATOM     16  C   UNL     1       8.246  24.254 -10.119  1.00  0.00    -0.003 C 
ATOM     17  C   UNL     1       7.767  22.851  -9.748  1.00  0.00     0.004 C 
ENDBRANCH  15  16
ENDBRANCH  14  15
ENDBRANCH  13  14
ENDBRANCH  12  13
ENDBRANCH  11  12
ENDBRANCH  10  11
ENDBRANCH   1  10
TORSDOF 13
ENDMDL
MODEL 8
REMARK VINA RESULT:    -4.063      3.876      7.364
REMARK INTER + INTRA:          -8.946
REMARK INTER:                  -7.937
REMARK INTRA:                  -1.009
REMARK UNBOUND:                -1.796
REMARK SMILES CCCCCCCCCCCCCCC(=O)[O-]
REMARK SMILES IDX 9 1 10 2 11 3 12 4 13 5 14 6 15 7 16 8 17 9 8 10 7 11 6 12
REMARK SMILES IDX 5 13 4 14 3 15 2 16 1 17
REMARK H PARENT
REMARK Flexibility Score: inf
ROOT
ATOM      1  C   UNL     1       8.677  28.948 -12.443  1.00  0.00     0.000 C 
ENDROOT
BRANCH   1   2
ATOM      2  C   UNL     1       8.065  27.575 -12.797  1.00  0.00     0.000 C 
BRANCH   2   3
ATOM      3  C   UNL     1       9.083  26.648 -13.487  1.00  0.00     0.000 C 
BRANCH   3   4
ATOM      4  C   UNL     1      10.211  26.202 -12.544  1.00  0.00     0.000 C 
BRANCH   4   5
ATOM      5  C   UNL     1       9.700  25.344 -11.374  1.00  0.00     0.006 C 
BRANCH   5   6
ATOM      6  C   UNL     1       8.953  24.094 -11.857  1.00  0.00     0.053 C 
BRANCH   6   7
ATOM      7  C   UNL     1       7.578  24.008 -11.270  1.00  0.00     0.041 C 
ATOM      8  O   UNL     1       6.593  24.492 -11.887  1.00  0.00    -0.550 OA
ATOM      9  O   UNL     1       7.389  23.425 -10.023  1.00  0.00    -0.550 OA
ENDBRANCH   6   7
ENDBRANCH   5   6
ENDBRANCH   4   5
ENDBRANCH   3   4
ENDBRANCH   2   3
ENDBRANCH   1   2
BRANCH   1  10
ATOM     10  C   UNL     1       7.782  30.139 -12.825  1.00  0.00     0.000 C 
BRANCH  10  11
ATOM     11  C   UNL     1       8.442  31.497 -12.541  1.00  0.00    -0.000 C 
BRANCH  11  12
ATOM     12  C   UNL     1       7.434  32.557 -12.070  1.00  0.00    -0.000 C 
BRANCH  12  13
ATOM     13  C   UNL     1       5.972  32.111 -12.259  1.00  0.00    -0.000 C 
BRANCH  13  14
ATOM     14  C   UNL     1       5.312  32.750 -13.492  1.00  0.00    -0.000 C 
BRANCH  14  15
ATOM     15  C   UNL     1       4.835  31.704 -14.514  1.00  0.00    -0.000 C 
BRANCH  15  16
ATOM     16  C   UNL     1       5.890  31.414 -15.594  1.00  0.00    -0.003 C 
ATOM     17  C   UNL     1       5.754  32.324 -16.814  1.00  0.00     0.004 C 
ENDBRANCH  15  16
ENDBRANCH  14  15
ENDBRANCH  13  14
ENDBRANCH  12  13
ENDBRANCH  11  12
ENDBRANCH  10  11
ENDBRANCH   1  10
TORSDOF 13
ENDMDL
MODEL 9
REMARK VINA RESULT:    -4.021     11.697     13.936
REMARK INTER + INTRA:          -8.872
REMARK INTER:                  -7.148
REMARK INTRA:                  -1.724
REMARK UNBOUND:                -1.796
REMARK SMILES CCCCCCCCCCCCCCC(=O)[O-]
REMARK SMILES IDX 9 1 10 2 11 3 12 4 13 5 14 6 15 7 16 8 17 9 8 10 7 11 6 12
REMARK SMILES IDX 5 13 4 14 3 15 2 16 1 17
REMARK H PARENT
REMARK Flexibility Score: inf
ROOT
ATOM      1  C   UNL     1       0.266  18.188  -8.850  1.00  0.00     0.000 C 
ENDROOT
BRANCH   1   2
ATOM      2  C   UNL     1      -0.138  17.755 -10.276  1.00  0.00     0.000 C 
BRANCH   2   3
ATOM      3  C   UNL     1       0.767  18.384 -11.351  1.00  0.00     0.000 C 
BRANCH   3   4
ATOM      4  C   UNL     1       1.538  19.608 -10.832  1.00  0.00     0.000 C 
BRANCH   4   5
ATOM      5  C   UNL     1       3.064  19.427 -10.919  1.00  0.00     0.006 C 
BRANCH   5   6
ATOM      6  C   UNL     1       3.468  17.948 -10.980  1.00  0.00     0.053 C 
BRANCH   6   7
ATOM      7  C   UNL     1       4.354  17.569  -9.833  1.00  0.00     0.041 C 
ATOM      8  O   UNL     1       3.929  17.645  -8.650  1.00  0.00    -0.550 OA
ATOM      9  O   UNL     1       5.662  17.165 -10.069  1.00  0.00    -0.550 OA
ENDBRANCH   6   7
ENDBRANCH   5   6
ENDBRANCH   4   5
ENDBRANCH   3   4
ENDBRANCH   2   3
ENDBRANCH   1   2
BRANCH   1  10
ATOM     10  C   UNL     1      -0.103  17.161  -7.766  1.00  0.00     0.000 C 
BRANCH  10  11
ATOM     11  C   UNL     1      -0.326  17.802  -6.388  1.00  0.00    -0.000 C 
BRANCH  11  12
ATOM     12  C   UNL     1       0.951  18.446  -5.823  1.00  0.00    -0.000 C 
BRANCH  12  13
ATOM     13  C   UNL     1       0.653  19.622  -4.875  1.00  0.00    -0.000 C 
BRANCH  13  14
ATOM     14  C   UNL     1       1.165  20.966  -5.419  1.00  0.00    -0.000 C 
BRANCH  14  15
ATOM     15  C   UNL     1       0.501  21.355  -6.751  1.00  0.00    -0.000 C 
BRANCH  15  16
ATOM     16  C   UNL     1       1.524  21.570  -7.877  1.00  0.00    -0.003 C 
ATOM     17  C   UNL     1       2.938  21.147  -7.481  1.00  0.00     0.004 C 
ENDBRANCH  15  16
ENDBRANCH  14  15
ENDBRANCH  13  14
ENDBRANCH  12  13
ENDBRANCH  11  12
ENDBRANCH  10  11
ENDBRANCH   1  10
TORSDOF 13
ENDMDL
