MODEL 1
REMARK VINA RESULT:    -3.604      0.000      0.000
REMARK INTER + INTRA:          -5.204
REMARK INTER:                  -4.868
REMARK INTRA:                  -0.337
REMARK UNBOUND:                -0.337
REMARK SMILES CCCCCCC=CC(=O)[O-]
REMARK SMILES IDX 5 1 6 2 7 3 8 4 9 5 10 6 11 7 4 8 3 9 2 10 1 11
REMARK H PARENT
REMARK Flexibility Score: inf
ROOT
ATOM      1  C   UNL     1      -8.509  25.814 -21.972  1.00  0.00     0.004 C 
ENDROOT
BRANCH   1   2
ATOM      2  C   UNL     1      -8.654  24.515 -21.165  1.00  0.00     0.027 C 
BRANCH   2   3
ATOM      3  C   UNL     1      -7.331  24.048 -20.613  1.00  0.00    -0.025 C 
ATOM      4  C   UNL     1      -7.108  23.472 -19.419  1.00  0.00     0.020 C 
BRANCH   4   5
ATOM      5  C   UNL     1      -8.094  23.196 -18.354  1.00  0.00     0.064 C 
ATOM      6  O   UNL     1      -8.647  22.075 -18.220  1.00  0.00    -0.545 OA
ATOM      7  O   UNL     1      -8.428  24.217 -17.473  1.00  0.00    -0.545 OA
ENDBRANCH   4   5
ENDBRANCH   2   3
ENDBRANCH   1   2
BRANCH   1   8
ATOM      8  C   UNL     1      -9.198  27.009 -21.294  1.00  0.00     0.000 C 
BRANCH   8   9
ATOM      9  C   UNL     1      -8.453  28.337 -21.520  1.00  0.00    -0.000 C 
BRANCH   9  10
ATOM     10  C   UNL     1      -7.334  28.282 -22.575  1.00  0.00    -0.003 C 
ATOM     11  C   UNL     1      -6.456  29.532 -22.583  1.00  0.00     0.004 C 
ENDBRANCH   9  10
ENDBRANCH   8   9
ENDBRANCH   1   8
TORSDOF 6
ENDMDL
MODEL 2
REMARK VINA RESULT:    -3.456      1.044      1.943
REMARK INTER + INTRA:          -5.005
REMARK INTER:                  -4.460
REMARK INTRA:                  -0.545
REMARK UNBOUND:                -0.337
REMARK SMILES CCCCCCC=CC(=O)[O-]
REMARK SMILES IDX 5 1 6 2 7 3 8 4 9 5 10 6 11 7 4 8 3 9 2 10 1 11
REMARK H PARENT
REMARK Flexibility Score: inf
ROOT
ATOM      1  C   UNL     1      -8.605  24.322 -22.855  1.00  0.00     0.004 C 
ENDROOT
BRANCH   1   2
ATOM      2  C   UNL     1      -8.731  23.977 -21.364  1.00  0.00     0.027 C 
BRANCH   2   3
ATOM      3  C   UNL     1      -7.382  23.836 -20.705  1.00  0.00    -0.025 C 
ATOM      4  C   UNL     1      -7.135  23.534 -19.419  1.00  0.00     0.020 C 
BRANCH   4   5
ATOM      5  C   UNL     1      -8.120  23.309 -18.341  1.00  0.00     0.064 C 
ATOM      6  O   UNL     1      -8.426  24.201 -17.511  1.00  0.00    -0.545 OA
ATOM      7  O   UNL     1      -8.723  22.061 -18.238  1.00  0.00    -0.545 OA
ENDBRANCH   4   5
ENDBRANCH   2   3
ENDBRANCH   1   2
BRANCH   1   8
ATOM      8  C   UNL     1      -9.174  25.710 -23.190  1.00  0.00     0.000 C 
BRANCH   8   9
ATOM      9  C   UNL     1      -8.121  26.829 -23.094  1.00  0.00    -0.000 C 
BRANCH   9  10
ATOM     10  C   UNL     1      -8.217  27.702 -21.830  1.00  0.00    -0.003 C 
ATOM     11  C   UNL     1      -9.516  27.490 -21.053  1.00  0.00     0.004 C 
ENDBRANCH   9  10
ENDBRANCH   8   9
ENDBRANCH   1   8
TORSDOF 6
ENDMDL
MODEL 3
REMARK VINA RESULT:    -3.410      1.292      2.151
REMARK INTER + INTRA:          -4.942
REMARK INTER:                  -4.316
REMARK INTRA:                  -0.627
REMARK UNBOUND:                -0.337
REMARK SMILES CCCCCCC=CC(=O)[O-]
REMARK SMILES IDX 5 1 6 2 7 3 8 4 9 5 10 6 11 7 4 8 3 9 2 10 1 11
REMARK H PARENT
REMARK Flexibility Score: inf
ROOT
ATOM      1  C   UNL     1      -5.860  25.011 -21.518  1.00  0.00     0.004 C 
ENDROOT
BRANCH   1   2
ATOM      2  C   UNL     1      -6.465  23.930 -20.610  1.00  0.00     0.027 C 
BRANCH   2   3
ATOM      3  C   UNL     1      -7.964  23.854 -20.752  1.00  0.00    -0.025 C 
ATOM      4  C   UNL     1      -8.869  23.742 -19.765  1.00  0.00     0.020 C 
BRANCH   4   5
ATOM      5  C   UNL     1      -8.609  23.627 -18.315  1.00  0.00     0.064 C 
ATOM      6  O   UNL     1      -8.066  22.615 -17.805  1.00  0.00    -0.545 OA
ATOM      7  O   UNL     1      -8.989  24.674 -17.484  1.00  0.00    -0.545 OA
ENDBRANCH   4   5
ENDBRANCH   2   3
ENDBRANCH   1   2
BRANCH   1   8
ATOM      8  C   UNL     1      -6.875  25.568 -22.528  1.00  0.00     0.000 C 
BRANCH   8   9
ATOM      9  C   UNL     1      -7.245  27.038 -22.259  1.00  0.00    -0.000 C 
BRANCH   9  10
ATOM     10  C   UNL     1      -8.755  27.331 -22.229  1.00  0.00    -0.003 C 
ATOM     11  C   UNL     1      -9.339  27.326 -20.816  1.00  0.00     0.004 C 
ENDBRANCH   9  10
ENDBRANCH   8   9
ENDBRANCH   1   8
TORSDOF 6
ENDMDL
MODEL 4
REMARK VINA RESULT:    -3.280     11.497     12.375
REMARK INTER + INTRA:          -4.767
REMARK INTER:                  -4.247
REMARK INTRA:                  -0.520
REMARK UNBOUND:                -0.337
REMARK SMILES CCCCCCC=CC(=O)[O-]
REMARK SMILES IDX 5 1 6 2 7 3 8 4 9 5 10 6 11 7 4 8 3 9 2 10 1 11
REMARK H PARENT
REMARK Flexibility Score: inf
ROOT
ATOM      1  C   UNL     1      -5.858  36.712 -22.273  1.00  0.00     0.004 C 
ENDROOT
BRANCH   1   2
ATOM      2  C   UNL     1      -5.942  36.734 -20.740  1.00  0.00     0.027 C 
BRANCH   2   3
ATOM      3  C   UNL     1      -5.248  37.940 -20.159  1.00  0.00    -0.025 C 
ATOM      4  C   UNL     1      -4.508  37.988 -19.037  1.00  0.00     0.020 C 
BRANCH   4   5
ATOM      5  C   UNL     1      -4.233  36.887 -18.091  1.00  0.00     0.064 C 
ATOM      6  O   UNL     1      -3.477  35.925 -18.378  1.00  0.00    -0.545 OA
ATOM      7  O   UNL     1      -4.840  36.913 -16.842  1.00  0.00    -0.545 OA
ENDBRANCH   4   5
ENDBRANCH   2   3
ENDBRANCH   1   2
BRANCH   1   8
ATOM      8  C   UNL     1      -7.218  36.431 -22.933  1.00  0.00     0.000 C 
BRANCH   8   9
ATOM      9  C   UNL     1      -7.923  37.710 -23.421  1.00  0.00    -0.000 C 
BRANCH   9  10
ATOM     10  C   UNL     1      -9.036  38.230 -22.495  1.00  0.00    -0.003 C 
ATOM     11  C   UNL     1      -8.578  39.375 -21.592  1.00  0.00     0.004 C 
ENDBRANCH   9  10
ENDBRANCH   8   9
ENDBRANCH   1   8
TORSDOF 6
ENDMDL
MODEL 5
REMARK VINA RESULT:    -3.255      5.647      7.847
REMARK INTER + INTRA:          -4.733
REMARK INTER:                  -4.287
REMARK INTRA:                  -0.446
REMARK UNBOUND:                -0.337
REMARK SMILES CCCCCCC=CC(=O)[O-]
REMARK SMILES IDX 5 1 6 2 7 3 8 4 9 5 10 6 11 7 4 8 3 9 2 10 1 11
REMARK H PARENT
REMARK Flexibility Score: inf
ROOT
ATOM      1  C   UNL     1      -6.786  27.792 -24.392  1.00  0.00     0.004 C 
ENDROOT
BRANCH   1   2
ATOM      2  C   UNL     1      -7.352  28.176 -25.767  1.00  0.00     0.027 C 
BRANCH   2   3
ATOM      3  C   UNL     1      -6.394  29.040 -26.547  1.00  0.00    -0.025 C 
ATOM      4  C   UNL     1      -6.586  30.309 -26.945  1.00  0.00     0.020 C 
BRANCH   4   5
ATOM      5  C   UNL     1      -7.790  31.143 -26.749  1.00  0.00     0.064 C 
ATOM      6  O   UNL     1      -8.687  31.248 -27.623  1.00  0.00    -0.545 OA
ATOM      7  O   UNL     1      -7.931  31.842 -25.556  1.00  0.00    -0.545 OA
ENDBRANCH   4   5
ENDBRANCH   2   3
ENDBRANCH   1   2
BRANCH   1   8
ATOM      8  C   UNL     1      -6.747  28.981 -23.418  1.00  0.00     0.000 C 
BRANCH   8   9
ATOM      9  C   UNL     1      -7.594  28.748 -22.154  1.00  0.00    -0.000 C 
BRANCH   9  10
ATOM     10  C   UNL     1      -8.356  27.411 -22.122  1.00  0.00    -0.003 C 
ATOM     11  C   UNL     1      -9.393  27.340 -21.001  1.00  0.00     0.004 C 
ENDBRANCH   9  10
ENDBRANCH   8   9
ENDBRANCH   1   8
TORSDOF 6
ENDMDL
MODEL 6
REMARK VINA RESULT:    -3.240     11.112     12.182
REMARK INTER + INTRA:          -4.714
REMARK INTER:                  -4.229
REMARK INTRA:                  -0.484
REMARK UNBOUND:                -0.337
REMARK SMILES CCCCCCC=CC(=O)[O-]
REMARK SMILES IDX 5 1 6 2 7 3 8 4 9 5 10 6 11 7 4 8 3 9 2 10 1 11
REMARK H PARENT
REMARK Flexibility Score: inf
ROOT
ATOM      1  C   UNL     1      -5.055  38.481 -19.386  1.00  0.00     0.004 C 
ENDROOT
BRANCH   1   2
ATOM      2  C   UNL     1      -5.291  37.370 -18.352  1.00  0.00     0.027 C 
BRANCH   2   3
ATOM      3  C   UNL     1      -4.047  37.075 -17.552  1.00  0.00    -0.025 C 
ATOM      4  C   UNL     1      -3.030  36.269 -17.902  1.00  0.00     0.020 C 
BRANCH   4   5
ATOM      5  C   UNL     1      -2.907  35.454 -19.128  1.00  0.00     0.064 C 
ATOM      6  O   UNL     1      -3.553  34.389 -19.298  1.00  0.00    -0.545 OA
ATOM      7  O   UNL     1      -2.037  35.876 -20.126  1.00  0.00    -0.545 OA
ENDBRANCH   4   5
ENDBRANCH   2   3
ENDBRANCH   1   2
BRANCH   1   8
ATOM      8  C   UNL     1      -5.912  38.302 -20.649  1.00  0.00     0.000 C 
BRANCH   8   9
ATOM      9  C   UNL     1      -5.892  36.860 -21.188  1.00  0.00    -0.000 C 
BRANCH   9  10
ATOM     10  C   UNL     1      -6.869  36.587 -22.346  1.00  0.00    -0.003 C 
ATOM     11  C   UNL     1      -7.912  37.690 -22.522  1.00  0.00     0.004 C 
ENDBRANCH   9  10
ENDBRANCH   8   9
ENDBRANCH   1   8
TORSDOF 6
ENDMDL
MODEL 7
REMARK VINA RESULT:    -3.205      1.925      2.958
REMARK INTER + INTRA:          -4.666
REMARK INTER:                  -3.999
REMARK INTRA:                  -0.667
REMARK UNBOUND:                -0.337
REMARK SMILES CCCCCCC=CC(=O)[O-]
REMARK SMILES IDX 5 1 6 2 7 3 8 4 9 5 10 6 11 7 4 8 3 9 2 10 1 11
REMARK H PARENT
REMARK Flexibility Score: inf
ROOT
ATOM      1  C   UNL     1      -8.259  28.370 -21.579  1.00  0.00     0.004 C 
ENDROOT
BRANCH   1   2
ATOM      2  C   UNL     1      -9.268  27.241 -21.319  1.00  0.00     0.027 C 
BRANCH   2   3
ATOM      3  C   UNL     1      -9.078  26.089 -22.272  1.00  0.00    -0.025 C 
ATOM      4  C   UNL     1      -8.669  24.845 -21.970  1.00  0.00     0.020 C 
BRANCH   4   5
ATOM      5  C   UNL     1      -8.272  24.324 -20.646  1.00  0.00     0.064 C 
ATOM      6  O   UNL     1      -9.103  24.116 -19.726  1.00  0.00    -0.545 OA
ATOM      7  O   UNL     1      -6.929  24.062 -20.406  1.00  0.00    -0.545 OA
ENDBRANCH   4   5
ENDBRANCH   2   3
ENDBRANCH   1   2
BRANCH   1   8
ATOM      8  C   UNL     1      -7.437  28.141 -22.858  1.00  0.00     0.000 C 
BRANCH   8   9
ATOM      9  C   UNL     1      -5.924  28.049 -22.589  1.00  0.00    -0.000 C 
BRANCH   9  10
ATOM     10  C   UNL     1      -5.354  26.619 -22.580  1.00  0.00    -0.003 C 
ATOM     11  C   UNL     1      -4.383  26.369 -21.426  1.00  0.00     0.004 C 
ENDBRANCH   9  10
ENDBRANCH   8   9
ENDBRANCH   1   8
TORSDOF 6
ENDMDL
MODEL 8
REMARK VINA RESULT:    -3.144      1.616      2.446
REMARK INTER + INTRA:          -4.584
REMARK INTER:                  -4.148
REMARK INTRA:                  -0.435
REMARK UNBOUND:                -0.337
REMARK SMILES CCCCCCC=CC(=O)[O-]
REMARK SMILES IDX 5 1 6 2 7 3 8 4 9 5 10 6 11 7 4 8 3 9 2 10 1 11
REMARK H PARENT
REMARK Flexibility Score: inf
ROOT
ATOM      1  C   UNL     1      -7.557  24.269 -20.825  1.00  0.00     0.004 C 
ENDROOT
BRANCH   1   2
ATOM      2  C   UNL     1      -8.593  24.052 -19.713  1.00  0.00     0.027 C 
BRANCH   2   3
ATOM      3  C   UNL     1      -9.278  22.714 -19.838  1.00  0.00    -0.025 C 
ATOM      4  C   UNL     1      -8.929  21.565 -19.236  1.00  0.00     0.020 C 
BRANCH   4   5
ATOM      5  C   UNL     1      -7.774  21.329 -18.345  1.00  0.00     0.064 C 
ATOM      6  O   UNL     1      -6.607  21.164 -18.782  1.00  0.00    -0.545 OA
ATOM      7  O   UNL     1      -7.989  21.280 -16.973  1.00  0.00    -0.545 OA
ENDBRANCH   4   5
ENDBRANCH   2   3
ENDBRANCH   1   2
BRANCH   1   8
ATOM      8  C   UNL     1      -8.082  25.172 -21.952  1.00  0.00     0.000 C 
BRANCH   8   9
ATOM      9  C   UNL     1      -7.338  26.518 -22.037  1.00  0.00    -0.000 C 
BRANCH   9  10
ATOM     10  C   UNL     1      -8.205  27.756 -21.747  1.00  0.00    -0.003 C 
ATOM     11  C   UNL     1      -9.469  27.430 -20.952  1.00  0.00     0.004 C 
ENDBRANCH   9  10
ENDBRANCH   8   9
ENDBRANCH   1   8
TORSDOF 6
ENDMDL
MODEL 9
REMARK VINA RESULT:    -3.142      1.735      2.746
REMARK INTER + INTRA:          -4.581
REMARK INTER:                  -3.954
REMARK INTRA:                  -0.627
REMARK UNBOUND:                -0.337
REMARK SMILES CCCCCCC=CC(=O)[O-]
REMARK SMILES IDX 5 1 6 2 7 3 8 4 9 5 10 6 11 7 4 8 3 9 2 10 1 11
REMARK H PARENT
REMARK Flexibility Score: inf
ROOT
ATOM      1  C   UNL     1      -8.610  27.024 -21.971  1.00  0.00     0.004 C 
ENDROOT
BRANCH   1   2
ATOM      2  C   UNL     1      -8.995  25.992 -20.902  1.00  0.00     0.027 C 
BRANCH   2   3
ATOM      3  C   UNL     1      -8.088  24.788 -20.932  1.00  0.00    -0.025 C 
ATOM      4  C   UNL     1      -8.002  23.814 -20.011  1.00  0.00     0.020 C 
BRANCH   4   5
ATOM      5  C   UNL     1      -8.742  23.711 -18.736  1.00  0.00     0.064 C 
ATOM      6  O   UNL     1      -8.275  24.134 -17.649  1.00  0.00    -0.545 OA
ATOM      7  O   UNL     1      -9.998  23.117 -18.740  1.00  0.00    -0.545 OA
ENDBRANCH   4   5
ENDBRANCH   2   3
ENDBRANCH   1   2
BRANCH   1   8
ATOM      8  C   UNL     1      -7.368  26.605 -22.775  1.00  0.00     0.000 C 
BRANCH   8   9
ATOM      9  C   UNL     1      -7.612  26.596 -24.295  1.00  0.00    -0.000 C 
BRANCH   9  10
ATOM     10  C   UNL     1      -8.987  26.056 -24.727  1.00  0.00    -0.003 C 
ATOM     11  C   UNL     1      -9.069  24.530 -24.695  1.00  0.00     0.004 C 
ENDBRANCH   9  10
ENDBRANCH   8   9
ENDBRANCH   1   8
TORSDOF 6
ENDMDL
