MODEL 1
REMARK VINA RESULT:    -4.747      0.000      0.000
REMARK INTER + INTRA:          -4.886
REMARK INTER:                  -4.886
REMARK INTRA:                   0.000
REMARK UNBOUND:                 0.000
REMARK SMILES Cc1cccc(O)c1C
REMARK SMILES IDX 1 1 2 2 8 3 6 4 5 5 4 6 3 7 9 8 7 9
REMARK H PARENT 7 10
REMARK Flexibility Score: inf
ROOT
ATOM      1  C   UNL     1     -32.118 -18.899 -32.816  1.00  0.00     0.045 C 
ATOM      2  C   UNL     1     -30.681 -18.890 -32.361  1.00  0.00    -0.045 A 
ATOM      3  C   UNL     1     -30.326 -18.887 -30.982  1.00  0.00    -0.006 A 
ATOM      4  C   UNL     1     -28.953 -18.880 -30.626  1.00  0.00     0.118 A 
ATOM      5  C   UNL     1     -27.971 -18.875 -31.620  1.00  0.00     0.046 A 
ATOM      6  C   UNL     1     -28.326 -18.878 -32.966  1.00  0.00     0.004 A 
ATOM      7  C   UNL     1     -29.668 -18.886 -33.334  1.00  0.00     0.004 A 
ATOM      8  C   UNL     1     -31.372 -18.892 -29.890  1.00  0.00     0.048 C 
ENDROOT
BRANCH   4   9
ATOM      9  O   UNL     1     -28.531 -18.876 -29.293  1.00  0.00    -0.508 OA
ATOM     10  H   UNL     1     -28.304 -18.033 -28.783  1.00  0.00     0.293 HD
ENDBRANCH   4   9
TORSDOF 1
ENDMDL
MODEL 2
REMARK VINA RESULT:    -4.242      2.132      3.019
REMARK INTER + INTRA:          -4.366
REMARK INTER:                  -4.366
REMARK INTRA:                   0.000
REMARK UNBOUND:                 0.000
REMARK SMILES Cc1cccc(O)c1C
REMARK SMILES IDX 1 1 2 2 8 3 6 4 5 5 4 6 3 7 9 8 7 9
REMARK H PARENT 7 10
REMARK Flexibility Score: inf
ROOT
ATOM      1  C   UNL     1     -30.921 -20.563 -29.920  1.00  0.00     0.045 C 
ATOM      2  C   UNL     1     -30.440 -20.459 -31.345  1.00  0.00    -0.045 A 
ATOM      3  C   UNL     1     -29.308 -19.675 -31.705  1.00  0.00    -0.006 A 
ATOM      4  C   UNL     1     -28.912 -19.624 -33.066  1.00  0.00     0.118 A 
ATOM      5  C   UNL     1     -29.628 -20.336 -34.031  1.00  0.00     0.046 A 
ATOM      6  C   UNL     1     -30.734 -21.101 -33.672  1.00  0.00     0.004 A 
ATOM      7  C   UNL     1     -31.138 -21.163 -32.341  1.00  0.00     0.004 A 
ATOM      8  C   UNL     1     -28.519 -18.897 -30.676  1.00  0.00     0.048 C 
ENDROOT
BRANCH   4   9
ATOM      9  O   UNL     1     -27.811 -18.875 -33.492  1.00  0.00    -0.508 OA
ATOM     10  H   UNL     1     -26.882 -18.980 -33.107  1.00  0.00     0.293 HD
ENDBRANCH   4   9
TORSDOF 1
ENDMDL
MODEL 3
REMARK VINA RESULT:    -3.860      1.305      2.752
REMARK INTER + INTRA:          -3.972
REMARK INTER:                  -3.972
REMARK INTRA:                   0.000
REMARK UNBOUND:                 0.000
REMARK SMILES Cc1cccc(O)c1C
REMARK SMILES IDX 1 1 2 2 8 3 6 4 5 5 4 6 3 7 9 8 7 9
REMARK H PARENT 7 10
REMARK Flexibility Score: inf
ROOT
ATOM      1  C   UNL     1     -29.621 -20.165 -34.110  1.00  0.00     0.045 C 
ATOM      2  C   UNL     1     -29.922 -20.083 -32.635  1.00  0.00    -0.045 A 
ATOM      3  C   UNL     1     -29.018 -19.487 -31.711  1.00  0.00    -0.006 A 
ATOM      4  C   UNL     1     -29.368 -19.443 -30.337  1.00  0.00     0.118 A 
ATOM      5  C   UNL     1     -30.584 -19.981 -29.907  1.00  0.00     0.046 A 
ATOM      6  C   UNL     1     -31.464 -20.562 -30.816  1.00  0.00     0.004 A 
ATOM      7  C   UNL     1     -31.137 -20.613 -32.168  1.00  0.00     0.004 A 
ATOM      8  C   UNL     1     -27.698 -18.900 -32.155  1.00  0.00     0.048 C 
ENDROOT
BRANCH   4   9
ATOM      9  O   UNL     1     -28.531 -18.875 -29.374  1.00  0.00    -0.508 OA
ATOM     10  H   UNL     1     -28.793 -18.762 -28.404  1.00  0.00     0.293 HD
ENDBRANCH   4   9
TORSDOF 1
ENDMDL
MODEL 4
REMARK VINA RESULT:    -3.780      1.726      2.867
REMARK INTER + INTRA:          -3.890
REMARK INTER:                  -3.890
REMARK INTRA:                   0.000
REMARK UNBOUND:                 0.000
REMARK SMILES Cc1cccc(O)c1C
REMARK SMILES IDX 1 1 2 2 8 3 6 4 5 5 4 6 3 7 9 8 7 9
REMARK H PARENT 7 10
REMARK Flexibility Score: inf
ROOT
ATOM      1  C   UNL     1     -27.716 -18.900 -32.575  1.00  0.00     0.045 C 
ATOM      2  C   UNL     1     -29.022 -19.573 -32.236  1.00  0.00    -0.045 A 
ATOM      3  C   UNL     1     -29.557 -19.563 -30.917  1.00  0.00    -0.006 A 
ATOM      4  C   UNL     1     -30.792 -20.216 -30.670  1.00  0.00     0.118 A 
ATOM      5  C   UNL     1     -31.465 -20.858 -31.713  1.00  0.00     0.046 A 
ATOM      6  C   UNL     1     -30.936 -20.863 -33.001  1.00  0.00     0.004 A 
ATOM      7  C   UNL     1     -29.726 -20.226 -33.261  1.00  0.00     0.004 A 
ATOM      8  C   UNL     1     -28.845 -18.875 -29.774  1.00  0.00     0.048 C 
ENDROOT
BRANCH   4   9
ATOM      9  O   UNL     1     -31.376 -20.248 -29.401  1.00  0.00    -0.508 OA
ATOM     10  H   UNL     1     -31.934 -19.492 -29.025  1.00  0.00     0.293 HD
ENDBRANCH   4   9
TORSDOF 1
ENDMDL
MODEL 5
REMARK VINA RESULT:    -3.518      2.374      3.086
REMARK INTER + INTRA:          -3.620
REMARK INTER:                  -3.620
REMARK INTRA:                   0.000
REMARK UNBOUND:                 0.000
REMARK SMILES Cc1cccc(O)c1C
REMARK SMILES IDX 1 1 2 2 8 3 6 4 5 5 4 6 3 7 9 8 7 9
REMARK H PARENT 7 10
REMARK Flexibility Score: inf
ROOT
ATOM      1  C   UNL     1     -29.027 -18.894 -29.849  1.00  0.00     0.045 C 
ATOM      2  C   UNL     1     -29.324 -19.411 -31.234  1.00  0.00    -0.045 A 
ATOM      3  C   UNL     1     -30.303 -20.416 -31.472  1.00  0.00    -0.006 A 
ATOM      4  C   UNL     1     -30.530 -20.854 -32.802  1.00  0.00     0.118 A 
ATOM      5  C   UNL     1     -29.799 -20.301 -33.856  1.00  0.00     0.046 A 
ATOM      6  C   UNL     1     -28.843 -19.317 -33.616  1.00  0.00     0.004 A 
ATOM      7  C   UNL     1     -28.607 -18.875 -32.317  1.00  0.00     0.004 A 
ATOM      8  C   UNL     1     -31.106 -21.028 -30.346  1.00  0.00     0.048 C 
ENDROOT
BRANCH   4   9
ATOM      9  O   UNL     1     -31.474 -21.837 -33.110  1.00  0.00    -0.508 OA
ATOM     10  H   UNL     1     -31.997 -21.856 -33.975  1.00  0.00     0.293 HD
ENDBRANCH   4   9
TORSDOF 1
ENDMDL
MODEL 6
REMARK VINA RESULT:    -3.306      6.297      7.610
REMARK INTER + INTRA:          -3.402
REMARK INTER:                  -3.402
REMARK INTRA:                   0.000
REMARK UNBOUND:                 0.000
REMARK SMILES Cc1cccc(O)c1C
REMARK SMILES IDX 1 1 2 2 8 3 6 4 5 5 4 6 3 7 9 8 7 9
REMARK H PARENT 7 10
REMARK Flexibility Score: inf
ROOT
ATOM      1  C   UNL     1     -31.502 -24.223 -37.620  1.00  0.00     0.045 C 
ATOM      2  C   UNL     1     -32.291 -22.942 -37.714  1.00  0.00    -0.045 A 
ATOM      3  C   UNL     1     -32.651 -22.190 -36.560  1.00  0.00    -0.006 A 
ATOM      4  C   UNL     1     -33.394 -20.993 -36.723  1.00  0.00     0.118 A 
ATOM      5  C   UNL     1     -33.764 -20.567 -38.001  1.00  0.00     0.046 A 
ATOM      6  C   UNL     1     -33.409 -21.307 -39.125  1.00  0.00     0.004 A 
ATOM      7  C   UNL     1     -32.679 -22.484 -38.984  1.00  0.00     0.004 A 
ATOM      8  C   UNL     1     -32.260 -22.632 -35.168  1.00  0.00     0.048 C 
ENDROOT
BRANCH   4   9
ATOM      9  O   UNL     1     -33.782 -20.204 -35.636  1.00  0.00    -0.508 OA
ATOM     10  H   UNL     1     -34.685 -20.280 -35.186  1.00  0.00     0.293 HD
ENDBRANCH   4   9
TORSDOF 1
ENDMDL
