MODEL 1
REMARK VINA RESULT:    -4.218      0.000      0.000
REMARK INTER + INTRA:          -5.673
REMARK INTER:                  -5.450
REMARK INTRA:                  -0.222
REMARK UNBOUND:                -0.222
REMARK SMILES C=CC(=O)CCCCC
REMARK SMILES IDX 6 1 7 2 8 3 9 4 5 5 3 6 4 7 2 8 1 9
REMARK H PARENT
REMARK Flexibility Score: inf
ROOT
ATOM      1  C   UNL     1     178.151 184.125 195.811  1.00  0.00     0.008 C 
ENDROOT
BRANCH   1   2
ATOM      2  C   UNL     1     176.621 184.125 195.651  1.00  0.00     0.000 C 
BRANCH   2   3
ATOM      3  C   UNL     1     175.888 184.168 197.001  1.00  0.00    -0.003 C 
ATOM      4  C   UNL     1     176.690 184.883 198.087  1.00  0.00     0.004 C 
ENDBRANCH   2   3
ENDBRANCH   1   2
BRANCH   1   5
ATOM      5  C   UNL     1     178.832 185.117 194.853  1.00  0.00     0.080 C 
BRANCH   5   6
ATOM      6  C   UNL     1     179.478 184.459 193.652  1.00  0.00     0.155 C 
ATOM      7  O   UNL     1     180.619 184.836 193.269  1.00  0.00    -0.295 OA
BRANCH   6   8
ATOM      8  C   UNL     1     178.790 183.418 192.862  1.00  0.00     0.039 C 
ATOM      9  C   UNL     1     178.543 183.523 191.555  1.00  0.00     0.012 C 
ENDBRANCH   6   8
ENDBRANCH   5   6
ENDBRANCH   1   5
TORSDOF 5
ENDMDL
MODEL 2
REMARK VINA RESULT:    -4.103      1.162      1.874
REMARK INTER + INTRA:          -5.525
REMARK INTER:                  -5.342
REMARK INTRA:                  -0.183
REMARK UNBOUND:                -0.222
REMARK SMILES C=CC(=O)CCCCC
REMARK SMILES IDX 6 1 7 2 8 3 9 4 5 5 3 6 4 7 2 8 1 9
REMARK H PARENT
REMARK Flexibility Score: inf
ROOT
ATOM      1  C   UNL     1     177.843 184.139 195.651  1.00  0.00     0.008 C 
ENDROOT
BRANCH   1   2
ATOM      2  C   UNL     1     176.313 184.117 195.810  1.00  0.00     0.000 C 
BRANCH   2   3
ATOM      3  C   UNL     1     175.875 184.095 197.284  1.00  0.00    -0.003 C 
ATOM      4  C   UNL     1     176.609 185.130 198.135  1.00  0.00     0.004 C 
ENDBRANCH   2   3
ENDBRANCH   1   2
BRANCH   1   5
ATOM      5  C   UNL     1     178.293 183.540 194.308  1.00  0.00     0.080 C 
BRANCH   5   6
ATOM      6  C   UNL     1     179.280 184.404 193.554  1.00  0.00     0.155 C 
ATOM      7  O   UNL     1     179.597 184.108 192.370  1.00  0.00    -0.295 OA
BRANCH   6   8
ATOM      8  C   UNL     1     179.944 185.566 194.179  1.00  0.00     0.039 C 
ATOM      9  C   UNL     1     181.132 186.035 193.794  1.00  0.00     0.012 C 
ENDBRANCH   6   8
ENDBRANCH   5   6
ENDBRANCH   1   5
TORSDOF 5
ENDMDL
MODEL 3
REMARK VINA RESULT:    -4.005      2.168      4.854
REMARK INTER + INTRA:          -5.398
REMARK INTER:                  -5.234
REMARK INTRA:                  -0.164
REMARK UNBOUND:                -0.222
REMARK SMILES C=CC(=O)CCCCC
REMARK SMILES IDX 6 1 7 2 8 3 9 4 5 5 3 6 4 7 2 8 1 9
REMARK H PARENT
REMARK Flexibility Score: inf
ROOT
ATOM      1  C   UNL     1     178.376 183.822 194.439  1.00  0.00     0.008 C 
ENDROOT
BRANCH   1   2
ATOM      2  C   UNL     1     179.644 184.447 193.833  1.00  0.00     0.000 C 
BRANCH   2   3
ATOM      3  C   UNL     1     179.865 185.897 194.294  1.00  0.00    -0.003 C 
ATOM      4  C   UNL     1     181.143 186.511 193.725  1.00  0.00     0.004 C 
ENDBRANCH   2   3
ENDBRANCH   1   2
BRANCH   1   5
ATOM      5  C   UNL     1     178.219 184.165 195.930  1.00  0.00     0.080 C 
BRANCH   5   6
ATOM      6  C   UNL     1     176.780 184.335 196.369  1.00  0.00     0.155 C 
ATOM      7  O   UNL     1     175.875 184.492 195.505  1.00  0.00    -0.295 OA
BRANCH   6   8
ATOM      8  C   UNL     1     176.395 184.384 197.794  1.00  0.00     0.039 C 
ATOM      9  C   UNL     1     176.581 183.374 198.645  1.00  0.00     0.012 C 
ENDBRANCH   6   8
ENDBRANCH   5   6
ENDBRANCH   1   5
TORSDOF 5
ENDMDL
MODEL 4
REMARK VINA RESULT:    -3.996      1.967      5.171
REMARK INTER + INTRA:          -5.386
REMARK INTER:                  -5.291
REMARK INTRA:                  -0.095
REMARK UNBOUND:                -0.222
REMARK SMILES C=CC(=O)CCCCC
REMARK SMILES IDX 6 1 7 2 8 3 9 4 5 5 3 6 4 7 2 8 1 9
REMARK H PARENT
REMARK Flexibility Score: inf
ROOT
ATOM      1  C   UNL     1     178.317 183.284 194.230  1.00  0.00     0.008 C 
ENDROOT
BRANCH   1   2
ATOM      2  C   UNL     1     178.988 183.986 193.036  1.00  0.00     0.000 C 
BRANCH   2   3
ATOM      3  C   UNL     1     178.621 183.338 191.691  1.00  0.00    -0.003 C 
ATOM      4  C   UNL     1     179.589 183.713 190.570  1.00  0.00     0.004 C 
ENDBRANCH   2   3
ENDBRANCH   1   2
BRANCH   1   5
ATOM      5  C   UNL     1     178.364 184.143 195.504  1.00  0.00     0.080 C 
BRANCH   5   6
ATOM      6  C   UNL     1     177.032 184.251 196.216  1.00  0.00     0.155 C 
ATOM      7  O   UNL     1     175.967 184.339 195.546  1.00  0.00    -0.295 OA
BRANCH   6   8
ATOM      8  C   UNL     1     176.932 184.316 197.688  1.00  0.00     0.039 C 
ATOM      9  C   UNL     1     175.939 183.762 198.387  1.00  0.00     0.012 C 
ENDBRANCH   6   8
ENDBRANCH   5   6
ENDBRANCH   1   5
TORSDOF 5
ENDMDL
MODEL 5
REMARK VINA RESULT:    -3.592     14.579     16.206
REMARK INTER + INTRA:          -4.865
REMARK INTER:                  -4.754
REMARK INTRA:                  -0.111
REMARK UNBOUND:                -0.222
REMARK SMILES C=CC(=O)CCCCC
REMARK SMILES IDX 6 1 7 2 8 3 9 4 5 5 3 6 4 7 2 8 1 9
REMARK H PARENT
REMARK Flexibility Score: inf
ROOT
ATOM      1  C   UNL     1     192.750 187.746 194.122  1.00  0.00     0.008 C 
ENDROOT
BRANCH   1   2
ATOM      2  C   UNL     1     191.927 186.464 193.902  1.00  0.00     0.000 C 
BRANCH   2   3
ATOM      3  C   UNL     1     190.637 186.722 193.107  1.00  0.00    -0.003 C 
ATOM      4  C   UNL     1     190.887 187.477 191.803  1.00  0.00     0.004 C 
ENDBRANCH   2   3
ENDBRANCH   1   2
BRANCH   1   5
ATOM      5  C   UNL     1     193.821 187.565 195.210  1.00  0.00     0.080 C 
BRANCH   5   6
ATOM      6  C   UNL     1     194.835 188.687 195.260  1.00  0.00     0.155 C 
ATOM      7  O   UNL     1     194.739 189.656 194.459  1.00  0.00    -0.295 OA
BRANCH   6   8
ATOM      8  C   UNL     1     195.986 188.665 196.186  1.00  0.00     0.039 C 
ATOM      9  C   UNL     1     195.883 188.389 197.487  1.00  0.00     0.012 C 
ENDBRANCH   6   8
ENDBRANCH   5   6
ENDBRANCH   1   5
TORSDOF 5
ENDMDL
MODEL 6
REMARK VINA RESULT:    -3.511      2.618      4.863
REMARK INTER + INTRA:          -4.760
REMARK INTER:                  -4.609
REMARK INTRA:                  -0.151
REMARK UNBOUND:                -0.222
REMARK SMILES C=CC(=O)CCCCC
REMARK SMILES IDX 6 1 7 2 8 3 9 4 5 5 3 6 4 7 2 8 1 9
REMARK H PARENT
REMARK Flexibility Score: inf
ROOT
ATOM      1  C   UNL     1     180.147 185.605 194.148  1.00  0.00     0.008 C 
ENDROOT
BRANCH   1   2
ATOM      2  C   UNL     1     181.520 185.993 193.574  1.00  0.00     0.000 C 
BRANCH   2   3
ATOM      3  C   UNL     1     181.644 187.503 193.314  1.00  0.00    -0.003 C 
ATOM      4  C   UNL     1     183.020 188.056 193.681  1.00  0.00     0.004 C 
ENDBRANCH   2   3
ENDBRANCH   1   2
BRANCH   1   5
ATOM      5  C   UNL     1     179.515 184.427 193.387  1.00  0.00     0.080 C 
BRANCH   5   6
ATOM      6  C   UNL     1     178.635 183.546 194.247  1.00  0.00     0.155 C 
ATOM      7  O   UNL     1     178.407 182.355 193.899  1.00  0.00    -0.295 OA
BRANCH   6   8
ATOM      8  C   UNL     1     177.974 184.049 195.468  1.00  0.00     0.039 C 
ATOM      9  C   UNL     1     176.651 184.143 195.608  1.00  0.00     0.012 C 
ENDBRANCH   6   8
ENDBRANCH   5   6
ENDBRANCH   1   5
TORSDOF 5
ENDMDL
MODEL 7
REMARK VINA RESULT:    -3.468     13.520     15.123
REMARK INTER + INTRA:          -4.704
REMARK INTER:                  -4.508
REMARK INTRA:                  -0.196
REMARK UNBOUND:                -0.222
REMARK SMILES C=CC(=O)CCCCC
REMARK SMILES IDX 6 1 7 2 8 3 9 4 5 5 3 6 4 7 2 8 1 9
REMARK H PARENT
REMARK Flexibility Score: inf
ROOT
ATOM      1  C   UNL     1     191.702 187.117 193.542  1.00  0.00     0.008 C 
ENDROOT
BRANCH   1   2
ATOM      2  C   UNL     1     190.692 185.960 193.457  1.00  0.00     0.000 C 
BRANCH   2   3
ATOM      3  C   UNL     1     191.376 184.592 193.304  1.00  0.00    -0.003 C 
ATOM      4  C   UNL     1     190.432 183.424 193.587  1.00  0.00     0.004 C 
ENDBRANCH   2   3
ENDBRANCH   1   2
BRANCH   1   5
ATOM      5  C   UNL     1     192.915 186.761 194.417  1.00  0.00     0.080 C 
BRANCH   5   6
ATOM      6  C   UNL     1     193.827 187.935 194.702  1.00  0.00     0.155 C 
ATOM      7  O   UNL     1     194.228 188.147 195.879  1.00  0.00    -0.295 OA
BRANCH   6   8
ATOM      8  C   UNL     1     194.227 188.892 193.650  1.00  0.00     0.039 C 
ATOM      9  C   UNL     1     194.273 190.213 193.831  1.00  0.00     0.012 C 
ENDBRANCH   6   8
ENDBRANCH   5   6
ENDBRANCH   1   5
TORSDOF 5
ENDMDL
MODEL 8
REMARK VINA RESULT:    -3.390      2.955      5.036
REMARK INTER + INTRA:          -4.603
REMARK INTER:                  -4.407
REMARK INTRA:                  -0.196
REMARK UNBOUND:                -0.222
REMARK SMILES C=CC(=O)CCCCC
REMARK SMILES IDX 6 1 7 2 8 3 9 4 5 5 3 6 4 7 2 8 1 9
REMARK H PARENT
REMARK Flexibility Score: inf
ROOT
ATOM      1  C   UNL     1     181.191 185.703 193.447  1.00  0.00     0.008 C 
ENDROOT
BRANCH   1   2
ATOM      2  C   UNL     1     181.908 186.947 192.894  1.00  0.00     0.000 C 
BRANCH   2   3
ATOM      3  C   UNL     1     183.140 187.335 193.727  1.00  0.00    -0.003 C 
ATOM      4  C   UNL     1     184.069 186.153 193.996  1.00  0.00     0.004 C 
ENDBRANCH   2   3
ENDBRANCH   1   2
BRANCH   1   5
ATOM      5  C   UNL     1     180.012 186.075 194.363  1.00  0.00     0.080 C 
BRANCH   5   6
ATOM      6  C   UNL     1     179.089 184.915 194.670  1.00  0.00     0.155 C 
ATOM      7  O   UNL     1     178.701 184.720 195.854  1.00  0.00    -0.295 OA
BRANCH   6   8
ATOM      8  C   UNL     1     178.663 183.954 193.633  1.00  0.00     0.039 C 
ATOM      9  C   UNL     1     178.469 182.655 193.864  1.00  0.00     0.012 C 
ENDBRANCH   6   8
ENDBRANCH   5   6
ENDBRANCH   1   5
TORSDOF 5
ENDMDL
MODEL 9
REMARK VINA RESULT:    -3.359     12.946     14.669
REMARK INTER + INTRA:          -4.563
REMARK INTER:                  -4.439
REMARK INTRA:                  -0.124
REMARK UNBOUND:                -0.222
REMARK SMILES C=CC(=O)CCCCC
REMARK SMILES IDX 6 1 7 2 8 3 9 4 5 5 3 6 4 7 2 8 1 9
REMARK H PARENT
REMARK Flexibility Score: inf
ROOT
ATOM      1  C   UNL     1     192.783 187.871 193.903  1.00  0.00     0.008 C 
ENDROOT
BRANCH   1   2
ATOM      2  C   UNL     1     193.837 187.915 195.022  1.00  0.00     0.000 C 
BRANCH   2   3
ATOM      3  C   UNL     1     194.863 189.042 194.820  1.00  0.00    -0.003 C 
ATOM      4  C   UNL     1     194.364 190.135 193.876  1.00  0.00     0.004 C 
ENDBRANCH   2   3
ENDBRANCH   1   2
BRANCH   1   5
ATOM      5  C   UNL     1     191.967 186.568 193.930  1.00  0.00     0.080 C 
BRANCH   5   6
ATOM      6  C   UNL     1     190.651 186.656 193.187  1.00  0.00     0.155 C 
ATOM      7  O   UNL     1     190.631 187.067 191.995  1.00  0.00    -0.295 OA
BRANCH   6   8
ATOM      8  C   UNL     1     189.362 186.329 193.830  1.00  0.00     0.039 C 
ATOM      9  C   UNL     1     188.848 185.099 193.874  1.00  0.00     0.012 C 
ENDBRANCH   6   8
ENDBRANCH   5   6
ENDBRANCH   1   5
TORSDOF 5
ENDMDL
