MODEL 1
REMARK VINA RESULT:    -4.322      0.000      0.000
REMARK INTER + INTRA:          -6.601
REMARK INTER:                  -6.091
REMARK INTRA:                  -0.511
REMARK UNBOUND:                -0.511
REMARK SMILES CCCCCCCCC(=O)[O-]
REMARK SMILES IDX 6 1 7 2 8 3 9 4 10 5 11 6 5 7 4 8 3 9 2 10 1 11
REMARK H PARENT
REMARK Flexibility Score: inf
ROOT
ATOM      1  C   UNL     1      -2.450   7.893  23.039  1.00  0.00     0.000 C 
ENDROOT
BRANCH   1   2
ATOM      2  C   UNL     1      -1.614   8.486  24.184  1.00  0.00     0.006 C 
BRANCH   2   3
ATOM      3  C   UNL     1      -0.302   9.112  23.694  1.00  0.00     0.053 C 
BRANCH   3   4
ATOM      4  C   UNL     1       0.506   9.606  24.853  1.00  0.00     0.041 C 
ATOM      5  O   UNL     1      -0.051  10.237  25.791  1.00  0.00    -0.550 OA
ATOM      6  O   UNL     1       1.864   9.327  24.923  1.00  0.00    -0.550 OA
ENDBRANCH   3   4
ENDBRANCH   2   3
ENDBRANCH   1   2
BRANCH   1   7
ATOM      7  C   UNL     1      -2.061   8.460  21.666  1.00  0.00     0.000 C 
BRANCH   7   8
ATOM      8  C   UNL     1      -3.307   8.760  20.823  1.00  0.00    -0.000 C 
BRANCH   8   9
ATOM      9  C   UNL     1      -4.122   9.906  21.435  1.00  0.00    -0.000 C 
BRANCH   9  10
ATOM     10  C   UNL     1      -3.285  11.188  21.528  1.00  0.00    -0.003 C 
ATOM     11  C   UNL     1      -4.035  12.282  22.282  1.00  0.00     0.004 C 
ENDBRANCH   9  10
ENDBRANCH   8   9
ENDBRANCH   7   8
ENDBRANCH   1   7
TORSDOF 7
ENDMDL
MODEL 2
REMARK VINA RESULT:    -4.152      1.748      2.243
REMARK INTER + INTRA:          -6.361
REMARK INTER:                  -5.550
REMARK INTRA:                  -0.811
REMARK UNBOUND:                -0.511
REMARK SMILES CCCCCCCCC(=O)[O-]
REMARK SMILES IDX 6 1 7 2 8 3 9 4 10 5 11 6 5 7 4 8 3 9 2 10 1 11
REMARK H PARENT
REMARK Flexibility Score: inf
ROOT
ATOM      1  C   UNL     1      -2.106   8.194  22.722  1.00  0.00     0.000 C 
ENDROOT
BRANCH   1   2
ATOM      2  C   UNL     1      -1.058   8.956  23.547  1.00  0.00     0.006 C 
BRANCH   2   3
ATOM      3  C   UNL     1      -1.481   9.147  25.008  1.00  0.00     0.053 C 
BRANCH   3   4
ATOM      4  C   UNL     1      -2.393  10.327  25.138  1.00  0.00     0.041 C 
ATOM      5  O   UNL     1      -1.949  11.493  24.970  1.00  0.00    -0.550 OA
ATOM      6  O   UNL     1      -3.744  10.135  25.395  1.00  0.00    -0.550 OA
ENDBRANCH   3   4
ENDBRANCH   2   3
ENDBRANCH   1   2
BRANCH   1   7
ATOM      7  C   UNL     1      -1.957   8.429  21.211  1.00  0.00     0.000 C 
BRANCH   7   8
ATOM      8  C   UNL     1      -3.092   9.312  20.678  1.00  0.00    -0.000 C 
BRANCH   8   9
ATOM      9  C   UNL     1      -4.202   9.473  21.724  1.00  0.00    -0.000 C 
BRANCH   9  10
ATOM     10  C   UNL     1      -4.463  10.954  22.024  1.00  0.00    -0.003 C 
ATOM     11  C   UNL     1      -3.252  11.811  21.668  1.00  0.00     0.004 C 
ENDBRANCH   9  10
ENDBRANCH   8   9
ENDBRANCH   7   8
ENDBRANCH   1   7
TORSDOF 7
ENDMDL
MODEL 3
REMARK VINA RESULT:    -4.151      1.386      2.105
REMARK INTER + INTRA:          -6.360
REMARK INTER:                  -5.791
REMARK INTRA:                  -0.570
REMARK UNBOUND:                -0.511
REMARK SMILES CCCCCCCCC(=O)[O-]
REMARK SMILES IDX 6 1 7 2 8 3 9 4 10 5 11 6 5 7 4 8 3 9 2 10 1 11
REMARK H PARENT
REMARK Flexibility Score: inf
ROOT
ATOM      1  C   UNL     1      -2.176   9.098  24.721  1.00  0.00     0.000 C 
ENDROOT
BRANCH   1   2
ATOM      2  C   UNL     1      -1.018   9.017  25.727  1.00  0.00     0.006 C 
BRANCH   2   3
ATOM      3  C   UNL     1       0.003  10.147  25.546  1.00  0.00     0.053 C 
BRANCH   3   4
ATOM      4  C   UNL     1       1.261   9.620  24.929  1.00  0.00     0.041 C 
ATOM      5  O   UNL     1       2.302   9.490  25.625  1.00  0.00    -0.550 OA
ATOM      6  O   UNL     1       1.269   9.227  23.597  1.00  0.00    -0.550 OA
ENDBRANCH   3   4
ENDBRANCH   2   3
ENDBRANCH   1   2
BRANCH   1   7
ATOM      7  C   UNL     1      -2.112   7.996  23.652  1.00  0.00     0.000 C 
BRANCH   7   8
ATOM      8  C   UNL     1      -1.928   8.598  22.254  1.00  0.00    -0.000 C 
BRANCH   8   9
ATOM      9  C   UNL     1      -2.469  10.032  22.196  1.00  0.00    -0.000 C 
BRANCH   9  10
ATOM     10  C   UNL     1      -3.708  10.116  21.296  1.00  0.00    -0.003 C 
ATOM     11  C   UNL     1      -3.934   8.807  20.546  1.00  0.00     0.004 C 
ENDBRANCH   9  10
ENDBRANCH   8   9
ENDBRANCH   7   8
ENDBRANCH   1   7
TORSDOF 7
ENDMDL
MODEL 4
REMARK VINA RESULT:    -4.088      4.843      6.475
REMARK INTER + INTRA:          -6.272
REMARK INTER:                  -5.734
REMARK INTRA:                  -0.538
REMARK UNBOUND:                -0.511
REMARK SMILES CCCCCCCCC(=O)[O-]
REMARK SMILES IDX 6 1 7 2 8 3 9 4 10 5 11 6 5 7 4 8 3 9 2 10 1 11
REMARK H PARENT
REMARK Flexibility Score: inf
ROOT
ATOM      1  C   UNL     1       0.491  13.097  26.588  1.00  0.00     0.000 C 
ENDROOT
BRANCH   1   2
ATOM      2  C   UNL     1       0.558  11.684  25.990  1.00  0.00     0.006 C 
BRANCH   2   3
ATOM      3  C   UNL     1       1.998  11.197  25.784  1.00  0.00     0.053 C 
BRANCH   3   4
ATOM      4  C   UNL     1       2.008   9.769  25.337  1.00  0.00     0.041 C 
ATOM      5  O   UNL     1       1.286   9.401  24.373  1.00  0.00    -0.550 OA
ATOM      6  O   UNL     1       2.852   8.854  25.953  1.00  0.00    -0.550 OA
ENDBRANCH   3   4
ENDBRANCH   2   3
ENDBRANCH   1   2
BRANCH   1   7
ATOM      7  C   UNL     1       0.531  14.197  25.518  1.00  0.00     0.000 C 
BRANCH   7   8
ATOM      8  C   UNL     1       1.601  15.245  25.847  1.00  0.00    -0.000 C 
BRANCH   8   9
ATOM      9  C   UNL     1       2.473  15.545  24.621  1.00  0.00    -0.000 C 
BRANCH   9  10
ATOM     10  C   UNL     1       3.128  14.265  24.087  1.00  0.00    -0.003 C 
ATOM     11  C   UNL     1       4.584  14.165  24.531  1.00  0.00     0.004 C 
ENDBRANCH   9  10
ENDBRANCH   8   9
ENDBRANCH   7   8
ENDBRANCH   1   7
TORSDOF 7
ENDMDL
MODEL 5
REMARK VINA RESULT:    -4.030      8.315      9.692
REMARK INTER + INTRA:          -6.190
REMARK INTER:                  -5.609
REMARK INTRA:                  -0.581
REMARK UNBOUND:                -0.511
REMARK SMILES CCCCCCCCC(=O)[O-]
REMARK SMILES IDX 6 1 7 2 8 3 9 4 10 5 11 6 5 7 4 8 3 9 2 10 1 11
REMARK H PARENT
REMARK Flexibility Score: inf
ROOT
ATOM      1  C   UNL     1       4.164  18.213  22.902  1.00  0.00     0.000 C 
ENDROOT
BRANCH   1   2
ATOM      2  C   UNL     1       3.879  16.888  23.626  1.00  0.00     0.006 C 
BRANCH   2   3
ATOM      3  C   UNL     1       2.392  16.514  23.611  1.00  0.00     0.053 C 
BRANCH   3   4
ATOM      4  C   UNL     1       2.196  15.132  24.153  1.00  0.00     0.041 C 
ATOM      5  O   UNL     1       1.164  14.853  24.819  1.00  0.00    -0.550 OA
ATOM      6  O   UNL     1       3.128  14.140  23.879  1.00  0.00    -0.550 OA
ENDBRANCH   3   4
ENDBRANCH   2   3
ENDBRANCH   1   2
BRANCH   1   7
ATOM      7  C   UNL     1       3.394  19.397  23.508  1.00  0.00     0.000 C 
BRANCH   7   8
ATOM      8  C   UNL     1       3.119  20.471  22.450  1.00  0.00    -0.000 C 
BRANCH   8   9
ATOM      9  C   UNL     1       1.618  20.585  22.158  1.00  0.00    -0.000 C 
BRANCH   9  10
ATOM     10  C   UNL     1       0.791  19.907  23.258  1.00  0.00    -0.003 C 
ATOM     11  C   UNL     1      -0.298  19.021  22.662  1.00  0.00     0.004 C 
ENDBRANCH   9  10
ENDBRANCH   8   9
ENDBRANCH   7   8
ENDBRANCH   1   7
TORSDOF 7
ENDMDL
MODEL 6
REMARK VINA RESULT:    -4.022      2.316      4.500
REMARK INTER + INTRA:          -6.178
REMARK INTER:                  -5.579
REMARK INTRA:                  -0.600
REMARK UNBOUND:                -0.511
REMARK SMILES CCCCCCCCC(=O)[O-]
REMARK SMILES IDX 6 1 7 2 8 3 9 4 10 5 11 6 5 7 4 8 3 9 2 10 1 11
REMARK H PARENT
REMARK Flexibility Score: inf
ROOT
ATOM      1  C   UNL     1      -1.968   8.465  21.552  1.00  0.00     0.000 C 
ENDROOT
BRANCH   1   2
ATOM      2  C   UNL     1      -2.932   9.247  20.648  1.00  0.00     0.006 C 
BRANCH   2   3
ATOM      3  C   UNL     1      -4.056   9.931  21.436  1.00  0.00     0.053 C 
BRANCH   3   4
ATOM      4  C   UNL     1      -3.560  11.196  22.063  1.00  0.00     0.041 C 
ATOM      5  O   UNL     1      -3.264  12.187  21.344  1.00  0.00    -0.550 OA
ATOM      6  O   UNL     1      -3.473  11.298  23.445  1.00  0.00    -0.550 OA
ENDBRANCH   3   4
ENDBRANCH   2   3
ENDBRANCH   1   2
BRANCH   1   7
ATOM      7  C   UNL     1      -2.673   7.824  22.758  1.00  0.00     0.000 C 
BRANCH   7   8
ATOM      8  C   UNL     1      -1.928   8.139  24.060  1.00  0.00    -0.000 C 
BRANCH   8   9
ATOM      9  C   UNL     1      -0.748   9.085  23.806  1.00  0.00    -0.000 C 
BRANCH   9  10
ATOM     10  C   UNL     1      -0.175   9.616  25.125  1.00  0.00    -0.003 C 
ATOM     11  C   UNL     1      -1.158   9.414  26.274  1.00  0.00     0.004 C 
ENDBRANCH   9  10
ENDBRANCH   8   9
ENDBRANCH   7   8
ENDBRANCH   1   7
TORSDOF 7
ENDMDL
MODEL 7
REMARK VINA RESULT:    -3.994      1.882      3.670
REMARK INTER + INTRA:          -6.139
REMARK INTER:                  -5.406
REMARK INTRA:                  -0.733
REMARK UNBOUND:                -0.511
REMARK SMILES CCCCCCCCC(=O)[O-]
REMARK SMILES IDX 6 1 7 2 8 3 9 4 10 5 11 6 5 7 4 8 3 9 2 10 1 11
REMARK H PARENT
REMARK Flexibility Score: inf
ROOT
ATOM      1  C   UNL     1      -3.389  11.208  21.506  1.00  0.00     0.000 C 
ENDROOT
BRANCH   1   2
ATOM      2  C   UNL     1      -3.445  11.972  22.837  1.00  0.00     0.006 C 
BRANCH   2   3
ATOM      3  C   UNL     1      -3.855  11.079  24.015  1.00  0.00     0.053 C 
BRANCH   3   4
ATOM      4  C   UNL     1      -2.960  11.321  25.190  1.00  0.00     0.041 C 
ATOM      5  O   UNL     1      -1.932  12.037  25.067  1.00  0.00    -0.550 OA
ATOM      6  O   UNL     1      -3.290  10.798  26.433  1.00  0.00    -0.550 OA
ENDBRANCH   3   4
ENDBRANCH   2   3
ENDBRANCH   1   2
BRANCH   1   7
ATOM      7  C   UNL     1      -4.361  10.018  21.464  1.00  0.00     0.000 C 
BRANCH   7   8
ATOM      8  C   UNL     1      -3.737   8.826  20.728  1.00  0.00    -0.000 C 
BRANCH   8   9
ATOM      9  C   UNL     1      -2.238   8.715  21.031  1.00  0.00    -0.000 C 
BRANCH   9  10
ATOM     10  C   UNL     1      -2.001   8.159  22.440  1.00  0.00    -0.003 C 
ATOM     11  C   UNL     1      -0.896   8.929  23.158  1.00  0.00     0.004 C 
ENDBRANCH   9  10
ENDBRANCH   8   9
ENDBRANCH   7   8
ENDBRANCH   1   7
TORSDOF 7
ENDMDL
MODEL 8
REMARK VINA RESULT:    -3.913      1.588      2.704
REMARK INTER + INTRA:          -6.024
REMARK INTER:                  -5.284
REMARK INTRA:                  -0.741
REMARK UNBOUND:                -0.511
REMARK SMILES CCCCCCCCC(=O)[O-]
REMARK SMILES IDX 6 1 7 2 8 3 9 4 10 5 11 6 5 7 4 8 3 9 2 10 1 11
REMARK H PARENT
REMARK Flexibility Score: inf
ROOT
ATOM      1  C   UNL     1      -2.898  11.267  24.146  1.00  0.00     0.000 C 
ENDROOT
BRANCH   1   2
ATOM      2  C   UNL     1      -2.477  10.185  25.152  1.00  0.00     0.006 C 
BRANCH   2   3
ATOM      3  C   UNL     1      -1.922   8.928  24.470  1.00  0.00     0.053 C 
BRANCH   3   4
ATOM      4  C   UNL     1      -0.504   9.147  24.044  1.00  0.00     0.041 C 
ATOM      5  O   UNL     1      -0.142   8.859  22.873  1.00  0.00    -0.550 OA
ATOM      6  O   UNL     1       0.405   9.716  24.926  1.00  0.00    -0.550 OA
ENDBRANCH   3   4
ENDBRANCH   2   3
ENDBRANCH   1   2
BRANCH   1   7
ATOM      7  C   UNL     1      -4.365  11.134  23.712  1.00  0.00     0.000 C 
BRANCH   7   8
ATOM      8  C   UNL     1      -4.488  11.131  22.184  1.00  0.00    -0.000 C 
BRANCH   8   9
ATOM      9  C   UNL     1      -3.140  10.815  21.524  1.00  0.00    -0.000 C 
BRANCH   9  10
ATOM     10  C   UNL     1      -3.120   9.384  20.973  1.00  0.00    -0.003 C 
ATOM     11  C   UNL     1      -4.534   8.875  20.709  1.00  0.00     0.004 C 
ENDBRANCH   9  10
ENDBRANCH   8   9
ENDBRANCH   7   8
ENDBRANCH   1   7
TORSDOF 7
ENDMDL
MODEL 9
REMARK VINA RESULT:    -3.894      1.514      1.885
REMARK INTER + INTRA:          -5.998
REMARK INTER:                  -5.429
REMARK INTRA:                  -0.569
REMARK UNBOUND:                -0.511
REMARK SMILES CCCCCCCCC(=O)[O-]
REMARK SMILES IDX 6 1 7 2 8 3 9 4 10 5 11 6 5 7 4 8 3 9 2 10 1 11
REMARK H PARENT
REMARK Flexibility Score: inf
ROOT
ATOM      1  C   UNL     1      -3.468   8.910  24.704  1.00  0.00     0.000 C 
ENDROOT
BRANCH   1   2
ATOM      2  C   UNL     1      -2.259   9.850  24.818  1.00  0.00     0.006 C 
BRANCH   2   3
ATOM      3  C   UNL     1      -0.978   9.119  25.238  1.00  0.00     0.053 C 
BRANCH   3   4
ATOM      4  C   UNL     1       0.084   9.286  24.197  1.00  0.00     0.041 C 
ATOM      5  O   UNL     1       1.228   9.703  24.519  1.00  0.00    -0.550 OA
ATOM      6  O   UNL     1      -0.173   8.932  22.879  1.00  0.00    -0.550 OA
ENDBRANCH   3   4
ENDBRANCH   2   3
ENDBRANCH   1   2
BRANCH   1   7
ATOM      7  C   UNL     1      -3.546   8.206  23.341  1.00  0.00     0.000 C 
BRANCH   7   8
ATOM      8  C   UNL     1      -4.884   8.493  22.651  1.00  0.00    -0.000 C 
BRANCH   8   9
ATOM      9  C   UNL     1      -4.669   9.169  21.291  1.00  0.00    -0.000 C 
BRANCH   9  10
ATOM     10  C   UNL     1      -3.272   9.796  21.204  1.00  0.00    -0.003 C 
ATOM     11  C   UNL     1      -3.320  11.292  21.500  1.00  0.00     0.004 C 
ENDBRANCH   9  10
ENDBRANCH   8   9
ENDBRANCH   7   8
ENDBRANCH   1   7
TORSDOF 7
ENDMDL
