MODEL 1
REMARK VINA RESULT:     1.615      0.000      0.000
REMARK INTER + INTRA:           1.662
REMARK INTER:                   1.662
REMARK INTRA:                   0.000
REMARK UNBOUND:                 0.000
REMARK SMILES CC1(C)CC[C@@]2(C)CC[C@@]3(C)C(=CC[C@H]4[C@]5(C)CC[C@@H](O)C(C)(C)[C@H]5CC[C@]43C)[C@@H]2C1
REMARK SMILES IDX 1 1 2 2 4 3 5 4 6 5 8 6 9 7 10 8 12 9 13 10 14 11 15 12
REMARK SMILES IDX 28 13 27 14 26 15 25 16 16 17 18 18 19 19 20 20 22 21 23 22
REMARK SMILES IDX 24 23 17 24 29 25 30 26 31 27 11 28 7 29 3 30 21 31
REMARK H PARENT 21 32
REMARK Flexibility Score: inf
ROOT
ATOM      1  C   UNL     1      33.518  11.456   1.053  1.00  0.00     0.011 C 
ATOM      2  C   UNL     1      33.573  10.116   1.824  1.00  0.00    -0.035 C 
ATOM      3  C   UNL     1      32.526  10.126   2.971  1.00  0.00     0.007 C 
ATOM      4  C   UNL     1      32.938  11.007   4.158  1.00  0.00     0.008 C 
ATOM      5  C   UNL     1      34.403  10.763   4.674  1.00  0.00    -0.026 C 
ATOM      6  C   UNL     1      34.340  10.342   6.161  1.00  0.00     0.008 C 
ATOM      7  C   UNL     1      35.721  10.075   6.777  1.00  0.00     0.012 C 
ATOM      8  C   UNL     1      36.624   9.044   5.997  1.00  0.00    -0.006 C 
ATOM      9  C   UNL     1      36.500   9.289   4.484  1.00  0.00    -0.064 C 
ATOM     10  C   UNL     1      37.509   8.919   3.675  1.00  0.00    -0.027 C 
ATOM     11  C   UNL     1      38.873   8.501   4.120  1.00  0.00     0.032 C 
ATOM     12  C   UNL     1      39.113   8.220   5.643  1.00  0.00     0.006 C 
ATOM     13  C   UNL     1      38.165   9.140   6.508  1.00  0.00    -0.020 C 
ATOM     14  C   UNL     1      38.707  10.626   6.398  1.00  0.00     0.008 C 
ATOM     15  C   UNL     1      40.223  10.814   6.086  1.00  0.00     0.005 C 
ATOM     16  C   UNL     1      41.048   9.676   6.695  1.00  0.00     0.003 C 
ATOM     17  C   UNL     1      40.688   8.286   6.042  1.00  0.00    -0.025 C 
ATOM     18  C   UNL     1      41.066   7.170   7.078  1.00  0.00     0.010 C 
ATOM     19  C   UNL     1      42.173   7.563   8.099  1.00  0.00     0.033 C 
ATOM     20  C   UNL     1      43.220   8.597   7.605  1.00  0.00     0.120 C 
ATOM     21  C   UNL     1      42.575   9.926   7.018  1.00  0.00    -0.006 C 
ATOM     22  C   UNL     1      43.357  10.482   5.798  1.00  0.00     0.014 C 
ATOM     23  C   UNL     1      42.692  11.019   8.125  1.00  0.00     0.014 C 
ATOM     24  C   UNL     1      41.557   7.995   4.775  1.00  0.00     0.012 C 
ATOM     25  C   UNL     1      38.177   8.663   8.008  1.00  0.00     0.012 C 
ATOM     26  C   UNL     1      35.103   9.609   3.893  1.00  0.00     0.022 C 
ATOM     27  C   UNL     1      35.028   9.857   2.360  1.00  0.00     0.015 C 
ATOM     28  C   UNL     1      36.024   7.622   6.248  1.00  0.00     0.017 C 
ATOM     29  C   UNL     1      35.192  12.095   4.537  1.00  0.00     0.012 C 
ATOM     30  C   UNL     1      33.175   8.996   0.834  1.00  0.00     0.011 C 
ENDROOT
BRANCH  20  31
ATOM     31  O   UNL     1      44.104   7.970   6.708  1.00  0.00    -0.393 OA
ATOM     32  H   UNL     1      43.638   7.902   5.834  1.00  0.00     0.210 HD
ENDBRANCH  20  31
TORSDOF 1
ENDMDL
MODEL 2
REMARK VINA RESULT:     1.976     13.782     16.025
REMARK INTER + INTRA:           2.034
REMARK INTER:                   2.034
REMARK INTRA:                   0.000
REMARK UNBOUND:                 0.000
REMARK SMILES CC1(C)CC[C@@]2(C)CC[C@@]3(C)C(=CC[C@H]4[C@]5(C)CC[C@@H](O)C(C)(C)[C@H]5CC[C@]43C)[C@@H]2C1
REMARK SMILES IDX 1 1 2 2 4 3 5 4 6 5 8 6 9 7 10 8 12 9 13 10 14 11 15 12
REMARK SMILES IDX 28 13 27 14 26 15 25 16 16 17 18 18 19 19 20 20 22 21 23 22
REMARK SMILES IDX 24 23 17 24 29 25 30 26 31 27 11 28 7 29 3 30 21 31
REMARK H PARENT 21 32
REMARK Flexibility Score: inf
ROOT
ATOM      1  C   UNL     1      40.415  11.686  -9.763  1.00  0.00     0.011 C 
ATOM      2  C   UNL     1      41.565  10.881 -10.413  1.00  0.00    -0.035 C 
ATOM      3  C   UNL     1      41.211  10.556 -11.890  1.00  0.00     0.007 C 
ATOM      4  C   UNL     1      40.151   9.454 -12.028  1.00  0.00     0.008 C 
ATOM      5  C   UNL     1      40.433   8.166 -11.172  1.00  0.00    -0.026 C 
ATOM      6  C   UNL     1      40.530   6.951 -12.125  1.00  0.00     0.008 C 
ATOM      7  C   UNL     1      40.806   5.628 -11.396  1.00  0.00     0.012 C 
ATOM      8  C   UNL     1      42.063   5.626 -10.444  1.00  0.00    -0.006 C 
ATOM      9  C   UNL     1      42.124   6.950  -9.665  1.00  0.00    -0.064 C 
ATOM     10  C   UNL     1      42.754   6.984  -8.477  1.00  0.00    -0.027 C 
ATOM     11  C   UNL     1      43.211   5.792  -7.700  1.00  0.00     0.032 C 
ATOM     12  C   UNL     1      43.195   4.389  -8.398  1.00  0.00     0.006 C 
ATOM     13  C   UNL     1      42.023   4.336  -9.455  1.00  0.00    -0.020 C 
ATOM     14  C   UNL     1      40.656   4.277  -8.654  1.00  0.00     0.008 C 
ATOM     15  C   UNL     1      40.695   3.678  -7.216  1.00  0.00     0.005 C 
ATOM     16  C   UNL     1      41.762   2.584  -7.110  1.00  0.00     0.003 C 
ATOM     17  C   UNL     1      43.211   3.167  -7.326  1.00  0.00    -0.025 C 
ATOM     18  C   UNL     1      44.123   1.986  -7.813  1.00  0.00     0.010 C 
ATOM     19  C   UNL     1      43.644   0.565  -7.396  1.00  0.00     0.033 C 
ATOM     20  C   UNL     1      42.848   0.477  -6.066  1.00  0.00     0.120 C 
ATOM     21  C   UNL     1      41.609   1.471  -5.999  1.00  0.00    -0.006 C 
ATOM     22  C   UNL     1      41.401   2.070  -4.582  1.00  0.00     0.014 C 
ATOM     23  C   UNL     1      40.329   0.627  -6.290  1.00  0.00     0.014 C 
ATOM     24  C   UNL     1      43.845   3.661  -5.984  1.00  0.00     0.012 C 
ATOM     25  C   UNL     1      42.179   3.061 -10.365  1.00  0.00     0.012 C 
ATOM     26  C   UNL     1      41.790   8.269 -10.409  1.00  0.00     0.022 C 
ATOM     27  C   UNL     1      41.857   9.582  -9.579  1.00  0.00     0.015 C 
ATOM     28  C   UNL     1      43.333   5.610 -11.356  1.00  0.00     0.017 C 
ATOM     29  C   UNL     1      39.248   7.970 -10.187  1.00  0.00     0.012 C 
ATOM     30  C   UNL     1      42.818  11.789 -10.419  1.00  0.00     0.011 C 
ENDROOT
BRANCH  20  31
ATOM     31  O   UNL     1      43.735   0.626  -4.985  1.00  0.00    -0.393 OA
ATOM     32  H   UNL     1      43.344   1.304  -4.374  1.00  0.00     0.210 HD
ENDBRANCH  20  31
TORSDOF 1
ENDMDL
MODEL 3
REMARK VINA RESULT:     3.630     14.342     16.679
REMARK INTER + INTRA:           3.736
REMARK INTER:                   3.736
REMARK INTRA:                   0.000
REMARK UNBOUND:                 0.000
REMARK SMILES CC1(C)CC[C@@]2(C)CC[C@@]3(C)C(=CC[C@H]4[C@]5(C)CC[C@@H](O)C(C)(C)[C@H]5CC[C@]43C)[C@@H]2C1
REMARK SMILES IDX 1 1 2 2 4 3 5 4 6 5 8 6 9 7 10 8 12 9 13 10 14 11 15 12
REMARK SMILES IDX 28 13 27 14 26 15 25 16 16 17 18 18 19 19 20 20 22 21 23 22
REMARK SMILES IDX 24 23 17 24 29 25 30 26 31 27 11 28 7 29 3 30 21 31
REMARK H PARENT 21 32
REMARK Flexibility Score: inf
ROOT
ATOM      1  C   UNL     1      37.550   1.064 -11.616  1.00  0.00     0.011 C 
ATOM      2  C   UNL     1      38.952   1.140 -10.969  1.00  0.00    -0.035 C 
ATOM      3  C   UNL     1      38.858   0.766  -9.464  1.00  0.00     0.007 C 
ATOM      4  C   UNL     1      38.228   1.872  -8.605  1.00  0.00     0.008 C 
ATOM      5  C   UNL     1      38.832   3.304  -8.839  1.00  0.00    -0.026 C 
ATOM      6  C   UNL     1      39.403   3.825  -7.499  1.00  0.00     0.008 C 
ATOM      7  C   UNL     1      40.024   5.225  -7.605  1.00  0.00     0.012 C 
ATOM      8  C   UNL     1      41.122   5.397  -8.724  1.00  0.00    -0.006 C 
ATOM      9  C   UNL     1      40.681   4.662 -10.000  1.00  0.00    -0.064 C 
ATOM     10  C   UNL     1      41.156   5.071 -11.190  1.00  0.00    -0.027 C 
ATOM     11  C   UNL     1      41.900   6.342 -11.440  1.00  0.00     0.032 C 
ATOM     12  C   UNL     1      42.402   7.173 -10.209  1.00  0.00     0.006 C 
ATOM     13  C   UNL     1      41.411   6.974  -8.995  1.00  0.00    -0.020 C 
ATOM     14  C   UNL     1      40.070   7.746  -9.340  1.00  0.00     0.008 C 
ATOM     15  C   UNL     1      40.169   8.949 -10.325  1.00  0.00     0.005 C 
ATOM     16  C   UNL     1      41.518   9.661 -10.182  1.00  0.00     0.003 C 
ATOM     17  C   UNL     1      42.714   8.721 -10.596  1.00  0.00    -0.025 C 
ATOM     18  C   UNL     1      43.999   9.249  -9.866  1.00  0.00     0.010 C 
ATOM     19  C   UNL     1      43.969  10.756  -9.482  1.00  0.00     0.033 C 
ATOM     20  C   UNL     1      43.127  11.678 -10.404  1.00  0.00     0.120 C 
ATOM     21  C   UNL     1      41.633  11.177 -10.612  1.00  0.00    -0.006 C 
ATOM     22  C   UNL     1      41.113  11.427 -12.054  1.00  0.00     0.014 C 
ATOM     23  C   UNL     1      40.726  12.044  -9.684  1.00  0.00     0.014 C 
ATOM     24  C   UNL     1      43.030   8.821 -12.125  1.00  0.00     0.012 C 
ATOM     25  C   UNL     1      42.053   7.552  -7.680  1.00  0.00     0.012 C 
ATOM     26  C   UNL     1      40.007   3.272  -9.864  1.00  0.00     0.022 C 
ATOM     27  C   UNL     1      39.571   2.569 -11.180  1.00  0.00     0.015 C 
ATOM     28  C   UNL     1      42.406   4.656  -8.228  1.00  0.00     0.017 C 
ATOM     29  C   UNL     1      37.689   4.238  -9.323  1.00  0.00     0.012 C 
ATOM     30  C   UNL     1      39.840   0.080 -11.662  1.00  0.00     0.011 C 
ENDROOT
BRANCH  20  31
ATOM     31  O   UNL     1      43.815  11.878 -11.614  1.00  0.00    -0.393 OA
ATOM     32  H   UNL     1      43.451  11.229 -12.272  1.00  0.00     0.210 HD
ENDBRANCH  20  31
TORSDOF 1
ENDMDL
MODEL 4
REMARK VINA RESULT:     3.918     14.649     16.748
REMARK INTER + INTRA:           4.032
REMARK INTER:                   4.032
REMARK INTRA:                   0.000
REMARK UNBOUND:                 0.000
REMARK SMILES CC1(C)CC[C@@]2(C)CC[C@@]3(C)C(=CC[C@H]4[C@]5(C)CC[C@@H](O)C(C)(C)[C@H]5CC[C@]43C)[C@@H]2C1
REMARK SMILES IDX 1 1 2 2 4 3 5 4 6 5 8 6 9 7 10 8 12 9 13 10 14 11 15 12
REMARK SMILES IDX 28 13 27 14 26 15 25 16 16 17 18 18 19 19 20 20 22 21 23 22
REMARK SMILES IDX 24 23 17 24 29 25 30 26 31 27 11 28 7 29 3 30 21 31
REMARK H PARENT 21 32
REMARK Flexibility Score: inf
ROOT
ATOM      1  C   UNL     1      35.103   2.665  -9.298  1.00  0.00     0.011 C 
ATOM      2  C   UNL     1      36.243   2.465 -10.323  1.00  0.00    -0.035 C 
ATOM      3  C   UNL     1      37.176   1.315  -9.855  1.00  0.00     0.007 C 
ATOM      4  C   UNL     1      38.086   1.715  -8.684  1.00  0.00     0.008 C 
ATOM      5  C   UNL     1      38.848   3.074  -8.885  1.00  0.00    -0.026 C 
ATOM      6  C   UNL     1      40.370   2.804  -8.806  1.00  0.00     0.008 C 
ATOM      7  C   UNL     1      41.223   4.068  -8.989  1.00  0.00     0.012 C 
ATOM      8  C   UNL     1      40.925   4.904 -10.292  1.00  0.00    -0.006 C 
ATOM      9  C   UNL     1      39.407   4.970 -10.529  1.00  0.00    -0.064 C 
ATOM     10  C   UNL     1      38.896   6.000 -11.226  1.00  0.00    -0.027 C 
ATOM     11  C   UNL     1      39.632   7.245 -11.605  1.00  0.00     0.032 C 
ATOM     12  C   UNL     1      41.186   7.288 -11.410  1.00  0.00     0.006 C 
ATOM     13  C   UNL     1      41.592   6.383 -10.180  1.00  0.00    -0.020 C 
ATOM     14  C   UNL     1      41.112   7.123  -8.862  1.00  0.00     0.008 C 
ATOM     15  C   UNL     1      40.972   8.674  -8.922  1.00  0.00     0.005 C 
ATOM     16  C   UNL     1      42.005   9.277  -9.879  1.00  0.00     0.003 C 
ATOM     17  C   UNL     1      41.760   8.808 -11.364  1.00  0.00    -0.025 C 
ATOM     18  C   UNL     1      43.128   8.929 -12.125  1.00  0.00     0.010 C 
ATOM     19  C   UNL     1      44.125   9.966 -11.532  1.00  0.00     0.033 C 
ATOM     20  C   UNL     1      43.491  11.185 -10.808  1.00  0.00     0.120 C 
ATOM     21  C   UNL     1      42.445  10.782  -9.680  1.00  0.00    -0.006 C 
ATOM     22  C   UNL     1      41.235  11.752  -9.613  1.00  0.00     0.014 C 
ATOM     23  C   UNL     1      43.174  10.926  -8.308  1.00  0.00     0.014 C 
ATOM     24  C   UNL     1      40.775   9.758 -12.120  1.00  0.00     0.012 C 
ATOM     25  C   UNL     1      43.152   6.179 -10.156  1.00  0.00     0.012 C 
ATOM     26  C   UNL     1      38.559   3.695 -10.286  1.00  0.00     0.022 C 
ATOM     27  C   UNL     1      37.028   3.811 -10.531  1.00  0.00     0.015 C 
ATOM     28  C   UNL     1      41.510   4.102 -11.500  1.00  0.00     0.017 C 
ATOM     29  C   UNL     1      38.426   4.040  -7.744  1.00  0.00     0.012 C 
ATOM     30  C   UNL     1      35.594   2.029 -11.658  1.00  0.00     0.011 C 
ENDROOT
BRANCH  20  31
ATOM     31  O   UNL     1      42.958  12.067 -11.765  1.00  0.00    -0.393 OA
ATOM     32  H   UNL     1      42.695  12.897 -11.287  1.00  0.00     0.210 HD
ENDBRANCH  20  31
TORSDOF 1
ENDMDL
MODEL 5
REMARK VINA RESULT:     4.581      2.711      8.082
REMARK INTER + INTRA:           4.715
REMARK INTER:                   4.715
REMARK INTRA:                   0.000
REMARK UNBOUND:                 0.000
REMARK SMILES CC1(C)CC[C@@]2(C)CC[C@@]3(C)C(=CC[C@H]4[C@]5(C)CC[C@@H](O)C(C)(C)[C@H]5CC[C@]43C)[C@@H]2C1
REMARK SMILES IDX 1 1 2 2 4 3 5 4 6 5 8 6 9 7 10 8 12 9 13 10 14 11 15 12
REMARK SMILES IDX 28 13 27 14 26 15 25 16 16 17 18 18 19 19 20 20 22 21 23 22
REMARK SMILES IDX 24 23 17 24 29 25 30 26 31 27 11 28 7 29 3 30 21 31
REMARK H PARENT 21 32
REMARK Flexibility Score: inf
ROOT
ATOM      1  C   UNL     1      44.123   9.613   5.180  1.00  0.00     0.011 C 
ATOM      2  C   UNL     1      43.278  10.723   5.850  1.00  0.00    -0.035 C 
ATOM      3  C   UNL     1      43.176  10.457   7.376  1.00  0.00     0.007 C 
ATOM      4  C   UNL     1      42.226   9.303   7.727  1.00  0.00     0.008 C 
ATOM      5  C   UNL     1      40.820   9.380   7.027  1.00  0.00    -0.026 C 
ATOM      6  C   UNL     1      39.726   9.427   8.120  1.00  0.00     0.008 C 
ATOM      7  C   UNL     1      38.301   9.504   7.552  1.00  0.00     0.012 C 
ATOM      8  C   UNL     1      38.042  10.673   6.526  1.00  0.00    -0.006 C 
ATOM      9  C   UNL     1      39.247  10.808   5.580  1.00  0.00    -0.064 C 
ATOM     10  C   UNL     1      39.065  11.340   4.358  1.00  0.00    -0.027 C 
ATOM     11  C   UNL     1      37.744  11.606   3.712  1.00  0.00     0.032 C 
ATOM     12  C   UNL     1      36.447  11.501   4.585  1.00  0.00     0.006 C 
ATOM     13  C   UNL     1      36.655  10.419   5.717  1.00  0.00    -0.020 C 
ATOM     14  C   UNL     1      36.655   8.993   5.024  1.00  0.00     0.008 C 
ATOM     15  C   UNL     1      35.885   8.853   3.676  1.00  0.00     0.005 C 
ATOM     16  C   UNL     1      34.673   9.788   3.641  1.00  0.00     0.003 C 
ATOM     17  C   UNL     1      35.110  11.303   3.681  1.00  0.00    -0.025 C 
ATOM     18  C   UNL     1      33.901  12.123   4.254  1.00  0.00     0.010 C 
ATOM     19  C   UNL     1      32.504  11.468   4.058  1.00  0.00     0.033 C 
ATOM     20  C   UNL     1      32.346  10.562   2.807  1.00  0.00     0.120 C 
ATOM     21  C   UNL     1      33.458   9.432   2.695  1.00  0.00    -0.006 C 
ATOM     22  C   UNL     1      33.901   9.172   1.230  1.00  0.00     0.014 C 
ATOM     23  C   UNL     1      32.806   8.099   3.178  1.00  0.00     0.014 C 
ATOM     24  C   UNL     1      35.362  11.874   2.248  1.00  0.00     0.012 C 
ATOM     25  C   UNL     1      35.490  10.515   6.771  1.00  0.00     0.012 C 
ATOM     26  C   UNL     1      40.675  10.673   6.168  1.00  0.00     0.022 C 
ATOM     27  C   UNL     1      41.862  10.809   5.173  1.00  0.00     0.015 C 
ATOM     28  C   UNL     1      37.994  12.003   7.345  1.00  0.00     0.017 C 
ATOM     29  C   UNL     1      40.641   8.104   6.158  1.00  0.00     0.012 C 
ATOM     30  C   UNL     1      44.031  12.059   5.654  1.00  0.00     0.011 C 
ENDROOT
BRANCH  20  31
ATOM     31  O   UNL     1      32.261  11.368   1.658  1.00  0.00    -0.393 OA
ATOM     32  H   UNL     1      32.797  12.186   1.831  1.00  0.00     0.210 HD
ENDBRANCH  20  31
TORSDOF 1
ENDMDL
