MODEL 1
REMARK VINA RESULT:    -3.169      0.000      0.000
REMARK INTER + INTRA:          -5.000
REMARK INTER:                  -4.466
REMARK INTRA:                  -0.535
REMARK UNBOUND:                -0.535
REMARK SMILES CCCCCCCCC(=O)[O-]
REMARK SMILES IDX 6 1 7 2 8 3 9 4 10 5 11 6 5 7 4 8 3 9 2 10 1 11
REMARK H PARENT
REMARK Flexibility Score: inf
ROOT
ATOM      1  C   UNL     1      -2.598  -1.529  10.617  1.00  0.00     0.000 C 
ENDROOT
BRANCH   1   2
ATOM      2  C   UNL     1      -3.790  -1.431  11.581  1.00  0.00     0.006 C 
BRANCH   2   3
ATOM      3  C   UNL     1      -4.537  -2.763  11.733  1.00  0.00     0.053 C 
BRANCH   3   4
ATOM      4  C   UNL     1      -5.470  -2.971  10.584  1.00  0.00     0.041 C 
ATOM      5  O   UNL     1      -5.739  -4.136  10.188  1.00  0.00    -0.550 OA
ATOM      6  O   UNL     1      -6.006  -1.877   9.916  1.00  0.00    -0.550 OA
ENDBRANCH   3   4
ENDBRANCH   2   3
ENDBRANCH   1   2
BRANCH   1   7
ATOM      7  C   UNL     1      -2.607  -0.418   9.552  1.00  0.00     0.000 C 
BRANCH   7   8
ATOM      8  C   UNL     1      -2.318  -0.950   8.138  1.00  0.00    -0.000 C 
BRANCH   8   9
ATOM      9  C   UNL     1      -2.759  -2.414   7.957  1.00  0.00    -0.000 C 
BRANCH   9  10
ATOM     10  C   UNL     1      -1.834  -3.193   7.010  1.00  0.00    -0.003 C 
ATOM     11  C   UNL     1      -1.097  -2.288   6.022  1.00  0.00     0.004 C 
ENDBRANCH   9  10
ENDBRANCH   8   9
ENDBRANCH   7   8
ENDBRANCH   1   7
TORSDOF 7
ENDMDL
MODEL 2
REMARK VINA RESULT:    -3.153      3.959      4.974
REMARK INTER + INTRA:          -4.978
REMARK INTER:                  -4.619
REMARK INTRA:                  -0.359
REMARK UNBOUND:                -0.535
REMARK SMILES CCCCCCCCC(=O)[O-]
REMARK SMILES IDX 6 1 7 2 8 3 9 4 10 5 11 6 5 7 4 8 3 9 2 10 1 11
REMARK H PARENT
REMARK Flexibility Score: inf
ROOT
ATOM      1  C   UNL     1      -3.127  -4.306   6.203  1.00  0.00     0.000 C 
ENDROOT
BRANCH   1   2
ATOM      2  C   UNL     1      -4.198  -5.053   7.015  1.00  0.00     0.006 C 
BRANCH   2   3
ATOM      3  C   UNL     1      -4.083  -6.578   6.879  1.00  0.00     0.053 C 
BRANCH   3   4
ATOM      4  C   UNL     1      -4.474  -7.009   5.501  1.00  0.00     0.041 C 
ATOM      5  O   UNL     1      -3.659  -7.642   4.780  1.00  0.00    -0.550 OA
ATOM      6  O   UNL     1      -5.721  -6.668   4.993  1.00  0.00    -0.550 OA
ENDBRANCH   3   4
ENDBRANCH   2   3
ENDBRANCH   1   2
BRANCH   1   7
ATOM      7  C   UNL     1      -2.088  -3.607   7.099  1.00  0.00     0.000 C 
BRANCH   7   8
ATOM      8  C   UNL     1      -2.305  -2.088   7.182  1.00  0.00    -0.000 C 
BRANCH   8   9
ATOM      9  C   UNL     1      -1.649  -1.332   6.012  1.00  0.00    -0.000 C 
BRANCH   9  10
ATOM     10  C   UNL     1      -0.344  -1.994   5.543  1.00  0.00    -0.003 C 
ATOM     11  C   UNL     1      -0.014  -1.687   4.082  1.00  0.00     0.004 C 
ENDBRANCH   9  10
ENDBRANCH   8   9
ENDBRANCH   7   8
ENDBRANCH   1   7
TORSDOF 7
ENDMDL
MODEL 3
REMARK VINA RESULT:    -3.137      2.811      4.992
REMARK INTER + INTRA:          -4.955
REMARK INTER:                  -4.350
REMARK INTRA:                  -0.604
REMARK UNBOUND:                -0.535
REMARK SMILES CCCCCCCCC(=O)[O-]
REMARK SMILES IDX 6 1 7 2 8 3 9 4 10 5 11 6 5 7 4 8 3 9 2 10 1 11
REMARK H PARENT
REMARK Flexibility Score: inf
ROOT
ATOM      1  C   UNL     1      -3.136  -1.535   8.485  1.00  0.00     0.000 C 
ENDROOT
BRANCH   1   2
ATOM      2  C   UNL     1      -3.292  -2.933   7.865  1.00  0.00     0.006 C 
BRANCH   2   3
ATOM      3  C   UNL     1      -2.037  -3.385   7.106  1.00  0.00     0.053 C 
BRANCH   3   4
ATOM      4  C   UNL     1      -1.752  -2.455   5.971  1.00  0.00     0.041 C 
ATOM      5  O   UNL     1      -2.564  -2.353   5.014  1.00  0.00    -0.550 OA
ATOM      6  O   UNL     1      -0.563  -1.737   5.943  1.00  0.00    -0.550 OA
ENDBRANCH   3   4
ENDBRANCH   2   3
ENDBRANCH   1   2
BRANCH   1   7
ATOM      7  C   UNL     1      -2.431  -1.572   9.853  1.00  0.00     0.000 C 
BRANCH   7   8
ATOM      8  C   UNL     1      -3.369  -1.199  11.012  1.00  0.00    -0.000 C 
BRANCH   8   9
ATOM      9  C   UNL     1      -4.007  -2.434  11.676  1.00  0.00    -0.000 C 
BRANCH   9  10
ATOM     10  C   UNL     1      -5.505  -2.562  11.361  1.00  0.00    -0.003 C 
ATOM     11  C   UNL     1      -5.833  -3.800  10.525  1.00  0.00     0.004 C 
ENDBRANCH   9  10
ENDBRANCH   8   9
ENDBRANCH   7   8
ENDBRANCH   1   7
TORSDOF 7
ENDMDL
MODEL 4
REMARK VINA RESULT:    -3.124      4.475      6.063
REMARK INTER + INTRA:          -4.937
REMARK INTER:                  -4.531
REMARK INTRA:                  -0.406
REMARK UNBOUND:                -0.535
REMARK SMILES CCCCCCCCC(=O)[O-]
REMARK SMILES IDX 6 1 7 2 8 3 9 4 10 5 11 6 5 7 4 8 3 9 2 10 1 11
REMARK H PARENT
REMARK Flexibility Score: inf
ROOT
ATOM      1  C   UNL     1      -3.103  -4.262   6.285  1.00  0.00     0.000 C 
ENDROOT
BRANCH   1   2
ATOM      2  C   UNL     1      -2.040  -3.549   7.136  1.00  0.00     0.006 C 
BRANCH   2   3
ATOM      3  C   UNL     1      -1.986  -2.039   6.868  1.00  0.00     0.053 C 
BRANCH   3   4
ATOM      4  C   UNL     1      -1.294  -1.764   5.571  1.00  0.00     0.041 C 
ATOM      5  O   UNL     1      -0.063  -1.997   5.447  1.00  0.00    -0.550 OA
ATOM      6  O   UNL     1      -1.998  -1.204   4.512  1.00  0.00    -0.550 OA
ENDBRANCH   3   4
ENDBRANCH   2   3
ENDBRANCH   1   2
BRANCH   1   7
ATOM      7  C   UNL     1      -4.280  -4.786   7.128  1.00  0.00     0.000 C 
BRANCH   7   8
ATOM      8  C   UNL     1      -4.450  -6.310   7.025  1.00  0.00    -0.000 C 
BRANCH   8   9
ATOM      9  C   UNL     1      -3.603  -6.924   5.896  1.00  0.00    -0.000 C 
BRANCH   9  10
ATOM     10  C   UNL     1      -4.460  -7.427   4.725  1.00  0.00    -0.003 C 
ATOM     11  C   UNL     1      -5.911  -7.697   5.125  1.00  0.00     0.004 C 
ENDBRANCH   9  10
ENDBRANCH   8   9
ENDBRANCH   7   8
ENDBRANCH   1   7
TORSDOF 7
ENDMDL
MODEL 5
REMARK VINA RESULT:    -3.119      1.679      3.177
REMARK INTER + INTRA:          -4.930
REMARK INTER:                  -4.354
REMARK INTRA:                  -0.576
REMARK UNBOUND:                -0.535
REMARK SMILES CCCCCCCCC(=O)[O-]
REMARK SMILES IDX 6 1 7 2 8 3 9 4 10 5 11 6 5 7 4 8 3 9 2 10 1 11
REMARK H PARENT
REMARK Flexibility Score: inf
ROOT
ATOM      1  C   UNL     1      -4.424  -3.830   6.821  1.00  0.00     0.000 C 
ENDROOT
BRANCH   1   2
ATOM      2  C   UNL     1      -4.934  -4.232   8.215  1.00  0.00     0.006 C 
BRANCH   2   3
ATOM      3  C   UNL     1      -5.273  -3.019   9.091  1.00  0.00     0.053 C 
BRANCH   3   4
ATOM      4  C   UNL     1      -5.723  -3.464  10.446  1.00  0.00     0.041 C 
ATOM      5  O   UNL     1      -5.041  -3.180  11.465  1.00  0.00    -0.550 OA
ATOM      6  O   UNL     1      -6.870  -4.235  10.579  1.00  0.00    -0.550 OA
ENDBRANCH   3   4
ENDBRANCH   2   3
ENDBRANCH   1   2
BRANCH   1   7
ATOM      7  C   UNL     1      -3.002  -4.351   6.541  1.00  0.00     0.000 C 
BRANCH   7   8
ATOM      8  C   UNL     1      -1.914  -3.486   7.197  1.00  0.00    -0.000 C 
BRANCH   8   9
ATOM      9  C   UNL     1      -1.399  -2.376   6.263  1.00  0.00    -0.000 C 
BRANCH   9  10
ATOM     10  C   UNL     1      -1.865  -0.978   6.698  1.00  0.00    -0.003 C 
ATOM     11  C   UNL     1      -2.316  -0.930   8.159  1.00  0.00     0.004 C 
ENDBRANCH   9  10
ENDBRANCH   8   9
ENDBRANCH   7   8
ENDBRANCH   1   7
TORSDOF 7
ENDMDL
MODEL 6
REMARK VINA RESULT:    -3.116      1.482      2.238
REMARK INTER + INTRA:          -4.925
REMARK INTER:                  -4.242
REMARK INTRA:                  -0.683
REMARK UNBOUND:                -0.535
REMARK SMILES CCCCCCCCC(=O)[O-]
REMARK SMILES IDX 6 1 7 2 8 3 9 4 10 5 11 6 5 7 4 8 3 9 2 10 1 11
REMARK H PARENT
REMARK Flexibility Score: inf
ROOT
ATOM      1  C   UNL     1      -2.615  -1.691   9.064  1.00  0.00     0.000 C 
ENDROOT
BRANCH   1   2
ATOM      2  C   UNL     1      -4.039  -1.289   9.480  1.00  0.00     0.006 C 
BRANCH   2   3
ATOM      3  C   UNL     1      -5.082  -2.356   9.119  1.00  0.00     0.053 C 
BRANCH   3   4
ATOM      4  C   UNL     1      -5.364  -3.230  10.299  1.00  0.00     0.041 C 
ATOM      5  O   UNL     1      -4.926  -2.919  11.438  1.00  0.00    -0.550 OA
ATOM      6  O   UNL     1      -6.069  -4.415  10.134  1.00  0.00    -0.550 OA
ENDBRANCH   3   4
ENDBRANCH   2   3
ENDBRANCH   1   2
BRANCH   1   7
ATOM      7  C   UNL     1      -2.163  -1.001   7.764  1.00  0.00     0.000 C 
BRANCH   7   8
ATOM      8  C   UNL     1      -1.869  -2.000   6.634  1.00  0.00    -0.000 C 
BRANCH   8   9
ATOM      9  C   UNL     1      -2.072  -3.462   7.071  1.00  0.00    -0.000 C 
BRANCH   9  10
ATOM     10  C   UNL     1      -3.126  -4.189   6.222  1.00  0.00    -0.003 C 
ATOM     11  C   UNL     1      -3.900  -5.245   7.011  1.00  0.00     0.004 C 
ENDBRANCH   9  10
ENDBRANCH   8   9
ENDBRANCH   7   8
ENDBRANCH   1   7
TORSDOF 7
ENDMDL
MODEL 7
REMARK VINA RESULT:    -3.085      4.491      6.248
REMARK INTER + INTRA:          -4.883
REMARK INTER:                  -4.503
REMARK INTRA:                  -0.380
REMARK UNBOUND:                -0.535
REMARK SMILES CCCCCCCCC(=O)[O-]
REMARK SMILES IDX 6 1 7 2 8 3 9 4 10 5 11 6 5 7 4 8 3 9 2 10 1 11
REMARK H PARENT
REMARK Flexibility Score: inf
ROOT
ATOM      1  C   UNL     1      -1.584  -1.299   6.129  1.00  0.00     0.000 C 
ENDROOT
BRANCH   1   2
ATOM      2  C   UNL     1      -0.398  -2.072   5.530  1.00  0.00     0.006 C 
BRANCH   2   3
ATOM      3  C   UNL     1      -0.075  -1.637   4.094  1.00  0.00     0.053 C 
BRANCH   3   4
ATOM      4  C   UNL     1      -1.310  -1.663   3.251  1.00  0.00     0.041 C 
ATOM      5  O   UNL     1      -1.726  -0.608   2.703  1.00  0.00    -0.550 OA
ATOM      6  O   UNL     1      -2.031  -2.842   3.111  1.00  0.00    -0.550 OA
ENDBRANCH   3   4
ENDBRANCH   2   3
ENDBRANCH   1   2
BRANCH   1   7
ATOM      7  C   UNL     1      -2.313  -2.094   7.227  1.00  0.00     0.000 C 
BRANCH   7   8
ATOM      8  C   UNL     1      -2.200  -3.615   7.031  1.00  0.00    -0.000 C 
BRANCH   8   9
ATOM      9  C   UNL     1      -3.401  -4.203   6.268  1.00  0.00    -0.000 C 
BRANCH   9  10
ATOM     10  C   UNL     1      -3.966  -5.463   6.941  1.00  0.00    -0.003 C 
ATOM     11  C   UNL     1      -3.794  -6.720   6.088  1.00  0.00     0.004 C 
ENDBRANCH   9  10
ENDBRANCH   8   9
ENDBRANCH   7   8
ENDBRANCH   1   7
TORSDOF 7
ENDMDL
MODEL 8
REMARK VINA RESULT:    -3.075      2.069      3.189
REMARK INTER + INTRA:          -4.868
REMARK INTER:                  -4.164
REMARK INTRA:                  -0.704
REMARK UNBOUND:                -0.535
REMARK SMILES CCCCCCCCC(=O)[O-]
REMARK SMILES IDX 6 1 7 2 8 3 9 4 10 5 11 6 5 7 4 8 3 9 2 10 1 11
REMARK H PARENT
REMARK Flexibility Score: inf
ROOT
ATOM      1  C   UNL     1      -4.962  -3.203   7.673  1.00  0.00     0.000 C 
ENDROOT
BRANCH   1   2
ATOM      2  C   UNL     1      -5.139  -3.020   9.189  1.00  0.00     0.006 C 
BRANCH   2   3
ATOM      3  C   UNL     1      -4.632  -1.658   9.682  1.00  0.00     0.053 C 
BRANCH   3   4
ATOM      4  C   UNL     1      -3.507  -1.841  10.650  1.00  0.00     0.041 C 
ATOM      5  O   UNL     1      -2.337  -1.498  10.336  1.00  0.00    -0.550 OA
ATOM      6  O   UNL     1      -3.741  -2.435  11.884  1.00  0.00    -0.550 OA
ENDBRANCH   3   4
ENDBRANCH   2   3
ENDBRANCH   1   2
BRANCH   1   7
ATOM      7  C   UNL     1      -4.270  -4.531   7.315  1.00  0.00     0.000 C 
BRANCH   7   8
ATOM      8  C   UNL     1      -2.978  -4.327   6.509  1.00  0.00    -0.000 C 
BRANCH   8   9
ATOM      9  C   UNL     1      -1.979  -3.395   7.220  1.00  0.00    -0.000 C 
BRANCH   9  10
ATOM     10  C   UNL     1      -1.524  -2.230   6.327  1.00  0.00    -0.003 C 
ATOM     11  C   UNL     1      -2.014  -0.872   6.829  1.00  0.00     0.004 C 
ENDBRANCH   9  10
ENDBRANCH   8   9
ENDBRANCH   7   8
ENDBRANCH   1   7
TORSDOF 7
ENDMDL
MODEL 9
REMARK VINA RESULT:    -3.037      2.513      3.524
REMARK INTER + INTRA:          -4.815
REMARK INTER:                  -4.444
REMARK INTRA:                  -0.371
REMARK UNBOUND:                -0.535
REMARK SMILES CCCCCCCCC(=O)[O-]
REMARK SMILES IDX 6 1 7 2 8 3 9 4 10 5 11 6 5 7 4 8 3 9 2 10 1 11
REMARK H PARENT
REMARK Flexibility Score: inf
ROOT
ATOM      1  C   UNL     1      -2.471  -2.088   7.417  1.00  0.00     0.000 C 
ENDROOT
BRANCH   1   2
ATOM      2  C   UNL     1      -2.567  -1.791   8.922  1.00  0.00     0.006 C 
BRANCH   2   3
ATOM      3  C   UNL     1      -3.998  -1.921   9.459  1.00  0.00     0.053 C 
BRANCH   3   4
ATOM      4  C   UNL     1      -3.990  -1.997  10.953  1.00  0.00     0.041 C 
ATOM      5  O   UNL     1      -3.333  -1.162  11.627  1.00  0.00    -0.550 OA
ATOM      6  O   UNL     1      -4.668  -3.022  11.600  1.00  0.00    -0.550 OA
ENDBRANCH   3   4
ENDBRANCH   2   3
ENDBRANCH   1   2
BRANCH   1   7
ATOM      7  C   UNL     1      -2.086  -3.550   7.127  1.00  0.00     0.000 C 
BRANCH   7   8
ATOM      8  C   UNL     1      -3.139  -4.283   6.281  1.00  0.00    -0.000 C 
BRANCH   8   9
ATOM      9  C   UNL     1      -4.216  -4.968   7.142  1.00  0.00    -0.000 C 
BRANCH   9  10
ATOM     10  C   UNL     1      -4.361  -6.464   6.821  1.00  0.00    -0.003 C 
ATOM     11  C   UNL     1      -3.626  -6.871   5.543  1.00  0.00     0.004 C 
ENDBRANCH   9  10
ENDBRANCH   8   9
ENDBRANCH   7   8
ENDBRANCH   1   7
TORSDOF 7
ENDMDL
