MODEL 1
REMARK VINA RESULT:    -4.795      0.000      0.000
REMARK INTER + INTRA:          -8.493
REMARK INTER:                  -7.318
REMARK INTRA:                  -1.174
REMARK UNBOUND:                -1.174
REMARK SMILES CC(=O)CCC=C(C)CCC=C(C)CCC=C(C)C
REMARK SMILES IDX 10 1 11 2 12 3 13 4 14 5 15 6 16 7 18 8 17 9 19 10 9 11 7 12
REMARK SMILES IDX 6 13 8 14 5 15 4 16 2 17 3 18 1 19
REMARK H PARENT
REMARK Flexibility Score: inf
ROOT
ATOM      1  C   UNL     1      75.984  36.108  52.756  1.00  0.00     0.032 C 
ENDROOT
BRANCH   1   2
ATOM      2  C   UNL     1      74.619  35.504  52.981  1.00  0.00    -0.028 C 
ATOM      3  C   UNL     1      74.359  34.177  52.990  1.00  0.00    -0.077 C 
ATOM      4  C   UNL     1      75.429  33.149  52.708  1.00  0.00     0.039 C 
BRANCH   3   5
ATOM      5  C   UNL     1      72.944  33.709  53.258  1.00  0.00     0.034 C 
BRANCH   5   6
ATOM      6  C   UNL     1      72.326  34.426  54.463  1.00  0.00     0.032 C 
BRANCH   6   7
ATOM      7  C   UNL     1      72.509  33.618  55.728  1.00  0.00    -0.028 C 
ATOM      8  C   UNL     1      71.925  32.650  57.909  1.00  0.00     0.039 C 
ATOM      9  C   UNL     1      71.618  33.551  56.740  1.00  0.00    -0.080 C 
ATOM     10  C   UNL     1      70.333  34.346  56.735  1.00  0.00     0.039 C 
ENDBRANCH   6   7
ENDBRANCH   5   6
ENDBRANCH   3   5
ENDBRANCH   1   2
BRANCH   1  11
ATOM     11  C   UNL     1      76.364  36.125  51.270  1.00  0.00     0.034 C 
BRANCH  11  12
ATOM     12  C   UNL     1      77.859  35.988  51.066  1.00  0.00    -0.077 C 
ATOM     13  C   UNL     1      78.656  35.834  52.147  1.00  0.00    -0.028 C 
ATOM     14  C   UNL     1      78.412  36.002  49.660  1.00  0.00     0.039 C 
BRANCH  13  15
ATOM     15  C   UNL     1      80.162  35.729  52.093  1.00  0.00     0.035 C 
BRANCH  15  16
ATOM     16  C   UNL     1      80.659  34.407  52.691  1.00  0.00     0.079 C 
BRANCH  16  17
ATOM     17  C   UNL     1      80.316  33.234  51.809  1.00  0.00     0.130 C 
ATOM     18  O   UNL     1      80.687  33.228  50.645  1.00  0.00    -0.300 OA
ATOM     19  C   UNL     1      79.526  32.070  52.331  1.00  0.00     0.087 C 
ENDBRANCH  16  17
ENDBRANCH  15  16
ENDBRANCH  13  15
ENDBRANCH  11  12
ENDBRANCH   1  11
TORSDOF 9
ENDMDL
MODEL 2
REMARK VINA RESULT:    -3.821      2.689      8.268
REMARK INTER + INTRA:          -7.006
REMARK INTER:                  -6.487
REMARK INTRA:                  -0.519
REMARK UNBOUND:                -1.174
REMARK SMILES CC(=O)CCC=C(C)CCC=C(C)CCC=C(C)C
REMARK SMILES IDX 10 1 11 2 12 3 13 4 14 5 15 6 16 7 18 8 17 9 19 10 9 11 7 12
REMARK SMILES IDX 6 13 8 14 5 15 4 16 2 17 3 18 1 19
REMARK H PARENT
REMARK Flexibility Score: inf
ROOT
ATOM      1  C   UNL     1      74.422  33.800  52.820  1.00  0.00     0.032 C 
ENDROOT
BRANCH   1   2
ATOM      2  C   UNL     1      75.359  34.892  52.360  1.00  0.00    -0.028 C 
ATOM      3  C   UNL     1      76.635  34.691  51.963  1.00  0.00    -0.077 C 
ATOM      4  C   UNL     1      77.281  33.325  52.001  1.00  0.00     0.039 C 
BRANCH   3   5
ATOM      5  C   UNL     1      77.454  35.877  51.498  1.00  0.00     0.034 C 
BRANCH   5   6
ATOM      6  C   UNL     1      78.958  35.628  51.656  1.00  0.00     0.032 C 
BRANCH   6   7
ATOM      7  C   UNL     1      79.575  35.181  50.351  1.00  0.00    -0.028 C 
ATOM      8  C   UNL     1      80.806  33.723  48.804  1.00  0.00     0.039 C 
ATOM      9  C   UNL     1      80.310  34.060  50.187  1.00  0.00    -0.080 C 
ATOM     10  C   UNL     1      80.647  33.142  51.339  1.00  0.00     0.039 C 
ENDBRANCH   6   7
ENDBRANCH   5   6
ENDBRANCH   3   5
ENDBRANCH   1   2
BRANCH   1  11
ATOM     11  C   UNL     1      72.979  34.305  52.951  1.00  0.00     0.034 C 
BRANCH  11  12
ATOM     12  C   UNL     1      72.649  34.711  54.373  1.00  0.00    -0.077 C 
ATOM     13  C   UNL     1      71.679  34.043  55.038  1.00  0.00    -0.028 C 
ATOM     14  C   UNL     1      73.430  35.834  55.014  1.00  0.00     0.039 C 
BRANCH  13  15
ATOM     15  C   UNL     1      71.220  34.368  56.440  1.00  0.00     0.035 C 
BRANCH  15  16
ATOM     16  C   UNL     1      71.052  33.103  57.289  1.00  0.00     0.079 C 
BRANCH  16  17
ATOM     17  C   UNL     1      72.298  32.793  58.079  1.00  0.00     0.130 C 
ATOM     18  O   UNL     1      73.272  32.326  57.508  1.00  0.00    -0.300 OA
ATOM     19  C   UNL     1      72.368  33.047  59.556  1.00  0.00     0.087 C 
ENDBRANCH  16  17
ENDBRANCH  15  16
ENDBRANCH  13  15
ENDBRANCH  11  12
ENDBRANCH   1  11
TORSDOF 9
ENDMDL
MODEL 3
REMARK VINA RESULT:    -3.567      1.071      2.106
REMARK INTER + INTRA:          -6.618
REMARK INTER:                  -5.727
REMARK INTRA:                  -0.891
REMARK UNBOUND:                -1.174
REMARK SMILES CC(=O)CCC=C(C)CCC=C(C)CCC=C(C)C
REMARK SMILES IDX 10 1 11 2 12 3 13 4 14 5 15 6 16 7 18 8 17 9 19 10 9 11 7 12
REMARK SMILES IDX 6 13 8 14 5 15 4 16 2 17 3 18 1 19
REMARK H PARENT
REMARK Flexibility Score: inf
ROOT
ATOM      1  C   UNL     1      74.251  35.417  52.375  1.00  0.00     0.032 C 
ENDROOT
BRANCH   1   2
ATOM      2  C   UNL     1      73.503  35.616  53.670  1.00  0.00    -0.028 C 
ATOM      3  C   UNL     1      72.881  34.631  54.357  1.00  0.00    -0.077 C 
ATOM      4  C   UNL     1      72.826  33.211  53.846  1.00  0.00     0.039 C 
BRANCH   3   5
ATOM      5  C   UNL     1      72.191  34.970  55.662  1.00  0.00     0.034 C 
BRANCH   5   6
ATOM      6  C   UNL     1      71.114  33.940  56.021  1.00  0.00     0.032 C 
BRANCH   6   7
ATOM      7  C   UNL     1      71.139  33.620  57.498  1.00  0.00    -0.028 C 
ATOM      8  C   UNL     1      72.038  32.781  59.624  1.00  0.00     0.039 C 
ATOM      9  C   UNL     1      72.138  32.970  58.132  1.00  0.00    -0.080 C 
ATOM     10  C   UNL     1      73.343  32.432  57.397  1.00  0.00     0.039 C 
ENDBRANCH   6   7
ENDBRANCH   5   6
ENDBRANCH   3   5
ENDBRANCH   1   2
BRANCH   1  11
ATOM     11  C   UNL     1      75.613  36.125  52.387  1.00  0.00     0.034 C 
BRANCH  11  12
ATOM     12  C   UNL     1      76.688  35.295  51.715  1.00  0.00    -0.077 C 
ATOM     13  C   UNL     1      77.616  35.917  50.953  1.00  0.00    -0.028 C 
ATOM     14  C   UNL     1      76.706  33.801  51.936  1.00  0.00     0.039 C 
BRANCH  13  15
ATOM     15  C   UNL     1      78.715  35.212  50.194  1.00  0.00     0.035 C 
BRANCH  15  16
ATOM     16  C   UNL     1      79.964  35.013  51.060  1.00  0.00     0.079 C 
BRANCH  16  17
ATOM     17  C   UNL     1      80.401  33.570  51.082  1.00  0.00     0.130 C 
ATOM     18  O   UNL     1      80.983  33.103  50.114  1.00  0.00    -0.300 OA
ATOM     19  C   UNL     1      80.137  32.693  52.270  1.00  0.00     0.087 C 
ENDBRANCH  16  17
ENDBRANCH  15  16
ENDBRANCH  13  15
ENDBRANCH  11  12
ENDBRANCH   1  11
TORSDOF 9
ENDMDL
MODEL 4
REMARK VINA RESULT:    -2.235      1.435      2.751
REMARK INTER + INTRA:          -4.585
REMARK INTER:                  -3.760
REMARK INTRA:                  -0.825
REMARK UNBOUND:                -1.174
REMARK SMILES CC(=O)CCC=C(C)CCC=C(C)CCC=C(C)C
REMARK SMILES IDX 10 1 11 2 12 3 13 4 14 5 15 6 16 7 18 8 17 9 19 10 9 11 7 12
REMARK SMILES IDX 6 13 8 14 5 15 4 16 2 17 3 18 1 19
REMARK H PARENT
REMARK Flexibility Score: inf
ROOT
ATOM      1  C   UNL     1      74.698  33.242  52.067  1.00  0.00     0.032 C 
ENDROOT
BRANCH   1   2
ATOM      2  C   UNL     1      74.247  33.960  53.316  1.00  0.00    -0.028 C 
ATOM      3  C   UNL     1      73.534  35.109  53.326  1.00  0.00    -0.077 C 
ATOM      4  C   UNL     1      73.163  35.832  52.053  1.00  0.00     0.039 C 
BRANCH   3   5
ATOM      5  C   UNL     1      73.123  35.705  54.656  1.00  0.00     0.034 C 
BRANCH   5   6
ATOM      6  C   UNL     1      73.044  34.641  55.757  1.00  0.00     0.032 C 
BRANCH   6   7
ATOM      7  C   UNL     1      71.613  34.395  56.173  1.00  0.00    -0.028 C 
ATOM      8  C   UNL     1      69.760  33.487  57.507  1.00  0.00     0.039 C 
ATOM      9  C   UNL     1      71.228  33.577  57.177  1.00  0.00    -0.080 C 
ATOM     10  C   UNL     1      72.218  32.757  57.971  1.00  0.00     0.039 C 
ENDBRANCH   6   7
ENDBRANCH   5   6
ENDBRANCH   3   5
ENDBRANCH   1   2
BRANCH   1  11
ATOM     11  C   UNL     1      76.114  32.668  52.218  1.00  0.00     0.034 C 
BRANCH  11  12
ATOM     12  C   UNL     1      77.177  33.737  52.063  1.00  0.00    -0.077 C 
ATOM     13  C   UNL     1      76.806  34.979  51.679  1.00  0.00    -0.028 C 
ATOM     14  C   UNL     1      78.615  33.389  52.366  1.00  0.00     0.039 C 
BRANCH  13  15
ATOM     15  C   UNL     1      77.762  36.125  51.445  1.00  0.00     0.035 C 
BRANCH  15  16
ATOM     16  C   UNL     1      78.370  36.078  50.038  1.00  0.00     0.079 C 
BRANCH  16  17
ATOM     17  C   UNL     1      79.778  35.540  50.058  1.00  0.00     0.130 C 
ATOM     18  O   UNL     1      80.548  35.902  50.935  1.00  0.00    -0.300 OA
ATOM     19  C   UNL     1      80.256  34.565  49.022  1.00  0.00     0.087 C 
ENDBRANCH  16  17
ENDBRANCH  15  16
ENDBRANCH  13  15
ENDBRANCH  11  12
ENDBRANCH   1  11
TORSDOF 9
ENDMDL
MODEL 5
REMARK VINA RESULT:    -2.231      1.400      1.882
REMARK INTER + INTRA:          -4.579
REMARK INTER:                  -5.046
REMARK INTRA:                   0.467
REMARK UNBOUND:                -1.174
REMARK SMILES CC(=O)CCC=C(C)CCC=C(C)CCC=C(C)C
REMARK SMILES IDX 10 1 11 2 12 3 13 4 14 5 15 6 16 7 18 8 17 9 19 10 9 11 7 12
REMARK SMILES IDX 6 13 8 14 5 15 4 16 2 17 3 18 1 19
REMARK H PARENT
REMARK Flexibility Score: inf
ROOT
ATOM      1  C   UNL     1      75.913  35.371  52.390  1.00  0.00     0.032 C 
ENDROOT
BRANCH   1   2
ATOM      2  C   UNL     1      74.442  35.131  52.633  1.00  0.00    -0.028 C 
ATOM      3  C   UNL     1      73.922  33.979  53.114  1.00  0.00    -0.077 C 
ATOM      4  C   UNL     1      74.782  32.772  53.405  1.00  0.00     0.039 C 
BRANCH   3   5
ATOM      5  C   UNL     1      72.427  33.887  53.337  1.00  0.00     0.034 C 
BRANCH   5   6
ATOM      6  C   UNL     1      72.003  34.569  54.642  1.00  0.00     0.032 C 
BRANCH   6   7
ATOM      7  C   UNL     1      72.393  33.736  55.842  1.00  0.00    -0.028 C 
ATOM      8  C   UNL     1      72.129  32.623  58.016  1.00  0.00     0.039 C 
ATOM      9  C   UNL     1      71.616  33.531  56.928  1.00  0.00    -0.080 C 
ATOM     10  C   UNL     1      70.260  34.180  57.082  1.00  0.00     0.039 C 
ENDBRANCH   6   7
ENDBRANCH   5   6
ENDBRANCH   3   5
ENDBRANCH   1   2
BRANCH   1  11
ATOM     11  C   UNL     1      76.626  34.103  51.904  1.00  0.00     0.034 C 
BRANCH  11  12
ATOM     12  C   UNL     1      78.100  34.346  51.647  1.00  0.00    -0.077 C 
ATOM     13  C   UNL     1      78.463  35.338  50.804  1.00  0.00    -0.028 C 
ATOM     14  C   UNL     1      79.119  33.488  52.359  1.00  0.00     0.039 C 
BRANCH  13  15
ATOM     15  C   UNL     1      79.889  35.662  50.425  1.00  0.00     0.035 C 
BRANCH  15  16
ATOM     16  C   UNL     1      80.230  35.160  49.017  1.00  0.00     0.079 C 
BRANCH  16  17
ATOM     17  C   UNL     1      80.548  33.686  49.014  1.00  0.00     0.130 C 
ATOM     18  O   UNL     1      80.284  33.016  48.027  1.00  0.00    -0.300 OA
ATOM     19  C   UNL     1      81.185  33.024  50.200  1.00  0.00     0.087 C 
ENDBRANCH  16  17
ENDBRANCH  15  16
ENDBRANCH  13  15
ENDBRANCH  11  12
ENDBRANCH   1  11
TORSDOF 9
ENDMDL
MODEL 6
REMARK VINA RESULT:    -2.140     14.778     17.112
REMARK INTER + INTRA:          -4.440
REMARK INTER:                  -4.211
REMARK INTRA:                  -0.229
REMARK UNBOUND:                -1.174
REMARK SMILES CC(=O)CCC=C(C)CCC=C(C)CCC=C(C)C
REMARK SMILES IDX 10 1 11 2 12 3 13 4 14 5 15 6 16 7 18 8 17 9 19 10 9 11 7 12
REMARK SMILES IDX 6 13 8 14 5 15 4 16 2 17 3 18 1 19
REMARK H PARENT
REMARK Flexibility Score: inf
ROOT
ATOM      1  C   UNL     1      83.158  31.069  65.203  1.00  0.00     0.032 C 
ENDROOT
BRANCH   1   2
ATOM      2  C   UNL     1      84.439  31.403  65.929  1.00  0.00    -0.028 C 
ATOM      3  C   UNL     1      84.509  31.815  67.215  1.00  0.00    -0.077 C 
ATOM      4  C   UNL     1      83.271  32.043  68.050  1.00  0.00     0.039 C 
BRANCH   3   5
ATOM      5  C   UNL     1      85.868  32.088  67.825  1.00  0.00     0.034 C 
BRANCH   5   6
ATOM      6  C   UNL     1      87.005  31.769  66.847  1.00  0.00     0.032 C 
BRANCH   6   7
ATOM      7  C   UNL     1      87.695  33.032  66.386  1.00  0.00    -0.028 C 
ATOM      8  C   UNL     1      88.125  35.001  64.981  1.00  0.00     0.039 C 
ATOM      9  C   UNL     1      87.378  33.724  65.270  1.00  0.00    -0.080 C 
ATOM     10  C   UNL     1      86.306  33.259  64.312  1.00  0.00     0.039 C 
ENDBRANCH   6   7
ENDBRANCH   5   6
ENDBRANCH   3   5
ENDBRANCH   1   2
BRANCH   1  11
ATOM     11  C   UNL     1      83.364  29.961  64.161  1.00  0.00     0.034 C 
BRANCH  11  12
ATOM     12  C   UNL     1      84.420  28.965  64.596  1.00  0.00    -0.077 C 
ATOM     13  C   UNL     1      85.680  29.401  64.822  1.00  0.00    -0.028 C 
ATOM     14  C   UNL     1      84.028  27.519  64.788  1.00  0.00     0.039 C 
BRANCH  13  15
ATOM     15  C   UNL     1      86.836  28.514  65.218  1.00  0.00     0.035 C 
BRANCH  15  16
ATOM     16  C   UNL     1      87.638  28.050  63.996  1.00  0.00     0.079 C 
BRANCH  16  17
ATOM     17  C   UNL     1      87.915  26.569  64.043  1.00  0.00     0.130 C 
ATOM     18  O   UNL     1      88.125  26.030  65.120  1.00  0.00    -0.300 OA
ATOM     19  C   UNL     1      87.939  25.739  62.793  1.00  0.00     0.087 C 
ENDBRANCH  16  17
ENDBRANCH  15  16
ENDBRANCH  13  15
ENDBRANCH  11  12
ENDBRANCH   1  11
TORSDOF 9
ENDMDL
