MODEL 1
REMARK VINA RESULT:    -6.316      0.000      0.000
REMARK INTER + INTRA:         -11.005
REMARK INTER:                  -9.639
REMARK INTRA:                  -1.366
REMARK UNBOUND:                -1.366
REMARK SMILES OC[C@@H]1O[C@H](O[C@]2(CO)O[C@H](CO)[C@H](O)[C@H]2O)[C@@H](O)[C@H](O)[C@@H]1O
REMARK SMILES IDX 6 1 5 2 3 3 22 4 4 5 20 6 18 7 2 8 1 9 23 11 21 13 19 15
REMARK SMILES IDX 7 17 16 18 10 19 14 20 11 21 8 22 9 23 17 25 15 27 12 29
REMARK SMILES IDX 13 30
REMARK H PARENT 1 10 23 12 21 14 19 16 9 24 17 26 15 28 13 31
REMARK Flexibility Score: inf
ROOT
ATOM      1  O   UNL     1     115.311 110.158 122.633  1.00  0.00    -0.313 OA
ENDROOT
BRANCH   1   2
ATOM      2  C   UNL     1     114.014 109.574 122.600  1.00  0.00     0.285 C 
ATOM      3  C   UNL     1     112.587 108.320 121.235  1.00  0.00     0.178 C 
ATOM      4  C   UNL     1     113.051 106.914 121.706  1.00  0.00     0.177 C 
ATOM      5  O   UNL     1     113.688 109.205 121.264  1.00  0.00    -0.341 OA
ATOM      6  C   UNL     1     114.162 107.026 122.794  1.00  0.00     0.179 C 
ATOM      7  C   UNL     1     114.030 108.348 123.574  1.00  0.00     0.202 C 
BRANCH   3   8
ATOM      8  C   UNL     1     111.966 108.314 119.827  1.00  0.00     0.191 C 
BRANCH   8   9
ATOM      9  O   UNL     1     111.012 107.291 119.720  1.00  0.00    -0.394 OA
ATOM     10  H   UNL     1     111.234 106.618 120.416  1.00  0.00     0.210 HD
ENDBRANCH   8   9
ENDBRANCH   3   8
BRANCH   4  11
ATOM     11  O   UNL     1     113.468 106.093 120.637  1.00  0.00    -0.387 OA
ATOM     12  H   UNL     1     112.991 105.226 120.714  1.00  0.00     0.211 HD
ENDBRANCH   4  11
BRANCH   6  13
ATOM     13  O   UNL     1     115.446 106.976 122.218  1.00  0.00    -0.387 OA
ATOM     14  H   UNL     1     115.886 106.154 122.558  1.00  0.00     0.211 HD
ENDBRANCH   6  13
BRANCH   7  15
ATOM     15  O   UNL     1     112.852 108.316 124.342  1.00  0.00    -0.385 OA
ATOM     16  H   UNL     1     112.645 107.361 124.510  1.00  0.00     0.211 HD
ENDBRANCH   7  15
ENDBRANCH   1   2
BRANCH   1  17
ATOM     17  C   UNL     1     115.488 111.267 123.519  1.00  0.00     0.224 C 
ATOM     18  C   UNL     1     114.157 111.866 124.029  1.00  0.00     0.208 C 
ATOM     19  O   UNL     1     116.163 110.762 124.657  1.00  0.00    -0.337 OA
ATOM     20  C   UNL     1     114.502 112.310 125.421  1.00  0.00     0.180 C 
ATOM     21  C   UNL     1     115.565 111.287 125.829  1.00  0.00     0.179 C 
BRANCH  17  22
ATOM     22  C   UNL     1     116.433 112.336 122.902  1.00  0.00     0.225 C 
BRANCH  22  23
ATOM     23  O   UNL     1     115.954 112.744 121.645  1.00  0.00    -0.391 OA
ATOM     24  H   UNL     1     114.968 112.671 121.673  1.00  0.00     0.210 HD
ENDBRANCH  22  23
ENDBRANCH  17  22
BRANCH  18  25
ATOM     25  O   UNL     1     113.713 112.944 123.244  1.00  0.00    -0.385 OA
ATOM     26  H   UNL     1     113.307 113.600 123.870  1.00  0.00     0.211 HD
ENDBRANCH  18  25
BRANCH  20  27
ATOM     27  O   UNL     1     113.366 112.306 126.248  1.00  0.00    -0.387 OA
ATOM     28  H   UNL     1     113.046 111.363 126.279  1.00  0.00     0.211 HD
ENDBRANCH  20  27
BRANCH  21  29
ATOM     29  C   UNL     1     115.010 110.121 126.670  1.00  0.00     0.191 C 
BRANCH  29  30
ATOM     30  O   UNL     1     114.979 110.471 128.030  1.00  0.00    -0.394 OA
ATOM     31  H   UNL     1     114.104 110.158 128.382  1.00  0.00     0.210 HD
ENDBRANCH  29  30
ENDBRANCH  21  29
ENDBRANCH   1  17
TORSDOF 13
ENDMDL
MODEL 2
REMARK VINA RESULT:    -6.221      3.074      4.771
REMARK INTER + INTRA:         -10.861
REMARK INTER:                  -9.414
REMARK INTRA:                  -1.447
REMARK UNBOUND:                -1.366
REMARK SMILES OC[C@@H]1O[C@H](O[C@]2(CO)O[C@H](CO)[C@H](O)[C@H]2O)[C@@H](O)[C@H](O)[C@@H]1O
REMARK SMILES IDX 6 1 5 2 3 3 22 4 4 5 20 6 18 7 2 8 1 9 23 11 21 13 19 15
REMARK SMILES IDX 7 17 16 18 10 19 14 20 11 21 8 22 9 23 17 25 15 27 12 29
REMARK SMILES IDX 13 30
REMARK H PARENT 1 10 23 12 21 14 19 16 9 24 17 26 15 28 13 31
REMARK Flexibility Score: inf
ROOT
ATOM      1  O   UNL     1     111.446 110.198 120.986  1.00  0.00    -0.313 OA
ENDROOT
BRANCH   1   2
ATOM      2  C   UNL     1     112.330 109.470 120.141  1.00  0.00     0.285 C 
ATOM      3  C   UNL     1     112.440 107.576 118.774  1.00  0.00     0.178 C 
ATOM      4  C   UNL     1     111.973 108.258 117.457  1.00  0.00     0.177 C 
ATOM      5  O   UNL     1     111.784 108.185 119.868  1.00  0.00    -0.341 OA
ATOM      6  C   UNL     1     111.690 109.774 117.681  1.00  0.00     0.179 C 
ATOM      7  C   UNL     1     112.540 110.322 118.844  1.00  0.00     0.202 C 
BRANCH   3   8
ATOM      8  C   UNL     1     112.182 106.060 118.795  1.00  0.00     0.191 C 
BRANCH   8   9
ATOM      9  O   UNL     1     111.679 105.668 120.045  1.00  0.00    -0.394 OA
ATOM     10  H   UNL     1     110.691 105.759 119.998  1.00  0.00     0.210 HD
ENDBRANCH   8   9
ENDBRANCH   3   8
BRANCH   4  11
ATOM     11  O   UNL     1     110.860 107.614 116.877  1.00  0.00    -0.387 OA
ATOM     12  H   UNL     1     110.179 108.306 116.672  1.00  0.00     0.211 HD
ENDBRANCH   4  11
BRANCH   6  13
ATOM     13  O   UNL     1     110.332 110.000 117.980  1.00  0.00    -0.387 OA
ATOM     14  H   UNL     1     109.799 109.528 117.288  1.00  0.00     0.211 HD
ENDBRANCH   6  13
BRANCH   7  15
ATOM     15  O   UNL     1     113.895 110.316 118.467  1.00  0.00    -0.385 OA
ATOM     16  H   UNL     1     114.404 110.718 119.218  1.00  0.00     0.211 HD
ENDBRANCH   7  15
ENDBRANCH   1   2
BRANCH   1  17
ATOM     17  C   UNL     1     111.750 110.193 122.383  1.00  0.00     0.224 C 
ATOM     18  C   UNL     1     110.875 109.214 123.200  1.00  0.00     0.208 C 
ATOM     19  O   UNL     1     113.084 109.729 122.497  1.00  0.00    -0.337 OA
ATOM     20  C   UNL     1     111.814 108.742 124.273  1.00  0.00     0.180 C 
ATOM     21  C   UNL     1     113.168 108.796 123.558  1.00  0.00     0.179 C 
BRANCH  17  22
ATOM     22  C   UNL     1     111.748 111.634 122.967  1.00  0.00     0.225 C 
BRANCH  22  23
ATOM     23  O   UNL     1     110.689 112.380 122.421  1.00  0.00    -0.391 OA
ATOM     24  H   UNL     1     111.040 113.285 122.231  1.00  0.00     0.210 HD
ENDBRANCH  22  23
ENDBRANCH  17  22
BRANCH  18  25
ATOM     25  O   UNL     1     109.741 109.834 123.752  1.00  0.00    -0.385 OA
ATOM     26  H   UNL     1     109.778 109.671 124.731  1.00  0.00     0.211 HD
ENDBRANCH  18  25
BRANCH  20  27
ATOM     27  O   UNL     1     111.462 107.458 124.722  1.00  0.00    -0.387 OA
ATOM     28  H   UNL     1     110.808 107.100 124.061  1.00  0.00     0.211 HD
ENDBRANCH  20  27
BRANCH  21  29
ATOM     29  C   UNL     1     113.621 107.436 122.992  1.00  0.00     0.191 C 
BRANCH  29  30
ATOM     30  O   UNL     1     112.552 106.796 122.344  1.00  0.00    -0.394 OA
ATOM     31  H   UNL     1     111.730 107.041 122.846  1.00  0.00     0.210 HD
ENDBRANCH  29  30
ENDBRANCH  21  29
ENDBRANCH   1  17
TORSDOF 13
ENDMDL
MODEL 3
REMARK VINA RESULT:    -6.214      1.689      5.907
REMARK INTER + INTRA:         -10.850
REMARK INTER:                  -9.933
REMARK INTRA:                  -0.917
REMARK UNBOUND:                -1.366
REMARK SMILES OC[C@@H]1O[C@H](O[C@]2(CO)O[C@H](CO)[C@H](O)[C@H]2O)[C@@H](O)[C@H](O)[C@@H]1O
REMARK SMILES IDX 6 1 5 2 3 3 22 4 4 5 20 6 18 7 2 8 1 9 23 11 21 13 19 15
REMARK SMILES IDX 7 17 16 18 10 19 14 20 11 21 8 22 9 23 17 25 15 27 12 29
REMARK SMILES IDX 13 30
REMARK H PARENT 1 10 23 12 21 14 19 16 9 24 17 26 15 28 13 31
REMARK Flexibility Score: inf
ROOT
ATOM      1  O   UNL     1     112.565 109.978 124.129  1.00  0.00    -0.313 OA
ENDROOT
BRANCH   1   2
ATOM      2  C   UNL     1     113.971 110.169 124.014  1.00  0.00     0.285 C 
ATOM      3  C   UNL     1     115.585 111.812 123.605  1.00  0.00     0.178 C 
ATOM      4  C   UNL     1     115.788 112.258 125.080  1.00  0.00     0.177 C 
ATOM      5  O   UNL     1     114.236 111.434 123.418  1.00  0.00    -0.341 OA
ATOM      6  C   UNL     1     114.881 111.436 126.044  1.00  0.00     0.179 C 
ATOM      7  C   UNL     1     114.575 110.046 125.454  1.00  0.00     0.202 C 
BRANCH   3   8
ATOM      8  C   UNL     1     115.963 112.899 122.585  1.00  0.00     0.191 C 
BRANCH   8   9
ATOM      9  O   UNL     1     117.296 112.744 122.178  1.00  0.00    -0.394 OA
ATOM     10  H   UNL     1     117.746 113.616 122.331  1.00  0.00     0.210 HD
ENDBRANCH   8   9
ENDBRANCH   3   8
BRANCH   4  11
ATOM     11  O   UNL     1     115.596 113.644 125.260  1.00  0.00    -0.387 OA
ATOM     12  H   UNL     1     115.382 114.040 124.375  1.00  0.00     0.211 HD
ENDBRANCH   4  11
BRANCH   6  13
ATOM     13  O   UNL     1     113.660 112.096 126.281  1.00  0.00    -0.387 OA
ATOM     14  H   UNL     1     113.356 112.468 125.412  1.00  0.00     0.211 HD
ENDBRANCH   6  13
BRANCH   7  15
ATOM     15  O   UNL     1     115.759 109.286 125.425  1.00  0.00    -0.385 OA
ATOM     16  H   UNL     1     116.490 109.903 125.162  1.00  0.00     0.211 HD
ENDBRANCH   7  15
ENDBRANCH   1   2
BRANCH   1  17
ATOM     17  C   UNL     1     112.011 108.876 123.405  1.00  0.00     0.224 C 
ATOM     18  C   UNL     1     112.129 109.026 121.870  1.00  0.00     0.208 C 
ATOM     19  O   UNL     1     112.782 107.741 123.757  1.00  0.00    -0.337 OA
ATOM     20  C   UNL     1     112.322 107.610 121.410  1.00  0.00     0.180 C 
ATOM     21  C   UNL     1     113.069 106.989 122.593  1.00  0.00     0.179 C 
BRANCH  17  22
ATOM     22  C   UNL     1     110.560 108.568 123.870  1.00  0.00     0.225 C 
BRANCH  22  23
ATOM     23  O   UNL     1     110.124 109.540 124.786  1.00  0.00    -0.391 OA
ATOM     24  H   UNL     1     110.393 109.231 125.687  1.00  0.00     0.210 HD
ENDBRANCH  22  23
ENDBRANCH  17  22
BRANCH  18  25
ATOM     25  O   UNL     1     110.983 109.599 121.293  1.00  0.00    -0.385 OA
ATOM     26  H   UNL     1     110.437 109.956 122.042  1.00  0.00     0.211 HD
ENDBRANCH  18  25
BRANCH  20  27
ATOM     27  O   UNL     1     113.038 107.566 120.201  1.00  0.00    -0.387 OA
ATOM     28  H   UNL     1     112.470 107.060 119.558  1.00  0.00     0.211 HD
ENDBRANCH  20  27
BRANCH  21  29
ATOM     29  C   UNL     1     114.597 106.934 122.398  1.00  0.00     0.191 C 
BRANCH  29  30
ATOM     30  O   UNL     1     114.967 105.735 121.769  1.00  0.00    -0.394 OA
ATOM     31  H   UNL     1     115.565 105.257 122.402  1.00  0.00     0.210 HD
ENDBRANCH  29  30
ENDBRANCH  21  29
ENDBRANCH   1  17
TORSDOF 13
ENDMDL
MODEL 4
REMARK VINA RESULT:    -6.092      2.400      4.498
REMARK INTER + INTRA:         -10.663
REMARK INTER:                  -9.250
REMARK INTRA:                  -1.413
REMARK UNBOUND:                -1.366
REMARK SMILES OC[C@@H]1O[C@H](O[C@]2(CO)O[C@H](CO)[C@H](O)[C@H]2O)[C@@H](O)[C@H](O)[C@@H]1O
REMARK SMILES IDX 6 1 5 2 3 3 22 4 4 5 20 6 18 7 2 8 1 9 23 11 21 13 19 15
REMARK SMILES IDX 7 17 16 18 10 19 14 20 11 21 8 22 9 23 17 25 15 27 12 29
REMARK SMILES IDX 13 30
REMARK H PARENT 1 10 23 12 21 14 19 16 9 24 17 26 15 28 13 31
REMARK Flexibility Score: inf
ROOT
ATOM      1  O   UNL     1     112.391 110.339 121.601  1.00  0.00    -0.313 OA
ENDROOT
BRANCH   1   2
ATOM      2  C   UNL     1     112.989 109.719 120.468  1.00  0.00     0.285 C 
ATOM      3  C   UNL     1     112.546 108.205 118.742  1.00  0.00     0.178 C 
ATOM      4  C   UNL     1     112.002 109.235 117.713  1.00  0.00     0.177 C 
ATOM      5  O   UNL     1     112.190 108.620 120.045  1.00  0.00    -0.341 OA
ATOM      6  C   UNL     1     112.028 110.679 118.299  1.00  0.00     0.179 C 
ATOM      7  C   UNL     1     113.135 110.817 119.362  1.00  0.00     0.202 C 
BRANCH   3   8
ATOM      8  C   UNL     1     112.033 106.776 118.496  1.00  0.00     0.191 C 
BRANCH   8   9
ATOM      9  O   UNL     1     112.984 105.836 118.924  1.00  0.00    -0.394 OA
ATOM     10  H   UNL     1     112.507 105.195 119.513  1.00  0.00     0.210 HD
ENDBRANCH   8   9
ENDBRANCH   3   8
BRANCH   4  11
ATOM     11  O   UNL     1     110.715 108.903 117.239  1.00  0.00    -0.387 OA
ATOM     12  H   UNL     1     110.617 109.284 116.327  1.00  0.00     0.211 HD
ENDBRANCH   4  11
BRANCH   6  13
ATOM     13  O   UNL     1     110.796 111.009 118.896  1.00  0.00    -0.387 OA
ATOM     14  H   UNL     1     110.375 111.708 118.330  1.00  0.00     0.211 HD
ENDBRANCH   6  13
BRANCH   7  15
ATOM     15  O   UNL     1     114.391 110.719 118.735  1.00  0.00    -0.385 OA
ATOM     16  H   UNL     1     115.040 110.447 119.434  1.00  0.00     0.211 HD
ENDBRANCH   7  15
ENDBRANCH   1   2
BRANCH   1  17
ATOM     17  C   UNL     1     112.944 110.003 122.877  1.00  0.00     0.224 C 
ATOM     18  C   UNL     1     112.037 109.074 123.716  1.00  0.00     0.208 C 
ATOM     19  O   UNL     1     114.131 109.275 122.616  1.00  0.00    -0.337 OA
ATOM     20  C   UNL     1     113.026 108.229 124.466  1.00  0.00     0.180 C 
ATOM     21  C   UNL     1     114.195 108.155 123.480  1.00  0.00     0.179 C 
BRANCH  17  22
ATOM     22  C   UNL     1     113.386 111.275 123.654  1.00  0.00     0.225 C 
BRANCH  22  23
ATOM     23  O   UNL     1     112.339 112.213 123.690  1.00  0.00    -0.391 OA
ATOM     24  H   UNL     1     112.735 113.097 123.493  1.00  0.00     0.210 HD
ENDBRANCH  22  23
ENDBRANCH  17  22
BRANCH  18  25
ATOM     25  O   UNL     1     111.202 109.784 124.596  1.00  0.00    -0.385 OA
ATOM     26  H   UNL     1     111.746 109.985 125.402  1.00  0.00     0.211 HD
ENDBRANCH  18  25
BRANCH  20  27
ATOM     27  O   UNL     1     112.477 106.975 124.787  1.00  0.00    -0.387 OA
ATOM     28  H   UNL     1     111.489 107.072 124.701  1.00  0.00     0.211 HD
ENDBRANCH  20  27
BRANCH  21  29
ATOM     29  C   UNL     1     114.207 106.870 122.630  1.00  0.00     0.191 C 
BRANCH  29  30
ATOM     30  O   UNL     1     112.953 106.670 122.030  1.00  0.00    -0.394 OA
ATOM     31  H   UNL     1     112.278 106.732 122.757  1.00  0.00     0.210 HD
ENDBRANCH  29  30
ENDBRANCH  21  29
ENDBRANCH   1  17
TORSDOF 13
ENDMDL
MODEL 5
REMARK VINA RESULT:    -6.057      2.253      4.691
REMARK INTER + INTRA:         -10.610
REMARK INTER:                  -9.323
REMARK INTRA:                  -1.287
REMARK UNBOUND:                -1.366
REMARK SMILES OC[C@@H]1O[C@H](O[C@]2(CO)O[C@H](CO)[C@H](O)[C@H]2O)[C@@H](O)[C@H](O)[C@@H]1O
REMARK SMILES IDX 6 1 5 2 3 3 22 4 4 5 20 6 18 7 2 8 1 9 23 11 21 13 19 15
REMARK SMILES IDX 7 17 16 18 10 19 14 20 11 21 8 22 9 23 17 25 15 27 12 29
REMARK SMILES IDX 13 30
REMARK H PARENT 1 10 23 12 21 14 19 16 9 24 17 26 15 28 13 31
REMARK Flexibility Score: inf
ROOT
ATOM      1  O   UNL     1     111.633 110.068 121.270  1.00  0.00    -0.313 OA
ENDROOT
BRANCH   1   2
ATOM      2  C   UNL     1     112.452 109.378 120.334  1.00  0.00     0.285 C 
ATOM      3  C   UNL     1     112.398 107.668 118.738  1.00  0.00     0.178 C 
ATOM      4  C   UNL     1     111.995 108.549 117.522  1.00  0.00     0.177 C 
ATOM      5  O   UNL     1     111.796 108.190 119.906  1.00  0.00    -0.341 OA
ATOM      6  C   UNL     1     111.846 110.043 117.937  1.00  0.00     0.179 C 
ATOM      7  C   UNL     1     112.738 110.364 119.151  1.00  0.00     0.202 C 
BRANCH   3   8
ATOM      8  C   UNL     1     112.007 106.190 118.571  1.00  0.00     0.191 C 
BRANCH   8   9
ATOM      9  O   UNL     1     113.138 105.369 118.701  1.00  0.00    -0.394 OA
ATOM     10  H   UNL     1     112.806 104.451 118.881  1.00  0.00     0.210 HD
ENDBRANCH   8   9
ENDBRANCH   3   8
BRANCH   4  11
ATOM     11  O   UNL     1     110.831 108.082 116.875  1.00  0.00    -0.387 OA
ATOM     12  H   UNL     1     110.513 108.799 116.266  1.00  0.00     0.211 HD
ENDBRANCH   4  11
BRANCH   6  13
ATOM     13  O   UNL     1     110.513 110.348 118.273  1.00  0.00    -0.387 OA
ATOM     14  H   UNL     1     110.484 110.487 119.256  1.00  0.00     0.211 HD
ENDBRANCH   6  13
BRANCH   7  15
ATOM     15  O   UNL     1     114.089 110.288 118.765  1.00  0.00    -0.385 OA
ATOM     16  H   UNL     1     114.543 109.700 119.422  1.00  0.00     0.211 HD
ENDBRANCH   7  15
ENDBRANCH   1   2
BRANCH   1  17
ATOM     17  C   UNL     1     112.092 110.088 122.625  1.00  0.00     0.224 C 
ATOM     18  C   UNL     1     112.814 108.789 123.049  1.00  0.00     0.208 C 
ATOM     19  O   UNL     1     113.053 111.125 122.703  1.00  0.00    -0.337 OA
ATOM     20  C   UNL     1     113.859 109.285 124.007  1.00  0.00     0.180 C 
ATOM     21  C   UNL     1     114.170 110.676 123.448  1.00  0.00     0.179 C 
BRANCH  17  22
ATOM     22  C   UNL     1     110.951 110.489 123.601  1.00  0.00     0.225 C 
BRANCH  22  23
ATOM     23  O   UNL     1     109.752 109.853 123.239  1.00  0.00    -0.391 OA
ATOM     24  H   UNL     1     109.013 110.383 123.628  1.00  0.00     0.210 HD
ENDBRANCH  22  23
ENDBRANCH  17  22
BRANCH  18  25
ATOM     25  O   UNL     1     111.952 107.867 123.667  1.00  0.00    -0.385 OA
ATOM     26  H   UNL     1     111.535 107.338 122.938  1.00  0.00     0.211 HD
ENDBRANCH  18  25
BRANCH  20  27
ATOM     27  O   UNL     1     114.970 108.424 124.033  1.00  0.00    -0.387 OA
ATOM     28  H   UNL     1     115.030 108.073 124.963  1.00  0.00     0.211 HD
ENDBRANCH  20  27
BRANCH  21  29
ATOM     29  C   UNL     1     115.419 110.715 122.547  1.00  0.00     0.191 C 
BRANCH  29  30
ATOM     30  O   UNL     1     115.138 111.394 121.350  1.00  0.00    -0.394 OA
ATOM     31  H   UNL     1     115.479 110.821 120.614  1.00  0.00     0.210 HD
ENDBRANCH  29  30
ENDBRANCH  21  29
ENDBRANCH   1  17
TORSDOF 13
ENDMDL
MODEL 6
REMARK VINA RESULT:    -6.044      1.383      2.043
REMARK INTER + INTRA:         -10.590
REMARK INTER:                  -9.460
REMARK INTRA:                  -1.129
REMARK UNBOUND:                -1.366
REMARK SMILES OC[C@@H]1O[C@H](O[C@]2(CO)O[C@H](CO)[C@H](O)[C@H]2O)[C@@H](O)[C@H](O)[C@@H]1O
REMARK SMILES IDX 6 1 5 2 3 3 22 4 4 5 20 6 18 7 2 8 1 9 23 11 21 13 19 15
REMARK SMILES IDX 7 17 16 18 10 19 14 20 11 21 8 22 9 23 17 25 15 27 12 29
REMARK SMILES IDX 13 30
REMARK H PARENT 1 10 23 12 21 14 19 16 9 24 17 26 15 28 13 31
REMARK Flexibility Score: inf
ROOT
ATOM      1  O   UNL     1     114.122 110.395 122.167  1.00  0.00    -0.313 OA
ENDROOT
BRANCH   1   2
ATOM      2  C   UNL     1     113.912 109.116 122.752  1.00  0.00     0.285 C 
ATOM      3  C   UNL     1     112.228 107.584 123.294  1.00  0.00     0.178 C 
ATOM      4  C   UNL     1     112.229 106.809 121.946  1.00  0.00     0.177 C 
ATOM      5  O   UNL     1     112.530 108.943 123.046  1.00  0.00    -0.341 OA
ATOM      6  C   UNL     1     113.290 107.392 120.965  1.00  0.00     0.179 C 
ATOM      7  C   UNL     1     114.448 108.048 121.740  1.00  0.00     0.202 C 
BRANCH   3   8
ATOM      8  C   UNL     1     110.894 107.481 124.052  1.00  0.00     0.191 C 
BRANCH   8   9
ATOM      9  O   UNL     1     109.992 108.449 123.587  1.00  0.00    -0.394 OA
ATOM     10  H   UNL     1     109.119 108.259 124.020  1.00  0.00     0.210 HD
ENDBRANCH   8   9
ENDBRANCH   3   8
BRANCH   4  11
ATOM     11  O   UNL     1     110.953 106.764 121.346  1.00  0.00    -0.387 OA
ATOM     12  H   UNL     1     110.587 107.687 121.334  1.00  0.00     0.211 HD
ENDBRANCH   4  11
BRANCH   6  13
ATOM     13  O   UNL     1     112.721 108.360 120.115  1.00  0.00    -0.387 OA
ATOM     14  H   UNL     1     113.379 109.099 120.034  1.00  0.00     0.211 HD
ENDBRANCH   6  13
BRANCH   7  15
ATOM     15  O   UNL     1     115.173 107.051 122.418  1.00  0.00    -0.385 OA
ATOM     16  H   UNL     1     115.879 107.513 122.940  1.00  0.00     0.211 HD
ENDBRANCH   7  15
ENDBRANCH   1   2
BRANCH   1  17
ATOM     17  C   UNL     1     114.622 111.418 123.032  1.00  0.00     0.224 C 
ATOM     18  C   UNL     1     113.522 112.099 123.880  1.00  0.00     0.208 C 
ATOM     19  O   UNL     1     115.491 110.775 123.946  1.00  0.00    -0.337 OA
ATOM     20  C   UNL     1     114.235 112.411 125.164  1.00  0.00     0.180 C 
ATOM     21  C   UNL     1     115.250 111.268 125.251  1.00  0.00     0.179 C 
BRANCH  17  22
ATOM     22  C   UNL     1     115.499 112.438 122.253  1.00  0.00     0.225 C 
BRANCH  22  23
ATOM     23  O   UNL     1     116.824 111.979 122.170  1.00  0.00    -0.391 OA
ATOM     24  H   UNL     1     117.250 112.160 123.044  1.00  0.00     0.210 HD
ENDBRANCH  22  23
ENDBRANCH  17  22
BRANCH  18  25
ATOM     25  O   UNL     1     113.020 113.266 123.279  1.00  0.00    -0.385 OA
ATOM     26  H   UNL     1     113.802 113.750 122.904  1.00  0.00     0.211 HD
ENDBRANCH  18  25
BRANCH  20  27
ATOM     27  O   UNL     1     113.335 112.452 126.243  1.00  0.00    -0.387 OA
ATOM     28  H   UNL     1     113.045 111.513 126.401  1.00  0.00     0.211 HD
ENDBRANCH  20  27
BRANCH  21  29
ATOM     29  C   UNL     1     114.791 110.102 126.148  1.00  0.00     0.191 C 
BRANCH  29  30
ATOM     30  O   UNL     1     114.912 110.451 127.503  1.00  0.00    -0.394 OA
ATOM     31  H   UNL     1     115.869 110.327 127.742  1.00  0.00     0.210 HD
ENDBRANCH  29  30
ENDBRANCH  21  29
ENDBRANCH   1  17
TORSDOF 13
ENDMDL
MODEL 7
REMARK VINA RESULT:    -6.028      1.672      3.052
REMARK INTER + INTRA:         -10.566
REMARK INTER:                  -9.308
REMARK INTRA:                  -1.259
REMARK UNBOUND:                -1.366
REMARK SMILES OC[C@@H]1O[C@H](O[C@]2(CO)O[C@H](CO)[C@H](O)[C@H]2O)[C@@H](O)[C@H](O)[C@@H]1O
REMARK SMILES IDX 6 1 5 2 3 3 22 4 4 5 20 6 18 7 2 8 1 9 23 11 21 13 19 15
REMARK SMILES IDX 7 17 16 18 10 19 14 20 11 21 8 22 9 23 17 25 15 27 12 29
REMARK SMILES IDX 13 30
REMARK H PARENT 1 10 23 12 21 14 19 16 9 24 17 26 15 28 13 31
REMARK Flexibility Score: inf
ROOT
ATOM      1  O   UNL     1     113.586 111.537 122.055  1.00  0.00    -0.313 OA
ENDROOT
BRANCH   1   2
ATOM      2  C   UNL     1     113.895 110.447 121.194  1.00  0.00     0.285 C 
ATOM      3  C   UNL     1     113.092 108.369 120.480  1.00  0.00     0.178 C 
ATOM      4  C   UNL     1     112.244 108.888 119.285  1.00  0.00     0.177 C 
ATOM      5  O   UNL     1     113.071 109.332 121.515  1.00  0.00    -0.341 OA
ATOM      6  C   UNL     1     112.349 110.437 119.154  1.00  0.00     0.179 C 
ATOM      7  C   UNL     1     113.688 110.944 119.724  1.00  0.00     0.202 C 
BRANCH   3   8
ATOM      8  C   UNL     1     112.608 107.015 121.025  1.00  0.00     0.191 C 
BRANCH   8   9
ATOM      9  O   UNL     1     113.532 106.500 121.946  1.00  0.00    -0.394 OA
ATOM     10  H   UNL     1     113.159 105.641 122.277  1.00  0.00     0.210 HD
ENDBRANCH   8   9
ENDBRANCH   3   8
BRANCH   4  11
ATOM     11  O   UNL     1     110.897 108.474 119.355  1.00  0.00    -0.387 OA
ATOM     12  H   UNL     1     110.790 107.919 120.172  1.00  0.00     0.211 HD
ENDBRANCH   4  11
BRANCH   6  13
ATOM     13  O   UNL     1     111.302 111.079 119.844  1.00  0.00    -0.387 OA
ATOM     14  H   UNL     1     110.874 111.707 119.206  1.00  0.00     0.211 HD
ENDBRANCH   6  13
BRANCH   7  15
ATOM     15  O   UNL     1     114.738 110.496 118.902  1.00  0.00    -0.385 OA
ATOM     16  H   UNL     1     115.211 111.304 118.574  1.00  0.00     0.211 HD
ENDBRANCH   7  15
ENDBRANCH   1   2
BRANCH   1  17
ATOM     17  C   UNL     1     114.550 111.843 123.067  1.00  0.00     0.224 C 
ATOM     18  C   UNL     1     113.916 112.240 124.420  1.00  0.00     0.208 C 
ATOM     19  O   UNL     1     115.275 110.649 123.299  1.00  0.00    -0.337 OA
ATOM     20  C   UNL     1     114.894 111.695 125.421  1.00  0.00     0.180 C 
ATOM     21  C   UNL     1     115.441 110.464 124.693  1.00  0.00     0.179 C 
BRANCH  17  22
ATOM     22  C   UNL     1     115.588 112.883 122.561  1.00  0.00     0.225 C 
BRANCH  22  23
ATOM     23  O   UNL     1     116.750 112.233 122.110  1.00  0.00    -0.391 OA
ATOM     24  H   UNL     1     116.742 111.323 122.498  1.00  0.00     0.210 HD
ENDBRANCH  22  23
ENDBRANCH  17  22
BRANCH  18  25
ATOM     25  O   UNL     1     113.765 113.631 124.560  1.00  0.00    -0.385 OA
ATOM     26  H   UNL     1     113.438 113.787 125.485  1.00  0.00     0.211 HD
ENDBRANCH  18  25
BRANCH  20  27
ATOM     27  O   UNL     1     114.258 111.396 126.638  1.00  0.00    -0.387 OA
ATOM     28  H   UNL     1     114.976 111.366 127.328  1.00  0.00     0.211 HD
ENDBRANCH  20  27
BRANCH  21  29
ATOM     29  C   UNL     1     114.756 109.147 125.106  1.00  0.00     0.191 C 
BRANCH  29  30
ATOM     30  O   UNL     1     114.601 108.306 123.991  1.00  0.00    -0.394 OA
ATOM     31  H   UNL     1     113.921 108.735 123.407  1.00  0.00     0.210 HD
ENDBRANCH  29  30
ENDBRANCH  21  29
ENDBRANCH   1  17
TORSDOF 13
ENDMDL
MODEL 8
REMARK VINA RESULT:    -5.990      1.620      3.420
REMARK INTER + INTRA:         -10.508
REMARK INTER:                  -9.365
REMARK INTRA:                  -1.143
REMARK UNBOUND:                -1.366
REMARK SMILES OC[C@@H]1O[C@H](O[C@]2(CO)O[C@H](CO)[C@H](O)[C@H]2O)[C@@H](O)[C@H](O)[C@@H]1O
REMARK SMILES IDX 6 1 5 2 3 3 22 4 4 5 20 6 18 7 2 8 1 9 23 11 21 13 19 15
REMARK SMILES IDX 7 17 16 18 10 19 14 20 11 21 8 22 9 23 17 25 15 27 12 29
REMARK SMILES IDX 13 30
REMARK H PARENT 1 10 23 12 21 14 19 16 9 24 17 26 15 28 13 31
REMARK Flexibility Score: inf
ROOT
ATOM      1  O   UNL     1     113.587 109.556 124.089  1.00  0.00    -0.313 OA
ENDROOT
BRANCH   1   2
ATOM      2  C   UNL     1     112.570 109.461 123.099  1.00  0.00     0.285 C 
ATOM      3  C   UNL     1     112.124 108.555 120.988  1.00  0.00     0.178 C 
ATOM      4  C   UNL     1     111.579 107.184 121.476  1.00  0.00     0.177 C 
ATOM      5  O   UNL     1     113.132 108.994 121.877  1.00  0.00    -0.341 OA
ATOM      6  C   UNL     1     111.588 107.098 123.032  1.00  0.00     0.179 C 
ATOM      7  C   UNL     1     111.466 108.501 123.656  1.00  0.00     0.202 C 
BRANCH   3   8
ATOM      8  C   UNL     1     112.682 108.511 119.556  1.00  0.00     0.191 C 
BRANCH   8   9
ATOM      9  O   UNL     1     111.779 107.861 118.701  1.00  0.00    -0.394 OA
ATOM     10  H   UNL     1     111.453 107.058 119.185  1.00  0.00     0.210 HD
ENDBRANCH   8   9
ENDBRANCH   3   8
BRANCH   4  11
ATOM     11  O   UNL     1     112.264 106.092 120.903  1.00  0.00    -0.387 OA
ATOM     12  H   UNL     1     113.233 106.310 120.894  1.00  0.00     0.211 HD
ENDBRANCH   4  11
BRANCH   6  13
ATOM     13  O   UNL     1     112.775 106.504 123.503  1.00  0.00    -0.387 OA
ATOM     14  H   UNL     1     112.703 105.530 123.328  1.00  0.00     0.211 HD
ENDBRANCH   6  13
BRANCH   7  15
ATOM     15  O   UNL     1     110.185 109.017 123.386  1.00  0.00    -0.385 OA
ATOM     16  H   UNL     1     110.304 109.754 122.733  1.00  0.00     0.211 HD
ENDBRANCH   7  15
ENDBRANCH   1   2
BRANCH   1  17
ATOM     17  C   UNL     1     114.249 110.818 124.204  1.00  0.00     0.224 C 
ATOM     18  C   UNL     1     115.701 110.801 123.671  1.00  0.00     0.208 C 
ATOM     19  O   UNL     1     113.531 111.720 123.381  1.00  0.00    -0.337 OA
ATOM     20  C   UNL     1     115.865 112.182 123.105  1.00  0.00     0.180 C 
ATOM     21  C   UNL     1     114.443 112.507 122.637  1.00  0.00     0.179 C 
BRANCH  17  22
ATOM     22  C   UNL     1     114.144 111.382 125.648  1.00  0.00     0.225 C 
BRANCH  22  23
ATOM     23  O   UNL     1     113.003 112.194 125.774  1.00  0.00    -0.391 OA
ATOM     24  H   UNL     1     113.016 112.830 125.018  1.00  0.00     0.210 HD
ENDBRANCH  22  23
ENDBRANCH  17  22
BRANCH  18  25
ATOM     25  O   UNL     1     116.645 110.549 124.682  1.00  0.00    -0.385 OA
ATOM     26  H   UNL     1     116.411 111.144 125.441  1.00  0.00     0.211 HD
ENDBRANCH  18  25
BRANCH  20  27
ATOM     27  O   UNL     1     116.817 112.194 122.071  1.00  0.00    -0.387 OA
ATOM     28  H   UNL     1     116.458 111.603 121.353  1.00  0.00     0.211 HD
ENDBRANCH  20  27
BRANCH  21  29
ATOM     29  C   UNL     1     114.214 112.251 121.135  1.00  0.00     0.191 C 
BRANCH  29  30
ATOM     30  O   UNL     1     114.938 113.177 120.366  1.00  0.00    -0.394 OA
ATOM     31  H   UNL     1     115.108 112.743 119.488  1.00  0.00     0.210 HD
ENDBRANCH  29  30
ENDBRANCH  21  29
ENDBRANCH   1  17
TORSDOF 13
ENDMDL
MODEL 9
REMARK VINA RESULT:    -5.905      2.054      6.005
REMARK INTER + INTRA:         -10.378
REMARK INTER:                  -9.022
REMARK INTRA:                  -1.356
REMARK UNBOUND:                -1.366
REMARK SMILES OC[C@@H]1O[C@H](O[C@]2(CO)O[C@H](CO)[C@H](O)[C@H]2O)[C@@H](O)[C@H](O)[C@@H]1O
REMARK SMILES IDX 6 1 5 2 3 3 22 4 4 5 20 6 18 7 2 8 1 9 23 11 21 13 19 15
REMARK SMILES IDX 7 17 16 18 10 19 14 20 11 21 8 22 9 23 17 25 15 27 12 29
REMARK SMILES IDX 13 30
REMARK H PARENT 1 10 23 12 21 14 19 16 9 24 17 26 15 28 13 31
REMARK Flexibility Score: inf
ROOT
ATOM      1  O   UNL     1     112.767 109.886 124.127  1.00  0.00    -0.313 OA
ENDROOT
BRANCH   1   2
ATOM      2  C   UNL     1     114.184 110.007 124.096  1.00  0.00     0.285 C 
ATOM      3  C   UNL     1     115.902 111.588 123.938  1.00  0.00     0.178 C 
ATOM      4  C   UNL     1     116.055 111.863 125.461  1.00  0.00     0.177 C 
ATOM      5  O   UNL     1     114.546 111.310 123.652  1.00  0.00    -0.341 OA
ATOM      6  C   UNL     1     115.058 110.997 126.289  1.00  0.00     0.179 C 
ATOM      7  C   UNL     1     114.709 109.698 125.539  1.00  0.00     0.202 C 
BRANCH   3   8
ATOM      8  C   UNL     1     116.387 112.753 123.060  1.00  0.00     0.191 C 
BRANCH   8   9
ATOM      9  O   UNL     1     117.686 113.134 123.429  1.00  0.00    -0.394 OA
ATOM     10  H   UNL     1     118.250 112.319 123.373  1.00  0.00     0.210 HD
ENDBRANCH   8   9
ENDBRANCH   3   8
BRANCH   4  11
ATOM     11  O   UNL     1     115.927 113.231 125.781  1.00  0.00    -0.387 OA
ATOM     12  H   UNL     1     115.682 113.298 126.741  1.00  0.00     0.211 HD
ENDBRANCH   4  11
BRANCH   6  13
ATOM     13  O   UNL     1     113.863 111.698 126.542  1.00  0.00    -0.387 OA
ATOM     14  H   UNL     1     114.046 112.327 127.289  1.00  0.00     0.211 HD
ENDBRANCH   6  13
BRANCH   7  15
ATOM     15  O   UNL     1     115.851 108.878 125.480  1.00  0.00    -0.385 OA
ATOM     16  H   UNL     1     116.256 109.013 124.585  1.00  0.00     0.211 HD
ENDBRANCH   7  15
ENDBRANCH   1   2
BRANCH   1  17
ATOM     17  C   UNL     1     112.148 109.337 122.961  1.00  0.00     0.224 C 
ATOM     18  C   UNL     1     111.328 110.371 122.155  1.00  0.00     0.208 C 
ATOM     19  O   UNL     1     113.202 108.914 122.115  1.00  0.00    -0.337 OA
ATOM     20  C   UNL     1     111.518 109.915 120.736  1.00  0.00     0.180 C 
ATOM     21  C   UNL     1     112.921 109.303 120.783  1.00  0.00     0.179 C 
BRANCH  17  22
ATOM     22  C   UNL     1     111.334 108.057 123.303  1.00  0.00     0.225 C 
BRANCH  22  23
ATOM     23  O   UNL     1     110.471 108.302 124.384  1.00  0.00    -0.391 OA
ATOM     24  H   UNL     1     110.325 109.280 124.424  1.00  0.00     0.210 HD
ENDBRANCH  22  23
ENDBRANCH  17  22
BRANCH  18  25
ATOM     25  O   UNL     1     109.968 110.379 122.510  1.00  0.00    -0.385 OA
ATOM     26  H   UNL     1     109.726 111.327 122.680  1.00  0.00     0.211 HD
ENDBRANCH  18  25
BRANCH  20  27
ATOM     27  O   UNL     1     111.399 110.992 119.841  1.00  0.00    -0.387 OA
ATOM     28  H   UNL     1     111.964 111.725 120.208  1.00  0.00     0.211 HD
ENDBRANCH  20  27
BRANCH  21  29
ATOM     29  C   UNL     1     114.028 110.260 120.299  1.00  0.00     0.191 C 
BRANCH  29  30
ATOM     30  O   UNL     1     114.067 110.292 118.895  1.00  0.00    -0.394 OA
ATOM     31  H   UNL     1     113.554 111.096 118.617  1.00  0.00     0.210 HD
ENDBRANCH  29  30
ENDBRANCH  21  29
ENDBRANCH   1  17
TORSDOF 13
ENDMDL
