MODEL 1
REMARK VINA RESULT:    -3.575      0.000      0.000
REMARK INTER + INTRA:          -6.418
REMARK INTER:                  -5.457
REMARK INTRA:                  -0.961
REMARK UNBOUND:                -0.961
REMARK SMILES CCCCCCCCCCC(=O)[O-]
REMARK SMILES IDX 7 1 8 2 9 3 10 4 11 5 12 6 13 7 6 8 5 9 4 10 3 11 2 12 1 13
REMARK H PARENT
REMARK Flexibility Score: inf
ROOT
ATOM      1  C   UNL     1      -6.123   1.906  -0.905  1.00  0.00     0.000 C 
ENDROOT
BRANCH   1   2
ATOM      2  C   UNL     1      -5.458   3.289  -0.794  1.00  0.00     0.000 C 
BRANCH   2   3
ATOM      3  C   UNL     1      -3.922   3.218  -0.869  1.00  0.00     0.006 C 
BRANCH   3   4
ATOM      4  C   UNL     1      -3.244   2.826   0.453  1.00  0.00     0.053 C 
BRANCH   4   5
ATOM      5  C   UNL     1      -3.622   3.747   1.572  1.00  0.00     0.041 C 
ATOM      6  O   UNL     1      -3.137   4.907   1.630  1.00  0.00    -0.550 OA
ATOM      7  O   UNL     1      -4.538   3.334   2.533  1.00  0.00    -0.550 OA
ENDBRANCH   4   5
ENDBRANCH   3   4
ENDBRANCH   2   3
ENDBRANCH   1   2
BRANCH   1   8
ATOM      8  C   UNL     1      -7.068   1.611   0.269  1.00  0.00     0.000 C 
BRANCH   8   9
ATOM      9  C   UNL     1      -6.476   0.597   1.263  1.00  0.00    -0.000 C 
BRANCH   9  10
ATOM     10  C   UNL     1      -5.191  -0.062   0.739  1.00  0.00    -0.000 C 
BRANCH  10  11
ATOM     11  C   UNL     1      -5.339  -1.578   0.549  1.00  0.00    -0.000 C 
BRANCH  11  12
ATOM     12  C   UNL     1      -6.780  -2.027   0.815  1.00  0.00    -0.003 C 
ATOM     13  C   UNL     1      -7.397  -2.666  -0.425  1.00  0.00     0.004 C 
ENDBRANCH  11  12
ENDBRANCH  10  11
ENDBRANCH   9  10
ENDBRANCH   8   9
ENDBRANCH   1   8
TORSDOF 9
ENDMDL
MODEL 2
REMARK VINA RESULT:    -3.561      2.738      5.017
REMARK INTER + INTRA:          -6.396
REMARK INTER:                  -5.178
REMARK INTRA:                  -1.218
REMARK UNBOUND:                -0.961
REMARK SMILES CCCCCCCCCCC(=O)[O-]
REMARK SMILES IDX 7 1 8 2 9 3 10 4 11 5 12 6 13 7 6 8 5 9 4 10 3 11 2 12 1 13
REMARK H PARENT
REMARK Flexibility Score: inf
ROOT
ATOM      1  C   UNL     1      -6.333   1.969  -1.030  1.00  0.00     0.000 C 
ENDROOT
BRANCH   1   2
ATOM      2  C   UNL     1      -6.978   2.036   0.366  1.00  0.00     0.000 C 
BRANCH   2   3
ATOM      3  C   UNL     1      -6.445   0.952   1.320  1.00  0.00     0.006 C 
BRANCH   3   4
ATOM      4  C   UNL     1      -5.256   0.152   0.765  1.00  0.00     0.053 C 
BRANCH   4   5
ATOM      5  C   UNL     1      -5.544  -1.317   0.715  1.00  0.00     0.041 C 
ATOM      6  O   UNL     1      -6.555  -1.786   1.299  1.00  0.00    -0.550 OA
ATOM      7  O   UNL     1      -4.710  -2.164  -0.007  1.00  0.00    -0.550 OA
ENDBRANCH   4   5
ENDBRANCH   3   4
ENDBRANCH   2   3
ENDBRANCH   1   2
BRANCH   1   8
ATOM      8  C   UNL     1      -6.029   3.360  -1.606  1.00  0.00     0.000 C 
BRANCH   8   9
ATOM      9  C   UNL     1      -4.745   3.973  -1.021  1.00  0.00    -0.000 C 
BRANCH   9  10
ATOM     10  C   UNL     1      -3.632   2.933  -0.820  1.00  0.00    -0.000 C 
BRANCH  10  11
ATOM     11  C   UNL     1      -3.137   2.871   0.633  1.00  0.00    -0.000 C 
BRANCH  11  12
ATOM     12  C   UNL     1      -3.669   4.057   1.446  1.00  0.00    -0.003 C 
ATOM     13  C   UNL     1      -4.363   3.585   2.719  1.00  0.00     0.004 C 
ENDBRANCH  11  12
ENDBRANCH  10  11
ENDBRANCH   9  10
ENDBRANCH   8   9
ENDBRANCH   1   8
TORSDOF 9
ENDMDL
MODEL 3
REMARK VINA RESULT:    -3.531      2.741      5.305
REMARK INTER + INTRA:          -6.349
REMARK INTER:                  -5.280
REMARK INTRA:                  -1.069
REMARK UNBOUND:                -0.961
REMARK SMILES CCCCCCCCCCC(=O)[O-]
REMARK SMILES IDX 7 1 8 2 9 3 10 4 11 5 12 6 13 7 6 8 5 9 4 10 3 11 2 12 1 13
REMARK H PARENT
REMARK Flexibility Score: inf
ROOT
ATOM      1  C   UNL     1      -4.754   2.533  -0.538  1.00  0.00     0.000 C 
ENDROOT
BRANCH   1   2
ATOM      2  C   UNL     1      -5.701   1.372  -0.186  1.00  0.00     0.000 C 
BRANCH   2   3
ATOM      3  C   UNL     1      -5.080   0.381   0.814  1.00  0.00     0.006 C 
BRANCH   3   4
ATOM      4  C   UNL     1      -5.489  -1.083   0.588  1.00  0.00     0.053 C 
BRANCH   4   5
ATOM      5  C   UNL     1      -6.977  -1.256   0.595  1.00  0.00     0.041 C 
ATOM      6  O   UNL     1      -7.568  -1.696  -0.425  1.00  0.00    -0.550 OA
ATOM      7  O   UNL     1      -7.705  -0.963   1.741  1.00  0.00    -0.550 OA
ENDBRANCH   4   5
ENDBRANCH   3   4
ENDBRANCH   2   3
ENDBRANCH   1   2
BRANCH   1   8
ATOM      8  C   UNL     1      -3.343   2.337   0.037  1.00  0.00     0.000 C 
BRANCH   8   9
ATOM      9  C   UNL     1      -3.061   3.260   1.234  1.00  0.00    -0.000 C 
BRANCH   9  10
ATOM     10  C   UNL     1      -3.755   4.624   1.106  1.00  0.00    -0.000 C 
BRANCH  10  11
ATOM     11  C   UNL     1      -4.667   4.938   2.301  1.00  0.00    -0.000 C 
BRANCH  11  12
ATOM     12  C   UNL     1      -4.862   3.700   3.184  1.00  0.00    -0.003 C 
ATOM     13  C   UNL     1      -6.287   3.166   3.078  1.00  0.00     0.004 C 
ENDBRANCH  11  12
ENDBRANCH  10  11
ENDBRANCH   9  10
ENDBRANCH   8   9
ENDBRANCH   1   8
TORSDOF 9
ENDMDL
MODEL 4
REMARK VINA RESULT:    -3.520      1.198      1.761
REMARK INTER + INTRA:          -6.334
REMARK INTER:                  -5.622
REMARK INTRA:                  -0.711
REMARK UNBOUND:                -0.961
REMARK SMILES CCCCCCCCCCC(=O)[O-]
REMARK SMILES IDX 7 1 8 2 9 3 10 4 11 5 12 6 13 7 6 8 5 9 4 10 3 11 2 12 1 13
REMARK H PARENT
REMARK Flexibility Score: inf
ROOT
ATOM      1  C   UNL     1      -5.151   2.272  -0.348  1.00  0.00     0.000 C 
ENDROOT
BRANCH   1   2
ATOM      2  C   UNL     1      -3.651   2.064  -0.078  1.00  0.00     0.000 C 
BRANCH   2   3
ATOM      3  C   UNL     1      -3.117   2.969   1.048  1.00  0.00     0.006 C 
BRANCH   3   4
ATOM      4  C   UNL     1      -4.113   4.037   1.523  1.00  0.00     0.053 C 
BRANCH   4   5
ATOM      5  C   UNL     1      -4.560   3.799   2.933  1.00  0.00     0.041 C 
ATOM      6  O   UNL     1      -3.955   4.347   3.891  1.00  0.00    -0.550 OA
ATOM      7  O   UNL     1      -5.667   2.998   3.186  1.00  0.00    -0.550 OA
ENDBRANCH   4   5
ENDBRANCH   3   4
ENDBRANCH   2   3
ENDBRANCH   1   2
BRANCH   1   8
ATOM      8  C   UNL     1      -5.992   1.039   0.018  1.00  0.00     0.000 C 
BRANCH   8   9
ATOM      9  C   UNL     1      -5.147  -0.090   0.631  1.00  0.00    -0.000 C 
BRANCH   9  10
ATOM     10  C   UNL     1      -5.865  -1.448   0.603  1.00  0.00    -0.000 C 
BRANCH  10  11
ATOM     11  C   UNL     1      -7.387  -1.309   0.449  1.00  0.00    -0.000 C 
BRANCH  11  12
ATOM     12  C   UNL     1      -7.928  -2.307  -0.581  1.00  0.00    -0.003 C 
ATOM     13  C   UNL     1      -6.839  -3.271  -1.040  1.00  0.00     0.004 C 
ENDBRANCH  11  12
ENDBRANCH  10  11
ENDBRANCH   9  10
ENDBRANCH   8   9
ENDBRANCH   1   8
TORSDOF 9
ENDMDL
MODEL 5
REMARK VINA RESULT:    -3.445      2.744      4.782
REMARK INTER + INTRA:          -6.219
REMARK INTER:                  -4.998
REMARK INTRA:                  -1.221
REMARK UNBOUND:                -0.961
REMARK SMILES CCCCCCCCCCC(=O)[O-]
REMARK SMILES IDX 7 1 8 2 9 3 10 4 11 5 12 6 13 7 6 8 5 9 4 10 3 11 2 12 1 13
REMARK H PARENT
REMARK Flexibility Score: inf
ROOT
ATOM      1  C   UNL     1      -4.188   2.625  -0.670  1.00  0.00     0.000 C 
ENDROOT
BRANCH   1   2
ATOM      2  C   UNL     1      -5.716   2.463  -0.760  1.00  0.00     0.000 C 
BRANCH   2   3
ATOM      3  C   UNL     1      -6.204   1.105  -0.224  1.00  0.00     0.006 C 
BRANCH   3   4
ATOM      4  C   UNL     1      -5.162   0.347   0.614  1.00  0.00     0.053 C 
BRANCH   4   5
ATOM      5  C   UNL     1      -5.478  -1.114   0.714  1.00  0.00     0.041 C 
ATOM      6  O   UNL     1      -6.470  -1.503   1.383  1.00  0.00    -0.550 OA
ATOM      7  O   UNL     1      -4.695  -2.042   0.038  1.00  0.00    -0.550 OA
ENDBRANCH   4   5
ENDBRANCH   3   4
ENDBRANCH   2   3
ENDBRANCH   1   2
BRANCH   1   8
ATOM      8  C   UNL     1      -3.774   3.891   0.095  1.00  0.00     0.000 C 
BRANCH   8   9
ATOM      9  C   UNL     1      -3.422   3.603   1.565  1.00  0.00    -0.000 C 
BRANCH   9  10
ATOM     10  C   UNL     1      -4.369   4.305   2.549  1.00  0.00    -0.000 C 
BRANCH  10  11
ATOM     11  C   UNL     1      -5.322   3.326   3.253  1.00  0.00    -0.000 C 
BRANCH  11  12
ATOM     12  C   UNL     1      -6.733   3.411   2.659  1.00  0.00    -0.003 C 
ATOM     13  C   UNL     1      -7.551   2.171   3.004  1.00  0.00     0.004 C 
ENDBRANCH  11  12
ENDBRANCH  10  11
ENDBRANCH   9  10
ENDBRANCH   8   9
ENDBRANCH   1   8
TORSDOF 9
ENDMDL
MODEL 6
REMARK VINA RESULT:    -3.387      2.662      4.032
REMARK INTER + INTRA:          -6.130
REMARK INTER:                  -5.291
REMARK INTRA:                  -0.838
REMARK UNBOUND:                -0.961
REMARK SMILES CCCCCCCCCCC(=O)[O-]
REMARK SMILES IDX 7 1 8 2 9 3 10 4 11 5 12 6 13 7 6 8 5 9 4 10 3 11 2 12 1 13
REMARK H PARENT
REMARK Flexibility Score: inf
ROOT
ATOM      1  C   UNL     1      -4.198   4.083   1.724  1.00  0.00     0.000 C 
ENDROOT
BRANCH   1   2
ATOM      2  C   UNL     1      -4.614   3.777   3.174  1.00  0.00     0.000 C 
BRANCH   2   3
ATOM      3  C   UNL     1      -6.065   3.275   3.283  1.00  0.00     0.006 C 
BRANCH   3   4
ATOM      4  C   UNL     1      -6.750   3.610   4.617  1.00  0.00     0.053 C 
BRANCH   4   5
ATOM      5  C   UNL     1      -6.424   4.997   5.081  1.00  0.00     0.041 C 
ATOM      6  O   UNL     1      -5.764   5.172   6.138  1.00  0.00    -0.550 OA
ATOM      7  O   UNL     1      -6.821   6.094   4.327  1.00  0.00    -0.550 OA
ENDBRANCH   4   5
ENDBRANCH   3   4
ENDBRANCH   2   3
ENDBRANCH   1   2
BRANCH   1   8
ATOM      8  C   UNL     1      -3.050   3.184   1.239  1.00  0.00     0.000 C 
BRANCH   8   9
ATOM      9  C   UNL     1      -3.492   2.207   0.137  1.00  0.00    -0.000 C 
BRANCH   9  10
ATOM     10  C   UNL     1      -4.926   2.471  -0.348  1.00  0.00    -0.000 C 
BRANCH  10  11
ATOM     11  C   UNL     1      -5.867   1.287  -0.084  1.00  0.00    -0.000 C 
BRANCH  11  12
ATOM     12  C   UNL     1      -5.157   0.188   0.715  1.00  0.00    -0.003 C 
ATOM     13  C   UNL     1      -5.946  -1.116   0.681  1.00  0.00     0.004 C 
ENDBRANCH  11  12
ENDBRANCH  10  11
ENDBRANCH   9  10
ENDBRANCH   8   9
ENDBRANCH   1   8
TORSDOF 9
ENDMDL
MODEL 7
REMARK VINA RESULT:    -3.371      1.671      2.694
REMARK INTER + INTRA:          -6.106
REMARK INTER:                  -5.181
REMARK INTRA:                  -0.925
REMARK UNBOUND:                -0.961
REMARK SMILES CCCCCCCCCCC(=O)[O-]
REMARK SMILES IDX 7 1 8 2 9 3 10 4 11 5 12 6 13 7 6 8 5 9 4 10 3 11 2 12 1 13
REMARK H PARENT
REMARK Flexibility Score: inf
ROOT
ATOM      1  C   UNL     1      -3.708   2.038   0.080  1.00  0.00     0.000 C 
ENDROOT
BRANCH   1   2
ATOM      2  C   UNL     1      -3.113   2.985   1.138  1.00  0.00     0.000 C 
BRANCH   2   3
ATOM      3  C   UNL     1      -4.144   3.993   1.680  1.00  0.00     0.006 C 
BRANCH   3   4
ATOM      4  C   UNL     1      -4.993   3.462   2.844  1.00  0.00     0.053 C 
BRANCH   4   5
ATOM      5  C   UNL     1      -6.314   4.163   2.941  1.00  0.00     0.041 C 
ATOM      6  O   UNL     1      -6.498   5.052   3.812  1.00  0.00    -0.550 OA
ATOM      7  O   UNL     1      -7.330   3.856   2.044  1.00  0.00    -0.550 OA
ENDBRANCH   4   5
ENDBRANCH   3   4
ENDBRANCH   2   3
ENDBRANCH   1   2
BRANCH   1   8
ATOM      8  C   UNL     1      -4.807   2.707  -0.759  1.00  0.00     0.000 C 
BRANCH   8   9
ATOM      9  C   UNL     1      -6.152   1.967  -0.668  1.00  0.00    -0.000 C 
BRANCH   9  10
ATOM     10  C   UNL     1      -6.133   0.833   0.369  1.00  0.00    -0.000 C 
BRANCH  10  11
ATOM     11  C   UNL     1      -7.171  -0.259   0.069  1.00  0.00    -0.000 C 
BRANCH  11  12
ATOM     12  C   UNL     1      -6.603  -1.652   0.364  1.00  0.00    -0.003 C 
ATOM     13  C   UNL     1      -5.108  -1.588   0.655  1.00  0.00     0.004 C 
ENDBRANCH  11  12
ENDBRANCH  10  11
ENDBRANCH   9  10
ENDBRANCH   8   9
ENDBRANCH   1   8
TORSDOF 9
ENDMDL
MODEL 8
REMARK VINA RESULT:    -3.345      3.285      4.612
REMARK INTER + INTRA:          -6.066
REMARK INTER:                  -5.510
REMARK INTRA:                  -0.556
REMARK UNBOUND:                -0.961
REMARK SMILES CCCCCCCCCCC(=O)[O-]
REMARK SMILES IDX 7 1 8 2 9 3 10 4 11 5 12 6 13 7 6 8 5 9 4 10 3 11 2 12 1 13
REMARK H PARENT
REMARK Flexibility Score: inf
ROOT
ATOM      1  C   UNL     1      -4.336   4.200   2.908  1.00  0.00     0.000 C 
ENDROOT
BRANCH   1   2
ATOM      2  C   UNL     1      -5.613   3.873   3.701  1.00  0.00     0.000 C 
BRANCH   2   3
ATOM      3  C   UNL     1      -5.793   4.773   4.938  1.00  0.00     0.006 C 
BRANCH   3   4
ATOM      4  C   UNL     1      -4.476   5.184   5.614  1.00  0.00     0.053 C 
BRANCH   4   5
ATOM      5  C   UNL     1      -4.379   4.663   7.015  1.00  0.00     0.041 C 
ATOM      6  O   UNL     1      -3.279   4.686   7.626  1.00  0.00    -0.550 OA
ATOM      7  O   UNL     1      -5.514   4.183   7.658  1.00  0.00    -0.550 OA
ENDBRANCH   4   5
ENDBRANCH   3   4
ENDBRANCH   2   3
ENDBRANCH   1   2
BRANCH   1   8
ATOM      8  C   UNL     1      -4.485   3.915   1.406  1.00  0.00     0.000 C 
BRANCH   8   9
ATOM      9  C   UNL     1      -3.332   3.062   0.850  1.00  0.00    -0.000 C 
BRANCH   9  10
ATOM     10  C   UNL     1      -3.817   1.746   0.224  1.00  0.00    -0.000 C 
BRANCH  10  11
ATOM     11  C   UNL     1      -5.305   1.786  -0.158  1.00  0.00    -0.000 C 
BRANCH  11  12
ATOM     12  C   UNL     1      -6.089   0.690   0.572  1.00  0.00    -0.003 C 
ATOM     13  C   UNL     1      -5.271  -0.592   0.683  1.00  0.00     0.004 C 
ENDBRANCH  11  12
ENDBRANCH  10  11
ENDBRANCH   9  10
ENDBRANCH   8   9
ENDBRANCH   1   8
TORSDOF 9
ENDMDL
MODEL 9
REMARK VINA RESULT:    -3.300      1.423      2.303
REMARK INTER + INTRA:          -5.997
REMARK INTER:                  -5.603
REMARK INTRA:                  -0.394
REMARK UNBOUND:                -0.961
REMARK SMILES CCCCCCCCCCC(=O)[O-]
REMARK SMILES IDX 7 1 8 2 9 3 10 4 11 5 12 6 13 7 6 8 5 9 4 10 3 11 2 12 1 13
REMARK H PARENT
REMARK Flexibility Score: inf
ROOT
ATOM      1  C   UNL     1      -6.756   0.912  -0.191  1.00  0.00     0.000 C 
ENDROOT
BRANCH   1   2
ATOM      2  C   UNL     1      -5.602   1.906  -0.409  1.00  0.00     0.000 C 
BRANCH   2   3
ATOM      3  C   UNL     1      -4.339   1.535   0.389  1.00  0.00     0.006 C 
BRANCH   3   4
ATOM      4  C   UNL     1      -3.177   2.528   0.229  1.00  0.00     0.053 C 
BRANCH   4   5
ATOM      5  C   UNL     1      -3.315   3.705   1.146  1.00  0.00     0.041 C 
ATOM      6  O   UNL     1      -3.018   3.598   2.364  1.00  0.00    -0.550 OA
ATOM      7  O   UNL     1      -3.741   4.930   0.645  1.00  0.00    -0.550 OA
ENDBRANCH   4   5
ENDBRANCH   3   4
ENDBRANCH   2   3
ENDBRANCH   1   2
BRANCH   1   8
ATOM      8  C   UNL     1      -6.323  -0.327   0.607  1.00  0.00     0.000 C 
BRANCH   8   9
ATOM      9  C   UNL     1      -7.488  -1.297   0.868  1.00  0.00    -0.000 C 
BRANCH   9  10
ATOM     10  C   UNL     1      -7.890  -2.088  -0.386  1.00  0.00    -0.000 C 
BRANCH  10  11
ATOM     11  C   UNL     1      -6.934  -3.253  -0.683  1.00  0.00    -0.000 C 
BRANCH  11  12
ATOM     12  C   UNL     1      -7.158  -3.801  -2.097  1.00  0.00    -0.003 C 
ATOM     13  C   UNL     1      -5.938  -4.571  -2.590  1.00  0.00     0.004 C 
ENDBRANCH  11  12
ENDBRANCH  10  11
ENDBRANCH   9  10
ENDBRANCH   8   9
ENDBRANCH   1   8
TORSDOF 9
ENDMDL
