MODEL 1
REMARK VINA RESULT:    -3.292      0.000      0.000
REMARK INTER + INTRA:          -5.550
REMARK INTER:                  -4.447
REMARK INTRA:                  -1.103
REMARK UNBOUND:                -1.103
REMARK SMILES CC(=O)CCC=C(C)CCC=C(C)C
REMARK SMILES IDX 7 1 6 2 8 3 9 4 10 5 11 6 13 7 12 8 14 9 5 10 4 11 2 12 3 13
REMARK SMILES IDX 1 14
REMARK H PARENT
REMARK Flexibility Score: inf
ROOT
ATOM      1  C   UNL     1      60.808   3.465  32.097  1.00  0.00    -0.077 C 
ATOM      2  C   UNL     1      60.333   3.048  30.902  1.00  0.00    -0.028 C 
ATOM      3  C   UNL     1      60.187   3.003  33.394  1.00  0.00     0.039 C 
ENDROOT
BRANCH   1   4
ATOM      4  C   UNL     1      61.979   4.422  32.134  1.00  0.00     0.034 C 
BRANCH   4   5
ATOM      5  C   UNL     1      61.657   5.711  31.370  1.00  0.00     0.032 C 
BRANCH   5   6
ATOM      6  C   UNL     1      60.611   6.527  32.090  1.00  0.00    -0.028 C 
ATOM      7  C   UNL     1      58.441   7.655  32.353  1.00  0.00     0.039 C 
ATOM      8  C   UNL     1      59.415   6.835  31.546  1.00  0.00    -0.080 C 
ATOM      9  C   UNL     1      59.038   6.377  30.156  1.00  0.00     0.039 C 
ENDBRANCH   5   6
ENDBRANCH   4   5
ENDBRANCH   1   4
BRANCH   2  10
ATOM     10  C   UNL     1      59.171   2.094  30.764  1.00  0.00     0.035 C 
BRANCH  10  11
ATOM     11  C   UNL     1      59.536   0.900  29.875  1.00  0.00     0.079 C 
BRANCH  11  12
ATOM     12  C   UNL     1      59.905  -0.296  30.712  1.00  0.00     0.130 C 
ATOM     13  O   UNL     1      60.627  -1.161  30.239  1.00  0.00    -0.300 OA
ATOM     14  C   UNL     1      59.414  -0.447  32.121  1.00  0.00     0.087 C 
ENDBRANCH  11  12
ENDBRANCH  10  11
ENDBRANCH   2  10
TORSDOF 6
ENDMDL
MODEL 2
REMARK VINA RESULT:    -3.266      2.728      4.740
REMARK INTER + INTRA:          -5.515
REMARK INTER:                  -4.050
REMARK INTRA:                  -1.465
REMARK UNBOUND:                -1.103
REMARK SMILES CC(=O)CCC=C(C)CCC=C(C)C
REMARK SMILES IDX 7 1 6 2 8 3 9 4 10 5 11 6 13 7 12 8 14 9 5 10 4 11 2 12 3 13
REMARK SMILES IDX 1 14
REMARK H PARENT
REMARK Flexibility Score: inf
ROOT
ATOM      1  C   UNL     1      60.192   7.278  32.292  1.00  0.00    -0.077 C 
ATOM      2  C   UNL     1      61.046   7.031  31.274  1.00  0.00    -0.028 C 
ATOM      3  C   UNL     1      60.673   7.350  33.722  1.00  0.00     0.039 C 
ENDROOT
BRANCH   1   4
ATOM      4  C   UNL     1      58.722   7.476  31.993  1.00  0.00     0.034 C 
BRANCH   4   5
ATOM      5  C   UNL     1      58.252   6.515  30.895  1.00  0.00     0.032 C 
BRANCH   5   6
ATOM      6  C   UNL     1      57.926   5.154  31.462  1.00  0.00    -0.028 C 
ATOM      7  C   UNL     1      58.089   2.708  31.644  1.00  0.00     0.039 C 
ATOM      8  C   UNL     1      58.484   4.014  31.005  1.00  0.00    -0.080 C 
ATOM      9  C   UNL     1      59.487   4.023  29.876  1.00  0.00     0.039 C 
ENDBRANCH   5   6
ENDBRANCH   4   5
ENDBRANCH   1   4
BRANCH   2  10
ATOM     10  C   UNL     1      62.528   6.822  31.474  1.00  0.00     0.035 C 
BRANCH  10  11
ATOM     11  C   UNL     1      62.909   5.349  31.295  1.00  0.00     0.079 C 
BRANCH  11  12
ATOM     12  C   UNL     1      62.847   4.617  32.610  1.00  0.00     0.130 C 
ATOM     13  O   UNL     1      63.750   4.760  33.421  1.00  0.00    -0.300 OA
ATOM     14  C   UNL     1      61.694   3.722  32.954  1.00  0.00     0.087 C 
ENDBRANCH  11  12
ENDBRANCH  10  11
ENDBRANCH   2  10
TORSDOF 6
ENDMDL
MODEL 3
REMARK VINA RESULT:    -3.186      1.479      2.369
REMARK INTER + INTRA:          -5.407
REMARK INTER:                  -4.762
REMARK INTRA:                  -0.645
REMARK UNBOUND:                -1.103
REMARK SMILES CC(=O)CCC=C(C)CCC=C(C)C
REMARK SMILES IDX 7 1 6 2 8 3 9 4 10 5 11 6 13 7 12 8 14 9 5 10 4 11 2 12 3 13
REMARK SMILES IDX 1 14
REMARK H PARENT
REMARK Flexibility Score: inf
ROOT
ATOM      1  C   UNL     1      59.937   2.592  31.151  1.00  0.00    -0.077 C 
ATOM      2  C   UNL     1      59.303   1.701  30.356  1.00  0.00    -0.028 C 
ATOM      3  C   UNL     1      60.402   2.216  32.538  1.00  0.00     0.039 C 
ENDROOT
BRANCH   1   4
ATOM      4  C   UNL     1      60.177   3.997  30.643  1.00  0.00     0.034 C 
BRANCH   4   5
ATOM      5  C   UNL     1      60.263   4.992  31.805  1.00  0.00     0.032 C 
BRANCH   5   6
ATOM      6  C   UNL     1      60.877   6.298  31.364  1.00  0.00    -0.028 C 
ATOM      7  C   UNL     1      62.717   7.848  30.856  1.00  0.00     0.039 C 
ATOM      8  C   UNL     1      62.210   6.505  31.314  1.00  0.00    -0.080 C 
ATOM      9  C   UNL     1      63.192   5.426  31.705  1.00  0.00     0.039 C 
ENDBRANCH   5   6
ENDBRANCH   4   5
ENDBRANCH   1   4
BRANCH   2  10
ATOM     10  C   UNL     1      59.020   0.278  30.775  1.00  0.00     0.035 C 
BRANCH  10  11
ATOM     11  C   UNL     1      60.058  -0.687  30.194  1.00  0.00     0.079 C 
BRANCH  11  12
ATOM     12  C   UNL     1      60.591  -1.604  31.263  1.00  0.00     0.130 C 
ATOM     13  O   UNL     1      61.558  -2.312  31.021  1.00  0.00    -0.300 OA
ATOM     14  C   UNL     1      59.968  -1.663  32.626  1.00  0.00     0.087 C 
ENDBRANCH  11  12
ENDBRANCH  10  11
ENDBRANCH   2  10
TORSDOF 6
ENDMDL
MODEL 4
REMARK VINA RESULT:    -2.994      2.796      6.402
REMARK INTER + INTRA:          -5.148
REMARK INTER:                  -4.498
REMARK INTRA:                  -0.650
REMARK UNBOUND:                -1.103
REMARK SMILES CC(=O)CCC=C(C)CCC=C(C)C
REMARK SMILES IDX 7 1 6 2 8 3 9 4 10 5 11 6 13 7 12 8 14 9 5 10 4 11 2 12 3 13
REMARK SMILES IDX 1 14
REMARK H PARENT
REMARK Flexibility Score: inf
ROOT
ATOM      1  C   UNL     1      60.026   3.048  30.954  1.00  0.00    -0.077 C 
ATOM      2  C   UNL     1      59.845   4.359  30.678  1.00  0.00    -0.028 C 
ATOM      3  C   UNL     1      60.545   2.592  32.297  1.00  0.00     0.039 C 
ENDROOT
BRANCH   1   4
ATOM      4  C   UNL     1      59.712   2.018  29.891  1.00  0.00     0.034 C 
BRANCH   4   5
ATOM      5  C   UNL     1      59.066   0.774  30.510  1.00  0.00     0.032 C 
BRANCH   5   6
ATOM      6  C   UNL     1      60.014  -0.401  30.494  1.00  0.00    -0.028 C 
ATOM      7  C   UNL     1      61.229  -2.310  31.455  1.00  0.00     0.039 C 
ATOM      8  C   UNL     1      60.265  -1.159  31.581  1.00  0.00    -0.080 C 
ATOM      9  C   UNL     1      59.604  -0.878  32.910  1.00  0.00     0.039 C 
ENDBRANCH   5   6
ENDBRANCH   4   5
ENDBRANCH   1   4
BRANCH   2  10
ATOM     10  C   UNL     1      60.129   5.458  31.674  1.00  0.00     0.035 C 
BRANCH  10  11
ATOM     11  C   UNL     1      60.793   6.661  30.997  1.00  0.00     0.079 C 
BRANCH  11  12
ATOM     12  C   UNL     1      62.276   6.673  31.263  1.00  0.00     0.130 C 
ATOM     13  O   UNL     1      62.883   7.733  31.240  1.00  0.00    -0.300 OA
ATOM     14  C   UNL     1      63.026   5.410  31.568  1.00  0.00     0.087 C 
ENDBRANCH  11  12
ENDBRANCH  10  11
ENDBRANCH   2  10
TORSDOF 6
ENDMDL
MODEL 5
REMARK VINA RESULT:    -2.954     16.563     18.791
REMARK INTER + INTRA:          -5.094
REMARK INTER:                  -3.929
REMARK INTRA:                  -1.165
REMARK UNBOUND:                -1.103
REMARK SMILES CC(=O)CCC=C(C)CCC=C(C)C
REMARK SMILES IDX 7 1 6 2 8 3 9 4 10 5 11 6 13 7 12 8 14 9 5 10 4 11 2 12 3 13
REMARK SMILES IDX 1 14
REMARK H PARENT
REMARK Flexibility Score: inf
ROOT
ATOM      1  C   UNL     1      65.650  14.779  43.992  1.00  0.00    -0.077 C 
ATOM      2  C   UNL     1      65.452  15.194  45.264  1.00  0.00    -0.028 C 
ATOM      3  C   UNL     1      66.496  13.567  43.683  1.00  0.00     0.039 C 
ENDROOT
BRANCH   1   4
ATOM      4  C   UNL     1      65.018  15.553  42.855  1.00  0.00     0.034 C 
BRANCH   4   5
ATOM      5  C   UNL     1      63.889  14.746  42.206  1.00  0.00     0.032 C 
BRANCH   5   6
ATOM      6  C   UNL     1      62.556  15.056  42.844  1.00  0.00    -0.028 C 
ATOM      7  C   UNL     1      60.597  14.617  44.262  1.00  0.00     0.039 C 
ATOM      8  C   UNL     1      61.924  14.206  43.679  1.00  0.00    -0.080 C 
ATOM      9  C   UNL     1      62.516  12.863  44.035  1.00  0.00     0.039 C 
ENDBRANCH   5   6
ENDBRANCH   4   5
ENDBRANCH   1   4
BRANCH   2  10
ATOM     10  C   UNL     1      66.039  14.487  46.462  1.00  0.00     0.035 C 
BRANCH  10  11
ATOM     11  C   UNL     1      67.059  15.373  47.183  1.00  0.00     0.079 C 
BRANCH  11  12
ATOM     12  C   UNL     1      68.351  15.439  46.411  1.00  0.00     0.130 C 
ATOM     13  O   UNL     1      68.981  14.413  46.205  1.00  0.00    -0.300 OA
ATOM     14  C   UNL     1      68.879  16.738  45.879  1.00  0.00     0.087 C 
ENDBRANCH  11  12
ENDBRANCH  10  11
ENDBRANCH   2  10
TORSDOF 6
ENDMDL
MODEL 6
REMARK VINA RESULT:    -2.941      2.309      3.834
REMARK INTER + INTRA:          -5.076
REMARK INTER:                  -4.137
REMARK INTRA:                  -0.939
REMARK UNBOUND:                -1.103
REMARK SMILES CC(=O)CCC=C(C)CCC=C(C)C
REMARK SMILES IDX 7 1 6 2 8 3 9 4 10 5 11 6 13 7 12 8 14 9 5 10 4 11 2 12 3 13
REMARK SMILES IDX 1 14
REMARK H PARENT
REMARK Flexibility Score: inf
ROOT
ATOM      1  C   UNL     1      59.646   0.916  30.842  1.00  0.00    -0.077 C 
ATOM      2  C   UNL     1      59.531   0.881  32.188  1.00  0.00    -0.028 C 
ATOM      3  C   UNL     1      59.735  -0.353  30.028  1.00  0.00     0.039 C 
ENDROOT
BRANCH   1   4
ATOM      4  C   UNL     1      59.695   2.255  30.138  1.00  0.00     0.034 C 
BRANCH   4   5
ATOM      5  C   UNL     1      59.663   3.406  31.149  1.00  0.00     0.032 C 
BRANCH   5   6
ATOM      6  C   UNL     1      60.813   4.360  30.928  1.00  0.00    -0.028 C 
ATOM      7  C   UNL     1      62.943   5.462  31.471  1.00  0.00     0.039 C 
ATOM      8  C   UNL     1      61.846   4.479  31.788  1.00  0.00    -0.080 C 
ATOM      9  C   UNL     1      61.921   3.653  33.051  1.00  0.00     0.039 C 
ENDBRANCH   5   6
ENDBRANCH   4   5
ENDBRANCH   1   4
BRANCH   2  10
ATOM     10  C   UNL     1      59.472  -0.404  32.978  1.00  0.00     0.035 C 
BRANCH  10  11
ATOM     11  C   UNL     1      60.729  -0.589  33.832  1.00  0.00     0.079 C 
BRANCH  11  12
ATOM     12  C   UNL     1      61.262  -1.992  33.703  1.00  0.00     0.130 C 
ATOM     13  O   UNL     1      61.698  -2.563  34.692  1.00  0.00    -0.300 OA
ATOM     14  C   UNL     1      61.260  -2.712  32.387  1.00  0.00     0.087 C 
ENDBRANCH  11  12
ENDBRANCH  10  11
ENDBRANCH   2  10
TORSDOF 6
ENDMDL
MODEL 7
REMARK VINA RESULT:    -2.896      9.620     11.678
REMARK INTER + INTRA:          -5.016
REMARK INTER:                  -3.579
REMARK INTRA:                  -1.436
REMARK UNBOUND:                -1.103
REMARK SMILES CC(=O)CCC=C(C)CCC=C(C)C
REMARK SMILES IDX 7 1 6 2 8 3 9 4 10 5 11 6 13 7 12 8 14 9 5 10 4 11 2 12 3 13
REMARK SMILES IDX 1 14
REMARK H PARENT
REMARK Flexibility Score: inf
ROOT
ATOM      1  C   UNL     1      71.180   4.717  32.449  1.00  0.00    -0.077 C 
ATOM      2  C   UNL     1      72.264   3.911  32.496  1.00  0.00    -0.028 C 
ATOM      3  C   UNL     1      70.659   5.406  33.688  1.00  0.00     0.039 C 
ENDROOT
BRANCH   1   4
ATOM      4  C   UNL     1      70.470   4.925  31.129  1.00  0.00     0.034 C 
BRANCH   4   5
ATOM      5  C   UNL     1      69.921   3.600  30.589  1.00  0.00     0.032 C 
BRANCH   5   6
ATOM      6  C   UNL     1      68.747   3.120  31.406  1.00  0.00    -0.028 C 
ATOM      7  C   UNL     1      67.529   1.577  32.884  1.00  0.00     0.039 C 
ATOM      8  C   UNL     1      68.756   1.961  32.098  1.00  0.00    -0.080 C 
ATOM      9  C   UNL     1      69.962   1.052  32.099  1.00  0.00     0.039 C 
ENDBRANCH   5   6
ENDBRANCH   4   5
ENDBRANCH   1   4
BRANCH   2  10
ATOM     10  C   UNL     1      73.039   3.645  33.765  1.00  0.00     0.035 C 
BRANCH  10  11
ATOM     11  C   UNL     1      73.059   2.150  34.099  1.00  0.00     0.079 C 
BRANCH  11  12
ATOM     12  C   UNL     1      72.321   1.880  35.384  1.00  0.00     0.130 C 
ATOM     13  O   UNL     1      72.928   1.425  36.341  1.00  0.00    -0.300 OA
ATOM     14  C   UNL     1      70.855   2.166  35.520  1.00  0.00     0.087 C 
ENDBRANCH  11  12
ENDBRANCH  10  11
ENDBRANCH   2  10
TORSDOF 6
ENDMDL
MODEL 8
REMARK VINA RESULT:    -2.887     11.091     13.030
REMARK INTER + INTRA:          -5.003
REMARK INTER:                  -3.574
REMARK INTRA:                  -1.429
REMARK UNBOUND:                -1.103
REMARK SMILES CC(=O)CCC=C(C)CCC=C(C)C
REMARK SMILES IDX 7 1 6 2 8 3 9 4 10 5 11 6 13 7 12 8 14 9 5 10 4 11 2 12 3 13
REMARK SMILES IDX 1 14
REMARK H PARENT
REMARK Flexibility Score: inf
ROOT
ATOM      1  C   UNL     1      68.711  -1.673  37.071  1.00  0.00    -0.077 C 
ATOM      2  C   UNL     1      69.861  -2.015  37.695  1.00  0.00    -0.028 C 
ATOM      3  C   UNL     1      68.133  -0.283  37.196  1.00  0.00     0.039 C 
ENDROOT
BRANCH   1   4
ATOM      4  C   UNL     1      67.984  -2.707  36.240  1.00  0.00     0.034 C 
BRANCH   4   5
ATOM      5  C   UNL     1      68.045  -2.352  34.750  1.00  0.00     0.032 C 
BRANCH   5   6
ATOM      6  C   UNL     1      69.388  -2.705  34.158  1.00  0.00    -0.028 C 
ATOM      7  C   UNL     1      71.584  -2.238  33.155  1.00  0.00     0.039 C 
ATOM      8  C   UNL     1      70.269  -1.777  33.729  1.00  0.00    -0.080 C 
ATOM      9  C   UNL     1      69.964  -0.300  33.811  1.00  0.00     0.039 C 
ENDBRANCH   5   6
ENDBRANCH   4   5
ENDBRANCH   1   4
BRANCH   2  10
ATOM     10  C   UNL     1      70.656  -1.052  38.544  1.00  0.00     0.035 C 
BRANCH  10  11
ATOM     11  C   UNL     1      72.117  -0.986  38.086  1.00  0.00     0.079 C 
BRANCH  11  12
ATOM     12  C   UNL     1      72.259  -0.096  36.880  1.00  0.00     0.130 C 
ATOM     13  O   UNL     1      72.935  -0.470  35.933  1.00  0.00    -0.300 OA
ATOM     14  C   UNL     1      71.581   1.240  36.809  1.00  0.00     0.087 C 
ENDBRANCH  11  12
ENDBRANCH  10  11
ENDBRANCH   2  10
TORSDOF 6
ENDMDL
MODEL 9
REMARK VINA RESULT:    -2.886     16.854     19.040
REMARK INTER + INTRA:          -5.002
REMARK INTER:                  -3.921
REMARK INTRA:                  -1.081
REMARK UNBOUND:                -1.103
REMARK SMILES CC(=O)CCC=C(C)CCC=C(C)C
REMARK SMILES IDX 7 1 6 2 8 3 9 4 10 5 11 6 13 7 12 8 14 9 5 10 4 11 2 12 3 13
REMARK SMILES IDX 1 14
REMARK H PARENT
REMARK Flexibility Score: inf
ROOT
ATOM      1  C   UNL     1      67.862  15.673  43.470  1.00  0.00    -0.077 C 
ATOM      2  C   UNL     1      66.667  16.295  43.363  1.00  0.00    -0.028 C 
ATOM      3  C   UNL     1      68.096  14.311  42.860  1.00  0.00     0.039 C 
ENDROOT
BRANCH   1   4
ATOM      4  C   UNL     1      68.984  16.350  44.226  1.00  0.00     0.034 C 
BRANCH   4   5
ATOM      5  C   UNL     1      68.638  16.487  45.713  1.00  0.00     0.032 C 
BRANCH   5   6
ATOM      6  C   UNL     1      68.951  15.217  46.467  1.00  0.00    -0.028 C 
ATOM      7  C   UNL     1      68.420  13.168  47.717  1.00  0.00     0.039 C 
ATOM      8  C   UNL     1      67.997  14.414  46.982  1.00  0.00    -0.080 C 
ATOM      9  C   UNL     1      66.529  14.738  46.839  1.00  0.00     0.039 C 
ENDBRANCH   5   6
ENDBRANCH   4   5
ENDBRANCH   1   4
BRANCH   2  10
ATOM     10  C   UNL     1      65.490  15.699  42.629  1.00  0.00     0.035 C 
BRANCH  10  11
ATOM     11  C   UNL     1      64.388  15.269  43.602  1.00  0.00     0.079 C 
BRANCH  11  12
ATOM     12  C   UNL     1      63.268  14.579  42.870  1.00  0.00     0.130 C 
ATOM     13  O   UNL     1      62.110  14.875  43.126  1.00  0.00    -0.300 OA
ATOM     14  C   UNL     1      63.540  13.540  41.823  1.00  0.00     0.087 C 
ENDBRANCH  11  12
ENDBRANCH  10  11
ENDBRANCH   2  10
TORSDOF 6
ENDMDL
