MODEL 1
REMARK VINA RESULT:    -7.059      0.000      0.000
REMARK INTER + INTRA:          -8.191
REMARK INTER:                  -8.297
REMARK INTRA:                   0.106
REMARK UNBOUND:                 0.106
REMARK SMILES O=c1c(O)c(-c2ccc(O)cc2)oc2cc(O)cc(O)c12
REMARK SMILES IDX 5 1 3 2 2 3 1 4 21 5 19 6 18 7 16 8 15 9 14 10 13 11 6 12
REMARK SMILES IDX 7 13 8 14 9 15 12 16 11 17 10 18 4 20 20 22 17 24
REMARK H PARENT 10 19 4 21 20 23 17 25
REMARK Flexibility Score: inf
ROOT
ATOM      1  C   UNL     1       7.323  26.881  58.455  1.00  0.00     0.180 A 
ATOM      2  C   UNL     1       6.891  26.266  59.643  1.00  0.00     0.208 A 
ATOM      3  C   UNL     1       7.805  25.501  60.385  1.00  0.00     0.238 A 
ATOM      4  O   UNL     1       7.394  24.892  61.406  1.00  0.00    -0.285 OA
ATOM      5  C   UNL     1       9.154  25.407  59.961  1.00  0.00     0.111 A 
ATOM      6  C   UNL     1      10.178  24.697  60.659  1.00  0.00     0.134 A 
ATOM      7  C   UNL     1      11.452  24.585  60.088  1.00  0.00     0.093 A 
ATOM      8  C   UNL     1      11.757  25.211  58.878  1.00  0.00     0.123 A 
ATOM      9  C   UNL     1      10.781  25.952  58.217  1.00  0.00     0.094 A 
ATOM     10  C   UNL     1       9.490  26.051  58.741  1.00  0.00     0.146 A 
ATOM     11  O   UNL     1       8.585  26.748  58.066  1.00  0.00    -0.452 OA
ENDROOT
BRANCH   1  12
ATOM     12  C   UNL     1       6.413  27.690  57.611  1.00  0.00     0.021 A 
ATOM     13  C   UNL     1       6.886  28.879  57.030  1.00  0.00     0.016 A 
ATOM     14  C   UNL     1       6.053  29.648  56.211  1.00  0.00     0.047 A 
ATOM     15  C   UNL     1       4.742  29.229  55.952  1.00  0.00     0.115 A 
ATOM     16  C   UNL     1       5.103  27.266  57.329  1.00  0.00     0.016 A 
ATOM     17  C   UNL     1       4.271  28.036  56.510  1.00  0.00     0.047 A 
BRANCH  15  18
ATOM     18  O   UNL     1       3.901  29.986  55.138  1.00  0.00    -0.508 OA
ATOM     19  H   UNL     1       3.437  30.817  55.485  1.00  0.00     0.293 HD
ENDBRANCH  15  18
ENDBRANCH   1  12
BRANCH   2  20
ATOM     20  O   UNL     1       5.575  26.433  60.085  1.00  0.00    -0.502 OA
ATOM     21  H   UNL     1       4.779  26.082  59.567  1.00  0.00     0.293 HD
ENDBRANCH   2  20
BRANCH   6  22
ATOM     22  O   UNL     1      10.005  24.110  61.916  1.00  0.00    -0.507 OA
ATOM     23  H   UNL     1       9.720  24.601  62.749  1.00  0.00     0.293 HD
ENDBRANCH   6  22
BRANCH   8  24
ATOM     24  O   UNL     1      13.033  25.109  58.327  1.00  0.00    -0.508 OA
ATOM     25  H   UNL     1      13.190  25.210  57.331  1.00  0.00     0.293 HD
ENDBRANCH   8  24
TORSDOF 5
ENDMDL
MODEL 2
REMARK VINA RESULT:    -6.891      1.322      6.454
REMARK INTER + INTRA:          -7.993
REMARK INTER:                  -7.731
REMARK INTRA:                  -0.263
REMARK UNBOUND:                 0.106
REMARK SMILES O=c1c(O)c(-c2ccc(O)cc2)oc2cc(O)cc(O)c12
REMARK SMILES IDX 5 1 3 2 2 3 1 4 21 5 19 6 18 7 16 8 15 9 14 10 13 11 6 12
REMARK SMILES IDX 7 13 8 14 9 15 12 16 11 17 10 18 4 20 20 22 17 24
REMARK H PARENT 10 19 4 21 20 23 17 25
REMARK Flexibility Score: inf
ROOT
ATOM      1  C   UNL     1       8.619  26.233  58.810  1.00  0.00     0.180 A 
ATOM      2  C   UNL     1       7.630  25.379  59.331  1.00  0.00     0.208 A 
ATOM      3  C   UNL     1       6.283  25.634  59.029  1.00  0.00     0.238 A 
ATOM      4  O   UNL     1       5.399  24.912  59.559  1.00  0.00    -0.285 OA
ATOM      5  C   UNL     1       5.944  26.704  58.165  1.00  0.00     0.111 A 
ATOM      6  C   UNL     1       4.615  27.027  57.755  1.00  0.00     0.134 A 
ATOM      7  C   UNL     1       4.390  28.173  56.982  1.00  0.00     0.093 A 
ATOM      8  C   UNL     1       5.451  28.971  56.551  1.00  0.00     0.123 A 
ATOM      9  C   UNL     1       6.757  28.634  56.900  1.00  0.00     0.094 A 
ATOM     10  C   UNL     1       7.010  27.518  57.702  1.00  0.00     0.146 A 
ATOM     11  O   UNL     1       8.268  27.247  58.029  1.00  0.00    -0.452 OA
ENDROOT
BRANCH   1  12
ATOM     12  C   UNL     1      10.059  26.038  59.095  1.00  0.00     0.021 A 
ATOM     13  C   UNL     1      10.587  26.482  60.319  1.00  0.00     0.016 A 
ATOM     14  C   UNL     1      11.939  26.289  60.620  1.00  0.00     0.047 A 
ATOM     15  C   UNL     1      12.775  25.635  59.707  1.00  0.00     0.115 A 
ATOM     16  C   UNL     1      10.901  25.365  58.192  1.00  0.00     0.016 A 
ATOM     17  C   UNL     1      12.253  25.172  58.495  1.00  0.00     0.047 A 
BRANCH  15  18
ATOM     18  O   UNL     1      14.124  25.437  59.995  1.00  0.00    -0.508 OA
ATOM     19  H   UNL     1      14.836  25.520  59.278  1.00  0.00     0.293 HD
ENDBRANCH  15  18
ENDBRANCH   1  12
BRANCH   2  20
ATOM     20  O   UNL     1       7.991  24.283  60.119  1.00  0.00    -0.502 OA
ATOM     21  H   UNL     1       7.405  23.462  60.211  1.00  0.00     0.293 HD
ENDBRANCH   2  20
BRANCH   6  22
ATOM     22  O   UNL     1       3.492  26.249  58.054  1.00  0.00    -0.507 OA
ATOM     23  H   UNL     1       3.274  25.361  57.628  1.00  0.00     0.293 HD
ENDBRANCH   6  22
BRANCH   8  24
ATOM     24  O   UNL     1       5.220  30.100  55.768  1.00  0.00    -0.508 OA
ATOM     25  H   UNL     1       5.786  30.306  54.954  1.00  0.00     0.293 HD
ENDBRANCH   8  24
TORSDOF 5
ENDMDL
MODEL 3
REMARK VINA RESULT:    -6.611      1.811      3.877
REMARK INTER + INTRA:          -7.664
REMARK INTER:                  -7.950
REMARK INTRA:                   0.286
REMARK UNBOUND:                 0.106
REMARK SMILES O=c1c(O)c(-c2ccc(O)cc2)oc2cc(O)cc(O)c12
REMARK SMILES IDX 5 1 3 2 2 3 1 4 21 5 19 6 18 7 16 8 15 9 14 10 13 11 6 12
REMARK SMILES IDX 7 13 8 14 9 15 12 16 11 17 10 18 4 20 20 22 17 24
REMARK H PARENT 10 19 4 21 20 23 17 25
REMARK Flexibility Score: inf
ROOT
ATOM      1  C   UNL     1       6.445  26.538  58.488  1.00  0.00     0.180 A 
ATOM      2  C   UNL     1       7.828  26.309  58.601  1.00  0.00     0.208 A 
ATOM      3  C   UNL     1       8.286  25.356  59.524  1.00  0.00     0.238 A 
ATOM      4  O   UNL     1       9.527  25.209  59.674  1.00  0.00    -0.285 OA
ATOM      5  C   UNL     1       7.356  24.602  60.282  1.00  0.00     0.111 A 
ATOM      6  C   UNL     1       7.706  23.579  61.213  1.00  0.00     0.134 A 
ATOM      7  C   UNL     1       6.705  22.974  61.983  1.00  0.00     0.093 A 
ATOM      8  C   UNL     1       5.361  23.310  61.810  1.00  0.00     0.123 A 
ATOM      9  C   UNL     1       5.003  24.268  60.865  1.00  0.00     0.094 A 
ATOM     10  C   UNL     1       5.983  24.917  60.108  1.00  0.00     0.146 A 
ATOM     11  O   UNL     1       5.599  25.840  59.235  1.00  0.00    -0.452 OA
ENDROOT
BRANCH   1  12
ATOM     12  C   UNL     1       5.886  27.538  57.548  1.00  0.00     0.021 A 
ATOM     13  C   UNL     1       4.584  27.365  57.051  1.00  0.00     0.016 A 
ATOM     14  C   UNL     1       4.027  28.307  56.181  1.00  0.00     0.047 A 
ATOM     15  C   UNL     1       4.760  29.441  55.810  1.00  0.00     0.115 A 
ATOM     16  C   UNL     1       6.608  28.689  57.187  1.00  0.00     0.016 A 
ATOM     17  C   UNL     1       6.049  29.630  56.317  1.00  0.00     0.047 A 
BRANCH  15  18
ATOM     18  O   UNL     1       4.216  30.387  54.943  1.00  0.00    -0.508 OA
ATOM     19  H   UNL     1       3.241  30.354  54.669  1.00  0.00     0.293 HD
ENDBRANCH  15  18
ENDBRANCH   1  12
BRANCH   2  20
ATOM     20  O   UNL     1       8.726  27.009  57.790  1.00  0.00    -0.502 OA
ATOM     21  H   UNL     1       9.623  27.336  58.128  1.00  0.00     0.293 HD
ENDBRANCH   2  20
BRANCH   6  22
ATOM     22  O   UNL     1       9.008  23.104  61.401  1.00  0.00    -0.507 OA
ATOM     23  H   UNL     1       9.734  23.590  61.904  1.00  0.00     0.293 HD
ENDBRANCH   6  22
BRANCH   8  24
ATOM     24  O   UNL     1       4.369  22.691  62.569  1.00  0.00    -0.508 OA
ATOM     25  H   UNL     1       3.708  23.228  63.117  1.00  0.00     0.293 HD
ENDBRANCH   8  24
TORSDOF 5
ENDMDL
MODEL 4
REMARK VINA RESULT:    -5.934      1.721      2.630
REMARK INTER + INTRA:          -6.869
REMARK INTER:                  -7.204
REMARK INTRA:                   0.335
REMARK UNBOUND:                 0.106
REMARK SMILES O=c1c(O)c(-c2ccc(O)cc2)oc2cc(O)cc(O)c12
REMARK SMILES IDX 5 1 3 2 2 3 1 4 21 5 19 6 18 7 16 8 15 9 14 10 13 11 6 12
REMARK SMILES IDX 7 13 8 14 9 15 12 16 11 17 10 18 4 20 20 22 17 24
REMARK H PARENT 10 19 4 21 20 23 17 25
REMARK Flexibility Score: inf
ROOT
ATOM      1  C   UNL     1       5.818  26.487  58.697  1.00  0.00     0.180 A 
ATOM      2  C   UNL     1       4.818  25.760  59.367  1.00  0.00     0.208 A 
ATOM      3  C   UNL     1       5.197  24.780  60.298  1.00  0.00     0.238 A 
ATOM      4  O   UNL     1       4.300  24.081  60.838  1.00  0.00    -0.285 OA
ATOM      5  C   UNL     1       6.568  24.577  60.590  1.00  0.00     0.111 A 
ATOM      6  C   UNL     1       7.065  23.643  61.548  1.00  0.00     0.134 A 
ATOM      7  C   UNL     1       8.447  23.454  61.676  1.00  0.00     0.093 A 
ATOM      8  C   UNL     1       9.350  24.211  60.927  1.00  0.00     0.123 A 
ATOM      9  C   UNL     1       8.877  25.164  60.029  1.00  0.00     0.094 A 
ATOM     10  C   UNL     1       7.503  25.348  59.851  1.00  0.00     0.146 A 
ATOM     11  O   UNL     1       7.095  26.252  58.968  1.00  0.00    -0.452 OA
ENDROOT
BRANCH   1  12
ATOM     12  C   UNL     1       5.497  27.526  57.691  1.00  0.00     0.021 A 
ATOM     13  C   UNL     1       4.329  27.404  56.921  1.00  0.00     0.016 A 
ATOM     14  C   UNL     1       3.994  28.384  55.981  1.00  0.00     0.047 A 
ATOM     15  C   UNL     1       4.816  29.505  55.811  1.00  0.00     0.115 A 
ATOM     16  C   UNL     1       6.307  28.664  57.528  1.00  0.00     0.016 A 
ATOM     17  C   UNL     1       5.970  29.643  56.588  1.00  0.00     0.047 A 
BRANCH  15  18
ATOM     18  O   UNL     1       4.494  30.488  54.877  1.00  0.00    -0.508 OA
ATOM     19  H   UNL     1       5.049  30.625  54.041  1.00  0.00     0.293 HD
ENDBRANCH  15  18
ENDBRANCH   1  12
BRANCH   2  20
ATOM     20  O   UNL     1       3.468  26.028  59.121  1.00  0.00    -0.502 OA
ATOM     21  H   UNL     1       2.941  26.704  59.660  1.00  0.00     0.293 HD
ENDBRANCH   2  20
BRANCH   6  22
ATOM     22  O   UNL     1       6.254  22.900  62.411  1.00  0.00    -0.507 OA
ATOM     23  H   UNL     1       6.179  21.894  62.412  1.00  0.00     0.293 HD
ENDBRANCH   6  22
BRANCH   8  24
ATOM     24  O   UNL     1      10.724  24.028  61.073  1.00  0.00    -0.508 OA
ATOM     25  H   UNL     1      11.178  24.121  61.974  1.00  0.00     0.293 HD
ENDBRANCH   8  24
TORSDOF 5
ENDMDL
MODEL 5
REMARK VINA RESULT:    -5.881      5.112      6.761
REMARK INTER + INTRA:          -6.807
REMARK INTER:                  -6.510
REMARK INTRA:                  -0.296
REMARK UNBOUND:                 0.106
REMARK SMILES O=c1c(O)c(-c2ccc(O)cc2)oc2cc(O)cc(O)c12
REMARK SMILES IDX 5 1 3 2 2 3 1 4 21 5 19 6 18 7 16 8 15 9 14 10 13 11 6 12
REMARK SMILES IDX 7 13 8 14 9 15 12 16 11 17 10 18 4 20 20 22 17 24
REMARK H PARENT 10 19 4 21 20 23 17 25
REMARK Flexibility Score: inf
ROOT
ATOM      1  C   UNL     1       5.836  30.859  61.360  1.00  0.00     0.180 A 
ATOM      2  C   UNL     1       5.377  30.001  62.375  1.00  0.00     0.208 A 
ATOM      3  C   UNL     1       4.848  28.750  62.021  1.00  0.00     0.238 A 
ATOM      4  O   UNL     1       4.370  28.018  62.927  1.00  0.00    -0.285 OA
ATOM      5  C   UNL     1       4.837  28.347  60.662  1.00  0.00     0.111 A 
ATOM      6  C   UNL     1       4.366  27.083  60.194  1.00  0.00     0.134 A 
ATOM      7  C   UNL     1       4.305  26.837  58.816  1.00  0.00     0.093 A 
ATOM      8  C   UNL     1       4.757  27.783  57.894  1.00  0.00     0.123 A 
ATOM      9  C   UNL     1       5.269  28.998  58.344  1.00  0.00     0.094 A 
ATOM     10  C   UNL     1       5.308  29.288  59.710  1.00  0.00     0.146 A 
ATOM     11  O   UNL     1       5.783  30.467  60.093  1.00  0.00    -0.452 OA
ENDROOT
BRANCH   1  12
ATOM     12  C   UNL     1       6.393  32.200  61.653  1.00  0.00     0.021 A 
ATOM     13  C   UNL     1       7.785  32.364  61.749  1.00  0.00     0.016 A 
ATOM     14  C   UNL     1       8.334  33.624  62.003  1.00  0.00     0.047 A 
ATOM     15  C   UNL     1       7.499  34.738  62.148  1.00  0.00     0.115 A 
ATOM     16  C   UNL     1       5.562  33.327  61.781  1.00  0.00     0.016 A 
ATOM     17  C   UNL     1       6.114  34.587  62.034  1.00  0.00     0.047 A 
BRANCH  15  18
ATOM     18  O   UNL     1       8.034  36.000  62.402  1.00  0.00    -0.508 OA
ATOM     19  H   UNL     1       7.491  36.843  62.261  1.00  0.00     0.293 HD
ENDBRANCH  15  18
ENDBRANCH   1  12
BRANCH   2  20
ATOM     20  O   UNL     1       5.467  30.385  63.716  1.00  0.00    -0.502 OA
ATOM     21  H   UNL     1       5.120  29.807  64.472  1.00  0.00     0.293 HD
ENDBRANCH   2  20
BRANCH   6  22
ATOM     22  O   UNL     1       3.974  26.034  61.031  1.00  0.00    -0.507 OA
ATOM     23  H   UNL     1       4.604  25.386  61.479  1.00  0.00     0.293 HD
ENDBRANCH   6  22
BRANCH   8  24
ATOM     24  O   UNL     1       4.708  27.523  56.526  1.00  0.00    -0.508 OA
ATOM     25  H   UNL     1       4.931  26.608  56.153  1.00  0.00     0.293 HD
ENDBRANCH   8  24
TORSDOF 5
ENDMDL
MODEL 6
REMARK VINA RESULT:    -5.812      4.706      6.383
REMARK INTER + INTRA:          -6.726
REMARK INTER:                  -6.484
REMARK INTRA:                  -0.242
REMARK UNBOUND:                 0.106
REMARK SMILES O=c1c(O)c(-c2ccc(O)cc2)oc2cc(O)cc(O)c12
REMARK SMILES IDX 5 1 3 2 2 3 1 4 21 5 19 6 18 7 16 8 15 9 14 10 13 11 6 12
REMARK SMILES IDX 7 13 8 14 9 15 12 16 11 17 10 18 4 20 20 22 17 24
REMARK H PARENT 10 19 4 21 20 23 17 25
REMARK Flexibility Score: inf
ROOT
ATOM      1  C   UNL     1       5.688  29.950  61.277  1.00  0.00     0.180 A 
ATOM      2  C   UNL     1       6.483  28.880  61.727  1.00  0.00     0.208 A 
ATOM      3  C   UNL     1       6.600  27.735  60.923  1.00  0.00     0.238 A 
ATOM      4  O   UNL     1       7.250  26.752  61.364  1.00  0.00    -0.285 OA
ATOM      5  C   UNL     1       5.970  27.695  59.655  1.00  0.00     0.111 A 
ATOM      6  C   UNL     1       6.059  26.605  58.737  1.00  0.00     0.134 A 
ATOM      7  C   UNL     1       5.306  26.633  57.557  1.00  0.00     0.093 A 
ATOM      8  C   UNL     1       4.518  27.739  57.230  1.00  0.00     0.123 A 
ATOM      9  C   UNL     1       4.468  28.831  58.092  1.00  0.00     0.094 A 
ATOM     10  C   UNL     1       5.178  28.817  59.296  1.00  0.00     0.146 A 
ATOM     11  O   UNL     1       5.083  29.870  60.099  1.00  0.00    -0.452 OA
ENDROOT
BRANCH   1  12
ATOM     12  C   UNL     1       5.504  31.184  62.075  1.00  0.00     0.021 A 
ATOM     13  C   UNL     1       6.123  32.374  61.659  1.00  0.00     0.016 A 
ATOM     14  C   UNL     1       5.944  33.557  62.383  1.00  0.00     0.047 A 
ATOM     15  C   UNL     1       5.132  33.566  63.524  1.00  0.00     0.115 A 
ATOM     16  C   UNL     1       4.673  31.206  63.210  1.00  0.00     0.016 A 
ATOM     17  C   UNL     1       4.496  32.390  63.933  1.00  0.00     0.047 A 
BRANCH  15  18
ATOM     18  O   UNL     1       4.946  34.738  64.255  1.00  0.00    -0.508 OA
ATOM     19  H   UNL     1       5.726  35.334  64.506  1.00  0.00     0.293 HD
ENDBRANCH  15  18
ENDBRANCH   1  12
BRANCH   2  20
ATOM     20  O   UNL     1       7.158  28.969  62.947  1.00  0.00    -0.502 OA
ATOM     21  H   UNL     1       8.154  28.803  63.031  1.00  0.00     0.293 HD
ENDBRANCH   2  20
BRANCH   6  22
ATOM     22  O   UNL     1       6.883  25.491  58.922  1.00  0.00    -0.507 OA
ATOM     23  H   UNL     1       6.951  24.710  58.289  1.00  0.00     0.293 HD
ENDBRANCH   6  22
BRANCH   8  24
ATOM     24  O   UNL     1       3.786  27.765  56.045  1.00  0.00    -0.508 OA
ATOM     25  H   UNL     1       4.242  27.803  55.141  1.00  0.00     0.293 HD
ENDBRANCH   8  24
TORSDOF 5
ENDMDL
MODEL 7
REMARK VINA RESULT:    -5.581      1.495      2.136
REMARK INTER + INTRA:          -6.454
REMARK INTER:                  -6.210
REMARK INTRA:                  -0.244
REMARK UNBOUND:                 0.106
REMARK SMILES O=c1c(O)c(-c2ccc(O)cc2)oc2cc(O)cc(O)c12
REMARK SMILES IDX 5 1 3 2 2 3 1 4 21 5 19 6 18 7 16 8 15 9 14 10 13 11 6 12
REMARK SMILES IDX 7 13 8 14 9 15 12 16 11 17 10 18 4 20 20 22 17 24
REMARK H PARENT 10 19 4 21 20 23 17 25
REMARK Flexibility Score: inf
ROOT
ATOM      1  C   UNL     1       8.692  26.254  59.126  1.00  0.00     0.180 A 
ATOM      2  C   UNL     1       8.863  26.263  60.522  1.00  0.00     0.208 A 
ATOM      3  C   UNL     1      10.103  25.880  61.057  1.00  0.00     0.238 A 
ATOM      4  O   UNL     1      10.227  25.818  62.308  1.00  0.00    -0.285 OA
ATOM      5  C   UNL     1      11.174  25.549  60.191  1.00  0.00     0.111 A 
ATOM      6  C   UNL     1      12.487  25.191  60.623  1.00  0.00     0.134 A 
ATOM      7  C   UNL     1      13.436  24.780  59.678  1.00  0.00     0.093 A 
ATOM      8  C   UNL     1      13.140  24.776  58.314  1.00  0.00     0.123 A 
ATOM      9  C   UNL     1      11.880  25.177  57.878  1.00  0.00     0.094 A 
ATOM     10  C   UNL     1      10.899  25.555  58.799  1.00  0.00     0.146 A 
ATOM     11  O   UNL     1       9.704  25.908  58.341  1.00  0.00    -0.452 OA
ENDROOT
BRANCH   1  12
ATOM     12  C   UNL     1       7.409  26.630  58.487  1.00  0.00     0.021 A 
ATOM     13  C   UNL     1       7.311  27.851  57.800  1.00  0.00     0.016 A 
ATOM     14  C   UNL     1       6.118  28.217  57.170  1.00  0.00     0.047 A 
ATOM     15  C   UNL     1       5.013  27.358  57.206  1.00  0.00     0.115 A 
ATOM     16  C   UNL     1       6.301  25.764  58.502  1.00  0.00     0.016 A 
ATOM     17  C   UNL     1       5.109  26.131  57.871  1.00  0.00     0.047 A 
BRANCH  15  18
ATOM     18  O   UNL     1       3.817  27.711  56.583  1.00  0.00    -0.508 OA
ATOM     19  H   UNL     1       3.027  27.077  56.558  1.00  0.00     0.293 HD
ENDBRANCH  15  18
ENDBRANCH   1  12
BRANCH   2  20
ATOM     20  O   UNL     1       7.817  26.666  61.357  1.00  0.00    -0.502 OA
ATOM     21  H   UNL     1       6.978  26.114  61.483  1.00  0.00     0.293 HD
ENDBRANCH   2  20
BRANCH   6  22
ATOM     22  O   UNL     1      12.916  25.245  61.952  1.00  0.00    -0.507 OA
ATOM     23  H   UNL     1      13.515  24.565  62.395  1.00  0.00     0.293 HD
ENDBRANCH   6  22
BRANCH   8  24
ATOM     24  O   UNL     1      14.096  24.382  57.380  1.00  0.00    -0.508 OA
ATOM     25  H   UNL     1      14.475  23.443  57.373  1.00  0.00     0.293 HD
ENDBRANCH   8  24
TORSDOF 5
ENDMDL
MODEL 8
REMARK VINA RESULT:    -5.365      1.783      6.438
REMARK INTER + INTRA:          -6.200
REMARK INTER:                  -6.370
REMARK INTRA:                   0.170
REMARK UNBOUND:                 0.106
REMARK SMILES O=c1c(O)c(-c2ccc(O)cc2)oc2cc(O)cc(O)c12
REMARK SMILES IDX 5 1 3 2 2 3 1 4 21 5 19 6 18 7 16 8 15 9 14 10 13 11 6 12
REMARK SMILES IDX 7 13 8 14 9 15 12 16 11 17 10 18 4 20 20 22 17 24
REMARK H PARENT 10 19 4 21 20 23 17 25
REMARK Flexibility Score: inf
ROOT
ATOM      1  C   UNL     1       8.906  26.100  59.657  1.00  0.00     0.180 A 
ATOM      2  C   UNL     1       8.586  26.603  60.931  1.00  0.00     0.208 A 
ATOM      3  C   UNL     1       7.326  27.186  61.135  1.00  0.00     0.238 A 
ATOM      4  O   UNL     1       7.074  27.702  62.256  1.00  0.00    -0.285 OA
ATOM      5  C   UNL     1       6.379  27.210  60.081  1.00  0.00     0.111 A 
ATOM      6  C   UNL     1       5.056  27.735  60.190  1.00  0.00     0.134 A 
ATOM      7  C   UNL     1       4.244  27.801  59.050  1.00  0.00     0.093 A 
ATOM      8  C   UNL     1       4.683  27.302  57.822  1.00  0.00     0.123 A 
ATOM      9  C   UNL     1       5.952  26.737  57.719  1.00  0.00     0.094 A 
ATOM     10  C   UNL     1       6.800  26.692  58.829  1.00  0.00     0.146 A 
ATOM     11  O   UNL     1       8.009  26.166  58.680  1.00  0.00    -0.452 OA
ENDROOT
BRANCH   1  12
ATOM     12  C   UNL     1      10.219  25.484  59.359  1.00  0.00     0.021 A 
ATOM     13  C   UNL     1      10.875  25.803  58.159  1.00  0.00     0.016 A 
ATOM     14  C   UNL     1      12.126  25.251  57.866  1.00  0.00     0.047 A 
ATOM     15  C   UNL     1      12.743  24.386  58.778  1.00  0.00     0.115 A 
ATOM     16  C   UNL     1      10.854  24.630  60.278  1.00  0.00     0.016 A 
ATOM     17  C   UNL     1      12.105  24.080  59.985  1.00  0.00     0.047 A 
BRANCH  15  18
ATOM     18  O   UNL     1      13.990  23.829  58.499  1.00  0.00    -0.508 OA
ATOM     19  H   UNL     1      14.501  24.073  57.658  1.00  0.00     0.293 HD
ENDBRANCH  15  18
ENDBRANCH   1  12
BRANCH   2  20
ATOM     20  O   UNL     1       9.506  26.501  61.978  1.00  0.00    -0.502 OA
ATOM     21  H   UNL     1      10.375  25.989  61.892  1.00  0.00     0.293 HD
ENDBRANCH   2  20
BRANCH   6  22
ATOM     22  O   UNL     1       4.485  28.178  61.387  1.00  0.00    -0.507 OA
ATOM     23  H   UNL     1       4.988  28.322  62.248  1.00  0.00     0.293 HD
ENDBRANCH   6  22
BRANCH   8  24
ATOM     24  O   UNL     1       3.862  27.356  56.698  1.00  0.00    -0.508 OA
ATOM     25  H   UNL     1       3.708  28.222  56.195  1.00  0.00     0.293 HD
ENDBRANCH   8  24
TORSDOF 5
ENDMDL
MODEL 9
REMARK VINA RESULT:    -5.357      3.139      7.012
REMARK INTER + INTRA:          -6.191
REMARK INTER:                  -5.899
REMARK INTRA:                  -0.292
REMARK UNBOUND:                 0.106
REMARK SMILES O=c1c(O)c(-c2ccc(O)cc2)oc2cc(O)cc(O)c12
REMARK SMILES IDX 5 1 3 2 2 3 1 4 21 5 19 6 18 7 16 8 15 9 14 10 13 11 6 12
REMARK SMILES IDX 7 13 8 14 9 15 12 16 11 17 10 18 4 20 20 22 17 24
REMARK H PARENT 10 19 4 21 20 23 17 25
REMARK Flexibility Score: inf
ROOT
ATOM      1  C   UNL     1       6.390  25.269  60.859  1.00  0.00     0.180 A 
ATOM      2  C   UNL     1       6.688  26.392  61.651  1.00  0.00     0.208 A 
ATOM      3  C   UNL     1       6.392  27.671  61.156  1.00  0.00     0.238 A 
ATOM      4  O   UNL     1       6.730  28.675  61.836  1.00  0.00    -0.285 OA
ATOM      5  C   UNL     1       5.749  27.811  59.901  1.00  0.00     0.111 A 
ATOM      6  C   UNL     1       5.360  29.057  59.321  1.00  0.00     0.134 A 
ATOM      7  C   UNL     1       4.827  29.080  58.027  1.00  0.00     0.093 A 
ATOM      8  C   UNL     1       4.608  27.897  57.317  1.00  0.00     0.123 A 
ATOM      9  C   UNL     1       4.933  26.673  57.895  1.00  0.00     0.094 A 
ATOM     10  C   UNL     1       5.502  26.620  59.170  1.00  0.00     0.146 A 
ATOM     11  O   UNL     1       5.817  25.433  59.673  1.00  0.00    -0.452 OA
ENDROOT
BRANCH   1  12
ATOM     12  C   UNL     1       6.687  23.888  61.306  1.00  0.00     0.021 A 
ATOM     13  C   UNL     1       5.664  23.111  61.874  1.00  0.00     0.016 A 
ATOM     14  C   UNL     1       5.915  21.798  62.283  1.00  0.00     0.047 A 
ATOM     15  C   UNL     1       7.188  21.240  62.113  1.00  0.00     0.115 A 
ATOM     16  C   UNL     1       7.957  23.314  61.121  1.00  0.00     0.016 A 
ATOM     17  C   UNL     1       8.206  22.000  61.529  1.00  0.00     0.047 A 
BRANCH  15  18
ATOM     18  O   UNL     1       7.451  19.932  62.516  1.00  0.00    -0.508 OA
ATOM     19  H   UNL     1       6.973  19.144  62.097  1.00  0.00     0.293 HD
ENDBRANCH  15  18
ENDBRANCH   1  12
BRANCH   2  20
ATOM     20  O   UNL     1       7.253  26.229  62.919  1.00  0.00    -0.502 OA
ATOM     21  H   UNL     1       6.695  26.202  63.763  1.00  0.00     0.293 HD
ENDBRANCH   2  20
BRANCH   6  22
ATOM     22  O   UNL     1       5.452  30.288  59.978  1.00  0.00    -0.507 OA
ATOM     23  H   UNL     1       4.828  30.603  60.705  1.00  0.00     0.293 HD
ENDBRANCH   6  22
BRANCH   8  24
ATOM     24  O   UNL     1       4.061  27.928  56.036  1.00  0.00    -0.508 OA
ATOM     25  H   UNL     1       3.471  28.693  55.729  1.00  0.00     0.293 HD
ENDBRANCH   8  24
TORSDOF 5
ENDMDL
