MODEL 1
REMARK VINA RESULT:     3.051      0.000      0.000
REMARK INTER + INTRA:           9.397
REMARK INTER:                   4.478
REMARK INTRA:                   4.919
REMARK UNBOUND:                 4.919
REMARK SMILES CC(C)(O)CC[C@@H](O)[C@](C)(O)[C@H]1CC[C@@]2(O)C3=CC(=O)[C@H]4C[C@H](O)[C@H](O)C[C@]4(C)[C@@H]3CC[C@@]12C
REMARK SMILES IDX 6 1 7 2 9 3 10 4 12 5 34 6 33 7 32 8 15 9 31 10 17 11 14 12
REMARK SMILES IDX 13 13 30 14 18 15 28 16 19 17 21 18 27 19 29 20 20 21 22 22
REMARK SMILES IDX 25 23 23 24 16 25 26 27 24 29 11 31 8 33 5 35 2 36 1 37 3 38
REMARK SMILES IDX 4 39
REMARK H PARENT 16 26 26 28 24 30 11 32 8 34 4 40
REMARK Flexibility Score: inf
ROOT
ATOM      1  C   UNL     1       9.112 -28.974  17.499  1.00  0.00     0.038 C 
ENDROOT
BRANCH   1   2
ATOM      2  C   UNL     1       8.727 -29.327  18.970  1.00  0.00     0.146 C 
BRANCH   2   3
ATOM      3  C   UNL     1       7.252 -29.865  19.184  1.00  0.00     0.091 C 
ATOM      4  C   UNL     1       6.304 -28.671  19.496  1.00  0.00     0.045 C 
BRANCH   3   5
ATOM      5  C   UNL     1       6.755 -30.599  17.865  1.00  0.00     0.032 C 
ATOM      6  C   UNL     1       7.902 -32.938  17.698  1.00  0.00     0.015 C 
ATOM      7  C   UNL     1       7.728 -31.532  17.054  1.00  0.00     0.006 C 
ATOM      8  C   UNL     1       9.130 -30.863  16.856  1.00  0.00     0.011 C 
ATOM      9  C   UNL     1       6.971 -31.671  15.692  1.00  0.00     0.092 C 
ATOM     10  C   UNL     1       9.984 -31.505  15.749  1.00  0.00     0.009 C 
ATOM     11  C   UNL     1       7.916 -32.179  14.586  1.00  0.00    -0.031 C 
ATOM     12  C   UNL     1       6.416 -30.261  15.427  1.00  0.00     0.041 C 
ATOM     13  C   UNL     1       6.186 -29.633  16.799  1.00  0.00     0.010 C 
ATOM     14  C   UNL     1       9.242 -31.440  14.399  1.00  0.00     0.025 C 
ATOM     15  C   UNL     1       7.716 -33.390  14.011  1.00  0.00     0.050 C 
ATOM     16  C   UNL     1      10.050 -31.917  13.124  1.00  0.00    -0.013 C 
ATOM     17  C   UNL     1       8.730 -34.044  13.174  1.00  0.00     0.159 C 
ATOM     18  C   UNL     1      10.117 -33.470  13.108  1.00  0.00     0.070 C 
ATOM     19  C   UNL     1      11.509 -31.364  13.114  1.00  0.00     0.042 C 
ATOM     20  C   UNL     1       9.293 -31.359  11.876  1.00  0.00     0.013 C 
ATOM     21  O   UNL     1       8.445 -35.124  12.589  1.00  0.00    -0.295 OA
ATOM     22  C   UNL     1      10.937 -34.017  11.916  1.00  0.00     0.047 C 
ATOM     23  C   UNL     1      12.352 -31.891  11.935  1.00  0.00     0.143 C 
ATOM     24  C   UNL     1      12.362 -33.436  11.896  1.00  0.00     0.143 C 
BRANCH   9  25
ATOM     25  O   UNL     1       5.875 -32.549  15.874  1.00  0.00    -0.385 OA
ATOM     26  H   UNL     1       5.127 -32.249  15.292  1.00  0.00     0.211 HD
ENDBRANCH   9  25
BRANCH  23  27
ATOM     27  O   UNL     1      13.666 -31.411  12.071  1.00  0.00    -0.390 OA
ATOM     28  H   UNL     1      14.033 -31.813  12.902  1.00  0.00     0.211 HD
ENDBRANCH  23  27
BRANCH  24  29
ATOM     29  O   UNL     1      13.092 -33.938  12.989  1.00  0.00    -0.390 OA
ATOM     30  H   UNL     1      12.438 -34.284  13.651  1.00  0.00     0.211 HD
ENDBRANCH  24  29
ENDBRANCH   3   5
BRANCH   3  31
ATOM     31  O   UNL     1       7.252 -30.788  20.252  1.00  0.00    -0.387 OA
ATOM     32  H   UNL     1       7.763 -30.408  21.014  1.00  0.00     0.211 HD
ENDBRANCH   3  31
ENDBRANCH   2   3
BRANCH   2  33
ATOM     33  O   UNL     1       8.978 -28.203  19.775  1.00  0.00    -0.390 OA
ATOM     34  H   UNL     1       8.106 -27.879  20.122  1.00  0.00     0.211 HD
ENDBRANCH   2  33
ENDBRANCH   1   2
BRANCH   1  35
ATOM     35  C   UNL     1      10.601 -28.586  17.316  1.00  0.00     0.037 C 
BRANCH  35  36
ATOM     36  C   UNL     1      10.969 -27.853  15.987  1.00  0.00     0.059 C 
ATOM     37  C   UNL     1      10.256 -28.473  14.769  1.00  0.00     0.042 C 
ATOM     38  C   UNL     1      12.489 -27.862  15.745  1.00  0.00     0.042 C 
BRANCH  36  39
ATOM     39  O   UNL     1      10.583 -26.502  16.101  1.00  0.00    -0.390 OA
ATOM     40  H   UNL     1      10.815 -26.040  15.252  1.00  0.00     0.211 HD
ENDBRANCH  36  39
ENDBRANCH  35  36
ENDBRANCH   1  35
TORSDOF 11
ENDMDL
