MODEL 1
REMARK VINA RESULT:    -4.711      0.000      0.000
REMARK INTER + INTRA:          -6.425
REMARK INTER:                  -6.638
REMARK INTRA:                   0.213
REMARK UNBOUND:                 0.213
REMARK SMILES CC1=CCC(=C(C)C)C(=O)CC(C)=CCC1
REMARK SMILES IDX 12 1 14 2 13 3 15 4 16 5 2 6 1 7 3 8 11 10 9 11 10 12 5 13
REMARK SMILES IDX 6 14 7 15 8 16 4 17
REMARK H PARENT
REMARK Flexibility Score: 60.00
ROOT
ATOM      1  C   UNL     1     124.665 176.917 122.687  1.00  0.00    -0.070 C 
ATOM      2  C   UNL     1     123.867 177.634 121.866  1.00  0.00    -0.027 C 
ATOM      3  C   UNL     1     124.400 176.990 124.170  1.00  0.00     0.039 C 
ENDROOT
BRANCH   2   4
ATOM      4  C   UNL     1     123.912 177.617 120.353  1.00  0.00     0.032 C 
BRANCH   4   5
ATOM      5  C   UNL     1     124.929 178.591 119.724  1.00  0.00     0.034 C 
BRANCH   5   6
ATOM      6  C   UNL     1     125.819 177.936 118.682  1.00  0.00    -0.077 C 
ATOM      7  C   UNL     1     125.212 177.625 117.337  1.00  0.00     0.039 C 
ATOM      8  C   UNL     1     127.138 177.676 118.858  1.00  0.00    -0.023 CG0
ATOM      9  G   UNL     1     127.951 177.886 120.120  1.00  0.00     0.000 G0
ENDBRANCH   5   6
ENDBRANCH   4   5
ENDBRANCH   2   4
BRANCH   1  10
ATOM     10  C   UNL     1     125.744 175.979 122.187  1.00  0.00     0.111 C 
BRANCH  10  11
ATOM     11  C   UNL     1     127.102 176.630 122.209  1.00  0.00     0.163 C 
ATOM     12  O   UNL     1     127.501 177.134 123.294  1.00  0.00    -0.294 OA
BRANCH  11  13
ATOM     13  C   UNL     1     128.003 176.645 121.019  1.00  0.00    -0.002 C 
ATOM     14  C   UNL     1     128.765 175.555 120.704  1.00  0.00    -0.069 C 
ATOM     15  C   UNL     1     129.565 175.481 119.423  1.00  0.00     0.039 C 
ATOM     16  C   UNL     1     128.845 174.360 121.629  1.00  0.00     0.039 C 
BRANCH  13  17
ATOM     17  C   UNL     1     127.961 177.879 120.132  1.00  0.00     0.066 CG0
ATOM     18  G   UNL     1     127.143 177.657 118.874  1.00  0.00     0.000 G0
ENDBRANCH  13  17
ENDBRANCH  11  13
ENDBRANCH  10  11
ENDBRANCH   1  10
TORSDOF 0
ENDMDL
MODEL 2
REMARK VINA RESULT:    -4.577      2.072      3.909
REMARK INTER + INTRA:          -6.236
REMARK INTER:                  -6.483
REMARK INTRA:                   0.247
REMARK UNBOUND:                 0.213
REMARK SMILES CC1=CCC(=C(C)C)C(=O)CC(C)=CCC1
REMARK SMILES IDX 12 1 14 2 13 3 15 4 16 5 2 6 1 7 3 8 11 10 9 11 10 12 5 13
REMARK SMILES IDX 6 14 7 15 8 16 4 17
REMARK H PARENT
REMARK Flexibility Score: 60.00
ROOT
ATOM      1  C   UNL     1     124.268 177.688 121.921  1.00  0.00    -0.070 C 
ATOM      2  C   UNL     1     124.143 177.239 123.189  1.00  0.00    -0.027 C 
ATOM      3  C   UNL     1     123.022 178.154 121.211  1.00  0.00     0.039 C 
ENDROOT
BRANCH   2   4
ATOM      4  C   UNL     1     125.281 176.821 124.095  1.00  0.00     0.032 C 
BRANCH   4   5
ATOM      5  C   UNL     1     125.959 175.490 123.712  1.00  0.00     0.034 C 
BRANCH   5   6
ATOM      6  C   UNL     1     127.466 175.606 123.570  1.00  0.00    -0.077 C 
ATOM      7  C   UNL     1     128.256 176.019 124.786  1.00  0.00     0.039 C 
ATOM      8  C   UNL     1     128.154 175.295 122.444  1.00  0.00    -0.023 CG0
ATOM      9  G   UNL     1     127.576 174.877 121.105  1.00  0.00     0.000 G0
ENDBRANCH   5   6
ENDBRANCH   4   5
ENDBRANCH   2   4
BRANCH   1  10
ATOM     10  C   UNL     1     125.602 177.832 121.218  1.00  0.00     0.111 C 
BRANCH  10  11
ATOM     11  C   UNL     1     125.894 176.650 120.332  1.00  0.00     0.163 C 
ATOM     12  O   UNL     1     124.951 176.180 119.639  1.00  0.00    -0.294 OA
BRANCH  11  13
ATOM     13  C   UNL     1     127.261 176.061 120.204  1.00  0.00    -0.002 C 
ATOM     14  C   UNL     1     128.196 176.633 119.388  1.00  0.00    -0.069 C 
ATOM     15  C   UNL     1     129.631 176.155 119.358  1.00  0.00     0.039 C 
ATOM     16  C   UNL     1     127.838 177.780 118.468  1.00  0.00     0.039 C 
BRANCH  13  17
ATOM     17  C   UNL     1     127.587 174.868 121.089  1.00  0.00     0.066 CG0
ATOM     18  G   UNL     1     128.141 175.285 122.438  1.00  0.00     0.000 G0
ENDBRANCH  13  17
ENDBRANCH  11  13
ENDBRANCH  10  11
ENDBRANCH   1  10
TORSDOF 0
ENDMDL
MODEL 3
REMARK VINA RESULT:    -4.510      1.628      2.028
REMARK INTER + INTRA:          -6.143
REMARK INTER:                  -6.503
REMARK INTRA:                   0.360
REMARK UNBOUND:                 0.213
REMARK SMILES CC1=CCC(=C(C)C)C(=O)CC(C)=CCC1
REMARK SMILES IDX 12 1 14 2 13 3 15 4 16 5 2 6 1 7 3 8 11 10 9 11 10 12 5 13
REMARK SMILES IDX 6 14 7 15 8 16 4 17
REMARK H PARENT
REMARK Flexibility Score: 60.00
ROOT
ATOM      1  C   UNL     1     123.688 177.115 123.598  1.00  0.00    -0.070 C 
ATOM      2  C   UNL     1     122.941 177.380 122.503  1.00  0.00    -0.027 C 
ATOM      3  C   UNL     1     123.037 176.361 124.731  1.00  0.00     0.039 C 
ENDROOT
BRANCH   2   4
ATOM      4  C   UNL     1     123.438 178.035 121.233  1.00  0.00     0.032 C 
BRANCH   4   5
ATOM      5  C   UNL     1     123.775 177.057 120.088  1.00  0.00     0.034 C 
BRANCH   5   6
ATOM      6  C   UNL     1     124.996 177.473 119.287  1.00  0.00    -0.077 C 
ATOM      7  C   UNL     1     124.796 178.456 118.162  1.00  0.00     0.039 C 
ATOM      8  C   UNL     1     126.262 177.072 119.561  1.00  0.00    -0.023 CG0
ATOM      9  G   UNL     1     126.699 176.082 120.624  1.00  0.00     0.000 G0
ENDBRANCH   5   6
ENDBRANCH   4   5
ENDBRANCH   2   4
BRANCH   1  10
ATOM     10  C   UNL     1     125.161 177.454 123.703  1.00  0.00     0.111 C 
BRANCH  10  11
ATOM     11  C   UNL     1     126.022 176.398 123.063  1.00  0.00     0.163 C 
ATOM     12  O   UNL     1     125.884 175.205 123.450  1.00  0.00    -0.294 OA
BRANCH  11  13
ATOM     13  C   UNL     1     126.978 176.703 121.957  1.00  0.00    -0.002 C 
ATOM     14  C   UNL     1     128.098 177.452 122.188  1.00  0.00    -0.069 C 
ATOM     15  C   UNL     1     129.163 177.645 121.131  1.00  0.00     0.039 C 
ATOM     16  C   UNL     1     128.329 178.128 123.522  1.00  0.00     0.039 C 
BRANCH  13  17
ATOM     17  C   UNL     1     126.700 176.068 120.604  1.00  0.00     0.066 CG0
ATOM     18  G   UNL     1     126.244 177.084 119.574  1.00  0.00     0.000 G0
ENDBRANCH  13  17
ENDBRANCH  11  13
ENDBRANCH  10  11
ENDBRANCH   1  10
TORSDOF 0
ENDMDL
MODEL 4
REMARK VINA RESULT:    -4.305      4.777      7.524
REMARK INTER + INTRA:          -5.854
REMARK INTER:                  -6.393
REMARK INTRA:                   0.539
REMARK UNBOUND:                 0.213
REMARK SMILES CC1=CCC(=C(C)C)C(=O)CC(C)=CCC1
REMARK SMILES IDX 12 1 14 2 13 3 15 4 16 5 2 6 1 7 3 8 11 10 9 11 10 12 5 13
REMARK SMILES IDX 6 14 7 15 8 16 4 17
REMARK H PARENT
REMARK Flexibility Score: 60.00
ROOT
ATOM      1  C   UNL     1     119.871 178.774 124.497  1.00  0.00    -0.070 C 
ATOM      2  C   UNL     1     119.828 179.212 125.775  1.00  0.00    -0.027 C 
ATOM      3  C   UNL     1     118.560 178.538 123.788  1.00  0.00     0.039 C 
ENDROOT
BRANCH   2   4
ATOM      4  C   UNL     1     121.025 179.596 126.617  1.00  0.00     0.032 C 
BRANCH   4   5
ATOM      5  C   UNL     1     121.177 178.798 127.929  1.00  0.00     0.034 C 
BRANCH   5   6
ATOM      6  C   UNL     1     121.316 177.303 127.707  1.00  0.00    -0.077 C 
ATOM      7  C   UNL     1     120.295 176.400 128.352  1.00  0.00     0.039 C 
ATOM      8  C   UNL     1     122.253 176.733 126.911  1.00  0.00    -0.023 CG0
ATOM      9  G   UNL     1     123.383 177.434 126.181  1.00  0.00     0.000 G0
ENDBRANCH   5   6
ENDBRANCH   4   5
ENDBRANCH   2   4
BRANCH   1  10
ATOM     10  C   UNL     1     121.159 178.602 123.719  1.00  0.00     0.111 C 
BRANCH  10  11
ATOM     11  C   UNL     1     121.870 177.329 124.096  1.00  0.00     0.163 C 
ATOM     12  O   UNL     1     121.281 176.234 123.880  1.00  0.00    -0.294 OA
BRANCH  11  13
ATOM     13  C   UNL     1     123.255 177.318 124.654  1.00  0.00    -0.002 C 
ATOM     14  C   UNL     1     124.343 177.297 123.827  1.00  0.00    -0.069 C 
ATOM     15  C   UNL     1     125.752 177.445 124.355  1.00  0.00     0.039 C 
ATOM     16  C   UNL     1     124.188 177.124 122.332  1.00  0.00     0.039 C 
BRANCH  13  17
ATOM     17  C   UNL     1     123.395 177.429 126.164  1.00  0.00     0.066 CG0
ATOM     18  G   UNL     1     122.265 176.735 126.900  1.00  0.00     0.000 G0
ENDBRANCH  13  17
ENDBRANCH  11  13
ENDBRANCH  10  11
ENDBRANCH   1  10
TORSDOF 0
ENDMDL
MODEL 5
REMARK VINA RESULT:    -4.274      6.589      8.934
REMARK INTER + INTRA:          -5.810
REMARK INTER:                  -6.407
REMARK INTRA:                   0.597
REMARK UNBOUND:                 0.213
REMARK SMILES CC1=CCC(=C(C)C)C(=O)CC(C)=CCC1
REMARK SMILES IDX 12 1 14 2 13 3 15 4 16 5 2 6 1 7 3 8 11 10 9 11 10 12 5 13
REMARK SMILES IDX 6 14 7 15 8 16 4 17
REMARK H PARENT
REMARK Flexibility Score: 60.00
ROOT
ATOM      1  C   UNL     1     122.352 177.487 125.029  1.00  0.00    -0.070 C 
ATOM      2  C   UNL     1     121.571 177.854 123.989  1.00  0.00    -0.027 C 
ATOM      3  C   UNL     1     123.421 176.453 124.778  1.00  0.00     0.039 C 
ENDROOT
BRANCH   2   4
ATOM      4  C   UNL     1     120.516 178.938 124.016  1.00  0.00     0.032 C 
BRANCH   4   5
ATOM      5  C   UNL     1     119.076 178.448 123.758  1.00  0.00     0.034 C 
BRANCH   5   6
ATOM      6  C   UNL     1     118.252 178.318 125.027  1.00  0.00    -0.077 C 
ATOM      7  C   UNL     1     117.170 179.339 125.268  1.00  0.00     0.039 C 
ATOM      8  C   UNL     1     118.379 177.305 125.920  1.00  0.00    -0.023 CG0
ATOM      9  G   UNL     1     119.400 176.184 125.893  1.00  0.00     0.000 G0
ENDBRANCH   5   6
ENDBRANCH   4   5
ENDBRANCH   2   4
BRANCH   1  10
ATOM     10  C   UNL     1     122.269 178.129 126.398  1.00  0.00     0.111 C 
BRANCH  10  11
ATOM     11  C   UNL     1     121.050 177.670 127.154  1.00  0.00     0.163 C 
ATOM     12  O   UNL     1     120.491 178.490 127.933  1.00  0.00    -0.294 OA
BRANCH  11  13
ATOM     13  C   UNL     1     120.454 176.314 126.969  1.00  0.00    -0.002 C 
ATOM     14  C   UNL     1     120.803 175.278 127.791  1.00  0.00    -0.069 C 
ATOM     15  C   UNL     1     120.103 173.939 127.730  1.00  0.00     0.039 C 
ATOM     16  C   UNL     1     121.914 175.423 128.808  1.00  0.00     0.039 C 
BRANCH  13  17
ATOM     17  C   UNL     1     119.383 176.166 125.900  1.00  0.00     0.066 CG0
ATOM     18  G   UNL     1     118.397 177.318 125.909  1.00  0.00     0.000 G0
ENDBRANCH  13  17
ENDBRANCH  11  13
ENDBRANCH  10  11
ENDBRANCH   1  10
TORSDOF 0
ENDMDL
MODEL 6
REMARK VINA RESULT:    -4.261      6.252      9.621
REMARK INTER + INTRA:          -5.791
REMARK INTER:                  -6.108
REMARK INTRA:                   0.317
REMARK UNBOUND:                 0.213
REMARK SMILES CC1=CCC(=C(C)C)C(=O)CC(C)=CCC1
REMARK SMILES IDX 12 1 14 2 13 3 15 4 16 5 2 6 1 7 3 8 11 10 9 11 10 12 5 13
REMARK SMILES IDX 6 14 7 15 8 16 4 17
REMARK H PARENT
REMARK Flexibility Score: 60.00
ROOT
ATOM      1  C   UNL     1     122.299 176.461 124.069  1.00  0.00    -0.070 C 
ATOM      2  C   UNL     1     122.879 175.530 124.860  1.00  0.00    -0.027 C 
ATOM      3  C   UNL     1     123.199 177.322 123.218  1.00  0.00     0.039 C 
ENDROOT
BRANCH   2   4
ATOM      4  C   UNL     1     122.147 174.513 125.708  1.00  0.00     0.032 C 
BRANCH   4   5
ATOM      5  C   UNL     1     121.735 175.012 127.108  1.00  0.00     0.034 C 
BRANCH   5   6
ATOM      6  C   UNL     1     120.249 174.865 127.382  1.00  0.00    -0.077 C 
ATOM      7  C   UNL     1     119.730 173.489 127.714  1.00  0.00     0.039 C 
ATOM      8  C   UNL     1     119.372 175.899 127.416  1.00  0.00    -0.023 CG0
ATOM      9  G   UNL     1     119.661 177.354 127.102  1.00  0.00     0.000 G0
ENDBRANCH   5   6
ENDBRANCH   4   5
ENDBRANCH   2   4
BRANCH   1  10
ATOM     10  C   UNL     1     120.799 176.616 123.929  1.00  0.00     0.111 C 
BRANCH  10  11
ATOM     11  C   UNL     1     120.295 177.835 124.654  1.00  0.00     0.163 C 
ATOM     12  O   UNL     1     120.760 178.959 124.320  1.00  0.00    -0.294 OA
BRANCH  11  13
ATOM     13  C   UNL     1     119.234 177.764 125.702  1.00  0.00    -0.002 C 
ATOM     14  C   UNL     1     117.920 177.967 125.382  1.00  0.00    -0.069 C 
ATOM     15  C   UNL     1     116.810 177.746 126.386  1.00  0.00     0.039 C 
ATOM     16  C   UNL     1     117.511 178.424 124.000  1.00  0.00     0.039 C 
BRANCH  13  17
ATOM     17  C   UNL     1     119.668 177.365 127.103  1.00  0.00     0.066 CG0
ATOM     18  G   UNL     1     119.385 175.905 127.400  1.00  0.00     0.000 G0
ENDBRANCH  13  17
ENDBRANCH  11  13
ENDBRANCH  10  11
ENDBRANCH   1  10
TORSDOF 0
ENDMDL
MODEL 7
REMARK VINA RESULT:    -4.249      7.428      8.889
REMARK INTER + INTRA:          -5.775
REMARK INTER:                  -6.420
REMARK INTRA:                   0.645
REMARK UNBOUND:                 0.213
REMARK SMILES CC1=CCC(=C(C)C)C(=O)CC(C)=CCC1
REMARK SMILES IDX 12 1 14 2 13 3 15 4 16 5 2 6 1 7 3 8 11 10 9 11 10 12 5 13
REMARK SMILES IDX 6 14 7 15 8 16 4 17
REMARK H PARENT
REMARK Flexibility Score: 60.00
ROOT
ATOM      1  C   UNL     1     120.869 177.473 124.700  1.00  0.00    -0.070 C 
ATOM      2  C   UNL     1     121.736 178.326 125.289  1.00  0.00    -0.027 C 
ATOM      3  C   UNL     1     119.660 178.058 124.012  1.00  0.00     0.039 C 
ENDROOT
BRANCH   2   4
ATOM      4  C   UNL     1     123.047 177.943 125.941  1.00  0.00     0.032 C 
BRANCH   4   5
ATOM      5  C   UNL     1     123.045 178.002 127.483  1.00  0.00     0.034 C 
BRANCH   5   6
ATOM      6  C   UNL     1     121.692 177.685 128.092  1.00  0.00    -0.077 C 
ATOM      7  C   UNL     1     120.821 178.844 128.510  1.00  0.00     0.039 C 
ATOM      8  C   UNL     1     121.186 176.434 128.221  1.00  0.00    -0.023 CG0
ATOM      9  G   UNL     1     121.881 175.127 127.888  1.00  0.00     0.000 G0
ENDBRANCH   5   6
ENDBRANCH   4   5
ENDBRANCH   2   4
BRANCH   1  10
ATOM     10  C   UNL     1     121.100 175.979 124.616  1.00  0.00     0.111 C 
BRANCH  10  11
ATOM     11  C   UNL     1     120.434 175.248 125.753  1.00  0.00     0.163 C 
ATOM     12  O   UNL     1     119.179 175.317 125.849  1.00  0.00    -0.294 OA
BRANCH  11  13
ATOM     13  C   UNL     1     121.198 174.408 126.723  1.00  0.00    -0.002 C 
ATOM     14  C   UNL     1     121.357 173.067 126.512  1.00  0.00    -0.069 C 
ATOM     15  C   UNL     1     122.254 172.221 127.388  1.00  0.00     0.039 C 
ATOM     16  C   UNL     1     120.640 172.359 125.384  1.00  0.00     0.039 C 
BRANCH  13  17
ATOM     17  C   UNL     1     121.862 175.123 127.888  1.00  0.00     0.066 CG0
ATOM     18  G   UNL     1     121.183 176.438 128.220  1.00  0.00     0.000 G0
ENDBRANCH  13  17
ENDBRANCH  11  13
ENDBRANCH  10  11
ENDBRANCH   1  10
TORSDOF 0
ENDMDL
MODEL 8
REMARK VINA RESULT:    -4.145      1.612      2.291
REMARK INTER + INTRA:          -5.628
REMARK INTER:                  -6.304
REMARK INTRA:                   0.676
REMARK UNBOUND:                 0.213
REMARK SMILES CC1=CCC(=C(C)C)C(=O)CC(C)=CCC1
REMARK SMILES IDX 12 1 14 2 13 3 15 4 16 5 2 6 1 7 3 8 11 10 9 11 10 12 5 13
REMARK SMILES IDX 6 14 7 15 8 16 4 17
REMARK H PARENT
REMARK Flexibility Score: 60.00
ROOT
ATOM      1  C   UNL     1     125.373 177.623 122.770  1.00  0.00    -0.070 C 
ATOM      2  C   UNL     1     124.659 177.504 121.628  1.00  0.00    -0.027 C 
ATOM      3  C   UNL     1     124.876 176.893 123.992  1.00  0.00     0.039 C 
ENDROOT
BRANCH   2   4
ATOM      4  C   UNL     1     125.045 178.077 120.282  1.00  0.00     0.032 C 
BRANCH   4   5
ATOM      5  C   UNL     1     125.462 177.031 119.228  1.00  0.00     0.034 C 
BRANCH   5   6
ATOM      6  C   UNL     1     126.963 176.965 119.012  1.00  0.00    -0.077 C 
ATOM      7  C   UNL     1     127.546 177.774 117.881  1.00  0.00     0.039 C 
ATOM      8  C   UNL     1     127.821 176.284 119.811  1.00  0.00    -0.023 CG0
ATOM      9  G   UNL     1     127.465 175.395 120.988  1.00  0.00     0.000 G0
ENDBRANCH   5   6
ENDBRANCH   4   5
ENDBRANCH   2   4
BRANCH   1  10
ATOM     10  C   UNL     1     126.686 178.373 122.855  1.00  0.00     0.111 C 
BRANCH  10  11
ATOM     11  C   UNL     1     127.840 177.528 122.385  1.00  0.00     0.163 C 
ATOM     12  O   UNL     1     128.914 178.111 122.072  1.00  0.00    -0.294 OA
BRANCH  11  13
ATOM     13  C   UNL     1     127.776 176.037 122.335  1.00  0.00    -0.002 C 
ATOM     14  C   UNL     1     127.918 175.292 123.472  1.00  0.00    -0.069 C 
ATOM     15  C   UNL     1     127.700 173.795 123.479  1.00  0.00     0.039 C 
ATOM     16  C   UNL     1     128.301 175.932 124.787  1.00  0.00     0.039 C 
BRANCH  13  17
ATOM     17  C   UNL     1     127.451 175.402 120.992  1.00  0.00     0.066 CG0
ATOM     18  G   UNL     1     127.839 176.289 119.825  1.00  0.00     0.000 G0
ENDBRANCH  13  17
ENDBRANCH  11  13
ENDBRANCH  10  11
ENDBRANCH   1  10
TORSDOF 0
ENDMDL
MODEL 9
REMARK VINA RESULT:    -4.085      5.854      8.756
REMARK INTER + INTRA:          -5.543
REMARK INTER:                  -6.029
REMARK INTRA:                   0.486
REMARK UNBOUND:                 0.213
REMARK SMILES CC1=CCC(=C(C)C)C(=O)CC(C)=CCC1
REMARK SMILES IDX 12 1 14 2 13 3 15 4 16 5 2 6 1 7 3 8 11 10 9 11 10 12 5 13
REMARK SMILES IDX 6 14 7 15 8 16 4 17
REMARK H PARENT
REMARK Flexibility Score: 60.00
ROOT
ATOM      1  C   UNL     1     121.807 177.176 124.007  1.00  0.00    -0.070 C 
ATOM      2  C   UNL     1     121.518 178.402 124.498  1.00  0.00    -0.027 C 
ATOM      3  C   UNL     1     123.080 177.017 123.212  1.00  0.00     0.039 C 
ENDROOT
BRANCH   2   4
ATOM      4  C   UNL     1     120.347 178.740 125.395  1.00  0.00     0.032 C 
BRANCH   4   5
ATOM      5  C   UNL     1     120.732 179.242 126.801  1.00  0.00     0.034 C 
BRANCH   5   6
ATOM      6  C   UNL     1     121.771 178.370 127.484  1.00  0.00    -0.077 C 
ATOM      7  C   UNL     1     123.077 179.014 127.878  1.00  0.00     0.039 C 
ATOM      8  C   UNL     1     121.576 177.073 127.824  1.00  0.00    -0.023 CG0
ATOM      9  G   UNL     1     120.360 176.220 127.517  1.00  0.00     0.000 G0
ENDBRANCH   5   6
ENDBRANCH   4   5
ENDBRANCH   2   4
BRANCH   1  10
ATOM     10  C   UNL     1     120.972 175.946 124.294  1.00  0.00     0.111 C 
BRANCH  10  11
ATOM     11  C   UNL     1     121.507 175.172 125.469  1.00  0.00     0.163 C 
ATOM     12  O   UNL     1     122.684 174.724 125.399  1.00  0.00    -0.294 OA
BRANCH  11  13
ATOM     13  C   UNL     1     120.720 174.969 126.722  1.00  0.00    -0.002 C 
ATOM     14  C   UNL     1     120.411 173.712 127.159  1.00  0.00    -0.069 C 
ATOM     15  C   UNL     1     119.756 173.470 128.501  1.00  0.00     0.039 C 
ATOM     16  C   UNL     1     120.714 172.492 126.317  1.00  0.00     0.039 C 
BRANCH  13  17
ATOM     17  C   UNL     1     120.368 176.209 127.528  1.00  0.00     0.066 CG0
ATOM     18  G   UNL     1     121.580 177.076 127.812  1.00  0.00     0.000 G0
ENDBRANCH  13  17
ENDBRANCH  11  13
ENDBRANCH  10  11
ENDBRANCH   1  10
TORSDOF 0
ENDMDL
