MODEL 1
REMARK VINA RESULT:    -5.866      0.000      0.000
REMARK INTER + INTRA:          -7.518
REMARK INTER:                  -7.066
REMARK INTRA:                  -0.453
REMARK UNBOUND:                -0.453
REMARK SMILES O=c1ccn([C@@H]2O[C@H](CO)[C@@H](O)[C@H]2O)c(=O)[nH]1
REMARK SMILES IDX 6 1 13 2 11 3 8 4 7 5 5 6 3 7 4 8 2 9 17 10 1 11 15 12 16 14
REMARK SMILES IDX 14 15 12 17 9 19 10 20
REMARK H PARENT 17 13 14 16 12 18 10 21
REMARK Flexibility Score: inf
ROOT
ATOM      1  C   UNL     1      29.267   9.380   6.176  1.00  0.00     0.255 C 
ATOM      2  C   UNL     1      29.034  10.896   6.079  1.00  0.00     0.196 C 
ATOM      3  C   UNL     1      29.613  11.254   4.726  1.00  0.00     0.179 C 
ATOM      4  C   UNL     1      29.553   9.927   3.981  1.00  0.00     0.178 C 
ATOM      5  O   UNL     1      29.703   8.889   4.922  1.00  0.00    -0.347 OA
ENDROOT
BRANCH   1   6
ATOM      6  N   UNL     1      30.268   9.075   7.220  1.00  0.00    -0.271 N 
ATOM      7  C   UNL     1      31.978   9.824   8.729  1.00  0.00     0.090 A 
ATOM      8  C   UNL     1      31.051  10.080   7.723  1.00  0.00     0.099 A 
ATOM      9  C   UNL     1      32.082   8.530   9.226  1.00  0.00     0.253 A 
ATOM     10  N   UNL     1      31.280   7.550   8.732  1.00  0.00    -0.274 N 
ATOM     11  O   UNL     1      32.913   8.268  10.136  1.00  0.00    -0.269 OA
ATOM     12  C   UNL     1      30.374   7.811   7.749  1.00  0.00     0.330 A 
ATOM     13  H   UNL     1      31.356   6.582   9.120  1.00  0.00     0.175 HD
ATOM     14  O   UNL     1      29.633   6.877   7.335  1.00  0.00    -0.248 OA
ENDBRANCH   1   6
BRANCH   2  15
ATOM     15  O   UNL     1      27.664  11.213   6.176  1.00  0.00    -0.386 OA
ATOM     16  H   UNL     1      27.397  11.692   5.348  1.00  0.00     0.211 HD
ENDBRANCH   2  15
BRANCH   3  17
ATOM     17  O   UNL     1      28.865  12.241   4.065  1.00  0.00    -0.387 OA
ATOM     18  H   UNL     1      28.293  12.667   4.754  1.00  0.00     0.211 HD
ENDBRANCH   3  17
BRANCH   4  19
ATOM     19  C   UNL     1      30.641   9.810   2.910  1.00  0.00     0.191 C 
BRANCH  19  20
ATOM     20  O   UNL     1      31.139  11.081   2.589  1.00  0.00    -0.394 OA
ATOM     21  H   UNL     1      30.501  11.470   1.936  1.00  0.00     0.210 HD
ENDBRANCH  19  20
ENDBRANCH   4  19
TORSDOF 5
ENDMDL
MODEL 2
REMARK VINA RESULT:    -5.610      1.672      2.362
REMARK INTER + INTRA:          -7.211
REMARK INTER:                  -6.906
REMARK INTRA:                  -0.305
REMARK UNBOUND:                -0.453
REMARK SMILES O=c1ccn([C@@H]2O[C@H](CO)[C@@H](O)[C@H]2O)c(=O)[nH]1
REMARK SMILES IDX 6 1 13 2 11 3 8 4 7 5 5 6 3 7 4 8 2 9 17 10 1 11 15 12 16 14
REMARK SMILES IDX 14 15 12 17 9 19 10 20
REMARK H PARENT 17 13 14 16 12 18 10 21
REMARK Flexibility Score: inf
ROOT
ATOM      1  C   UNL     1      30.196  10.473   5.734  1.00  0.00     0.255 C 
ATOM      2  C   UNL     1      31.443  10.935   4.963  1.00  0.00     0.196 C 
ATOM      3  C   UNL     1      31.304  10.243   3.624  1.00  0.00     0.179 C 
ATOM      4  C   UNL     1      29.806   9.982   3.542  1.00  0.00     0.178 C 
ATOM      5  O   UNL     1      29.321   9.795   4.851  1.00  0.00    -0.347 OA
ENDROOT
BRANCH   1   6
ATOM      6  N   UNL     1      30.578   9.588   6.855  1.00  0.00    -0.271 N 
ATOM      7  C   UNL     1      32.060   7.942   7.778  1.00  0.00     0.090 A 
ATOM      8  C   UNL     1      31.661   8.761   6.726  1.00  0.00     0.099 A 
ATOM      9  C   UNL     1      31.346   7.994   8.971  1.00  0.00     0.253 A 
ATOM     10  N   UNL     1      30.289   8.839   9.089  1.00  0.00    -0.274 N 
ATOM     11  O   UNL     1      31.683   7.264   9.940  1.00  0.00    -0.269 OA
ATOM     12  C   UNL     1      29.907   9.638   8.053  1.00  0.00     0.330 A 
ATOM     13  H   UNL     1      29.764   8.881   9.992  1.00  0.00     0.175 HD
ATOM     14  O   UNL     1      28.934  10.425   8.213  1.00  0.00    -0.248 OA
ENDBRANCH   1   6
BRANCH   2  15
ATOM     15  O   UNL     1      31.479  12.339   4.839  1.00  0.00    -0.386 OA
ATOM     16  H   UNL     1      32.413  12.640   4.991  1.00  0.00     0.211 HD
ENDBRANCH   2  15
BRANCH   3  17
ATOM     17  O   UNL     1      31.739  11.044   2.556  1.00  0.00    -0.387 OA
ATOM     18  H   UNL     1      30.920  11.388   2.113  1.00  0.00     0.211 HD
ENDBRANCH   3  17
BRANCH   4  19
ATOM     19  C   UNL     1      29.474   8.753   2.690  1.00  0.00     0.191 C 
BRANCH  19  20
ATOM     20  O   UNL     1      29.602   7.587   3.457  1.00  0.00    -0.394 OA
ATOM     21  H   UNL     1      29.103   7.754   4.298  1.00  0.00     0.210 HD
ENDBRANCH  19  20
ENDBRANCH   4  19
TORSDOF 5
ENDMDL
MODEL 3
REMARK VINA RESULT:    -5.599      1.992      2.698
REMARK INTER + INTRA:          -7.198
REMARK INTER:                  -6.680
REMARK INTRA:                  -0.518
REMARK UNBOUND:                -0.453
REMARK SMILES O=c1ccn([C@@H]2O[C@H](CO)[C@@H](O)[C@H]2O)c(=O)[nH]1
REMARK SMILES IDX 6 1 13 2 11 3 8 4 7 5 5 6 3 7 4 8 2 9 17 10 1 11 15 12 16 14
REMARK SMILES IDX 14 15 12 17 9 19 10 20
REMARK H PARENT 17 13 14 16 12 18 10 21
REMARK Flexibility Score: inf
ROOT
ATOM      1  C   UNL     1      30.081   9.728   6.716  1.00  0.00     0.255 C 
ATOM      2  C   UNL     1      31.358  10.584   6.685  1.00  0.00     0.196 C 
ATOM      3  C   UNL     1      31.399  11.100   5.262  1.00  0.00     0.179 C 
ATOM      4  C   UNL     1      29.939  11.012   4.838  1.00  0.00     0.178 C 
ATOM      5  O   UNL     1      29.348   9.933   5.523  1.00  0.00    -0.347 OA
ENDROOT
BRANCH   1   6
ATOM      6  N   UNL     1      30.420   8.297   6.869  1.00  0.00    -0.271 N 
ATOM      7  C   UNL     1      30.842   6.154   5.874  1.00  0.00     0.090 A 
ATOM      8  C   UNL     1      30.494   7.496   5.761  1.00  0.00     0.099 A 
ATOM      9  C   UNL     1      31.132   5.645   7.136  1.00  0.00     0.253 A 
ATOM     10  N   UNL     1      31.077   6.460   8.222  1.00  0.00    -0.274 N 
ATOM     11  O   UNL     1      31.449   4.434   7.270  1.00  0.00    -0.269 OA
ATOM     12  C   UNL     1      30.736   7.774   8.099  1.00  0.00     0.330 A 
ATOM     13  H   UNL     1      31.307   6.073   9.165  1.00  0.00     0.175 HD
ATOM     14  O   UNL     1      30.720   8.501   9.130  1.00  0.00    -0.248 OA
ENDBRANCH   1   6
BRANCH   2  15
ATOM     15  O   UNL     1      31.300  11.627   7.632  1.00  0.00    -0.386 OA
ATOM     16  H   UNL     1      30.528  11.458   8.232  1.00  0.00     0.211 HD
ENDBRANCH   2  15
BRANCH   3  17
ATOM     17  O   UNL     1      31.872  12.420   5.182  1.00  0.00    -0.387 OA
ATOM     18  H   UNL     1      32.240  12.640   6.077  1.00  0.00     0.211 HD
ENDBRANCH   3  17
BRANCH   4  19
ATOM     19  C   UNL     1      29.783  10.810   3.328  1.00  0.00     0.191 C 
BRANCH  19  20
ATOM     20  O   UNL     1      31.004  11.044   2.681  1.00  0.00    -0.394 OA
ATOM     21  H   UNL     1      31.442  11.783   3.178  1.00  0.00     0.210 HD
ENDBRANCH  19  20
ENDBRANCH   4  19
TORSDOF 5
ENDMDL
MODEL 4
REMARK VINA RESULT:    -5.357      2.552      5.224
REMARK INTER + INTRA:          -6.905
REMARK INTER:                  -6.576
REMARK INTRA:                  -0.330
REMARK UNBOUND:                -0.453
REMARK SMILES O=c1ccn([C@@H]2O[C@H](CO)[C@@H](O)[C@H]2O)c(=O)[nH]1
REMARK SMILES IDX 6 1 13 2 11 3 8 4 7 5 5 6 3 7 4 8 2 9 17 10 1 11 15 12 16 14
REMARK SMILES IDX 14 15 12 17 9 19 10 20
REMARK H PARENT 17 13 14 16 12 18 10 21
REMARK Flexibility Score: inf
ROOT
ATOM      1  C   UNL     1      29.783   9.818   5.366  1.00  0.00     0.255 C 
ATOM      2  C   UNL     1      30.292   8.368   5.332  1.00  0.00     0.196 C 
ATOM      3  C   UNL     1      30.507   8.038   6.794  1.00  0.00     0.179 C 
ATOM      4  C   UNL     1      29.581   9.025   7.494  1.00  0.00     0.178 C 
ATOM      5  O   UNL     1      29.503  10.188   6.704  1.00  0.00    -0.347 OA
ENDROOT
BRANCH   1   6
ATOM      6  N   UNL     1      30.786  10.734   4.782  1.00  0.00    -0.271 N 
ATOM      7  C   UNL     1      32.755  12.082   5.040  1.00  0.00     0.090 A 
ATOM      8  C   UNL     1      31.780  11.244   5.573  1.00  0.00     0.099 A 
ATOM      9  C   UNL     1      32.710  12.377   3.682  1.00  0.00     0.253 A 
ATOM     10  N   UNL     1      31.730  11.842   2.907  1.00  0.00    -0.274 N 
ATOM     11  O   UNL     1      33.578  13.134   3.172  1.00  0.00    -0.269 OA
ATOM     12  C   UNL     1      30.781  11.022   3.438  1.00  0.00     0.330 A 
ATOM     13  H   UNL     1      31.710  12.060   1.884  1.00  0.00     0.175 HD
ATOM     14  O   UNL     1      29.903  10.527   2.679  1.00  0.00    -0.248 OA
ENDBRANCH   1   6
BRANCH   2  15
ATOM     15  O   UNL     1      29.357   7.510   4.721  1.00  0.00    -0.386 OA
ATOM     16  H   UNL     1      29.283   6.687   5.272  1.00  0.00     0.211 HD
ENDBRANCH   2  15
BRANCH   3  17
ATOM     17  O   UNL     1      30.160   6.712   7.103  1.00  0.00    -0.387 OA
ATOM     18  H   UNL     1      29.961   6.267   6.239  1.00  0.00     0.211 HD
ENDBRANCH   3  17
BRANCH   4  19
ATOM     19  C   UNL     1      30.073   9.390   8.898  1.00  0.00     0.191 C 
BRANCH  19  20
ATOM     20  O   UNL     1      29.074  10.088   9.591  1.00  0.00    -0.394 OA
ATOM     21  H   UNL     1      28.492   9.399  10.004  1.00  0.00     0.210 HD
ENDBRANCH  19  20
ENDBRANCH   4  19
TORSDOF 5
ENDMDL
MODEL 5
REMARK VINA RESULT:    -5.343      1.862      5.426
REMARK INTER + INTRA:          -6.889
REMARK INTER:                  -6.430
REMARK INTRA:                  -0.458
REMARK UNBOUND:                -0.453
REMARK SMILES O=c1ccn([C@@H]2O[C@H](CO)[C@@H](O)[C@H]2O)c(=O)[nH]1
REMARK SMILES IDX 6 1 13 2 11 3 8 4 7 5 5 6 3 7 4 8 2 9 17 10 1 11 15 12 16 14
REMARK SMILES IDX 14 15 12 17 9 19 10 20
REMARK H PARENT 17 13 14 16 12 18 10 21
REMARK Flexibility Score: inf
ROOT
ATOM      1  C   UNL     1      31.885   9.311   7.148  1.00  0.00     0.255 C 
ATOM      2  C   UNL     1      31.546   9.163   8.640  1.00  0.00     0.196 C 
ATOM      3  C   UNL     1      31.234   7.689   8.785  1.00  0.00     0.179 C 
ATOM      4  C   UNL     1      31.973   7.078   7.601  1.00  0.00     0.178 C 
ATOM      5  O   UNL     1      31.995   8.027   6.561  1.00  0.00    -0.347 OA
ENDROOT
BRANCH   1   6
ATOM      6  N   UNL     1      30.845  10.102   6.456  1.00  0.00    -0.271 N 
ATOM      7  C   UNL     1      28.567  10.839   6.304  1.00  0.00     0.090 A 
ATOM      8  C   UNL     1      29.557  10.079   6.918  1.00  0.00     0.099 A 
ATOM      9  C   UNL     1      28.916  11.639   5.221  1.00  0.00     0.253 A 
ATOM     10  N   UNL     1      30.205  11.668   4.791  1.00  0.00    -0.274 N 
ATOM     11  O   UNL     1      28.041  12.338   4.644  1.00  0.00    -0.269 OA
ATOM     12  C   UNL     1      31.167  10.920   5.400  1.00  0.00     0.330 A 
ATOM     13  H   UNL     1      30.461  12.280   3.983  1.00  0.00     0.175 HD
ATOM     14  O   UNL     1      32.356  10.995   4.984  1.00  0.00    -0.248 OA
ENDBRANCH   1   6
BRANCH   2  15
ATOM     15  O   UNL     1      32.625   9.564   9.453  1.00  0.00    -0.386 OA
ATOM     16  H   UNL     1      32.276   9.748  10.364  1.00  0.00     0.211 HD
ENDBRANCH   2  15
BRANCH   3  17
ATOM     17  O   UNL     1      31.696   7.158  10.000  1.00  0.00    -0.387 OA
ATOM     18  H   UNL     1      32.248   7.865  10.422  1.00  0.00     0.211 HD
ENDBRANCH   3  17
BRANCH   4  19
ATOM     19  C   UNL     1      31.315   5.787   7.106  1.00  0.00     0.191 C 
BRANCH  19  20
ATOM     20  O   UNL     1      30.129   5.549   7.814  1.00  0.00    -0.394 OA
ATOM     21  H   UNL     1      30.395   5.415   8.760  1.00  0.00     0.210 HD
ENDBRANCH  19  20
ENDBRANCH   4  19
TORSDOF 5
ENDMDL
MODEL 6
REMARK VINA RESULT:    -5.323      2.023      2.374
REMARK INTER + INTRA:          -6.865
REMARK INTER:                  -6.417
REMARK INTRA:                  -0.448
REMARK UNBOUND:                -0.453
REMARK SMILES O=c1ccn([C@@H]2O[C@H](CO)[C@@H](O)[C@H]2O)c(=O)[nH]1
REMARK SMILES IDX 6 1 13 2 11 3 8 4 7 5 5 6 3 7 4 8 2 9 17 10 1 11 15 12 16 14
REMARK SMILES IDX 14 15 12 17 9 19 10 20
REMARK H PARENT 17 13 14 16 12 18 10 21
REMARK Flexibility Score: inf
ROOT
ATOM      1  C   UNL     1      30.134  10.427   6.008  1.00  0.00     0.255 C 
ATOM      2  C   UNL     1      30.279  11.310   4.758  1.00  0.00     0.196 C 
ATOM      3  C   UNL     1      30.471  10.307   3.641  1.00  0.00     0.179 C 
ATOM      4  C   UNL     1      29.840   9.046   4.218  1.00  0.00     0.178 C 
ATOM      5  O   UNL     1      30.008   9.073   5.617  1.00  0.00    -0.347 OA
ENDROOT
BRANCH   1   6
ATOM      6  N   UNL     1      31.300  10.596   6.900  1.00  0.00    -0.271 N 
ATOM      7  C   UNL     1      33.524  11.421   7.263  1.00  0.00     0.090 A 
ATOM      8  C   UNL     1      32.425  11.222   6.434  1.00  0.00     0.099 A 
ATOM      9  C   UNL     1      33.452  10.987   8.582  1.00  0.00     0.253 A 
ATOM     10  N   UNL     1      32.318  10.389   9.035  1.00  0.00    -0.274 N 
ATOM     11  O   UNL     1      34.432  11.153   9.356  1.00  0.00    -0.269 OA
ATOM     12  C   UNL     1      31.247  10.200   8.215  1.00  0.00     0.330 A 
ATOM     13  H   UNL     1      32.267  10.075  10.031  1.00  0.00     0.175 HD
ATOM     14  O   UNL     1      30.205   9.661   8.682  1.00  0.00    -0.248 OA
ENDBRANCH   1   6
BRANCH   2  15
ATOM     15  O   UNL     1      29.139  12.117   4.564  1.00  0.00    -0.386 OA
ATOM     16  H   UNL     1      28.762  11.910   3.669  1.00  0.00     0.211 HD
ENDBRANCH   2  15
BRANCH   3  17
ATOM     17  O   UNL     1      29.831  10.695   2.453  1.00  0.00    -0.387 OA
ATOM     18  H   UNL     1      30.497  10.581   1.726  1.00  0.00     0.211 HD
ENDBRANCH   3  17
BRANCH   4  19
ATOM     19  C   UNL     1      30.464   7.768   3.650  1.00  0.00     0.191 C 
BRANCH  19  20
ATOM     20  O   UNL     1      31.277   8.077   2.551  1.00  0.00    -0.394 OA
ATOM     21  H   UNL     1      31.167   7.330   1.908  1.00  0.00     0.210 HD
ENDBRANCH  19  20
ENDBRANCH   4  19
TORSDOF 5
ENDMDL
MODEL 7
REMARK VINA RESULT:    -5.313      1.740      2.275
REMARK INTER + INTRA:          -6.852
REMARK INTER:                  -6.464
REMARK INTRA:                  -0.388
REMARK UNBOUND:                -0.453
REMARK SMILES O=c1ccn([C@@H]2O[C@H](CO)[C@@H](O)[C@H]2O)c(=O)[nH]1
REMARK SMILES IDX 6 1 13 2 11 3 8 4 7 5 5 6 3 7 4 8 2 9 17 10 1 11 15 12 16 14
REMARK SMILES IDX 14 15 12 17 9 19 10 20
REMARK H PARENT 17 13 14 16 12 18 10 21
REMARK Flexibility Score: inf
ROOT
ATOM      1  C   UNL     1      30.266   9.710   4.823  1.00  0.00     0.255 C 
ATOM      2  C   UNL     1      30.729  11.176   4.822  1.00  0.00     0.196 C 
ATOM      3  C   UNL     1      31.849  11.189   3.803  1.00  0.00     0.179 C 
ATOM      4  C   UNL     1      31.523   9.978   2.939  1.00  0.00     0.178 C 
ATOM      5  O   UNL     1      30.882   9.021   3.750  1.00  0.00    -0.347 OA
ENDROOT
BRANCH   1   6
ATOM      6  N   UNL     1      30.601   9.061   6.107  1.00  0.00    -0.271 N 
ATOM      7  C   UNL     1      32.151   7.818   7.455  1.00  0.00     0.090 A 
ATOM      8  C   UNL     1      31.798   8.410   6.246  1.00  0.00     0.099 A 
ATOM      9  C   UNL     1      31.271   7.917   8.527  1.00  0.00     0.253 A 
ATOM     10  N   UNL     1      30.099   8.588   8.379  1.00  0.00    -0.274 N 
ATOM     11  O   UNL     1      31.563   7.391   9.633  1.00  0.00    -0.269 OA
ATOM     12  C   UNL     1      29.763   9.165   7.191  1.00  0.00     0.330 A 
ATOM     13  H   UNL     1      29.448   8.668   9.193  1.00  0.00     0.175 HD
ATOM     14  O   UNL     1      28.675   9.799   7.104  1.00  0.00    -0.248 OA
ENDBRANCH   1   6
BRANCH   2  15
ATOM     15  O   UNL     1      29.677  12.047   4.473  1.00  0.00    -0.386 OA
ATOM     16  H   UNL     1      29.036  12.078   5.230  1.00  0.00     0.211 HD
ENDBRANCH   2  15
BRANCH   3  17
ATOM     17  O   UNL     1      31.867  12.367   3.039  1.00  0.00    -0.387 OA
ATOM     18  H   UNL     1      31.711  12.092   2.098  1.00  0.00     0.211 HD
ENDBRANCH   3  17
BRANCH   4  19
ATOM     19  C   UNL     1      32.772   9.360   2.305  1.00  0.00     0.191 C 
BRANCH  19  20
ATOM     20  O   UNL     1      33.025   8.101   2.868  1.00  0.00    -0.394 OA
ATOM     21  H   UNL     1      32.638   7.437   2.242  1.00  0.00     0.210 HD
ENDBRANCH  19  20
ENDBRANCH   4  19
TORSDOF 5
ENDMDL
MODEL 8
REMARK VINA RESULT:    -5.306     12.907     14.113
REMARK INTER + INTRA:          -6.844
REMARK INTER:                  -6.601
REMARK INTRA:                  -0.243
REMARK UNBOUND:                -0.453
REMARK SMILES O=c1ccn([C@@H]2O[C@H](CO)[C@@H](O)[C@H]2O)c(=O)[nH]1
REMARK SMILES IDX 6 1 13 2 11 3 8 4 7 5 5 6 3 7 4 8 2 9 17 10 1 11 15 12 16 14
REMARK SMILES IDX 14 15 12 17 9 19 10 20
REMARK H PARENT 17 13 14 16 12 18 10 21
REMARK Flexibility Score: inf
ROOT
ATOM      1  C   UNL     1      20.993  -1.350   3.787  1.00  0.00     0.255 C 
ATOM      2  C   UNL     1      19.469  -1.361   3.581  1.00  0.00     0.196 C 
ATOM      3  C   UNL     1      19.314  -1.113   2.096  1.00  0.00     0.179 C 
ATOM      4  C   UNL     1      20.656  -1.576   1.543  1.00  0.00     0.178 C 
ATOM      5  O   UNL     1      21.638  -1.346   2.526  1.00  0.00    -0.347 OA
ENDROOT
BRANCH   1   6
ATOM      6  N   UNL     1      21.402  -0.168   4.574  1.00  0.00    -0.271 N 
ATOM      7  C   UNL     1      21.052   2.122   5.201  1.00  0.00     0.090 A 
ATOM      8  C   UNL     1      20.707   1.005   4.446  1.00  0.00     0.099 A 
ATOM      9  C   UNL     1      22.106   2.019   6.102  1.00  0.00     0.253 A 
ATOM     10  N   UNL     1      22.769   0.839   6.233  1.00  0.00    -0.274 N 
ATOM     11  O   UNL     1      22.442   3.014   6.797  1.00  0.00    -0.269 OA
ATOM     12  C   UNL     1      22.422  -0.249   5.491  1.00  0.00     0.330 A 
ATOM     13  H   UNL     1      23.553   0.766   6.921  1.00  0.00     0.175 HD
ATOM     14  O   UNL     1      23.048  -1.332   5.661  1.00  0.00    -0.248 OA
ENDBRANCH   1   6
BRANCH   2  15
ATOM     15  O   UNL     1      18.905  -2.589   3.982  1.00  0.00    -0.386 OA
ATOM     16  H   UNL     1      17.928  -2.551   3.813  1.00  0.00     0.211 HD
ENDBRANCH   2  15
BRANCH   3  17
ATOM     17  O   UNL     1      18.255  -1.847   1.536  1.00  0.00    -0.387 OA
ATOM     18  H   UNL     1      17.643  -2.069   2.284  1.00  0.00     0.211 HD
ENDBRANCH   3  17
BRANCH   4  19
ATOM     19  C   UNL     1      21.039  -0.843   0.253  1.00  0.00     0.191 C 
BRANCH  19  20
ATOM     20  O   UNL     1      21.961  -1.605  -0.477  1.00  0.00    -0.394 OA
ATOM     21  H   UNL     1      22.343  -0.995  -1.160  1.00  0.00     0.210 HD
ENDBRANCH  19  20
ENDBRANCH   4  19
TORSDOF 5
ENDMDL
MODEL 9
REMARK VINA RESULT:    -5.304      1.872      5.333
REMARK INTER + INTRA:          -6.842
REMARK INTER:                  -6.297
REMARK INTRA:                  -0.545
REMARK UNBOUND:                -0.453
REMARK SMILES O=c1ccn([C@@H]2O[C@H](CO)[C@@H](O)[C@H]2O)c(=O)[nH]1
REMARK SMILES IDX 6 1 13 2 11 3 8 4 7 5 5 6 3 7 4 8 2 9 17 10 1 11 15 12 16 14
REMARK SMILES IDX 14 15 12 17 9 19 10 20
REMARK H PARENT 17 13 14 16 12 18 10 21
REMARK Flexibility Score: inf
ROOT
ATOM      1  C   UNL     1      30.330   9.401   7.580  1.00  0.00     0.255 C 
ATOM      2  C   UNL     1      30.320   7.924   7.155  1.00  0.00     0.196 C 
ATOM      3  C   UNL     1      31.353   7.291   8.064  1.00  0.00     0.179 C 
ATOM      4  C   UNL     1      31.390   8.256   9.242  1.00  0.00     0.178 C 
ATOM      5  O   UNL     1      31.097   9.547   8.761  1.00  0.00    -0.347 OA
ENDROOT
BRANCH   1   6
ATOM      6  N   UNL     1      30.885  10.247   6.502  1.00  0.00    -0.271 N 
ATOM      7  C   UNL     1      32.781  11.032   5.258  1.00  0.00     0.090 A 
ATOM      8  C   UNL     1      32.237  10.269   6.286  1.00  0.00     0.099 A 
ATOM      9  C   UNL     1      31.922  11.758   4.440  1.00  0.00     0.253 A 
ATOM     10  N   UNL     1      30.581  11.704   4.653  1.00  0.00    -0.274 N 
ATOM     11  O   UNL     1      32.386  12.458   3.501  1.00  0.00    -0.269 OA
ATOM     12  C   UNL     1      30.058  10.953   5.662  1.00  0.00     0.330 A 
ATOM     13  H   UNL     1      29.940  12.244   4.026  1.00  0.00     0.175 HD
ATOM     14  O   UNL     1      28.805  10.913   5.811  1.00  0.00    -0.248 OA
ENDBRANCH   1   6
BRANCH   2  15
ATOM     15  O   UNL     1      29.042   7.351   7.317  1.00  0.00    -0.386 OA
ATOM     16  H   UNL     1      28.480   7.987   7.833  1.00  0.00     0.211 HD
ENDBRANCH   2  15
BRANCH   3  17
ATOM     17  O   UNL     1      30.987   6.000   8.478  1.00  0.00    -0.387 OA
ATOM     18  H   UNL     1      30.916   5.452   7.654  1.00  0.00     0.211 HD
ENDBRANCH   3  17
BRANCH   4  19
ATOM     19  C   UNL     1      32.751   8.266   9.945  1.00  0.00     0.191 C 
BRANCH  19  20
ATOM     20  O   UNL     1      33.565   7.247   9.432  1.00  0.00    -0.394 OA
ATOM     21  H   UNL     1      33.064   6.401   9.565  1.00  0.00     0.210 HD
ENDBRANCH  19  20
ENDBRANCH   4  19
TORSDOF 5
ENDMDL
