MODEL 1
REMARK VINA RESULT:    -4.244      0.000      0.000
REMARK INTER + INTRA:          -4.607
REMARK INTER:                  -5.237
REMARK INTRA:                   0.630
REMARK UNBOUND:                 0.630
REMARK SMILES C=C1[C@H]2CC[C@@H]3[C@H]2C(C)(C)CCC[C@]13C
REMARK SMILES IDX 14 1 6 2 7 3 3 4 2 5 1 6 4 7 5 8 15 9 8 10 9 11 10 12 11 13
REMARK SMILES IDX 13 15 12 16
REMARK H PARENT
REMARK Flexibility Score: 80.00
ROOT
ATOM      1  C   UNL     1     141.281 139.215 131.861  1.00  0.00    -0.008 C 
ATOM      2  C   UNL     1     142.749 139.632 131.457  1.00  0.00     0.003 C 
ATOM      3  C   UNL     1     143.613 139.264 132.682  1.00  0.00     0.006 C 
ATOM      4  C   UNL     1     143.087 137.829 132.744  1.00  0.00     0.019 C 
ATOM      5  C   UNL     1     141.600 138.037 132.748  1.00  0.00    -0.068 C 
ATOM      6  C   UNL     1     140.713 137.246 133.365  1.00  0.00     0.009 C 
ATOM      7  C   UNL     1     143.457 137.320 131.330  1.00  0.00     0.008 C 
ATOM      8  C   UNL     1     143.326 138.592 130.455  1.00  0.00     0.005 C 
ATOM      9  C   UNL     1     140.407 138.773 130.656  1.00  0.00     0.016 C 
ENDROOT
BRANCH   3  10
ATOM     10  C   UNL     1     143.571 140.178 133.981  1.00  0.00    -0.032 C 
ATOM     11  C   UNL     1     144.888 141.004 134.025  1.00  0.00     0.011 C 
ATOM     12  C   UNL     1     143.556 139.324 135.276  1.00  0.00     0.011 C 
BRANCH  10  13
ATOM     13  C   UNL     1     142.426 141.230 134.009  1.00  0.00     0.007 CG0
ATOM     14  G   UNL     1     141.007 140.671 133.997  1.00  0.00     0.000 G0
ENDBRANCH  10  13
ENDBRANCH   3  10
BRANCH   1  15
ATOM     15  C   UNL     1     140.517 140.347 132.597  1.00  0.00     0.011 C 
BRANCH  15  16
ATOM     16  C   UNL     1     141.008 140.681 134.003  1.00  0.00     0.001 CG0
ATOM     17  G   UNL     1     142.429 141.236 134.008  1.00  0.00     0.000 G0
ENDBRANCH  15  16
ENDBRANCH   1  15
TORSDOF 0
ENDMDL
MODEL 2
REMARK VINA RESULT:    -4.234      2.407      3.948
REMARK INTER + INTRA:          -4.595
REMARK INTER:                  -5.230
REMARK INTRA:                   0.635
REMARK UNBOUND:                 0.630
REMARK SMILES C=C1[C@H]2CC[C@@H]3[C@H]2C(C)(C)CCC[C@]13C
REMARK SMILES IDX 14 1 6 2 7 3 3 4 2 5 1 6 4 7 5 8 15 9 8 10 9 11 10 12 11 13
REMARK SMILES IDX 13 15 12 16
REMARK H PARENT
REMARK Flexibility Score: 80.00
ROOT
ATOM      1  C   UNL     1     139.201 140.972 132.084  1.00  0.00    -0.008 C 
ATOM      2  C   UNL     1     139.608 139.531 131.584  1.00  0.00     0.003 C 
ATOM      3  C   UNL     1     139.238 138.593 132.752  1.00  0.00     0.006 C 
ATOM      4  C   UNL     1     137.806 139.121 132.851  1.00  0.00     0.019 C 
ATOM      5  C   UNL     1     138.022 140.604 132.951  1.00  0.00    -0.068 C 
ATOM      6  C   UNL     1     137.238 141.453 133.626  1.00  0.00     0.009 C 
ATOM      7  C   UNL     1     137.292 138.846 131.418  1.00  0.00     0.008 C 
ATOM      8  C   UNL     1     138.563 139.026 130.550  1.00  0.00     0.005 C 
ATOM      9  C   UNL     1     138.761 141.925 130.939  1.00  0.00     0.016 C 
ENDROOT
BRANCH   3  10
ATOM     10  C   UNL     1     140.155 138.545 134.049  1.00  0.00    -0.032 C 
ATOM     11  C   UNL     1     140.970 137.222 134.008  1.00  0.00     0.011 C 
ATOM     12  C   UNL     1     139.304 138.486 135.344  1.00  0.00     0.011 C 
BRANCH  10  13
ATOM     13  C   UNL     1     141.216 139.677 134.146  1.00  0.00     0.007 CG0
ATOM     14  G   UNL     1     140.668 141.099 134.226  1.00  0.00     0.000 G0
ENDBRANCH  10  13
ENDBRANCH   3  10
BRANCH   1  15
ATOM     15  C   UNL     1     140.339 141.681 132.865  1.00  0.00     0.011 C 
BRANCH  15  16
ATOM     16  C   UNL     1     140.673 141.098 134.235  1.00  0.00     0.001 CG0
ATOM     17  G   UNL     1     141.217 139.676 134.146  1.00  0.00     0.000 G0
ENDBRANCH  15  16
ENDBRANCH   1  15
TORSDOF 0
ENDMDL
MODEL 3
REMARK VINA RESULT:    -4.210      2.382      3.864
REMARK INTER + INTRA:          -4.565
REMARK INTER:                  -5.199
REMARK INTRA:                   0.634
REMARK UNBOUND:                 0.630
REMARK SMILES C=C1[C@H]2CC[C@@H]3[C@H]2C(C)(C)CCC[C@]13C
REMARK SMILES IDX 14 1 6 2 7 3 3 4 2 5 1 6 4 7 5 8 15 9 8 10 9 11 10 12 11 13
REMARK SMILES IDX 13 15 12 16
REMARK H PARENT
REMARK Flexibility Score: 80.00
ROOT
ATOM      1  C   UNL     1     142.902 141.284 131.893  1.00  0.00    -0.008 C 
ATOM      2  C   UNL     1     142.621 142.773 131.451  1.00  0.00     0.003 C 
ATOM      3  C   UNL     1     143.031 143.626 132.671  1.00  0.00     0.006 C 
ATOM      4  C   UNL     1     144.414 142.983 132.779  1.00  0.00     0.019 C 
ATOM      5  C   UNL     1     144.081 141.519 132.804  1.00  0.00    -0.068 C 
ATOM      6  C   UNL     1     144.779 140.581 133.457  1.00  0.00     0.009 C 
ATOM      7  C   UNL     1     144.987 143.281 131.373  1.00  0.00     0.008 C 
ATOM      8  C   UNL     1     143.731 143.240 130.468  1.00  0.00     0.005 C 
ATOM      9  C   UNL     1     143.297 140.351 130.715  1.00  0.00     0.016 C 
ENDROOT
BRANCH   3  10
ATOM     10  C   UNL     1     142.085 143.688 133.946  1.00  0.00    -0.032 C 
ATOM     11  C   UNL     1     141.374 145.070 133.945  1.00  0.00     0.011 C 
ATOM     12  C   UNL     1     142.902 143.626 135.262  1.00  0.00     0.011 C 
BRANCH  10  13
ATOM     13  C   UNL     1     140.939 142.637 133.966  1.00  0.00     0.007 CG0
ATOM     14  G   UNL     1     141.376 141.176 133.990  1.00  0.00     0.000 G0
ENDBRANCH  10  13
ENDBRANCH   3  10
BRANCH   1  15
ATOM     15  C   UNL     1     141.691 140.632 132.612  1.00  0.00     0.011 C 
BRANCH  15  16
ATOM     16  C   UNL     1     141.365 141.179 133.999  1.00  0.00     0.001 CG0
ATOM     17  G   UNL     1     140.938 142.643 133.963  1.00  0.00     0.000 G0
ENDBRANCH  15  16
ENDBRANCH   1  15
TORSDOF 0
ENDMDL
MODEL 4
REMARK VINA RESULT:    -4.188      3.157      5.513
REMARK INTER + INTRA:          -4.538
REMARK INTER:                  -5.173
REMARK INTRA:                   0.635
REMARK UNBOUND:                 0.630
REMARK SMILES C=C1[C@H]2CC[C@@H]3[C@H]2C(C)(C)CCC[C@]13C
REMARK SMILES IDX 14 1 6 2 7 3 3 4 2 5 1 6 4 7 5 8 15 9 8 10 9 11 10 12 11 13
REMARK SMILES IDX 13 15 12 16
REMARK H PARENT
REMARK Flexibility Score: 80.00
ROOT
ATOM      1  C   UNL     1     140.805 142.892 131.715  1.00  0.00    -0.008 C 
ATOM      2  C   UNL     1     139.293 142.575 131.391  1.00  0.00     0.003 C 
ATOM      3  C   UNL     1     138.531 142.938 132.683  1.00  0.00     0.006 C 
ATOM      4  C   UNL     1     139.141 144.338 132.765  1.00  0.00     0.019 C 
ATOM      5  C   UNL     1     140.612 144.048 132.665  1.00  0.00    -0.068 C 
ATOM      6  C   UNL     1     141.579 144.763 133.253  1.00  0.00     0.009 C 
ATOM      7  C   UNL     1     138.714 144.925 131.399  1.00  0.00     0.008 C 
ATOM      8  C   UNL     1     138.716 143.686 130.470  1.00  0.00     0.005 C 
ATOM      9  C   UNL     1     141.627 143.335 130.474  1.00  0.00     0.016 C 
ENDROOT
BRANCH   3  10
ATOM     10  C   UNL     1     138.600 141.970 133.942  1.00  0.00    -0.032 C 
ATOM     11  C   UNL     1     137.242 141.220 134.041  1.00  0.00     0.011 C 
ATOM     12  C   UNL     1     138.750 142.767 135.263  1.00  0.00     0.011 C 
BRANCH  10  13
ATOM     13  C   UNL     1     139.680 140.854 133.853  1.00  0.00     0.007 CG0
ATOM     14  G   UNL     1     141.126 141.331 133.770  1.00  0.00     0.000 G0
ENDBRANCH  10  13
ENDBRANCH   3  10
BRANCH   1  15
ATOM     15  C   UNL     1     141.547 141.690 132.357  1.00  0.00     0.011 C 
BRANCH  15  16
ATOM     16  C   UNL     1     141.128 141.327 133.778  1.00  0.00     0.001 CG0
ATOM     17  G   UNL     1     139.677 140.863 133.858  1.00  0.00     0.000 G0
ENDBRANCH  15  16
ENDBRANCH   1  15
TORSDOF 0
ENDMDL
MODEL 5
REMARK VINA RESULT:    -4.020      2.228      3.594
REMARK INTER + INTRA:          -4.330
REMARK INTER:                  -4.966
REMARK INTRA:                   0.635
REMARK UNBOUND:                 0.630
REMARK SMILES C=C1[C@H]2CC[C@@H]3[C@H]2C(C)(C)CCC[C@]13C
REMARK SMILES IDX 14 1 6 2 7 3 3 4 2 5 1 6 4 7 5 8 15 9 8 10 9 11 10 12 11 13
REMARK SMILES IDX 13 15 12 16
REMARK H PARENT
REMARK Flexibility Score: 80.00
ROOT
ATOM      1  C   UNL     1     142.638 139.827 134.742  1.00  0.00    -0.008 C 
ATOM      2  C   UNL     1     142.709 140.806 133.506  1.00  0.00     0.003 C 
ATOM      3  C   UNL     1     143.329 142.103 134.068  1.00  0.00     0.006 C 
ATOM      4  C   UNL     1     144.523 141.378 134.689  1.00  0.00     0.019 C 
ATOM      5  C   UNL     1     143.855 140.302 135.497  1.00  0.00    -0.068 C 
ATOM      6  C   UNL     1     144.323 139.798 136.645  1.00  0.00     0.009 C 
ATOM      7  C   UNL     1     145.126 140.684 133.445  1.00  0.00     0.008 C 
ATOM      8  C   UNL     1     143.880 140.382 132.575  1.00  0.00     0.005 C 
ATOM      9  C   UNL     1     142.783 138.329 134.358  1.00  0.00     0.016 C 
ENDROOT
BRANCH   3  10
ATOM     10  C   UNL     1     142.446 143.080 134.957  1.00  0.00    -0.032 C 
ATOM     11  C   UNL     1     142.082 144.316 134.088  1.00  0.00     0.011 C 
ATOM     12  C   UNL     1     143.248 143.625 136.168  1.00  0.00     0.011 C 
BRANCH  10  13
ATOM     13  C   UNL     1     141.084 142.493 135.426  1.00  0.00     0.007 CG0
ATOM     14  G   UNL     1     141.164 141.267 136.330  1.00  0.00     0.000 G0
ENDBRANCH  10  13
ENDBRANCH   3  10
BRANCH   1  15
ATOM     15  C   UNL     1     141.321 139.972 135.549  1.00  0.00     0.011 C 
BRANCH  15  16
ATOM     16  C   UNL     1     141.157 141.272 136.332  1.00  0.00     0.001 CG0
ATOM     17  G   UNL     1     141.087 142.495 135.423  1.00  0.00     0.000 G0
ENDBRANCH  15  16
ENDBRANCH   1  15
TORSDOF 0
ENDMDL
MODEL 6
REMARK VINA RESULT:    -3.962      3.255      5.250
REMARK INTER + INTRA:          -4.259
REMARK INTER:                  -4.891
REMARK INTRA:                   0.632
REMARK UNBOUND:                 0.630
REMARK SMILES C=C1[C@H]2CC[C@@H]3[C@H]2C(C)(C)CCC[C@]13C
REMARK SMILES IDX 14 1 6 2 7 3 3 4 2 5 1 6 4 7 5 8 15 9 8 10 9 11 10 12 11 13
REMARK SMILES IDX 13 15 12 16
REMARK H PARENT
REMARK Flexibility Score: 80.00
ROOT
ATOM      1  C   UNL     1     139.435 140.850 134.392  1.00  0.00    -0.008 C 
ATOM      2  C   UNL     1     140.318 141.860 135.223  1.00  0.00     0.003 C 
ATOM      3  C   UNL     1     139.953 143.251 134.664  1.00  0.00     0.006 C 
ATOM      4  C   UNL     1     138.450 143.038 134.845  1.00  0.00     0.019 C 
ATOM      5  C   UNL     1     138.231 141.726 134.147  1.00  0.00    -0.068 C 
ATOM      6  C   UNL     1     137.112 141.375 133.500  1.00  0.00     0.009 C 
ATOM      7  C   UNL     1     138.375 142.748 136.363  1.00  0.00     0.008 C 
ATOM      8  C   UNL     1     139.716 142.025 136.647  1.00  0.00     0.005 C 
ATOM      9  C   UNL     1     139.033 139.577 135.186  1.00  0.00     0.016 C 
ENDROOT
BRANCH   3  10
ATOM     10  C   UNL     1     140.523 143.711 133.253  1.00  0.00    -0.032 C 
ATOM     11  C   UNL     1     141.651 144.749 133.510  1.00  0.00     0.011 C 
ATOM     12  C   UNL     1     139.443 144.446 132.417  1.00  0.00     0.011 C 
BRANCH  10  13
ATOM     13  C   UNL     1     141.187 142.583 132.413  1.00  0.00     0.007 CG0
ATOM     14  G   UNL     1     140.270 141.438 131.993  1.00  0.00     0.000 G0
ENDBRANCH  10  13
ENDBRANCH   3  10
BRANCH   1  15
ATOM     15  C   UNL     1     140.127 140.381 133.085  1.00  0.00     0.011 C 
BRANCH  15  16
ATOM     16  C   UNL     1     140.274 141.435 131.991  1.00  0.00     0.001 CG0
ATOM     17  G   UNL     1     141.192 142.581 132.406  1.00  0.00     0.000 G0
ENDBRANCH  15  16
ENDBRANCH   1  15
TORSDOF 0
ENDMDL
MODEL 7
REMARK VINA RESULT:    -3.947      2.162      4.604
REMARK INTER + INTRA:          -4.241
REMARK INTER:                  -4.870
REMARK INTRA:                   0.630
REMARK UNBOUND:                 0.630
REMARK SMILES C=C1[C@H]2CC[C@@H]3[C@H]2C(C)(C)CCC[C@]13C
REMARK SMILES IDX 14 1 6 2 7 3 3 4 2 5 1 6 4 7 5 8 15 9 8 10 9 11 10 12 11 13
REMARK SMILES IDX 13 15 12 16
REMARK H PARENT
REMARK Flexibility Score: 80.00
ROOT
ATOM      1  C   UNL     1     141.298 139.520 134.484  1.00  0.00    -0.008 C 
ATOM      2  C   UNL     1     140.221 140.328 135.308  1.00  0.00     0.003 C 
ATOM      3  C   UNL     1     138.864 139.861 134.741  1.00  0.00     0.006 C 
ATOM      4  C   UNL     1     139.186 138.378 134.927  1.00  0.00     0.019 C 
ATOM      5  C   UNL     1     140.515 138.255 134.237  1.00  0.00    -0.068 C 
ATOM      6  C   UNL     1     140.951 137.164 133.594  1.00  0.00     0.009 C 
ATOM      7  C   UNL     1     139.472 138.328 136.446  1.00  0.00     0.008 C 
ATOM      8  C   UNL     1     140.092 139.718 136.732  1.00  0.00     0.005 C 
ATOM      9  C   UNL     1     142.593 139.215 135.287  1.00  0.00     0.016 C 
ENDROOT
BRANCH   3  10
ATOM     10  C   UNL     1     138.372 140.393 133.326  1.00  0.00    -0.032 C 
ATOM     11  C   UNL     1     137.253 141.443 133.575  1.00  0.00     0.011 C 
ATOM     12  C   UNL     1     137.722 139.261 132.489  1.00  0.00     0.011 C 
BRANCH  10  13
ATOM     13  C   UNL     1     139.454 141.136 132.491  1.00  0.00     0.007 CG0
ATOM     14  G   UNL     1     140.666 140.306 132.083  1.00  0.00     0.000 G0
ENDBRANCH  10  13
ENDBRANCH   3  10
BRANCH   1  15
ATOM     15  C   UNL     1     141.723 140.243 133.178  1.00  0.00     0.011 C 
BRANCH  15  16
ATOM     16  C   UNL     1     140.667 140.311 132.079  1.00  0.00     0.001 CG0
ATOM     17  G   UNL     1     139.449 141.132 132.491  1.00  0.00     0.000 G0
ENDBRANCH  15  16
ENDBRANCH   1  15
TORSDOF 0
ENDMDL
MODEL 8
REMARK VINA RESULT:    -3.924      3.718      5.598
REMARK INTER + INTRA:          -4.212
REMARK INTER:                  -4.848
REMARK INTRA:                   0.635
REMARK UNBOUND:                 0.630
REMARK SMILES C=C1[C@H]2CC[C@@H]3[C@H]2C(C)(C)CCC[C@]13C
REMARK SMILES IDX 14 1 6 2 7 3 3 4 2 5 1 6 4 7 5 8 15 9 8 10 9 11 10 12 11 13
REMARK SMILES IDX 13 15 12 16
REMARK H PARENT
REMARK Flexibility Score: 80.00
ROOT
ATOM      1  C   UNL     1     142.276 142.673 134.735  1.00  0.00    -0.008 C 
ATOM      2  C   UNL     1     141.348 142.701 133.458  1.00  0.00     0.003 C 
ATOM      3  C   UNL     1     140.004 143.267 133.963  1.00  0.00     0.006 C 
ATOM      4  C   UNL     1     140.652 144.492 134.610  1.00  0.00     0.019 C 
ATOM      5  C   UNL     1     141.719 143.871 135.464  1.00  0.00    -0.068 C 
ATOM      6  C   UNL     1     142.155 144.362 136.631  1.00  0.00     0.009 C 
ATOM      7  C   UNL     1     141.372 145.121 133.393  1.00  0.00     0.008 C 
ATOM      8  C   UNL     1     141.762 143.887 132.542  1.00  0.00     0.005 C 
ATOM      9  C   UNL     1     143.781 142.879 134.413  1.00  0.00     0.016 C 
ENDROOT
BRANCH   3  10
ATOM     10  C   UNL     1     139.027 142.346 134.814  1.00  0.00    -0.032 C 
ATOM     11  C   UNL     1     137.845 141.930 133.895  1.00  0.00     0.011 C 
ATOM     12  C   UNL     1     138.399 143.127 135.997  1.00  0.00     0.011 C 
BRANCH  10  13
ATOM     13  C   UNL     1     139.650 141.011 135.311  1.00  0.00     0.007 CG0
ATOM     14  G   UNL     1     140.832 141.143 136.268  1.00  0.00     0.000 G0
ENDBRANCH  10  13
ENDBRANCH   3  10
BRANCH   1  15
ATOM     15  C   UNL     1     142.151 141.353 135.540  1.00  0.00     0.011 C 
BRANCH  15  16
ATOM     16  C   UNL     1     140.828 141.137 136.268  1.00  0.00     0.001 CG0
ATOM     17  G   UNL     1     139.648 141.007 135.310  1.00  0.00     0.000 G0
ENDBRANCH  15  16
ENDBRANCH   1  15
TORSDOF 0
ENDMDL
MODEL 9
REMARK VINA RESULT:    -3.923      2.631      4.847
REMARK INTER + INTRA:          -4.211
REMARK INTER:                  -4.843
REMARK INTRA:                   0.632
REMARK UNBOUND:                 0.630
REMARK SMILES C=C1[C@H]2CC[C@@H]3[C@H]2C(C)(C)CCC[C@]13C
REMARK SMILES IDX 14 1 6 2 7 3 3 4 2 5 1 6 4 7 5 8 15 9 8 10 9 11 10 12 11 13
REMARK SMILES IDX 13 15 12 16
REMARK H PARENT
REMARK Flexibility Score: 80.00
ROOT
ATOM      1  C   UNL     1     140.869 142.742 134.493  1.00  0.00    -0.008 C 
ATOM      2  C   UNL     1     141.901 141.807 135.236  1.00  0.00     0.003 C 
ATOM      3  C   UNL     1     143.275 142.200 134.654  1.00  0.00     0.006 C 
ATOM      4  C   UNL     1     143.075 143.691 134.932  1.00  0.00     0.019 C 
ATOM      5  C   UNL     1     141.742 143.956 134.292  1.00  0.00    -0.068 C 
ATOM      6  C   UNL     1     141.376 145.112 133.726  1.00  0.00     0.009 C 
ATOM      7  C   UNL     1     142.835 143.674 136.460  1.00  0.00     0.008 C 
ATOM      8  C   UNL     1     142.116 142.321 136.687  1.00  0.00     0.005 C 
ATOM      9  C   UNL     1     139.624 143.098 135.351  1.00  0.00     0.016 C 
ENDROOT
BRANCH   3  10
ATOM     10  C   UNL     1     143.685 141.716 133.197  1.00  0.00    -0.032 C 
ATOM     11  C   UNL     1     144.726 140.571 133.351  1.00  0.00     0.011 C 
ATOM     12  C   UNL     1     144.398 142.842 132.404  1.00  0.00     0.011 C 
BRANCH  10  13
ATOM     13  C   UNL     1     142.527 141.107 132.357  1.00  0.00     0.007 CG0
ATOM     14  G   UNL     1     141.370 142.048 132.036  1.00  0.00     0.000 G0
ENDBRANCH  10  13
ENDBRANCH   3  10
BRANCH   1  15
ATOM     15  C   UNL     1     140.354 142.131 133.163  1.00  0.00     0.011 C 
BRANCH  15  16
ATOM     16  C   UNL     1     141.371 142.048 132.028  1.00  0.00     0.001 CG0
ATOM     17  G   UNL     1     142.530 141.111 132.351  1.00  0.00     0.000 G0
ENDBRANCH  15  16
ENDBRANCH   1  15
TORSDOF 0
ENDMDL
