MODEL 1
REMARK VINA RESULT:    -5.597      0.000      0.000
REMARK INTER + INTRA:          -7.148
REMARK INTER:                  -6.906
REMARK INTRA:                  -0.242
REMARK UNBOUND:                -0.242
REMARK SMILES CCCCC=CC(C)=O
REMARK SMILES IDX 4 1 3 2 2 3 1 4 5 5 6 6 7 7 9 8 8 9
REMARK H PARENT
REMARK Flexibility Score: inf
ROOT
ATOM      1  C   UNL     1      19.465  27.181   4.213  1.00  0.00     0.027 C 
ENDROOT
BRANCH   1   2
ATOM      2  C   UNL     1      20.419  28.000   3.329  1.00  0.00     0.004 C 
BRANCH   2   3
ATOM      3  C   UNL     1      21.683  27.215   2.944  1.00  0.00    -0.003 C 
ATOM      4  C   UNL     1      21.643  25.764   3.424  1.00  0.00     0.004 C 
ENDBRANCH   2   3
ENDBRANCH   1   2
BRANCH   1   5
ATOM      5  C   UNL     1      18.228  26.784   3.455  1.00  0.00    -0.023 C 
ATOM      6  C   UNL     1      17.394  25.781   3.778  1.00  0.00     0.042 C 
BRANCH   6   7
ATOM      7  C   UNL     1      17.546  24.839   4.912  1.00  0.00     0.152 C 
ATOM      8  O   UNL     1      18.380  23.895   4.882  1.00  0.00    -0.295 OA
ATOM      9  C   UNL     1      16.641  24.969   6.095  1.00  0.00     0.093 C 
ENDBRANCH   6   7
ENDBRANCH   1   5
TORSDOF 4
ENDMDL
MODEL 2
REMARK VINA RESULT:    -5.509      1.091      1.392
REMARK INTER + INTRA:          -7.040
REMARK INTER:                  -6.778
REMARK INTRA:                  -0.262
REMARK UNBOUND:                -0.242
REMARK SMILES CCCCC=CC(C)=O
REMARK SMILES IDX 4 1 3 2 2 3 1 4 5 5 6 6 7 7 9 8 8 9
REMARK H PARENT
REMARK Flexibility Score: inf
ROOT
ATOM      1  C   UNL     1      19.367  26.846   4.876  1.00  0.00     0.027 C 
ENDROOT
BRANCH   1   2
ATOM      2  C   UNL     1      20.754  26.182   4.847  1.00  0.00     0.004 C 
BRANCH   2   3
ATOM      3  C   UNL     1      21.247  25.914   3.418  1.00  0.00    -0.003 C 
ATOM      4  C   UNL     1      22.052  27.080   2.844  1.00  0.00     0.004 C 
ENDBRANCH   2   3
ENDBRANCH   1   2
BRANCH   1   5
ATOM      5  C   UNL     1      18.555  26.459   3.670  1.00  0.00    -0.023 C 
ATOM      6  C   UNL     1      17.377  25.814   3.687  1.00  0.00     0.042 C 
BRANCH   6   7
ATOM      7  C   UNL     1      16.665  25.312   4.885  1.00  0.00     0.152 C 
ATOM      8  O   UNL     1      17.111  24.352   5.569  1.00  0.00    -0.295 OA
ATOM      9  C   UNL     1      15.348  25.913   5.257  1.00  0.00     0.093 C 
ENDBRANCH   6   7
ENDBRANCH   1   5
TORSDOF 4
ENDMDL
MODEL 3
REMARK VINA RESULT:    -5.433      1.450      4.591
REMARK INTER + INTRA:          -6.945
REMARK INTER:                  -6.674
REMARK INTRA:                  -0.271
REMARK UNBOUND:                -0.242
REMARK SMILES CCCCC=CC(C)=O
REMARK SMILES IDX 4 1 3 2 2 3 1 4 5 5 6 6 7 7 9 8 8 9
REMARK H PARENT
REMARK Flexibility Score: inf
ROOT
ATOM      1  C   UNL     1      18.016  26.549   3.769  1.00  0.00     0.027 C 
ENDROOT
BRANCH   1   2
ATOM      2  C   UNL     1      17.144  25.342   4.151  1.00  0.00     0.004 C 
BRANCH   2   3
ATOM      3  C   UNL     1      15.836  25.757   4.841  1.00  0.00    -0.003 C 
ATOM      4  C   UNL     1      15.645  25.079   6.197  1.00  0.00     0.004 C 
ENDBRANCH   2   3
ENDBRANCH   1   2
BRANCH   1   5
ATOM      5  C   UNL     1      18.953  26.917   4.887  1.00  0.00    -0.023 C 
ATOM      6  C   UNL     1      20.294  26.843   4.849  1.00  0.00     0.042 C 
BRANCH   6   7
ATOM      7  C   UNL     1      21.117  26.342   3.723  1.00  0.00     0.152 C 
ATOM      8  O   UNL     1      21.279  25.110   3.517  1.00  0.00    -0.295 OA
ATOM      9  C   UNL     1      21.829  27.322   2.847  1.00  0.00     0.093 C 
ENDBRANCH   6   7
ENDBRANCH   1   5
TORSDOF 4
ENDMDL
MODEL 4
REMARK VINA RESULT:    -5.145      1.486      4.640
REMARK INTER + INTRA:          -6.591
REMARK INTER:                  -6.339
REMARK INTRA:                  -0.252
REMARK UNBOUND:                -0.242
REMARK SMILES CCCCC=CC(C)=O
REMARK SMILES IDX 4 1 3 2 2 3 1 4 5 5 6 6 7 7 9 8 8 9
REMARK H PARENT
REMARK Flexibility Score: inf
ROOT
ATOM      1  C   UNL     1      17.545  25.116   4.120  1.00  0.00     0.027 C 
ENDROOT
BRANCH   1   2
ATOM      2  C   UNL     1      17.137  25.221   5.598  1.00  0.00     0.004 C 
BRANCH   2   3
ATOM      3  C   UNL     1      15.617  25.128   5.797  1.00  0.00    -0.003 C 
ATOM      4  C   UNL     1      15.221  24.059   6.814  1.00  0.00     0.004 C 
ENDBRANCH   2   3
ENDBRANCH   1   2
BRANCH   1   5
ATOM      5  C   UNL     1      17.972  26.453   3.578  1.00  0.00    -0.023 C 
ATOM      6  C   UNL     1      19.200  26.989   3.678  1.00  0.00     0.042 C 
BRANCH   6   7
ATOM      7  C   UNL     1      20.364  26.398   4.378  1.00  0.00     0.152 C 
ATOM      8  O   UNL     1      20.518  26.514   5.624  1.00  0.00    -0.295 OA
ATOM      9  C   UNL     1      21.421  25.704   3.580  1.00  0.00     0.093 C 
ENDBRANCH   6   7
ENDBRANCH   1   5
TORSDOF 4
ENDMDL
MODEL 5
REMARK VINA RESULT:    -5.120      1.606      2.295
REMARK INTER + INTRA:          -6.559
REMARK INTER:                  -6.275
REMARK INTRA:                  -0.284
REMARK UNBOUND:                -0.242
REMARK SMILES CCCCC=CC(C)=O
REMARK SMILES IDX 4 1 3 2 2 3 1 4 5 5 6 6 7 7 9 8 8 9
REMARK H PARENT
REMARK Flexibility Score: inf
ROOT
ATOM      1  C   UNL     1      18.250  25.360   4.323  1.00  0.00     0.027 C 
ENDROOT
BRANCH   1   2
ATOM      2  C   UNL     1      19.117  26.548   4.770  1.00  0.00     0.004 C 
BRANCH   2   3
ATOM      3  C   UNL     1      20.343  26.754   3.867  1.00  0.00    -0.003 C 
ATOM      4  C   UNL     1      20.362  28.132   3.206  1.00  0.00     0.004 C 
ENDBRANCH   2   3
ENDBRANCH   1   2
BRANCH   1   5
ATOM      5  C   UNL     1      16.847  25.799   4.005  1.00  0.00    -0.023 C 
ATOM      6  C   UNL     1      15.795  25.743   4.840  1.00  0.00     0.042 C 
BRANCH   6   7
ATOM      7  C   UNL     1      15.792  25.197   6.217  1.00  0.00     0.152 C 
ATOM      8  O   UNL     1      15.309  24.063   6.480  1.00  0.00    -0.295 OA
ATOM      9  C   UNL     1      16.312  26.040   7.337  1.00  0.00     0.093 C 
ENDBRANCH   6   7
ENDBRANCH   1   5
TORSDOF 4
ENDMDL
MODEL 6
REMARK VINA RESULT:    -4.961      2.557      4.543
REMARK INTER + INTRA:          -6.363
REMARK INTER:                  -5.866
REMARK INTRA:                  -0.497
REMARK UNBOUND:                -0.242
REMARK SMILES CCCCC=CC(C)=O
REMARK SMILES IDX 4 1 3 2 2 3 1 4 5 5 6 6 7 7 9 8 8 9
REMARK H PARENT
REMARK Flexibility Score: inf
ROOT
ATOM      1  C   UNL     1      16.596  26.137   4.201  1.00  0.00     0.027 C 
ENDROOT
BRANCH   1   2
ATOM      2  C   UNL     1      15.308  25.623   4.863  1.00  0.00     0.004 C 
BRANCH   2   3
ATOM      3  C   UNL     1      15.457  25.447   6.382  1.00  0.00    -0.003 C 
ATOM      4  C   UNL     1      15.269  23.996   6.826  1.00  0.00     0.004 C 
ENDBRANCH   2   3
ENDBRANCH   1   2
BRANCH   1   5
ATOM      5  C   UNL     1      17.646  25.061   4.148  1.00  0.00    -0.023 C 
ATOM      6  C   UNL     1      18.803  25.054   4.832  1.00  0.00     0.042 C 
BRANCH   6   7
ATOM      7  C   UNL     1      19.299  26.118   5.735  1.00  0.00     0.152 C 
ATOM      8  O   UNL     1      20.079  27.021   5.331  1.00  0.00    -0.295 OA
ATOM      9  C   UNL     1      18.920  26.083   7.181  1.00  0.00     0.093 C 
ENDBRANCH   6   7
ENDBRANCH   1   5
TORSDOF 4
ENDMDL
MODEL 7
REMARK VINA RESULT:    -4.845      2.194      3.726
REMARK INTER + INTRA:          -6.219
REMARK INTER:                  -5.737
REMARK INTRA:                  -0.483
REMARK UNBOUND:                -0.242
REMARK SMILES CCCCC=CC(C)=O
REMARK SMILES IDX 4 1 3 2 2 3 1 4 5 5 6 6 7 7 9 8 8 9
REMARK H PARENT
REMARK Flexibility Score: inf
ROOT
ATOM      1  C   UNL     1      17.040  24.685   5.198  1.00  0.00     0.027 C 
ENDROOT
BRANCH   1   2
ATOM      2  C   UNL     1      16.746  25.746   4.127  1.00  0.00     0.004 C 
BRANCH   2   3
ATOM      3  C   UNL     1      18.022  26.418   3.599  1.00  0.00    -0.003 C 
ATOM      4  C   UNL     1      19.276  25.972   4.351  1.00  0.00     0.004 C 
ENDBRANCH   2   3
ENDBRANCH   1   2
BRANCH   1   5
ATOM      5  C   UNL     1      16.097  24.812   6.363  1.00  0.00    -0.023 C 
ATOM      6  C   UNL     1      16.314  25.529   7.479  1.00  0.00     0.042 C 
BRANCH   6   7
ATOM      7  C   UNL     1      17.537  26.297   7.808  1.00  0.00     0.152 C 
ATOM      8  O   UNL     1      17.814  27.383   7.231  1.00  0.00    -0.295 OA
ATOM      9  C   UNL     1      18.504  25.738   8.801  1.00  0.00     0.093 C 
ENDBRANCH   6   7
ENDBRANCH   1   5
TORSDOF 4
ENDMDL
MODEL 8
REMARK VINA RESULT:    -4.824      2.013      4.328
REMARK INTER + INTRA:          -6.194
REMARK INTER:                  -5.886
REMARK INTRA:                  -0.308
REMARK UNBOUND:                -0.242
REMARK SMILES CCCCC=CC(C)=O
REMARK SMILES IDX 4 1 3 2 2 3 1 4 5 5 6 6 7 7 9 8 8 9
REMARK H PARENT
REMARK Flexibility Score: inf
ROOT
ATOM      1  C   UNL     1      15.953  25.280   7.013  1.00  0.00     0.027 C 
ENDROOT
BRANCH   1   2
ATOM      2  C   UNL     1      16.706  26.454   7.660  1.00  0.00     0.004 C 
BRANCH   2   3
ATOM      3  C   UNL     1      18.203  26.162   7.843  1.00  0.00    -0.003 C 
ATOM      4  C   UNL     1      18.561  25.806   9.286  1.00  0.00     0.004 C 
ENDBRANCH   2   3
ENDBRANCH   1   2
BRANCH   1   5
ATOM      5  C   UNL     1      15.346  25.683   5.697  1.00  0.00    -0.023 C 
ATOM      6  C   UNL     1      15.979  25.711   4.512  1.00  0.00     0.042 C 
BRANCH   6   7
ATOM      7  C   UNL     1      17.407  25.398   4.269  1.00  0.00     0.152 C 
ATOM      8  O   UNL     1      17.891  24.263   4.527  1.00  0.00    -0.295 OA
ATOM      9  C   UNL     1      18.315  26.474   3.767  1.00  0.00     0.093 C 
ENDBRANCH   6   7
ENDBRANCH   1   5
TORSDOF 4
ENDMDL
MODEL 9
REMARK VINA RESULT:    -4.806      1.900      4.599
REMARK INTER + INTRA:          -6.172
REMARK INTER:                  -5.812
REMARK INTRA:                  -0.360
REMARK UNBOUND:                -0.242
REMARK SMILES CCCCC=CC(C)=O
REMARK SMILES IDX 4 1 3 2 2 3 1 4 5 5 6 6 7 7 9 8 8 9
REMARK H PARENT
REMARK Flexibility Score: inf
ROOT
ATOM      1  C   UNL     1      18.005  26.902   6.710  1.00  0.00     0.027 C 
ENDROOT
BRANCH   1   2
ATOM      2  C   UNL     1      16.613  26.361   7.076  1.00  0.00     0.004 C 
BRANCH   2   3
ATOM      3  C   UNL     1      16.141  25.259   6.115  1.00  0.00    -0.003 C 
ATOM      4  C   UNL     1      15.260  25.798   4.989  1.00  0.00     0.004 C 
ENDBRANCH   2   3
ENDBRANCH   1   2
BRANCH   1   5
ATOM      5  C   UNL     1      18.856  25.832   6.084  1.00  0.00    -0.023 C 
ATOM      6  C   UNL     1      19.379  25.864   4.846  1.00  0.00     0.042 C 
BRANCH   6   7
ATOM      7  C   UNL     1      19.185  26.930   3.836  1.00  0.00     0.152 C 
ATOM      8  O   UNL     1      18.102  27.056   3.204  1.00  0.00    -0.295 OA
ATOM      9  C   UNL     1      20.325  27.839   3.506  1.00  0.00     0.093 C 
ENDBRANCH   6   7
ENDBRANCH   1   5
TORSDOF 4
ENDMDL
