MODEL 1
REMARK VINA RESULT:    -6.155      0.000      0.000
REMARK INTER + INTRA:          -7.397
REMARK INTER:                  -7.415
REMARK INTRA:                   0.018
REMARK UNBOUND:                 0.018
REMARK SMILES O=c1c(O)c(-c2ccc(O)c(O)c2)oc2cc(O)cc(O)c12
REMARK SMILES IDX 5 1 3 2 2 3 1 4 22 5 20 6 19 7 17 8 16 9 15 10 14 11 6 12
REMARK SMILES IDX 7 13 8 14 9 15 13 16 11 17 10 18 12 20 4 22 21 24 18 26
REMARK H PARENT 10 19 12 21 4 23 21 25 18 27
REMARK Flexibility Score: inf
ROOT
ATOM      1  C   UNL     1     -33.575   9.814 -39.022  1.00  0.00     0.180 A 
ATOM      2  C   UNL     1     -32.599   9.338 -39.915  1.00  0.00     0.208 A 
ATOM      3  C   UNL     1     -32.916   9.231 -41.278  1.00  0.00     0.238 A 
ATOM      4  O   UNL     1     -32.015   8.875 -42.081  1.00  0.00    -0.285 OA
ATOM      5  C   UNL     1     -34.222   9.549 -41.726  1.00  0.00     0.111 A 
ATOM      6  C   UNL     1     -34.668   9.435 -43.077  1.00  0.00     0.134 A 
ATOM      7  C   UNL     1     -35.950   9.880 -43.421  1.00  0.00     0.093 A 
ATOM      8  C   UNL     1     -36.826  10.373 -42.451  1.00  0.00     0.123 A 
ATOM      9  C   UNL     1     -36.419  10.436 -41.121  1.00  0.00     0.094 A 
ATOM     10  C   UNL     1     -35.133  10.037 -40.753  1.00  0.00     0.146 A 
ATOM     11  O   UNL     1     -34.781  10.134 -39.477  1.00  0.00    -0.452 OA
ENDROOT
BRANCH   1  12
ATOM     12  C   UNL     1     -33.312   9.966 -37.574  1.00  0.00     0.025 A 
ATOM     13  C   UNL     1     -32.740   8.929 -36.821  1.00  0.00     0.016 A 
ATOM     14  C   UNL     1     -32.477   9.105 -35.461  1.00  0.00     0.051 A 
ATOM     15  C   UNL     1     -32.765  10.319 -34.830  1.00  0.00     0.157 A 
ATOM     16  C   UNL     1     -33.580  11.194 -36.948  1.00  0.00     0.062 A 
ATOM     17  C   UNL     1     -33.321  11.380 -35.585  1.00  0.00     0.158 A 
BRANCH  15  18
ATOM     18  O   UNL     1     -32.483  10.430 -33.467  1.00  0.00    -0.504 OA
ATOM     19  H   UNL     1     -33.153  10.245 -32.735  1.00  0.00     0.293 HD
ENDBRANCH  15  18
BRANCH  17  20
ATOM     20  O   UNL     1     -33.626  12.623 -35.027  1.00  0.00    -0.504 OA
ATOM     21  H   UNL     1     -34.162  12.746 -34.180  1.00  0.00     0.293 HD
ENDBRANCH  17  20
ENDBRANCH   1  12
BRANCH   2  22
ATOM     22  O   UNL     1     -31.340   8.957 -39.442  1.00  0.00    -0.502 OA
ATOM     23  H   UNL     1     -30.567   9.608 -39.369  1.00  0.00     0.293 HD
ENDBRANCH   2  22
BRANCH   6  24
ATOM     24  O   UNL     1     -33.907   8.876 -44.109  1.00  0.00    -0.507 OA
ATOM     25  H   UNL     1     -32.954   9.128 -44.326  1.00  0.00     0.293 HD
ENDBRANCH   6  24
BRANCH   8  26
ATOM     26  O   UNL     1     -38.107  10.797 -42.800  1.00  0.00    -0.508 OA
ATOM     27  H   UNL     1     -38.256  11.637 -43.345  1.00  0.00     0.293 HD
ENDBRANCH   8  26
TORSDOF 6
ENDMDL
MODEL 2
REMARK VINA RESULT:    -4.822      1.490      6.595
REMARK INTER + INTRA:          -5.791
REMARK INTER:                  -5.496
REMARK INTRA:                  -0.295
REMARK UNBOUND:                 0.018
REMARK SMILES O=c1c(O)c(-c2ccc(O)c(O)c2)oc2cc(O)cc(O)c12
REMARK SMILES IDX 5 1 3 2 2 3 1 4 22 5 20 6 19 7 17 8 16 9 15 10 14 11 6 12
REMARK SMILES IDX 7 13 8 14 9 15 13 16 11 17 10 18 12 20 4 22 21 24 18 26
REMARK H PARENT 10 19 12 21 4 23 21 25 18 27
REMARK Flexibility Score: inf
ROOT
ATOM      1  C   UNL     1     -34.126  10.077 -39.628  1.00  0.00     0.180 A 
ATOM      2  C   UNL     1     -32.848   9.492 -39.649  1.00  0.00     0.208 A 
ATOM      3  C   UNL     1     -32.050   9.557 -38.496  1.00  0.00     0.238 A 
ATOM      4  O   UNL     1     -30.938   8.967 -38.498  1.00  0.00    -0.285 OA
ATOM      5  C   UNL     1     -32.515  10.254 -37.354  1.00  0.00     0.111 A 
ATOM      6  C   UNL     1     -31.773  10.422 -36.146  1.00  0.00     0.134 A 
ATOM      7  C   UNL     1     -32.378  11.039 -35.044  1.00  0.00     0.093 A 
ATOM      8  C   UNL     1     -33.674  11.552 -35.127  1.00  0.00     0.123 A 
ATOM      9  C   UNL     1     -34.387  11.441 -36.319  1.00  0.00     0.094 A 
ATOM     10  C   UNL     1     -33.825  10.797 -37.423  1.00  0.00     0.146 A 
ATOM     11  O   UNL     1     -34.547  10.696 -38.532  1.00  0.00    -0.452 OA
ENDROOT
BRANCH   1  12
ATOM     12  C   UNL     1     -35.029  10.037 -40.799  1.00  0.00     0.025 A 
ATOM     13  C   UNL     1     -35.756   8.881 -41.125  1.00  0.00     0.016 A 
ATOM     14  C   UNL     1     -36.621   8.877 -42.221  1.00  0.00     0.051 A 
ATOM     15  C   UNL     1     -36.791  10.024 -43.002  1.00  0.00     0.157 A 
ATOM     16  C   UNL     1     -35.214  11.197 -41.569  1.00  0.00     0.062 A 
ATOM     17  C   UNL     1     -36.080  11.202 -42.670  1.00  0.00     0.158 A 
BRANCH  15  18
ATOM     18  O   UNL     1     -37.667   9.952 -44.087  1.00  0.00    -0.504 OA
ATOM     19  H   UNL     1     -38.568  10.408 -44.116  1.00  0.00     0.293 HD
ENDBRANCH  15  18
BRANCH  17  20
ATOM     20  O   UNL     1     -36.204  12.387 -43.396  1.00  0.00    -0.504 OA
ATOM     21  H   UNL     1     -35.430  12.997 -43.619  1.00  0.00     0.293 HD
ENDBRANCH  17  20
ENDBRANCH   1  12
BRANCH   2  22
ATOM     22  O   UNL     1     -32.376   8.875 -40.811  1.00  0.00    -0.502 OA
ATOM     23  H   UNL     1     -32.302   7.868 -40.901  1.00  0.00     0.293 HD
ENDBRANCH   2  22
BRANCH   6  24
ATOM     24  O   UNL     1     -30.441  10.027 -35.983  1.00  0.00    -0.507 OA
ATOM     25  H   UNL     1     -30.010   9.801 -35.100  1.00  0.00     0.293 HD
ENDBRANCH   6  24
BRANCH   8  26
ATOM     26  O   UNL     1     -34.262  12.179 -34.031  1.00  0.00    -0.508 OA
ATOM     27  H   UNL     1     -35.268  12.270 -33.949  1.00  0.00     0.293 HD
ENDBRANCH   8  26
TORSDOF 6
ENDMDL
MODEL 3
REMARK VINA RESULT:    -4.496      1.326      6.834
REMARK INTER + INTRA:          -5.398
REMARK INTER:                  -5.921
REMARK INTRA:                   0.524
REMARK UNBOUND:                 0.018
REMARK SMILES O=c1c(O)c(-c2ccc(O)c(O)c2)oc2cc(O)cc(O)c12
REMARK SMILES IDX 5 1 3 2 2 3 1 4 22 5 20 6 19 7 17 8 16 9 15 10 14 11 6 12
REMARK SMILES IDX 7 13 8 14 9 15 13 16 11 17 10 18 12 20 4 22 21 24 18 26
REMARK H PARENT 10 19 12 21 4 23 21 25 18 27
REMARK Flexibility Score: inf
ROOT
ATOM      1  C   UNL     1     -33.781  10.504 -39.187  1.00  0.00     0.180 A 
ATOM      2  C   UNL     1     -32.585   9.777 -39.057  1.00  0.00     0.208 A 
ATOM      3  C   UNL     1     -31.933   9.754 -37.814  1.00  0.00     0.238 A 
ATOM      4  O   UNL     1     -30.905   9.041 -37.685  1.00  0.00    -0.285 OA
ATOM      5  C   UNL     1     -32.454  10.504 -36.731  1.00  0.00     0.111 A 
ATOM      6  C   UNL     1     -31.852  10.591 -35.439  1.00  0.00     0.134 A 
ATOM      7  C   UNL     1     -32.514  11.277 -34.414  1.00  0.00     0.093 A 
ATOM      8  C   UNL     1     -33.723  11.935 -34.650  1.00  0.00     0.123 A 
ATOM      9  C   UNL     1     -34.290  11.902 -35.921  1.00  0.00     0.094 A 
ATOM     10  C   UNL     1     -33.674  11.194 -36.955  1.00  0.00     0.146 A 
ATOM     11  O   UNL     1     -34.261  11.171 -38.145  1.00  0.00    -0.452 OA
ENDROOT
BRANCH   1  12
ATOM     12  C   UNL     1     -34.531  10.564 -40.461  1.00  0.00     0.025 A 
ATOM     13  C   UNL     1     -35.562  11.497 -40.661  1.00  0.00     0.016 A 
ATOM     14  C   UNL     1     -36.238  11.550 -41.881  1.00  0.00     0.051 A 
ATOM     15  C   UNL     1     -35.894  10.689 -42.928  1.00  0.00     0.157 A 
ATOM     16  C   UNL     1     -34.168   9.714 -41.518  1.00  0.00     0.062 A 
ATOM     17  C   UNL     1     -34.842   9.760 -42.745  1.00  0.00     0.158 A 
BRANCH  15  18
ATOM     18  O   UNL     1     -36.613  10.790 -44.120  1.00  0.00    -0.504 OA
ATOM     19  H   UNL     1     -36.746  10.025 -44.766  1.00  0.00     0.293 HD
ENDBRANCH  15  18
BRANCH  17  20
ATOM     20  O   UNL     1     -34.435   8.875 -43.745  1.00  0.00    -0.504 OA
ATOM     21  H   UNL     1     -33.489   8.811 -44.092  1.00  0.00     0.293 HD
ENDBRANCH  17  20
ENDBRANCH   1  12
BRANCH   2  22
ATOM     22  O   UNL     1     -32.047   9.106 -40.159  1.00  0.00    -0.502 OA
ATOM     23  H   UNL     1     -32.404   8.213 -40.479  1.00  0.00     0.293 HD
ENDBRANCH   2  22
BRANCH   6  24
ATOM     24  O   UNL     1     -30.604  10.047 -35.118  1.00  0.00    -0.507 OA
ATOM     25  H   UNL     1     -29.761  10.178 -35.656  1.00  0.00     0.293 HD
ENDBRANCH   6  24
BRANCH   8  26
ATOM     26  O   UNL     1     -34.366  12.630 -33.628  1.00  0.00    -0.508 OA
ATOM     27  H   UNL     1     -35.172  13.216 -33.811  1.00  0.00     0.293 HD
ENDBRANCH   8  26
TORSDOF 6
ENDMDL
MODEL 4
REMARK VINA RESULT:    -4.035      1.155      1.385
REMARK INTER + INTRA:          -4.843
REMARK INTER:                  -5.128
REMARK INTRA:                   0.285
REMARK UNBOUND:                 0.018
REMARK SMILES O=c1c(O)c(-c2ccc(O)c(O)c2)oc2cc(O)cc(O)c12
REMARK SMILES IDX 5 1 3 2 2 3 1 4 22 5 20 6 19 7 17 8 16 9 15 10 14 11 6 12
REMARK SMILES IDX 7 13 8 14 9 15 13 16 11 17 10 18 12 20 4 22 21 24 18 26
REMARK H PARENT 10 19 12 21 4 23 21 25 18 27
REMARK Flexibility Score: inf
ROOT
ATOM      1  C   UNL     1     -33.203  10.436 -37.875  1.00  0.00     0.180 A 
ATOM      2  C   UNL     1     -32.226   9.802 -38.662  1.00  0.00     0.208 A 
ATOM      3  C   UNL     1     -32.503   9.544 -40.013  1.00  0.00     0.238 A 
ATOM      4  O   UNL     1     -31.597   9.044 -40.730  1.00  0.00    -0.285 OA
ATOM      5  C   UNL     1     -33.773   9.871 -40.549  1.00  0.00     0.111 A 
ATOM      6  C   UNL     1     -34.179   9.613 -41.893  1.00  0.00     0.134 A 
ATOM      7  C   UNL     1     -35.422  10.078 -42.340  1.00  0.00     0.093 A 
ATOM      8  C   UNL     1     -36.300  10.733 -41.474  1.00  0.00     0.123 A 
ATOM      9  C   UNL     1     -35.935  10.941 -40.146  1.00  0.00     0.094 A 
ATOM     10  C   UNL     1     -34.687  10.523 -39.680  1.00  0.00     0.146 A 
ATOM     11  O   UNL     1     -34.372  10.761 -38.413  1.00  0.00    -0.452 OA
ENDROOT
BRANCH   1  12
ATOM     12  C   UNL     1     -32.979  10.754 -36.447  1.00  0.00     0.025 A 
ATOM     13  C   UNL     1     -32.122   9.979 -35.650  1.00  0.00     0.016 A 
ATOM     14  C   UNL     1     -31.908  10.314 -34.311  1.00  0.00     0.051 A 
ATOM     15  C   UNL     1     -32.530  11.431 -33.746  1.00  0.00     0.157 A 
ATOM     16  C   UNL     1     -33.587  11.889 -35.888  1.00  0.00     0.062 A 
ATOM     17  C   UNL     1     -33.379  12.233 -34.546  1.00  0.00     0.158 A 
BRANCH  15  18
ATOM     18  O   UNL     1     -32.278  11.708 -32.401  1.00  0.00    -0.504 OA
ATOM     19  H   UNL     1     -32.650  12.508 -31.909  1.00  0.00     0.293 HD
ENDBRANCH  15  18
BRANCH  17  20
ATOM     20  O   UNL     1     -34.027  13.368 -34.055  1.00  0.00    -0.504 OA
ATOM     21  H   UNL     1     -34.975  13.623 -34.291  1.00  0.00     0.293 HD
ENDBRANCH  17  20
ENDBRANCH   1  12
BRANCH   2  22
ATOM     22  O   UNL     1     -31.007   9.418 -38.095  1.00  0.00    -0.502 OA
ATOM     23  H   UNL     1     -30.748   9.661 -37.147  1.00  0.00     0.293 HD
ENDBRANCH   2  22
BRANCH   6  24
ATOM     24  O   UNL     1     -33.417   8.890 -42.817  1.00  0.00    -0.507 OA
ATOM     25  H   UNL     1     -33.777   8.167 -43.422  1.00  0.00     0.293 HD
ENDBRANCH   6  24
BRANCH   8  26
ATOM     26  O   UNL     1     -37.543  11.177 -41.923  1.00  0.00    -0.508 OA
ATOM     27  H   UNL     1     -37.630  11.995 -42.514  1.00  0.00     0.293 HD
ENDBRANCH   8  26
TORSDOF 6
ENDMDL
MODEL 5
REMARK VINA RESULT:    -3.334      1.696      6.767
REMARK INTER + INTRA:          -3.998
REMARK INTER:                  -3.845
REMARK INTRA:                  -0.154
REMARK UNBOUND:                 0.018
REMARK SMILES O=c1c(O)c(-c2ccc(O)c(O)c2)oc2cc(O)cc(O)c12
REMARK SMILES IDX 5 1 3 2 2 3 1 4 22 5 20 6 19 7 17 8 16 9 15 10 14 11 6 12
REMARK SMILES IDX 7 13 8 14 9 15 13 16 11 17 10 18 12 20 4 22 21 24 18 26
REMARK H PARENT 10 19 12 21 4 23 21 25 18 27
REMARK Flexibility Score: inf
ROOT
ATOM      1  C   UNL     1     -33.643  10.436 -38.501  1.00  0.00     0.180 A 
ATOM      2  C   UNL     1     -32.368   9.877 -38.304  1.00  0.00     0.208 A 
ATOM      3  C   UNL     1     -31.726  10.063 -37.070  1.00  0.00     0.238 A 
ATOM      4  O   UNL     1     -30.619   9.497 -36.874  1.00  0.00    -0.285 OA
ATOM      5  C   UNL     1     -32.340  10.853 -36.067  1.00  0.00     0.111 A 
ATOM      6  C   UNL     1     -31.761  11.147 -34.796  1.00  0.00     0.134 A 
ATOM      7  C   UNL     1     -32.507  11.851 -33.843  1.00  0.00     0.093 A 
ATOM      8  C   UNL     1     -33.786  12.329 -34.139  1.00  0.00     0.123 A 
ATOM      9  C   UNL     1     -34.338  12.095 -35.396  1.00  0.00     0.094 A 
ATOM     10  C   UNL     1     -33.634  11.363 -36.353  1.00  0.00     0.146 A 
ATOM     11  O   UNL     1     -34.207  11.145 -37.531  1.00  0.00    -0.452 OA
ENDROOT
BRANCH   1  12
ATOM     12  C   UNL     1     -34.387  10.271 -39.769  1.00  0.00     0.025 A 
ATOM     13  C   UNL     1     -34.772   9.003 -40.233  1.00  0.00     0.016 A 
ATOM     14  C   UNL     1     -35.496   8.876 -41.420  1.00  0.00     0.051 A 
ATOM     15  C   UNL     1     -35.863  10.005 -42.159  1.00  0.00     0.157 A 
ATOM     16  C   UNL     1     -34.774  11.409 -40.496  1.00  0.00     0.062 A 
ATOM     17  C   UNL     1     -35.500  11.290 -41.688  1.00  0.00     0.158 A 
BRANCH  15  18
ATOM     18  O   UNL     1     -36.582   9.809 -43.339  1.00  0.00    -0.504 OA
ATOM     19  H   UNL     1     -36.411  10.316 -44.195  1.00  0.00     0.293 HD
ENDBRANCH  15  18
BRANCH  17  20
ATOM     20  O   UNL     1     -35.838  12.464 -42.365  1.00  0.00    -0.504 OA
ATOM     21  H   UNL     1     -35.183  13.204 -42.573  1.00  0.00     0.293 HD
ENDBRANCH  17  20
ENDBRANCH   1  12
BRANCH   2  22
ATOM     22  O   UNL     1     -31.746   9.164 -39.333  1.00  0.00    -0.502 OA
ATOM     23  H   UNL     1     -32.205   8.973 -40.216  1.00  0.00     0.293 HD
ENDBRANCH   2  22
BRANCH   6  24
ATOM     24  O   UNL     1     -30.458  10.794 -34.428  1.00  0.00    -0.507 OA
ATOM     25  H   UNL     1     -30.054  10.949 -33.516  1.00  0.00     0.293 HD
ENDBRANCH   6  24
BRANCH   8  26
ATOM     26  O   UNL     1     -34.514  13.044 -33.190  1.00  0.00    -0.508 OA
ATOM     27  H   UNL     1     -34.462  12.820 -32.203  1.00  0.00     0.293 HD
ENDBRANCH   8  26
TORSDOF 6
ENDMDL
MODEL 6
REMARK VINA RESULT:    -3.317      2.193      3.316
REMARK INTER + INTRA:          -3.978
REMARK INTER:                  -4.253
REMARK INTRA:                   0.275
REMARK UNBOUND:                 0.018
REMARK SMILES O=c1c(O)c(-c2ccc(O)c(O)c2)oc2cc(O)cc(O)c12
REMARK SMILES IDX 5 1 3 2 2 3 1 4 22 5 20 6 19 7 17 8 16 9 15 10 14 11 6 12
REMARK SMILES IDX 7 13 8 14 9 15 13 16 11 17 10 18 12 20 4 22 21 24 18 26
REMARK H PARENT 10 19 12 21 4 23 21 25 18 27
REMARK Flexibility Score: inf
ROOT
ATOM      1  C   UNL     1     -32.793  11.245 -36.313  1.00  0.00     0.180 A 
ATOM      2  C   UNL     1     -31.907  10.253 -36.768  1.00  0.00     0.208 A 
ATOM      3  C   UNL     1     -31.999   9.814 -38.097  1.00  0.00     0.238 A 
ATOM      4  O   UNL     1     -31.155   8.980 -38.517  1.00  0.00    -0.285 OA
ATOM      5  C   UNL     1     -33.011  10.331 -38.942  1.00  0.00     0.111 A 
ATOM      6  C   UNL     1     -33.227   9.925 -40.294  1.00  0.00     0.134 A 
ATOM      7  C   UNL     1     -34.192  10.584 -41.067  1.00  0.00     0.093 A 
ATOM      8  C   UNL     1     -34.993  11.587 -40.518  1.00  0.00     0.123 A 
ATOM      9  C   UNL     1     -34.828  11.951 -39.184  1.00  0.00     0.094 A 
ATOM     10  C   UNL     1     -33.848  11.341 -38.399  1.00  0.00     0.146 A 
ATOM     11  O   UNL     1     -33.711  11.734 -37.138  1.00  0.00    -0.452 OA
ENDROOT
BRANCH   1  12
ATOM     12  C   UNL     1     -32.748  11.768 -34.929  1.00  0.00     0.025 A 
ATOM     13  C   UNL     1     -31.555  11.777 -34.189  1.00  0.00     0.016 A 
ATOM     14  C   UNL     1     -31.533  12.299 -32.894  1.00  0.00     0.051 A 
ATOM     15  C   UNL     1     -32.690  12.832 -32.318  1.00  0.00     0.157 A 
ATOM     16  C   UNL     1     -33.906  12.323 -34.363  1.00  0.00     0.062 A 
ATOM     17  C   UNL     1     -33.893  12.848 -33.065  1.00  0.00     0.158 A 
BRANCH  15  18
ATOM     18  O   UNL     1     -32.602  13.334 -31.018  1.00  0.00    -0.504 OA
ATOM     19  H   UNL     1     -33.387  13.704 -30.501  1.00  0.00     0.293 HD
ENDBRANCH  15  18
BRANCH  17  20
ATOM     20  O   UNL     1     -35.086  13.372 -32.561  1.00  0.00    -0.504 OA
ATOM     21  H   UNL     1     -35.938  13.450 -33.097  1.00  0.00     0.293 HD
ENDBRANCH  17  20
ENDBRANCH   1  12
BRANCH   2  22
ATOM     22  O   UNL     1     -30.963   9.700 -35.896  1.00  0.00    -0.502 OA
ATOM     23  H   UNL     1     -30.842   8.700 -35.790  1.00  0.00     0.293 HD
ENDBRANCH   2  22
BRANCH   6  24
ATOM     24  O   UNL     1     -32.544   8.875 -40.916  1.00  0.00    -0.507 OA
ATOM     25  H   UNL     1     -32.964   8.200 -41.537  1.00  0.00     0.293 HD
ENDBRANCH   6  24
BRANCH   8  26
ATOM     26  O   UNL     1     -35.963  12.224 -41.289  1.00  0.00    -0.508 OA
ATOM     27  H   UNL     1     -35.813  12.420 -42.272  1.00  0.00     0.293 HD
ENDBRANCH   8  26
TORSDOF 6
ENDMDL
