MODEL 1
REMARK VINA RESULT:    17.353      0.000      0.000
REMARK INTER + INTRA:          45.536
REMARK INTER:                  43.729
REMARK INTRA:                   1.807
REMARK UNBOUND:                 1.807
REMARK SMILES CCCCCCCCCCCCCCCCCCCCCCCCCCCC(=O)[O-]
REMARK SMILES IDX 15 1 16 2 17 3 18 4 19 5 20 6 21 7 22 8 23 9 24 10 25 11
REMARK SMILES IDX 26 12 27 13 28 14 29 15 30 16 14 17 13 18 12 19 11 20 10 21
REMARK SMILES IDX 9 22 8 23 7 24 6 25 5 26 4 27 3 28 2 29 1 30
REMARK H PARENT
REMARK Flexibility Score: inf
ROOT
ATOM      1  C   UNL     1      39.885 -23.545  -3.039  1.00  0.00     0.000 C 
ENDROOT
BRANCH   1   2
ATOM      2  C   UNL     1      39.144 -23.617  -1.692  1.00  0.00     0.000 C 
BRANCH   2   3
ATOM      3  C   UNL     1      38.739 -22.261  -1.084  1.00  0.00     0.000 C 
BRANCH   3   4
ATOM      4  C   UNL     1      39.944 -21.393  -0.687  1.00  0.00     0.000 C 
BRANCH   4   5
ATOM      5  C   UNL     1      39.846 -19.955  -1.225  1.00  0.00     0.000 C 
BRANCH   5   6
ATOM      6  C   UNL     1      38.976 -19.022  -0.355  1.00  0.00     0.000 C 
BRANCH   6   7
ATOM      7  C   UNL     1      39.594 -18.777   1.031  1.00  0.00     0.000 C 
BRANCH   7   8
ATOM      8  C   UNL     1      38.794 -17.732   1.816  1.00  0.00     0.000 C 
BRANCH   8   9
ATOM      9  C   UNL     1      37.749 -17.052   0.916  1.00  0.00     0.000 C 
BRANCH   9  10
ATOM     10  C   UNL     1      38.250 -16.859  -0.524  1.00  0.00     0.000 C 
BRANCH  10  11
ATOM     11  C   UNL     1      38.678 -15.412  -0.808  1.00  0.00     0.000 C 
BRANCH  11  12
ATOM     12  C   UNL     1      37.836 -14.419   0.007  1.00  0.00     0.006 C 
BRANCH  12  13
ATOM     13  C   UNL     1      36.932 -13.556  -0.882  1.00  0.00     0.053 C 
BRANCH  13  14
ATOM     14  C   UNL     1      35.492 -13.961  -0.775  1.00  0.00     0.041 C 
ATOM     15  O   UNL     1      34.735 -13.392   0.053  1.00  0.00    -0.550 OA
ATOM     16  O   UNL     1      34.985 -14.957  -1.601  1.00  0.00    -0.550 OA
ENDBRANCH  13  14
ENDBRANCH  12  13
ENDBRANCH  11  12
ENDBRANCH  10  11
ENDBRANCH   9  10
ENDBRANCH   8   9
ENDBRANCH   7   8
ENDBRANCH   6   7
ENDBRANCH   5   6
ENDBRANCH   4   5
ENDBRANCH   3   4
ENDBRANCH   2   3
ENDBRANCH   1   2
BRANCH   1  17
ATOM     17  C   UNL     1      41.415 -23.521  -2.884  1.00  0.00     0.000 C 
BRANCH  17  18
ATOM     18  C   UNL     1      42.078 -24.855  -3.276  1.00  0.00     0.000 C 
BRANCH  18  19
ATOM     19  C   UNL     1      43.584 -24.774  -3.601  1.00  0.00     0.000 C 
BRANCH  19  20
ATOM     20  C   UNL     1      43.932 -24.525  -5.079  1.00  0.00     0.000 C 
BRANCH  20  21
ATOM     21  C   UNL     1      45.377 -24.912  -5.429  1.00  0.00     0.000 C 
BRANCH  21  22
ATOM     22  C   UNL     1      46.125 -25.552  -4.246  1.00  0.00    -0.000 C 
BRANCH  22  23
ATOM     23  C   UNL     1      46.114 -24.691  -2.964  1.00  0.00    -0.000 C 
BRANCH  23  24
ATOM     24  C   UNL     1      45.828 -25.531  -1.708  1.00  0.00    -0.000 C 
BRANCH  24  25
ATOM     25  C   UNL     1      45.343 -24.679  -0.522  1.00  0.00    -0.000 C 
BRANCH  25  26
ATOM     26  C   UNL     1      46.064 -25.026   0.789  1.00  0.00    -0.000 C 
BRANCH  26  27
ATOM     27  C   UNL     1      45.427 -26.250   1.462  1.00  0.00    -0.000 C 
BRANCH  27  28
ATOM     28  C   UNL     1      45.445 -26.165   2.999  1.00  0.00    -0.000 C 
BRANCH  28  29
ATOM     29  C   UNL     1      46.073 -27.399   3.681  1.00  0.00    -0.003 C 
ATOM     30  C   UNL     1      45.283 -28.679   3.409  1.00  0.00     0.004 C 
ENDBRANCH  28  29
ENDBRANCH  27  28
ENDBRANCH  26  27
ENDBRANCH  25  26
ENDBRANCH  24  25
ENDBRANCH  23  24
ENDBRANCH  22  23
ENDBRANCH  21  22
ENDBRANCH  20  21
ENDBRANCH  19  20
ENDBRANCH  18  19
ENDBRANCH  17  18
ENDBRANCH   1  17
TORSDOF 26
ENDMDL
MODEL 2
REMARK VINA RESULT:    17.586      1.717      3.002
REMARK INTER + INTRA:          46.122
REMARK INTER:                  45.174
REMARK INTRA:                   0.948
REMARK UNBOUND:                 1.807
REMARK SMILES CCCCCCCCCCCCCCCCCCCCCCCCCCCC(=O)[O-]
REMARK SMILES IDX 15 1 16 2 17 3 18 4 19 5 20 6 21 7 22 8 23 9 24 10 25 11
REMARK SMILES IDX 26 12 27 13 28 14 29 15 30 16 14 17 13 18 12 19 11 20 10 21
REMARK SMILES IDX 9 22 8 23 7 24 6 25 5 26 4 27 3 28 2 29 1 30
REMARK H PARENT
REMARK Flexibility Score: inf
ROOT
ATOM      1  C   UNL     1      41.232 -23.101  -2.539  1.00  0.00     0.000 C 
ENDROOT
BRANCH   1   2
ATOM      2  C   UNL     1      40.026 -23.088  -1.582  1.00  0.00     0.000 C 
BRANCH   2   3
ATOM      3  C   UNL     1      40.185 -22.210  -0.326  1.00  0.00     0.000 C 
BRANCH   3   4
ATOM      4  C   UNL     1      39.857 -20.730  -0.578  1.00  0.00     0.000 C 
BRANCH   4   5
ATOM      5  C   UNL     1      38.518 -20.531  -1.308  1.00  0.00     0.000 C 
BRANCH   5   6
ATOM      6  C   UNL     1      37.755 -19.261  -0.874  1.00  0.00     0.000 C 
BRANCH   6   7
ATOM      7  C   UNL     1      36.787 -19.533   0.288  1.00  0.00     0.000 C 
BRANCH   7   8
ATOM      8  C   UNL     1      36.535 -18.261   1.106  1.00  0.00     0.000 C 
BRANCH   8   9
ATOM      9  C   UNL     1      37.263 -17.058   0.487  1.00  0.00     0.000 C 
BRANCH   9  10
ATOM     10  C   UNL     1      38.699 -16.905   1.013  1.00  0.00     0.000 C 
BRANCH  10  11
ATOM     11  C   UNL     1      39.701 -16.573  -0.102  1.00  0.00     0.000 C 
BRANCH  11  12
ATOM     12  C   UNL     1      39.189 -15.417  -0.976  1.00  0.00     0.006 C 
BRANCH  12  13
ATOM     13  C   UNL     1      37.760 -14.999  -0.607  1.00  0.00     0.053 C 
BRANCH  13  14
ATOM     14  C   UNL     1      37.654 -13.524  -0.366  1.00  0.00     0.041 C 
ATOM     15  O   UNL     1      36.863 -12.826  -1.053  1.00  0.00    -0.550 OA
ATOM     16  O   UNL     1      38.417 -12.923   0.629  1.00  0.00    -0.550 OA
ENDBRANCH  13  14
ENDBRANCH  12  13
ENDBRANCH  11  12
ENDBRANCH  10  11
ENDBRANCH   9  10
ENDBRANCH   8   9
ENDBRANCH   7   8
ENDBRANCH   6   7
ENDBRANCH   5   6
ENDBRANCH   4   5
ENDBRANCH   3   4
ENDBRANCH   2   3
ENDBRANCH   1   2
BRANCH   1  17
ATOM     17  C   UNL     1      41.985 -24.441  -2.538  1.00  0.00     0.000 C 
BRANCH  17  18
ATOM     18  C   UNL     1      43.511 -24.272  -2.669  1.00  0.00     0.000 C 
BRANCH  18  19
ATOM     19  C   UNL     1      44.340 -24.818  -1.488  1.00  0.00     0.000 C 
BRANCH  19  20
ATOM     20  C   UNL     1      45.770 -24.261  -1.367  1.00  0.00     0.000 C 
BRANCH  20  21
ATOM     21  C   UNL     1      46.017 -23.530  -0.039  1.00  0.00     0.000 C 
BRANCH  21  22
ATOM     22  C   UNL     1      44.982 -23.888   1.041  1.00  0.00    -0.000 C 
BRANCH  22  23
ATOM     23  C   UNL     1      45.404 -25.070   1.940  1.00  0.00    -0.000 C 
BRANCH  23  24
ATOM     24  C   UNL     1      45.170 -26.428   1.256  1.00  0.00    -0.000 C 
BRANCH  24  25
ATOM     25  C   UNL     1      45.132 -27.597   2.255  1.00  0.00    -0.000 C 
BRANCH  25  26
ATOM     26  C   UNL     1      46.108 -27.407   3.426  1.00  0.00    -0.000 C 
BRANCH  26  27
ATOM     27  C   UNL     1      45.500 -26.503   4.508  1.00  0.00    -0.000 C 
BRANCH  27  28
ATOM     28  C   UNL     1      46.018 -26.830   5.921  1.00  0.00    -0.000 C 
BRANCH  28  29
ATOM     29  C   UNL     1      45.687 -28.264   6.387  1.00  0.00    -0.003 C 
ATOM     30  C   UNL     1      46.095 -28.513   7.838  1.00  0.00     0.004 C 
ENDBRANCH  28  29
ENDBRANCH  27  28
ENDBRANCH  26  27
ENDBRANCH  25  26
ENDBRANCH  24  25
ENDBRANCH  23  24
ENDBRANCH  22  23
ENDBRANCH  21  22
ENDBRANCH  20  21
ENDBRANCH  19  20
ENDBRANCH  18  19
ENDBRANCH  17  18
ENDBRANCH   1  17
TORSDOF 26
ENDMDL
MODEL 3
REMARK VINA RESULT:    19.164      3.763     10.385
REMARK INTER + INTRA:          50.098
REMARK INTER:                  50.073
REMARK INTRA:                   0.025
REMARK UNBOUND:                 1.807
REMARK SMILES CCCCCCCCCCCCCCCCCCCCCCCCCCCC(=O)[O-]
REMARK SMILES IDX 15 1 16 2 17 3 18 4 19 5 20 6 21 7 22 8 23 9 24 10 25 11
REMARK SMILES IDX 26 12 27 13 28 14 29 15 30 16 14 17 13 18 12 19 11 20 10 21
REMARK SMILES IDX 9 22 8 23 7 24 6 25 5 26 4 27 3 28 2 29 1 30
REMARK H PARENT
REMARK Flexibility Score: inf
ROOT
ATOM      1  C   UNL     1      45.378 -24.155  -1.606  1.00  0.00     0.000 C 
ENDROOT
BRANCH   1   2
ATOM      2  C   UNL     1      46.108 -25.028  -0.569  1.00  0.00     0.000 C 
BRANCH   2   3
ATOM      3  C   UNL     1      45.486 -25.043   0.840  1.00  0.00     0.000 C 
BRANCH   3   4
ATOM      4  C   UNL     1      46.124 -26.086   1.771  1.00  0.00     0.000 C 
BRANCH   4   5
ATOM      5  C   UNL     1      45.248 -27.338   1.954  1.00  0.00     0.000 C 
BRANCH   5   6
ATOM      6  C   UNL     1      45.964 -28.657   1.593  1.00  0.00     0.000 C 
BRANCH   6   7
ATOM      7  C   UNL     1      45.588 -29.802   2.546  1.00  0.00     0.000 C 
BRANCH   7   8
ATOM      8  C   UNL     1      45.047 -29.261   3.874  1.00  0.00     0.000 C 
BRANCH   8   9
ATOM      9  C   UNL     1      46.033 -28.262   4.501  1.00  0.00     0.000 C 
BRANCH   9  10
ATOM     10  C   UNL     1      45.491 -27.634   5.795  1.00  0.00     0.000 C 
BRANCH  10  11
ATOM     11  C   UNL     1      45.534 -26.100   5.766  1.00  0.00     0.000 C 
BRANCH  11  12
ATOM     12  C   UNL     1      44.406 -25.533   4.890  1.00  0.00     0.006 C 
BRANCH  12  13
ATOM     13  C   UNL     1      43.321 -24.835   5.719  1.00  0.00     0.053 C 
BRANCH  13  14
ATOM     14  C   UNL     1      42.114 -24.503   4.894  1.00  0.00     0.041 C 
ATOM     15  O   UNL     1      42.046 -23.404   4.286  1.00  0.00    -0.550 OA
ATOM     16  O   UNL     1      41.072 -25.417   4.786  1.00  0.00    -0.550 OA
ENDBRANCH  13  14
ENDBRANCH  12  13
ENDBRANCH  11  12
ENDBRANCH  10  11
ENDBRANCH   9  10
ENDBRANCH   8   9
ENDBRANCH   7   8
ENDBRANCH   6   7
ENDBRANCH   5   6
ENDBRANCH   4   5
ENDBRANCH   3   4
ENDBRANCH   2   3
ENDBRANCH   1   2
BRANCH   1  17
ATOM     17  C   UNL     1      45.599 -24.627  -3.053  1.00  0.00     0.000 C 
BRANCH  17  18
ATOM     18  C   UNL     1      44.622 -23.980  -4.051  1.00  0.00     0.000 C 
BRANCH  18  19
ATOM     19  C   UNL     1      43.131 -24.308  -3.824  1.00  0.00     0.000 C 
BRANCH  19  20
ATOM     20  C   UNL     1      42.723 -24.565  -2.362  1.00  0.00     0.000 C 
BRANCH  20  21
ATOM     21  C   UNL     1      41.621 -23.613  -1.871  1.00  0.00     0.000 C 
BRANCH  21  22
ATOM     22  C   UNL     1      40.421 -23.546  -2.831  1.00  0.00    -0.000 C 
BRANCH  22  23
ATOM     23  C   UNL     1      39.519 -22.311  -2.615  1.00  0.00    -0.000 C 
BRANCH  23  24
ATOM     24  C   UNL     1      39.998 -21.447  -1.436  1.00  0.00    -0.000 C 
BRANCH  24  25
ATOM     25  C   UNL     1      38.839 -20.748  -0.704  1.00  0.00    -0.000 C 
BRANCH  25  26
ATOM     26  C   UNL     1      38.644 -19.294  -1.157  1.00  0.00    -0.000 C 
BRANCH  26  27
ATOM     27  C   UNL     1      37.527 -18.612  -0.354  1.00  0.00    -0.000 C 
BRANCH  27  28
ATOM     28  C   UNL     1      38.061 -17.771   0.820  1.00  0.00    -0.000 C 
BRANCH  28  29
ATOM     29  C   UNL     1      39.339 -18.347   1.465  1.00  0.00    -0.003 C 
ATOM     30  C   UNL     1      40.612 -17.844   0.785  1.00  0.00     0.004 C 
ENDBRANCH  28  29
ENDBRANCH  27  28
ENDBRANCH  26  27
ENDBRANCH  25  26
ENDBRANCH  24  25
ENDBRANCH  23  24
ENDBRANCH  22  23
ENDBRANCH  21  22
ENDBRANCH  20  21
ENDBRANCH  19  20
ENDBRANCH  18  19
ENDBRANCH  17  18
ENDBRANCH   1  17
TORSDOF 26
ENDMDL
MODEL 4
REMARK VINA RESULT:    19.208      1.777      4.285
REMARK INTER + INTRA:          50.210
REMARK INTER:                  44.797
REMARK INTRA:                   5.413
REMARK UNBOUND:                 1.807
REMARK SMILES CCCCCCCCCCCCCCCCCCCCCCCCCCCC(=O)[O-]
REMARK SMILES IDX 15 1 16 2 17 3 18 4 19 5 20 6 21 7 22 8 23 9 24 10 25 11
REMARK SMILES IDX 26 12 27 13 28 14 29 15 30 16 14 17 13 18 12 19 11 20 10 21
REMARK SMILES IDX 9 22 8 23 7 24 6 25 5 26 4 27 3 28 2 29 1 30
REMARK H PARENT
REMARK Flexibility Score: inf
ROOT
ATOM      1  C   UNL     1      39.087 -22.256  -1.510  1.00  0.00     0.000 C 
ENDROOT
BRANCH   1   2
ATOM      2  C   UNL     1      39.851 -21.141  -0.774  1.00  0.00     0.000 C 
BRANCH   2   3
ATOM      3  C   UNL     1      39.137 -19.778  -0.709  1.00  0.00     0.000 C 
BRANCH   3   4
ATOM      4  C   UNL     1      37.709 -19.817  -1.277  1.00  0.00     0.000 C 
BRANCH   4   5
ATOM      5  C   UNL     1      36.672 -19.189  -0.329  1.00  0.00     0.000 C 
BRANCH   5   6
ATOM      6  C   UNL     1      37.290 -18.278   0.753  1.00  0.00     0.000 C 
BRANCH   6   7
ATOM      7  C   UNL     1      38.239 -19.046   1.686  1.00  0.00     0.000 C 
BRANCH   7   8
ATOM      8  C   UNL     1      39.014 -18.087   2.597  1.00  0.00     0.000 C 
BRANCH   8   9
ATOM      9  C   UNL     1      39.760 -17.028   1.769  1.00  0.00     0.000 C 
BRANCH   9  10
ATOM     10  C   UNL     1      40.492 -17.634   0.562  1.00  0.00     0.000 C 
BRANCH  10  11
ATOM     11  C   UNL     1      39.698 -17.481  -0.744  1.00  0.00     0.000 C 
BRANCH  11  12
ATOM     12  C   UNL     1      39.248 -16.026  -0.947  1.00  0.00     0.006 C 
BRANCH  12  13
ATOM     13  C   UNL     1      37.976 -15.696  -0.157  1.00  0.00     0.053 C 
BRANCH  13  14
ATOM     14  C   UNL     1      37.639 -14.237  -0.224  1.00  0.00     0.041 C 
ATOM     15  O   UNL     1      38.515 -13.373   0.042  1.00  0.00    -0.550 OA
ATOM     16  O   UNL     1      36.362 -13.832  -0.595  1.00  0.00    -0.550 OA
ENDBRANCH  13  14
ENDBRANCH  12  13
ENDBRANCH  11  12
ENDBRANCH  10  11
ENDBRANCH   9  10
ENDBRANCH   8   9
ENDBRANCH   7   8
ENDBRANCH   6   7
ENDBRANCH   5   6
ENDBRANCH   4   5
ENDBRANCH   3   4
ENDBRANCH   2   3
ENDBRANCH   1   2
BRANCH   1  17
ATOM     17  C   UNL     1      39.975 -23.060  -2.474  1.00  0.00     0.000 C 
BRANCH  17  18
ATOM     18  C   UNL     1      41.205 -23.677  -1.783  1.00  0.00     0.000 C 
BRANCH  18  19
ATOM     19  C   UNL     1      42.386 -22.712  -1.551  1.00  0.00     0.000 C 
BRANCH  19  20
ATOM     20  C   UNL     1      43.691 -23.365  -1.059  1.00  0.00     0.000 C 
BRANCH  20  21
ATOM     21  C   UNL     1      44.706 -22.345  -0.520  1.00  0.00     0.000 C 
BRANCH  21  22
ATOM     22  C   UNL     1      46.004 -23.002  -0.023  1.00  0.00    -0.000 C 
BRANCH  22  23
ATOM     23  C   UNL     1      45.778 -24.318   0.753  1.00  0.00    -0.000 C 
BRANCH  23  24
ATOM     24  C   UNL     1      45.451 -25.492  -0.185  1.00  0.00    -0.000 C 
BRANCH  24  25
ATOM     25  C   UNL     1      46.043 -25.310  -1.593  1.00  0.00    -0.000 C 
BRANCH  25  26
ATOM     26  C   UNL     1      44.994 -25.475  -2.702  1.00  0.00    -0.000 C 
BRANCH  26  27
ATOM     27  C   UNL     1      45.266 -24.513  -3.867  1.00  0.00    -0.000 C 
BRANCH  27  28
ATOM     28  C   UNL     1      46.103 -25.153  -4.990  1.00  0.00    -0.000 C 
BRANCH  28  29
ATOM     29  C   UNL     1      45.712 -24.674  -6.404  1.00  0.00    -0.003 C 
ATOM     30  C   UNL     1      45.111 -23.269  -6.397  1.00  0.00     0.004 C 
ENDBRANCH  28  29
ENDBRANCH  27  28
ENDBRANCH  26  27
ENDBRANCH  25  26
ENDBRANCH  24  25
ENDBRANCH  23  24
ENDBRANCH  22  23
ENDBRANCH  21  22
ENDBRANCH  20  21
ENDBRANCH  19  20
ENDBRANCH  18  19
ENDBRANCH  17  18
ENDBRANCH   1  17
TORSDOF 26
ENDMDL
MODEL 5
REMARK VINA RESULT:    20.058      5.014     11.523
REMARK INTER + INTRA:          52.352
REMARK INTER:                  50.410
REMARK INTRA:                   1.942
REMARK UNBOUND:                 1.807
REMARK SMILES CCCCCCCCCCCCCCCCCCCCCCCCCCCC(=O)[O-]
REMARK SMILES IDX 15 1 16 2 17 3 18 4 19 5 20 6 21 7 22 8 23 9 24 10 25 11
REMARK SMILES IDX 26 12 27 13 28 14 29 15 30 16 14 17 13 18 12 19 11 20 10 21
REMARK SMILES IDX 9 22 8 23 7 24 6 25 5 26 4 27 3 28 2 29 1 30
REMARK H PARENT
REMARK Flexibility Score: inf
ROOT
ATOM      1  C   UNL     1      38.763 -23.306  -1.953  1.00  0.00     0.000 C 
ENDROOT
BRANCH   1   2
ATOM      2  C   UNL     1      40.295 -23.187  -1.860  1.00  0.00     0.000 C 
BRANCH   2   3
ATOM      3  C   UNL     1      41.091 -24.223  -2.676  1.00  0.00     0.000 C 
BRANCH   3   4
ATOM      4  C   UNL     1      42.549 -24.368  -2.208  1.00  0.00     0.000 C 
BRANCH   4   5
ATOM      5  C   UNL     1      43.184 -23.025  -1.808  1.00  0.00     0.000 C 
BRANCH   5   6
ATOM      6  C   UNL     1      44.719 -23.083  -1.655  1.00  0.00     0.000 C 
BRANCH   6   7
ATOM      7  C   UNL     1      45.371 -24.018  -2.687  1.00  0.00     0.000 C 
BRANCH   7   8
ATOM      8  C   UNL     1      45.142 -25.489  -2.321  1.00  0.00     0.000 C 
BRANCH   8   9
ATOM      9  C   UNL     1      44.928 -25.650  -0.808  1.00  0.00     0.000 C 
BRANCH   9  10
ATOM     10  C   UNL     1      46.056 -25.013   0.017  1.00  0.00     0.000 C 
BRANCH  10  11
ATOM     11  C   UNL     1      45.684 -24.853   1.498  1.00  0.00     0.000 C 
BRANCH  11  12
ATOM     12  C   UNL     1      45.499 -26.222   2.170  1.00  0.00     0.006 C 
BRANCH  12  13
ATOM     13  C   UNL     1      46.121 -27.360   1.351  1.00  0.00     0.053 C 
BRANCH  13  14
ATOM     14  C   UNL     1      45.969 -28.687   2.033  1.00  0.00     0.041 C 
ATOM     15  O   UNL     1      45.985 -29.750   1.360  1.00  0.00    -0.550 OA
ATOM     16  O   UNL     1      45.827 -28.748   3.414  1.00  0.00    -0.550 OA
ENDBRANCH  13  14
ENDBRANCH  12  13
ENDBRANCH  11  12
ENDBRANCH  10  11
ENDBRANCH   9  10
ENDBRANCH   8   9
ENDBRANCH   7   8
ENDBRANCH   6   7
ENDBRANCH   5   6
ENDBRANCH   4   5
ENDBRANCH   3   4
ENDBRANCH   2   3
ENDBRANCH   1   2
BRANCH   1  17
ATOM     17  C   UNL     1      38.165 -22.490  -3.111  1.00  0.00     0.000 C 
BRANCH  17  18
ATOM     18  C   UNL     1      37.105 -21.475  -2.645  1.00  0.00     0.000 C 
BRANCH  18  19
ATOM     19  C   UNL     1      37.648 -20.082  -2.262  1.00  0.00     0.000 C 
BRANCH  19  20
ATOM     20  C   UNL     1      37.750 -19.802  -0.751  1.00  0.00     0.000 C 
BRANCH  20  21
ATOM     21  C   UNL     1      38.954 -20.494  -0.094  1.00  0.00     0.000 C 
BRANCH  21  22
ATOM     22  C   UNL     1      40.262 -19.705  -0.267  1.00  0.00    -0.000 C 
BRANCH  22  23
ATOM     23  C   UNL     1      40.171 -18.237   0.204  1.00  0.00    -0.000 C 
BRANCH  23  24
ATOM     24  C   UNL     1      39.306 -18.090   1.467  1.00  0.00    -0.000 C 
BRANCH  24  25
ATOM     25  C   UNL     1      38.111 -17.143   1.260  1.00  0.00    -0.000 C 
BRANCH  25  26
ATOM     26  C   UNL     1      37.856 -16.827  -0.221  1.00  0.00    -0.000 C 
BRANCH  26  27
ATOM     27  C   UNL     1      38.862 -15.793  -0.745  1.00  0.00    -0.000 C 
BRANCH  27  28
ATOM     28  C   UNL     1      38.782 -14.448   0.001  1.00  0.00    -0.000 C 
BRANCH  28  29
ATOM     29  C   UNL     1      37.673 -13.512  -0.523  1.00  0.00    -0.003 C 
ATOM     30  C   UNL     1      36.282 -14.134  -0.404  1.00  0.00     0.004 C 
ENDBRANCH  28  29
ENDBRANCH  27  28
ENDBRANCH  26  27
ENDBRANCH  25  26
ENDBRANCH  24  25
ENDBRANCH  23  24
ENDBRANCH  22  23
ENDBRANCH  21  22
ENDBRANCH  20  21
ENDBRANCH  19  20
ENDBRANCH  18  19
ENDBRANCH  17  18
ENDBRANCH   1  17
TORSDOF 26
ENDMDL
MODEL 6
REMARK VINA RESULT:    20.110      6.148     12.357
REMARK INTER + INTRA:          52.484
REMARK INTER:                  50.580
REMARK INTRA:                   1.904
REMARK UNBOUND:                 1.807
REMARK SMILES CCCCCCCCCCCCCCCCCCCCCCCCCCCC(=O)[O-]
REMARK SMILES IDX 15 1 16 2 17 3 18 4 19 5 20 6 21 7 22 8 23 9 24 10 25 11
REMARK SMILES IDX 26 12 27 13 28 14 29 15 30 16 14 17 13 18 12 19 11 20 10 21
REMARK SMILES IDX 9 22 8 23 7 24 6 25 5 26 4 27 3 28 2 29 1 30
REMARK H PARENT
REMARK Flexibility Score: inf
ROOT
ATOM      1  C   UNL     1      44.766 -24.282   1.945  1.00  0.00     0.000 C 
ENDROOT
BRANCH   1   2
ATOM      2  C   UNL     1      44.820 -25.762   1.527  1.00  0.00     0.000 C 
BRANCH   2   3
ATOM      3  C   UNL     1      45.719 -26.664   2.394  1.00  0.00     0.000 C 
BRANCH   3   4
ATOM      4  C   UNL     1      45.630 -26.342   3.894  1.00  0.00     0.000 C 
BRANCH   4   5
ATOM      5  C   UNL     1      45.898 -27.568   4.785  1.00  0.00     0.000 C 
BRANCH   5   6
ATOM      6  C   UNL     1      45.256 -27.473   6.185  1.00  0.00     0.000 C 
BRANCH   6   7
ATOM      7  C   UNL     1      46.125 -28.130   7.269  1.00  0.00     0.000 C 
BRANCH   7   8
ATOM      8  C   UNL     1      45.426 -29.353   7.872  1.00  0.00     0.000 C 
BRANCH   8   9
ATOM      9  C   UNL     1      45.711 -30.613   7.039  1.00  0.00     0.000 C 
BRANCH   9  10
ATOM     10  C   UNL     1      44.862 -31.815   7.481  1.00  0.00     0.000 C 
BRANCH  10  11
ATOM     11  C   UNL     1      44.239 -31.616   8.869  1.00  0.00     0.000 C 
BRANCH  11  12
ATOM     12  C   UNL     1      45.324 -31.362   9.928  1.00  0.00     0.006 C 
BRANCH  12  13
ATOM     13  C   UNL     1      45.485 -29.871  10.249  1.00  0.00     0.053 C 
BRANCH  13  14
ATOM     14  C   UNL     1      44.160 -29.194  10.434  1.00  0.00     0.041 C 
ATOM     15  O   UNL     1      44.021 -27.981  10.126  1.00  0.00    -0.550 OA
ATOM     16  O   UNL     1      43.076 -29.907  10.932  1.00  0.00    -0.550 OA
ENDBRANCH  13  14
ENDBRANCH  12  13
ENDBRANCH  11  12
ENDBRANCH  10  11
ENDBRANCH   9  10
ENDBRANCH   8   9
ENDBRANCH   7   8
ENDBRANCH   6   7
ENDBRANCH   5   6
ENDBRANCH   4   5
ENDBRANCH   3   4
ENDBRANCH   2   3
ENDBRANCH   1   2
BRANCH   1  17
ATOM     17  C   UNL     1      44.760 -23.318   0.747  1.00  0.00     0.000 C 
BRANCH  17  18
ATOM     18  C   UNL     1      45.540 -23.862  -0.464  1.00  0.00     0.000 C 
BRANCH  18  19
ATOM     19  C   UNL     1      45.554 -22.947  -1.707  1.00  0.00     0.000 C 
BRANCH  19  20
ATOM     20  C   UNL     1      45.710 -23.666  -3.059  1.00  0.00     0.000 C 
BRANCH  20  21
ATOM     21  C   UNL     1      45.517 -25.187  -2.955  1.00  0.00     0.000 C 
BRANCH  21  22
ATOM     22  C   UNL     1      45.122 -25.831  -4.295  1.00  0.00    -0.000 C 
BRANCH  22  23
ATOM     23  C   UNL     1      43.878 -25.193  -4.949  1.00  0.00    -0.000 C 
BRANCH  23  24
ATOM     24  C   UNL     1      42.571 -25.818  -4.434  1.00  0.00    -0.000 C 
BRANCH  24  25
ATOM     25  C   UNL     1      41.883 -24.957  -3.360  1.00  0.00    -0.000 C 
BRANCH  25  26
ATOM     26  C   UNL     1      41.378 -23.615  -3.913  1.00  0.00    -0.000 C 
BRANCH  26  27
ATOM     27  C   UNL     1      40.145 -23.129  -3.138  1.00  0.00    -0.000 C 
BRANCH  27  28
ATOM     28  C   UNL     1      40.354 -23.141  -1.612  1.00  0.00    -0.000 C 
BRANCH  28  29
ATOM     29  C   UNL     1      39.748 -21.917  -0.894  1.00  0.00    -0.003 C 
ATOM     30  C   UNL     1      40.776 -20.809  -0.664  1.00  0.00     0.004 C 
ENDBRANCH  28  29
ENDBRANCH  27  28
ENDBRANCH  26  27
ENDBRANCH  25  26
ENDBRANCH  24  25
ENDBRANCH  23  24
ENDBRANCH  22  23
ENDBRANCH  21  22
ENDBRANCH  20  21
ENDBRANCH  19  20
ENDBRANCH  18  19
ENDBRANCH  17  18
ENDBRANCH   1  17
TORSDOF 26
ENDMDL
