MODEL 1
REMARK VINA RESULT:    -5.705      0.000      0.000
REMARK INTER + INTRA:          -8.676
REMARK INTER:                  -7.706
REMARK INTRA:                  -0.970
REMARK UNBOUND:                -0.970
REMARK SMILES CC(=O)CCC=C(C)CCC=C(C)C
REMARK SMILES IDX 7 1 6 2 8 3 9 4 10 5 11 6 13 7 12 8 14 9 5 10 4 11 2 12 3 13
REMARK SMILES IDX 1 14
REMARK H PARENT
REMARK Flexibility Score: inf
ROOT
ATOM      1  C   UNL     1       2.596  13.621  -8.259  1.00  0.00    -0.077 C 
ATOM      2  C   UNL     1       2.189  13.685  -6.971  1.00  0.00    -0.028 C 
ATOM      3  C   UNL     1       3.067  14.845  -9.010  1.00  0.00     0.039 C 
ENDROOT
BRANCH   1   4
ATOM      4  C   UNL     1       2.548  12.291  -8.980  1.00  0.00     0.034 C 
BRANCH   4   5
ATOM      5  C   UNL     1       3.941  11.661  -9.105  1.00  0.00     0.032 C 
BRANCH   5   6
ATOM      6  C   UNL     1       4.669  11.685  -7.780  1.00  0.00    -0.028 C 
ATOM      7  C   UNL     1       6.388  13.343  -8.541  1.00  0.00     0.039 C 
ATOM      8  C   UNL     1       5.748  12.451  -7.504  1.00  0.00    -0.080 C 
ATOM      9  C   UNL     1       6.321  12.405  -6.111  1.00  0.00     0.039 C 
ENDBRANCH   5   6
ENDBRANCH   4   5
ENDBRANCH   1   4
BRANCH   2  10
ATOM     10  C   UNL     1       2.195  14.940  -6.133  1.00  0.00     0.035 C 
BRANCH  10  11
ATOM     11  C   UNL     1       3.474  15.022  -5.287  1.00  0.00     0.079 C 
BRANCH  11  12
ATOM     12  C   UNL     1       3.968  16.429  -5.037  1.00  0.00     0.130 C 
ATOM     13  O   UNL     1       4.857  16.594  -4.215  1.00  0.00    -0.300 OA
ATOM     14  C   UNL     1       3.418  17.630  -5.756  1.00  0.00     0.087 C 
ENDBRANCH  11  12
ENDBRANCH  10  11
ENDBRANCH   2  10
TORSDOF 6
ENDMDL
MODEL 2
REMARK VINA RESULT:    -5.318      1.729      4.671
REMARK INTER + INTRA:          -8.153
REMARK INTER:                  -7.204
REMARK INTRA:                  -0.949
REMARK UNBOUND:                -0.970
REMARK SMILES CC(=O)CCC=C(C)CCC=C(C)C
REMARK SMILES IDX 7 1 6 2 8 3 9 4 10 5 11 6 13 7 12 8 14 9 5 10 4 11 2 12 3 13
REMARK SMILES IDX 1 14
REMARK H PARENT
REMARK Flexibility Score: inf
ROOT
ATOM      1  C   UNL     1       2.515  13.970  -8.134  1.00  0.00    -0.077 C 
ATOM      2  C   UNL     1       2.744  12.637  -8.137  1.00  0.00    -0.028 C 
ATOM      3  C   UNL     1       3.183  14.898  -9.121  1.00  0.00     0.039 C 
ENDROOT
BRANCH   1   4
ATOM      4  C   UNL     1       1.587  14.553  -7.089  1.00  0.00     0.034 C 
BRANCH   4   5
ATOM      5  C   UNL     1       2.353  15.021  -5.846  1.00  0.00     0.032 C 
BRANCH   5   6
ATOM      6  C   UNL     1       2.531  16.523  -5.851  1.00  0.00    -0.028 C 
ATOM      7  C   UNL     1       4.848  16.441  -4.898  1.00  0.00     0.039 C 
ATOM      8  C   UNL     1       3.649  17.171  -5.455  1.00  0.00    -0.080 C 
ATOM      9  C   UNL     1       3.689  18.673  -5.580  1.00  0.00     0.039 C 
ENDBRANCH   5   6
ENDBRANCH   4   5
ENDBRANCH   1   4
BRANCH   2  10
ATOM     10  C   UNL     1       3.636  11.925  -9.125  1.00  0.00     0.035 C 
BRANCH  10  11
ATOM     11  C   UNL     1       4.940  11.473  -8.450  1.00  0.00     0.079 C 
BRANCH  11  12
ATOM     12  C   UNL     1       5.801  12.605  -7.935  1.00  0.00     0.130 C 
ATOM     13  O   UNL     1       6.390  13.301  -8.747  1.00  0.00    -0.300 OA
ATOM     14  C   UNL     1       5.958  12.913  -6.471  1.00  0.00     0.087 C 
ENDBRANCH  11  12
ENDBRANCH  10  11
ENDBRANCH   2  10
TORSDOF 6
ENDMDL
MODEL 3
REMARK VINA RESULT:    -5.213      1.010      1.496
REMARK INTER + INTRA:          -8.012
REMARK INTER:                  -7.321
REMARK INTRA:                  -0.691
REMARK UNBOUND:                -0.970
REMARK SMILES CC(=O)CCC=C(C)CCC=C(C)C
REMARK SMILES IDX 7 1 6 2 8 3 9 4 10 5 11 6 13 7 12 8 14 9 5 10 4 11 2 12 3 13
REMARK SMILES IDX 1 14
REMARK H PARENT
REMARK Flexibility Score: inf
ROOT
ATOM      1  C   UNL     1       2.351  13.359  -7.500  1.00  0.00    -0.077 C 
ATOM      2  C   UNL     1       2.515  13.835  -6.245  1.00  0.00    -0.028 C 
ATOM      3  C   UNL     1       1.882  14.240  -8.634  1.00  0.00     0.039 C 
ENDROOT
BRANCH   1   4
ATOM      4  C   UNL     1       2.614  11.893  -7.770  1.00  0.00     0.034 C 
BRANCH   4   5
ATOM      5  C   UNL     1       4.115  11.581  -7.803  1.00  0.00     0.032 C 
BRANCH   5   6
ATOM      6  C   UNL     1       4.862  12.596  -8.638  1.00  0.00    -0.028 C 
ATOM      7  C   UNL     1       5.988  13.666  -6.671  1.00  0.00     0.039 C 
ATOM      8  C   UNL     1       5.723  13.517  -8.150  1.00  0.00    -0.080 C 
ATOM      9  C   UNL     1       6.436  14.419  -9.125  1.00  0.00     0.039 C 
ENDBRANCH   5   6
ENDBRANCH   4   5
ENDBRANCH   1   4
BRANCH   2  10
ATOM     10  C   UNL     1       2.299  15.273  -5.841  1.00  0.00     0.035 C 
BRANCH  10  11
ATOM     11  C   UNL     1       3.433  16.162  -6.371  1.00  0.00     0.079 C 
BRANCH  11  12
ATOM     12  C   UNL     1       3.972  17.153  -5.364  1.00  0.00     0.130 C 
ATOM     13  O   UNL     1       4.628  16.727  -4.426  1.00  0.00    -0.300 OA
ATOM     14  C   UNL     1       3.742  18.636  -5.469  1.00  0.00     0.087 C 
ENDBRANCH  11  12
ENDBRANCH  10  11
ENDBRANCH   2  10
TORSDOF 6
ENDMDL
MODEL 4
REMARK VINA RESULT:    -4.800      1.099      3.015
REMARK INTER + INTRA:          -7.454
REMARK INTER:                  -6.972
REMARK INTRA:                  -0.482
REMARK UNBOUND:                -0.970
REMARK SMILES CC(=O)CCC=C(C)CCC=C(C)C
REMARK SMILES IDX 7 1 6 2 8 3 9 4 10 5 11 6 13 7 12 8 14 9 5 10 4 11 2 12 3 13
REMARK SMILES IDX 1 14
REMARK H PARENT
REMARK Flexibility Score: inf
ROOT
ATOM      1  C   UNL     1       5.800  13.079  -7.893  1.00  0.00    -0.077 C 
ATOM      2  C   UNL     1       5.616  13.465  -6.610  1.00  0.00    -0.028 C 
ATOM      3  C   UNL     1       6.158  14.064  -8.980  1.00  0.00     0.039 C 
ENDROOT
BRANCH   1   4
ATOM      4  C   UNL     1       5.610  11.621  -8.256  1.00  0.00     0.034 C 
BRANCH   4   5
ATOM      5  C   UNL     1       4.125  11.259  -8.390  1.00  0.00     0.032 C 
BRANCH   5   6
ATOM      6  C   UNL     1       3.327  12.427  -8.922  1.00  0.00    -0.028 C 
ATOM      7  C   UNL     1       2.235  12.925  -6.721  1.00  0.00     0.039 C 
ATOM      8  C   UNL     1       2.498  13.198  -8.183  1.00  0.00    -0.080 C 
ATOM      9  C   UNL     1       1.820  14.367  -8.851  1.00  0.00     0.039 C 
ENDBRANCH   5   6
ENDBRANCH   4   5
ENDBRANCH   1   4
BRANCH   2  10
ATOM     10  C   UNL     1       5.783  14.879  -6.110  1.00  0.00     0.035 C 
BRANCH  10  11
ATOM     11  C   UNL     1       4.490  15.682  -6.316  1.00  0.00     0.079 C 
BRANCH  11  12
ATOM     12  C   UNL     1       4.248  16.753  -5.275  1.00  0.00     0.130 C 
ATOM     13  O   UNL     1       4.694  16.580  -4.151  1.00  0.00    -0.300 OA
ATOM     14  C   UNL     1       3.488  18.018  -5.563  1.00  0.00     0.087 C 
ENDBRANCH  11  12
ENDBRANCH  10  11
ENDBRANCH   2  10
TORSDOF 6
ENDMDL
MODEL 5
REMARK VINA RESULT:    -4.682      1.967      5.002
REMARK INTER + INTRA:          -7.294
REMARK INTER:                  -6.401
REMARK INTRA:                  -0.893
REMARK UNBOUND:                -0.970
REMARK SMILES CC(=O)CCC=C(C)CCC=C(C)C
REMARK SMILES IDX 7 1 6 2 8 3 9 4 10 5 11 6 13 7 12 8 14 9 5 10 4 11 2 12 3 13
REMARK SMILES IDX 1 14
REMARK H PARENT
REMARK Flexibility Score: inf
ROOT
ATOM      1  C   UNL     1       2.573  13.580  -7.134  1.00  0.00    -0.077 C 
ATOM      2  C   UNL     1       2.608  12.884  -8.293  1.00  0.00    -0.028 C 
ATOM      3  C   UNL     1       3.004  12.969  -5.822  1.00  0.00     0.039 C 
ENDROOT
BRANCH   1   4
ATOM      4  C   UNL     1       2.056  15.003  -7.147  1.00  0.00     0.034 C 
BRANCH   4   5
ATOM      5  C   UNL     1       1.962  15.586  -5.731  1.00  0.00     0.032 C 
BRANCH   5   6
ATOM      6  C   UNL     1       2.458  17.014  -5.698  1.00  0.00    -0.028 C 
ATOM      7  C   UNL     1       4.770  16.391  -4.955  1.00  0.00     0.039 C 
ATOM      8  C   UNL     1       3.717  17.388  -5.378  1.00  0.00    -0.080 C 
ATOM      9  C   UNL     1       4.070  18.851  -5.452  1.00  0.00     0.039 C 
ENDBRANCH   5   6
ENDBRANCH   4   5
ENDBRANCH   1   4
BRANCH   2  10
ATOM     10  C   UNL     1       3.107  11.466  -8.425  1.00  0.00     0.035 C 
BRANCH  10  11
ATOM     11  C   UNL     1       4.484  11.437  -9.104  1.00  0.00     0.079 C 
BRANCH  11  12
ATOM     12  C   UNL     1       5.581  12.127  -8.324  1.00  0.00     0.130 C 
ATOM     13  O   UNL     1       5.976  11.605  -7.293  1.00  0.00    -0.300 OA
ATOM     14  C   UNL     1       6.208  13.422  -8.764  1.00  0.00     0.087 C 
ENDBRANCH  11  12
ENDBRANCH  10  11
ENDBRANCH   2  10
TORSDOF 6
ENDMDL
MODEL 6
REMARK VINA RESULT:    -4.530      1.497      4.108
REMARK INTER + INTRA:          -7.090
REMARK INTER:                  -5.960
REMARK INTRA:                  -1.129
REMARK UNBOUND:                -0.970
REMARK SMILES CC(=O)CCC=C(C)CCC=C(C)C
REMARK SMILES IDX 7 1 6 2 8 3 9 4 10 5 11 6 13 7 12 8 14 9 5 10 4 11 2 12 3 13
REMARK SMILES IDX 1 14
REMARK H PARENT
REMARK Flexibility Score: inf
ROOT
ATOM      1  C   UNL     1       3.247  12.120  -8.461  1.00  0.00    -0.077 C 
ATOM      2  C   UNL     1       4.495  12.396  -8.903  1.00  0.00    -0.028 C 
ATOM      3  C   UNL     1       2.993  11.128  -7.350  1.00  0.00     0.039 C 
ENDROOT
BRANCH   1   4
ATOM      4  C   UNL     1       2.067  12.801  -9.122  1.00  0.00     0.034 C 
BRANCH   4   5
ATOM      5  C   UNL     1       2.132  14.326  -8.969  1.00  0.00     0.032 C 
BRANCH   5   6
ATOM      6  C   UNL     1       2.006  14.732  -7.518  1.00  0.00    -0.028 C 
ATOM      7  C   UNL     1       4.081  16.138  -7.536  1.00  0.00     0.039 C 
ATOM      8  C   UNL     1       2.854  15.562  -6.870  1.00  0.00    -0.080 C 
ATOM      9  C   UNL     1       2.554  15.917  -5.436  1.00  0.00     0.039 C 
ENDBRANCH   5   6
ENDBRANCH   4   5
ENDBRANCH   1   4
BRANCH   2  10
ATOM     10  C   UNL     1       5.757  11.798  -8.329  1.00  0.00     0.035 C 
BRANCH  10  11
ATOM     11  C   UNL     1       6.505  12.830  -7.472  1.00  0.00     0.079 C 
BRANCH  11  12
ATOM     12  C   UNL     1       6.095  12.847  -6.017  1.00  0.00     0.130 C 
ATOM     13  O   UNL     1       5.125  13.516  -5.695  1.00  0.00    -0.300 OA
ATOM     14  C   UNL     1       6.825  12.075  -4.951  1.00  0.00     0.087 C 
ENDBRANCH  11  12
ENDBRANCH  10  11
ENDBRANCH   2  10
TORSDOF 6
ENDMDL
MODEL 7
REMARK VINA RESULT:    -4.476      1.635      3.589
REMARK INTER + INTRA:          -7.016
REMARK INTER:                  -6.328
REMARK INTRA:                  -0.688
REMARK UNBOUND:                -0.970
REMARK SMILES CC(=O)CCC=C(C)CCC=C(C)C
REMARK SMILES IDX 7 1 6 2 8 3 9 4 10 5 11 6 13 7 12 8 14 9 5 10 4 11 2 12 3 13
REMARK SMILES IDX 1 14
REMARK H PARENT
REMARK Flexibility Score: inf
ROOT
ATOM      1  C   UNL     1       5.963  12.834  -6.405  1.00  0.00    -0.077 C 
ATOM      2  C   UNL     1       5.375  14.028  -6.642  1.00  0.00    -0.028 C 
ATOM      3  C   UNL     1       6.584  12.500  -5.068  1.00  0.00     0.039 C 
ENDROOT
BRANCH   1   4
ATOM      4  C   UNL     1       6.031  11.814  -7.521  1.00  0.00     0.034 C 
BRANCH   4   5
ATOM      5  C   UNL     1       5.203  12.247  -8.738  1.00  0.00     0.032 C 
BRANCH   5   6
ATOM      6  C   UNL     1       4.207  11.177  -9.125  1.00  0.00    -0.028 C 
ATOM      7  C   UNL     1       2.627  11.706  -7.252  1.00  0.00     0.039 C 
ATOM      8  C   UNL     1       3.039  10.940  -8.487  1.00  0.00    -0.080 C 
ATOM      9  C   UNL     1       2.125   9.875  -9.037  1.00  0.00     0.039 C 
ENDBRANCH   5   6
ENDBRANCH   4   5
ENDBRANCH   1   4
BRANCH   2  10
ATOM     10  C   UNL     1       5.231  15.129  -5.619  1.00  0.00     0.035 C 
BRANCH  10  11
ATOM     11  C   UNL     1       4.146  16.128  -6.048  1.00  0.00     0.079 C 
BRANCH  11  12
ATOM     12  C   UNL     1       2.886  15.489  -6.587  1.00  0.00     0.130 C 
ATOM     13  O   UNL     1       1.987  15.228  -5.803  1.00  0.00    -0.300 OA
ATOM     14  C   UNL     1       2.690  15.168  -8.044  1.00  0.00     0.087 C 
ENDBRANCH  11  12
ENDBRANCH  10  11
ENDBRANCH   2  10
TORSDOF 6
ENDMDL
MODEL 8
REMARK VINA RESULT:    -4.408      1.457      2.565
REMARK INTER + INTRA:          -6.924
REMARK INTER:                  -6.022
REMARK INTRA:                  -0.902
REMARK UNBOUND:                -0.970
REMARK SMILES CC(=O)CCC=C(C)CCC=C(C)C
REMARK SMILES IDX 7 1 6 2 8 3 9 4 10 5 11 6 13 7 12 8 14 9 5 10 4 11 2 12 3 13
REMARK SMILES IDX 1 14
REMARK H PARENT
REMARK Flexibility Score: inf
ROOT
ATOM      1  C   UNL     1       3.935  15.467  -8.243  1.00  0.00    -0.077 C 
ATOM      2  C   UNL     1       3.969  16.183  -7.097  1.00  0.00    -0.028 C 
ATOM      3  C   UNL     1       2.716  14.675  -8.654  1.00  0.00     0.039 C 
ENDROOT
BRANCH   1   4
ATOM      4  C   UNL     1       5.165  15.431  -9.125  1.00  0.00     0.034 C 
BRANCH   4   5
ATOM      5  C   UNL     1       5.824  14.046  -9.125  1.00  0.00     0.032 C 
BRANCH   5   6
ATOM      6  C   UNL     1       6.186  13.616  -7.721  1.00  0.00    -0.028 C 
ATOM      7  C   UNL     1       4.885  11.476  -7.839  1.00  0.00     0.039 C 
ATOM      8  C   UNL     1       5.795  12.459  -7.142  1.00  0.00    -0.080 C 
ATOM      9  C   UNL     1       6.294  12.149  -5.753  1.00  0.00     0.039 C 
ENDBRANCH   5   6
ENDBRANCH   4   5
ENDBRANCH   1   4
BRANCH   2  10
ATOM     10  C   UNL     1       2.814  16.313  -6.134  1.00  0.00     0.035 C 
BRANCH  10  11
ATOM     11  C   UNL     1       3.170  15.694  -4.774  1.00  0.00     0.079 C 
BRANCH  11  12
ATOM     12  C   UNL     1       3.120  14.183  -4.744  1.00  0.00     0.130 C 
ATOM     13  O   UNL     1       3.670  13.603  -3.820  1.00  0.00    -0.300 OA
ATOM     14  C   UNL     1       2.421  13.365  -5.795  1.00  0.00     0.087 C 
ENDBRANCH  11  12
ENDBRANCH  10  11
ENDBRANCH   2  10
TORSDOF 6
ENDMDL
