MODEL 1
REMARK VINA RESULT:    -5.517      0.000      0.000
REMARK INTER + INTRA:          -6.612
REMARK INTER:                  -6.324
REMARK INTRA:                  -0.288
REMARK UNBOUND:                -0.288
REMARK SMILES O=C1C[C@@H](c2ccc(O)cc2)Oc2cc(O)cc(O)c21
REMARK SMILES IDX 3 1 4 2 12 3 13 4 14 5 15 6 17 7 18 8 20 9 2 10 1 11 5 12
REMARK SMILES IDX 6 13 11 14 7 15 10 16 8 17 9 18 19 20 16 22
REMARK H PARENT 9 19 19 21 16 23
REMARK Flexibility Score: inf
ROOT
ATOM      1  C   UNL     1      15.696  -5.741  27.501  1.00  0.00     0.131 C 
ATOM      2  C   UNL     1      16.807  -6.801  27.565  1.00  0.00     0.211 C 
ATOM      3  O   UNL     1      18.094  -6.188  27.436  1.00  0.00    -0.484 OA
ATOM      4  C   UNL     1      18.411  -4.962  28.037  1.00  0.00     0.138 A 
ATOM      5  C   UNL     1      19.749  -4.567  28.103  1.00  0.00     0.093 A 
ATOM      6  C   UNL     1      20.099  -3.361  28.707  1.00  0.00     0.123 A 
ATOM      7  C   UNL     1      19.101  -2.527  29.224  1.00  0.00     0.093 A 
ATOM      8  C   UNL     1      17.750  -2.884  29.134  1.00  0.00     0.133 A 
ATOM      9  C   UNL     1      17.396  -4.135  28.563  1.00  0.00     0.102 A 
ATOM     10  C   UNL     1      16.005  -4.647  28.479  1.00  0.00     0.174 C 
ATOM     11  O   UNL     1      15.096  -4.226  29.241  1.00  0.00    -0.294 OA
ENDROOT
BRANCH   2  12
ATOM     12  C   UNL     1      16.617  -7.838  26.486  1.00  0.00    -0.007 A 
ATOM     13  C   UNL     1      16.849  -9.199  26.754  1.00  0.00     0.011 A 
ATOM     14  C   UNL     1      16.261  -7.448  25.183  1.00  0.00     0.011 A 
ATOM     15  C   UNL     1      16.702 -10.153  25.742  1.00  0.00     0.046 A 
ATOM     16  C   UNL     1      16.115  -8.405  24.174  1.00  0.00     0.046 A 
ATOM     17  C   UNL     1      16.333  -9.758  24.450  1.00  0.00     0.115 A 
BRANCH  17  18
ATOM     18  O   UNL     1      16.184 -10.699  23.434  1.00  0.00    -0.508 OA
ATOM     19  H   UNL     1      15.425 -11.372  23.443  1.00  0.00     0.293 HD
ENDBRANCH  17  18
ENDBRANCH   2  12
BRANCH   8  20
ATOM     20  O   UNL     1      16.809  -1.958  29.590  1.00  0.00    -0.507 OA
ATOM     21  H   UNL     1      16.022  -2.195  30.177  1.00  0.00     0.293 HD
ENDBRANCH   8  20
BRANCH   6  22
ATOM     22  O   UNL     1      21.440  -2.993  28.783  1.00  0.00    -0.508 OA
ATOM     23  H   UNL     1      21.914  -2.893  29.673  1.00  0.00     0.293 HD
ENDBRANCH   6  22
TORSDOF 4
ENDMDL
MODEL 2
REMARK VINA RESULT:    -5.414      9.621     12.626
REMARK INTER + INTRA:          -6.493
REMARK INTER:                  -6.204
REMARK INTRA:                  -0.289
REMARK UNBOUND:                -0.288
REMARK SMILES O=C1C[C@@H](c2ccc(O)cc2)Oc2cc(O)cc(O)c21
REMARK SMILES IDX 3 1 4 2 12 3 13 4 14 5 15 6 17 7 18 8 20 9 2 10 1 11 5 12
REMARK SMILES IDX 6 13 11 14 7 15 10 16 8 17 9 18 19 20 16 22
REMARK H PARENT 9 19 19 21 16 23
REMARK Flexibility Score: inf
ROOT
ATOM      1  C   UNL     1      22.503   5.154  25.728  1.00  0.00     0.131 C 
ATOM      2  C   UNL     1      23.191   4.098  24.850  1.00  0.00     0.211 C 
ATOM      3  O   UNL     1      23.826   3.105  25.662  1.00  0.00    -0.484 OA
ATOM      4  C   UNL     1      23.248   2.610  26.840  1.00  0.00     0.138 A 
ATOM      5  C   UNL     1      23.783   1.459  27.423  1.00  0.00     0.093 A 
ATOM      6  C   UNL     1      23.223   0.932  28.586  1.00  0.00     0.123 A 
ATOM      7  C   UNL     1      22.138   1.579  29.189  1.00  0.00     0.093 A 
ATOM      8  C   UNL     1      21.611   2.756  28.644  1.00  0.00     0.133 A 
ATOM      9  C   UNL     1      22.149   3.266  27.433  1.00  0.00     0.102 A 
ATOM     10  C   UNL     1      21.626   4.464  26.729  1.00  0.00     0.174 C 
ATOM     11  O   UNL     1      20.451   4.880  26.911  1.00  0.00    -0.294 OA
ENDROOT
BRANCH   2  12
ATOM     12  C   UNL     1      24.203   4.742  23.935  1.00  0.00    -0.007 A 
ATOM     13  C   UNL     1      24.770   4.016  22.872  1.00  0.00     0.011 A 
ATOM     14  C   UNL     1      24.633   6.059  24.170  1.00  0.00     0.011 A 
ATOM     15  C   UNL     1      25.730   4.607  22.046  1.00  0.00     0.046 A 
ATOM     16  C   UNL     1      25.594   6.647  23.342  1.00  0.00     0.046 A 
ATOM     17  C   UNL     1      26.143   5.925  22.278  1.00  0.00     0.115 A 
BRANCH  17  18
ATOM     18  O   UNL     1      27.099   6.525  21.461  1.00  0.00    -0.508 OA
ATOM     19  H   UNL     1      26.920   7.408  20.996  1.00  0.00     0.293 HD
ENDBRANCH  17  18
ENDBRANCH   2  12
BRANCH   8  20
ATOM     20  O   UNL     1      20.590   3.392  29.354  1.00  0.00    -0.507 OA
ATOM     21  H   UNL     1      19.606   3.233  29.192  1.00  0.00     0.293 HD
ENDBRANCH   8  20
BRANCH   6  22
ATOM     22  O   UNL     1      23.755  -0.228  29.142  1.00  0.00    -0.508 OA
ATOM     23  H   UNL     1      24.752  -0.406  29.147  1.00  0.00     0.293 HD
ENDBRANCH   6  22
TORSDOF 4
ENDMDL
MODEL 3
REMARK VINA RESULT:    -5.079      1.721      6.962
REMARK INTER + INTRA:          -6.109
REMARK INTER:                  -5.809
REMARK INTRA:                  -0.300
REMARK UNBOUND:                -0.288
REMARK SMILES O=C1C[C@@H](c2ccc(O)cc2)Oc2cc(O)cc(O)c21
REMARK SMILES IDX 3 1 4 2 12 3 13 4 14 5 15 6 17 7 18 8 20 9 2 10 1 11 5 12
REMARK SMILES IDX 6 13 11 14 7 15 10 16 8 17 9 18 19 20 16 22
REMARK H PARENT 9 19 19 21 16 23
REMARK Flexibility Score: inf
ROOT
ATOM      1  C   UNL     1      18.439  -7.189  28.919  1.00  0.00     0.131 C 
ATOM      2  C   UNL     1      17.546  -5.998  28.538  1.00  0.00     0.211 C 
ATOM      3  O   UNL     1      17.166  -6.074  27.160  1.00  0.00    -0.484 OA
ATOM      4  C   UNL     1      16.838  -7.283  26.533  1.00  0.00     0.138 A 
ATOM      5  C   UNL     1      16.216  -7.249  25.283  1.00  0.00     0.093 A 
ATOM      6  C   UNL     1      15.863  -8.434  24.638  1.00  0.00     0.123 A 
ATOM      7  C   UNL     1      16.161  -9.664  25.234  1.00  0.00     0.093 A 
ATOM      8  C   UNL     1      16.821  -9.723  26.468  1.00  0.00     0.133 A 
ATOM      9  C   UNL     1      17.137  -8.517  27.148  1.00  0.00     0.102 A 
ATOM     10  C   UNL     1      17.770  -8.460  28.489  1.00  0.00     0.174 C 
ATOM     11  O   UNL     1      17.713  -9.429  29.292  1.00  0.00    -0.294 OA
ENDROOT
BRANCH   2  12
ATOM     12  C   UNL     1      18.253  -4.693  28.809  1.00  0.00    -0.007 A 
ATOM     13  C   UNL     1      19.203  -4.192  27.902  1.00  0.00     0.011 A 
ATOM     14  C   UNL     1      18.009  -3.990  30.002  1.00  0.00     0.011 A 
ATOM     15  C   UNL     1      19.878  -2.998  28.172  1.00  0.00     0.046 A 
ATOM     16  C   UNL     1      18.686  -2.795  30.269  1.00  0.00     0.046 A 
ATOM     17  C   UNL     1      19.619  -2.296  29.356  1.00  0.00     0.115 A 
BRANCH  17  18
ATOM     18  O   UNL     1      20.285  -1.105  29.636  1.00  0.00    -0.508 OA
ATOM     19  H   UNL     1      21.090  -1.080  30.251  1.00  0.00     0.293 HD
ENDBRANCH  17  18
ENDBRANCH   2  12
BRANCH   8  20
ATOM     20  O   UNL     1      17.166 -10.987  26.952  1.00  0.00    -0.507 OA
ATOM     21  H   UNL     1      17.952 -11.524  26.618  1.00  0.00     0.293 HD
ENDBRANCH   8  20
BRANCH   6  22
ATOM     22  O   UNL     1      15.223  -8.381  23.402  1.00  0.00    -0.508 OA
ATOM     23  H   UNL     1      14.437  -7.762  23.237  1.00  0.00     0.293 HD
ENDBRANCH   6  22
TORSDOF 4
ENDMDL
MODEL 4
REMARK VINA RESULT:    -5.042      7.877     10.912
REMARK INTER + INTRA:          -6.066
REMARK INTER:                  -5.753
REMARK INTRA:                  -0.313
REMARK UNBOUND:                -0.288
REMARK SMILES O=C1C[C@@H](c2ccc(O)cc2)Oc2cc(O)cc(O)c21
REMARK SMILES IDX 3 1 4 2 12 3 13 4 14 5 15 6 17 7 18 8 20 9 2 10 1 11 5 12
REMARK SMILES IDX 6 13 11 14 7 15 10 16 8 17 9 18 19 20 16 22
REMARK H PARENT 9 19 19 21 16 23
REMARK Flexibility Score: inf
ROOT
ATOM      1  C   UNL     1      21.703   3.128  27.708  1.00  0.00     0.131 C 
ATOM      2  C   UNL     1      23.047   2.430  27.970  1.00  0.00     0.211 C 
ATOM      3  O   UNL     1      23.772   2.259  26.748  1.00  0.00    -0.484 OA
ATOM      4  C   UNL     1      23.798   3.236  25.742  1.00  0.00     0.138 A 
ATOM      5  C   UNL     1      24.738   3.123  24.715  1.00  0.00     0.093 A 
ATOM      6  C   UNL     1      24.801   4.085  23.708  1.00  0.00     0.123 A 
ATOM      7  C   UNL     1      23.898   5.153  23.711  1.00  0.00     0.093 A 
ATOM      8  C   UNL     1      22.921   5.265  24.708  1.00  0.00     0.133 A 
ATOM      9  C   UNL     1      22.887   4.313  25.761  1.00  0.00     0.102 A 
ATOM     10  C   UNL     1      21.944   4.371  26.906  1.00  0.00     0.174 C 
ATOM     11  O   UNL     1      21.387   5.446  27.252  1.00  0.00    -0.294 OA
ENDROOT
BRANCH   2  12
ATOM     12  C   UNL     1      22.833   1.093  28.636  1.00  0.00    -0.007 A 
ATOM     13  C   UNL     1      23.812   0.088  28.552  1.00  0.00     0.011 A 
ATOM     14  C   UNL     1      21.626   0.818  29.301  1.00  0.00     0.011 A 
ATOM     15  C   UNL     1      23.597  -1.159  29.145  1.00  0.00     0.046 A 
ATOM     16  C   UNL     1      21.413  -0.430  29.893  1.00  0.00     0.046 A 
ATOM     17  C   UNL     1      22.397  -1.421  29.818  1.00  0.00     0.115 A 
BRANCH  17  18
ATOM     18  O   UNL     1      22.171  -2.660  30.413  1.00  0.00    -0.508 OA
ATOM     19  H   UNL     1      21.792  -2.737  31.350  1.00  0.00     0.293 HD
ENDBRANCH  17  18
ENDBRANCH   2  12
BRANCH   8  20
ATOM     20  O   UNL     1      21.998   6.306  24.590  1.00  0.00    -0.507 OA
ATOM     21  H   UNL     1      21.734   6.730  23.712  1.00  0.00     0.293 HD
ENDBRANCH   8  20
BRANCH   6  22
ATOM     22  O   UNL     1      25.759   3.968  22.704  1.00  0.00    -0.508 OA
ATOM     23  H   UNL     1      26.076   3.064  22.376  1.00  0.00     0.293 HD
ENDBRANCH   6  22
TORSDOF 4
ENDMDL
MODEL 5
REMARK VINA RESULT:    -4.684      3.641      8.439
REMARK INTER + INTRA:          -5.656
REMARK INTER:                  -5.371
REMARK INTRA:                  -0.285
REMARK UNBOUND:                -0.288
REMARK SMILES O=C1C[C@@H](c2ccc(O)cc2)Oc2cc(O)cc(O)c21
REMARK SMILES IDX 3 1 4 2 12 3 13 4 14 5 15 6 17 7 18 8 20 9 2 10 1 11 5 12
REMARK SMILES IDX 6 13 11 14 7 15 10 16 8 17 9 18 19 20 16 22
REMARK H PARENT 9 19 19 21 16 23
REMARK Flexibility Score: inf
ROOT
ATOM      1  C   UNL     1      21.774  -2.219  30.854  1.00  0.00     0.131 C 
ATOM      2  C   UNL     1      21.260  -1.403  29.659  1.00  0.00     0.211 C 
ATOM      3  O   UNL     1      20.740  -2.269  28.645  1.00  0.00    -0.484 OA
ATOM      4  C   UNL     1      19.993  -3.418  28.942  1.00  0.00     0.138 A 
ATOM      5  C   UNL     1      19.290  -4.052  27.915  1.00  0.00     0.093 A 
ATOM      6  C   UNL     1      18.526  -5.187  28.180  1.00  0.00     0.123 A 
ATOM      7  C   UNL     1      18.488  -5.711  29.477  1.00  0.00     0.093 A 
ATOM      8  C   UNL     1      19.216  -5.116  30.514  1.00  0.00     0.133 A 
ATOM      9  C   UNL     1      19.956  -3.932  30.256  1.00  0.00     0.102 A 
ATOM     10  C   UNL     1      20.707  -3.177  31.291  1.00  0.00     0.174 C 
ATOM     11  O   UNL     1      20.433  -3.280  32.516  1.00  0.00    -0.294 OA
ENDROOT
BRANCH   2  12
ATOM     12  C   UNL     1      22.359  -0.541  29.089  1.00  0.00    -0.007 A 
ATOM     13  C   UNL     1      22.116   0.806  28.765  1.00  0.00     0.011 A 
ATOM     14  C   UNL     1      23.624  -1.091  28.821  1.00  0.00     0.011 A 
ATOM     15  C   UNL     1      23.129   1.592  28.208  1.00  0.00     0.046 A 
ATOM     16  C   UNL     1      24.635  -0.302  28.264  1.00  0.00     0.046 A 
ATOM     17  C   UNL     1      24.392   1.041  27.958  1.00  0.00     0.115 A 
BRANCH  17  18
ATOM     18  O   UNL     1      25.408   1.814  27.403  1.00  0.00    -0.508 OA
ATOM     19  H   UNL     1      25.322   2.217  26.477  1.00  0.00     0.293 HD
ENDBRANCH  17  18
ENDBRANCH   2  12
BRANCH   8  20
ATOM     20  O   UNL     1      19.201  -5.751  31.758  1.00  0.00    -0.507 OA
ATOM     21  H   UNL     1      18.408  -5.749  32.383  1.00  0.00     0.293 HD
ENDBRANCH   8  20
BRANCH   6  22
ATOM     22  O   UNL     1      17.814  -5.794  27.149  1.00  0.00    -0.508 OA
ATOM     23  H   UNL     1      16.801  -5.812  27.142  1.00  0.00     0.293 HD
ENDBRANCH   6  22
TORSDOF 4
ENDMDL
MODEL 6
REMARK VINA RESULT:    -4.670      9.097     11.591
REMARK INTER + INTRA:          -5.640
REMARK INTER:                  -5.329
REMARK INTRA:                  -0.311
REMARK UNBOUND:                -0.288
REMARK SMILES O=C1C[C@@H](c2ccc(O)cc2)Oc2cc(O)cc(O)c21
REMARK SMILES IDX 3 1 4 2 12 3 13 4 14 5 15 6 17 7 18 8 20 9 2 10 1 11 5 12
REMARK SMILES IDX 6 13 11 14 7 15 10 16 8 17 9 18 19 20 16 22
REMARK H PARENT 9 19 19 21 16 23
REMARK Flexibility Score: inf
ROOT
ATOM      1  C   UNL     1      24.144   3.118  26.827  1.00  0.00     0.131 C 
ATOM      2  C   UNL     1      22.871   2.260  26.876  1.00  0.00     0.211 C 
ATOM      3  O   UNL     1      21.705   3.089  26.854  1.00  0.00    -0.484 OA
ATOM      4  C   UNL     1      21.611   4.241  26.060  1.00  0.00     0.138 A 
ATOM      5  C   UNL     1      20.361   4.836  25.877  1.00  0.00     0.093 A 
ATOM      6  C   UNL     1      20.231   5.973  25.082  1.00  0.00     0.123 A 
ATOM      7  C   UNL     1      21.365   6.539  24.488  1.00  0.00     0.093 A 
ATOM      8  C   UNL     1      22.634   5.982  24.691  1.00  0.00     0.133 A 
ATOM      9  C   UNL     1      22.761   4.796  25.460  1.00  0.00     0.102 A 
ATOM     10  C   UNL     1      24.043   4.081  25.682  1.00  0.00     0.174 C 
ATOM     11  O   UNL     1      25.024   4.221  24.905  1.00  0.00    -0.294 OA
ENDROOT
BRANCH   2  12
ATOM     12  C   UNL     1      22.863   1.388  28.107  1.00  0.00    -0.007 A 
ATOM     13  C   UNL     1      23.810   0.361  28.263  1.00  0.00     0.011 A 
ATOM     14  C   UNL     1      21.869   1.556  29.087  1.00  0.00     0.011 A 
ATOM     15  C   UNL     1      23.779  -0.464  29.391  1.00  0.00     0.046 A 
ATOM     16  C   UNL     1      21.840   0.730  30.215  1.00  0.00     0.046 A 
ATOM     17  C   UNL     1      22.794  -0.281  30.371  1.00  0.00     0.115 A 
BRANCH  17  18
ATOM     18  O   UNL     1      22.753  -1.096  31.499  1.00  0.00    -0.508 OA
ATOM     19  H   UNL     1      23.562  -1.213  32.099  1.00  0.00     0.293 HD
ENDBRANCH  17  18
ENDBRANCH   2  12
BRANCH   8  20
ATOM     20  O   UNL     1      23.727   6.657  24.141  1.00  0.00    -0.507 OA
ATOM     21  H   UNL     1      23.655   7.520  23.622  1.00  0.00     0.293 HD
ENDBRANCH   8  20
BRANCH   6  22
ATOM     22  O   UNL     1      18.974   6.541  24.892  1.00  0.00    -0.508 OA
ATOM     23  H   UNL     1      18.739   7.450  25.274  1.00  0.00     0.293 HD
ENDBRANCH   6  22
TORSDOF 4
ENDMDL
MODEL 7
REMARK VINA RESULT:    -4.643      5.419      7.397
REMARK INTER + INTRA:          -5.610
REMARK INTER:                  -5.293
REMARK INTRA:                  -0.317
REMARK UNBOUND:                -0.288
REMARK SMILES O=C1C[C@@H](c2ccc(O)cc2)Oc2cc(O)cc(O)c21
REMARK SMILES IDX 3 1 4 2 12 3 13 4 14 5 15 6 17 7 18 8 20 9 2 10 1 11 5 12
REMARK SMILES IDX 6 13 11 14 7 15 10 16 8 17 9 18 19 20 16 22
REMARK H PARENT 9 19 19 21 16 23
REMARK Flexibility Score: inf
ROOT
ATOM      1  C   UNL     1      14.907  -9.414  23.298  1.00  0.00     0.131 C 
ATOM      2  C   UNL     1      14.966 -10.783  22.605  1.00  0.00     0.211 C 
ATOM      3  O   UNL     1      16.232 -11.410  22.835  1.00  0.00    -0.484 OA
ATOM      4  C   UNL     1      16.895 -11.343  24.067  1.00  0.00     0.138 A 
ATOM      5  C   UNL     1      17.974 -12.199  24.302  1.00  0.00     0.093 A 
ATOM      6  C   UNL     1      18.646 -12.168  25.523  1.00  0.00     0.123 A 
ATOM      7  C   UNL     1      18.256 -11.253  26.508  1.00  0.00     0.093 A 
ATOM      8  C   UNL     1      17.203 -10.358  26.279  1.00  0.00     0.133 A 
ATOM      9  C   UNL     1      16.487 -10.422  25.055  1.00  0.00     0.102 A 
ATOM     10  C   UNL     1      15.312  -9.573  24.733  1.00  0.00     0.174 C 
ATOM     11  O   UNL     1      14.619  -9.031  25.634  1.00  0.00    -0.294 OA
ENDROOT
BRANCH   2  12
ATOM     12  C   UNL     1      14.720 -10.642  21.123  1.00  0.00    -0.007 A 
ATOM     13  C   UNL     1      15.324 -11.525  20.210  1.00  0.00     0.011 A 
ATOM     14  C   UNL     1      13.929  -9.588  20.634  1.00  0.00     0.011 A 
ATOM     15  C   UNL     1      15.118 -11.371  18.836  1.00  0.00     0.046 A 
ATOM     16  C   UNL     1      13.724  -9.437  19.259  1.00  0.00     0.046 A 
ATOM     17  C   UNL     1      14.316 -10.327  18.357  1.00  0.00     0.115 A 
BRANCH  17  18
ATOM     18  O   UNL     1      14.104 -10.164  16.990  1.00  0.00    -0.508 OA
ATOM     19  H   UNL     1      14.787 -10.471  16.307  1.00  0.00     0.293 HD
ENDBRANCH  17  18
ENDBRANCH   2  12
BRANCH   8  20
ATOM     20  O   UNL     1      16.935  -9.415  27.274  1.00  0.00    -0.507 OA
ATOM     21  H   UNL     1      16.876  -8.421  27.108  1.00  0.00     0.293 HD
ENDBRANCH   8  20
BRANCH   6  22
ATOM     22  O   UNL     1      19.706 -13.043  25.748  1.00  0.00    -0.508 OA
ATOM     23  H   UNL     1      20.512 -12.770  26.297  1.00  0.00     0.293 HD
ENDBRANCH   6  22
TORSDOF 4
ENDMDL
MODEL 8
REMARK VINA RESULT:    -4.577      6.844     10.231
REMARK INTER + INTRA:          -5.534
REMARK INTER:                  -5.227
REMARK INTRA:                  -0.307
REMARK UNBOUND:                -0.288
REMARK SMILES O=C1C[C@@H](c2ccc(O)cc2)Oc2cc(O)cc(O)c21
REMARK SMILES IDX 3 1 4 2 12 3 13 4 14 5 15 6 17 7 18 8 20 9 2 10 1 11 5 12
REMARK SMILES IDX 6 13 11 14 7 15 10 16 8 17 9 18 19 20 16 22
REMARK H PARENT 9 19 19 21 16 23
REMARK Flexibility Score: inf
ROOT
ATOM      1  C   UNL     1      23.205   2.139  29.917  1.00  0.00     0.131 C 
ATOM      2  C   UNL     1      23.490   0.945  28.994  1.00  0.00     0.211 C 
ATOM      3  O   UNL     1      23.046   1.221  27.662  1.00  0.00    -0.484 OA
ATOM      4  C   UNL     1      23.192   2.480  27.063  1.00  0.00     0.138 A 
ATOM      5  C   UNL     1      22.995   2.599  25.685  1.00  0.00     0.093 A 
ATOM      6  C   UNL     1      23.147   3.834  25.055  1.00  0.00     0.123 A 
ATOM      7  C   UNL     1      23.471   4.965  25.813  1.00  0.00     0.093 A 
ATOM      8  C   UNL     1      23.634   4.876  27.201  1.00  0.00     0.133 A 
ATOM      9  C   UNL     1      23.527   3.611  27.837  1.00  0.00     0.102 A 
ATOM     10  C   UNL     1      23.749   3.387  29.287  1.00  0.00     0.174 C 
ATOM     11  O   UNL     1      24.425   4.186  29.986  1.00  0.00    -0.294 OA
ENDROOT
BRANCH   2  12
ATOM     12  C   UNL     1      22.820  -0.304  29.514  1.00  0.00    -0.007 A 
ATOM     13  C   UNL     1      21.555  -0.687  29.038  1.00  0.00     0.011 A 
ATOM     14  C   UNL     1      23.432  -1.066  30.524  1.00  0.00     0.011 A 
ATOM     15  C   UNL     1      20.925  -1.828  29.545  1.00  0.00     0.046 A 
ATOM     16  C   UNL     1      22.800  -2.207  31.030  1.00  0.00     0.046 A 
ATOM     17  C   UNL     1      21.547  -2.591  30.542  1.00  0.00     0.115 A 
BRANCH  17  18
ATOM     18  O   UNL     1      20.929  -3.729  31.055  1.00  0.00    -0.508 OA
ATOM     19  H   UNL     1      21.171  -4.657  30.726  1.00  0.00     0.293 HD
ENDBRANCH  17  18
ENDBRANCH   2  12
BRANCH   8  20
ATOM     20  O   UNL     1      23.863   6.064  27.899  1.00  0.00    -0.507 OA
ATOM     21  H   UNL     1      23.410   6.941  27.685  1.00  0.00     0.293 HD
ENDBRANCH   8  20
BRANCH   6  22
ATOM     22  O   UNL     1      22.968   3.931  23.678  1.00  0.00    -0.508 OA
ATOM     23  H   UNL     1      22.045   4.003  23.266  1.00  0.00     0.293 HD
ENDBRANCH   6  22
TORSDOF 4
ENDMDL
