MODEL 1
REMARK VINA RESULT:    -7.050      0.000      0.000
REMARK INTER + INTRA:          -7.256
REMARK INTER:                  -7.256
REMARK INTRA:                   0.000
REMARK UNBOUND:                 0.000
REMARK SMILES C=C1CCC[C@]2(C)C[C@]3(O)OC(=O)C(C)=C3C[C@H]12
REMARK SMILES IDX 15 1 14 2 16 3 17 4 18 5 2 6 1 7 3 8 4 9 5 10 6 11 8 12 9 13
REMARK SMILES IDX 11 14 12 15 13 16 7 17 10 18
REMARK H PARENT 10 19
REMARK Flexibility Score: inf
ROOT
ATOM      1  C   UNL     1     129.877 127.320 121.358  1.00  0.00     0.052 C 
ATOM      2  C   UNL     1     130.335 127.872 122.671  1.00  0.00     0.040 C 
ATOM      3  C   UNL     1     131.474 128.523 122.900  1.00  0.00     0.012 C 
ATOM      4  C   UNL     1     132.557 128.768 121.893  1.00  0.00     0.047 C 
ATOM      5  C   UNL     1     133.787 129.398 122.581  1.00  0.00     0.025 C 
ATOM      6  C   UNL     1     134.906 129.578 121.567  1.00  0.00    -0.073 C 
ATOM      7  C   UNL     1     135.019 130.725 120.876  1.00  0.00     0.008 C 
ATOM      8  C   UNL     1     135.785 128.400 121.226  1.00  0.00     0.031 C 
ATOM      9  C   UNL     1     136.283 127.715 122.497  1.00  0.00     0.005 C 
ATOM     10  C   UNL     1     135.119 127.367 123.437  1.00  0.00     0.008 C 
ATOM     11  C   UNL     1     134.264 128.602 123.859  1.00  0.00    -0.019 C 
ATOM     12  C   UNL     1     133.059 128.084 124.741  1.00  0.00     0.092 C 
ATOM     13  C   UNL     1     131.704 128.712 124.374  1.00  0.00     0.235 C 
ATOM     14  O   UNL     1     130.611 128.015 124.972  1.00  0.00    -0.426 OA
ATOM     15  C   UNL     1     129.787 127.539 123.969  1.00  0.00     0.336 C 
ATOM     16  O   UNL     1     128.736 126.880 124.175  1.00  0.00    -0.246 OA
ATOM     17  C   UNL     1     135.120 129.550 124.736  1.00  0.00     0.012 C 
ENDROOT
BRANCH  13  18
ATOM     18  O   UNL     1     131.652 130.074 124.706  1.00  0.00    -0.353 OA
ATOM     19  H   UNL     1     132.214 130.551 124.042  1.00  0.00     0.215 HD
ENDBRANCH  13  18
TORSDOF 1
ENDMDL
MODEL 2
REMARK VINA RESULT:    -6.949      2.760      5.345
REMARK INTER + INTRA:          -7.153
REMARK INTER:                  -7.153
REMARK INTRA:                   0.000
REMARK UNBOUND:                 0.000
REMARK SMILES C=C1CCC[C@]2(C)C[C@]3(O)OC(=O)C(C)=C3C[C@H]12
REMARK SMILES IDX 15 1 14 2 16 3 17 4 18 5 2 6 1 7 3 8 4 9 5 10 6 11 8 12 9 13
REMARK SMILES IDX 11 14 12 15 13 16 7 17 10 18
REMARK H PARENT 10 19
REMARK Flexibility Score: inf
ROOT
ATOM      1  C   UNL     1     135.440 130.974 119.934  1.00  0.00     0.052 C 
ATOM      2  C   UNL     1     135.868 130.041 121.023  1.00  0.00     0.040 C 
ATOM      3  C   UNL     1     135.074 129.247 121.739  1.00  0.00     0.012 C 
ATOM      4  C   UNL     1     133.580 129.185 121.638  1.00  0.00     0.047 C 
ATOM      5  C   UNL     1     133.012 128.275 122.748  1.00  0.00     0.025 C 
ATOM      6  C   UNL     1     131.493 128.273 122.683  1.00  0.00    -0.073 C 
ATOM      7  C   UNL     1     130.845 127.355 121.947  1.00  0.00     0.008 C 
ATOM      8  C   UNL     1     130.729 129.410 123.317  1.00  0.00     0.031 C 
ATOM      9  C   UNL     1     131.231 129.668 124.737  1.00  0.00     0.005 C 
ATOM     10  C   UNL     1     132.754 129.855 124.765  1.00  0.00     0.008 C 
ATOM     11  C   UNL     1     133.546 128.640 124.189  1.00  0.00    -0.019 C 
ATOM     12  C   UNL     1     135.083 129.009 124.196  1.00  0.00     0.092 C 
ATOM     13  C   UNL     1     135.818 128.639 122.896  1.00  0.00     0.235 C 
ATOM     14  O   UNL     1     137.107 129.247 122.819  1.00  0.00    -0.426 OA
ATOM     15  C   UNL     1     137.148 130.057 121.699  1.00  0.00     0.336 C 
ATOM     16  O   UNL     1     138.152 130.732 121.355  1.00  0.00    -0.246 OA
ATOM     17  C   UNL     1     133.350 127.410 125.111  1.00  0.00     0.012 C 
ENDROOT
BRANCH  13  18
ATOM     18  O   UNL     1     135.924 127.249 122.734  1.00  0.00    -0.353 OA
ATOM     19  H   UNL     1     135.058 126.861 123.025  1.00  0.00     0.215 HD
ENDBRANCH  13  18
TORSDOF 1
ENDMDL
MODEL 3
REMARK VINA RESULT:    -6.369      7.229      9.603
REMARK INTER + INTRA:          -6.555
REMARK INTER:                  -6.555
REMARK INTRA:                   0.000
REMARK UNBOUND:                 0.000
REMARK SMILES C=C1CCC[C@]2(C)C[C@]3(O)OC(=O)C(C)=C3C[C@H]12
REMARK SMILES IDX 15 1 14 2 16 3 17 4 18 5 2 6 1 7 3 8 4 9 5 10 6 11 8 12 9 13
REMARK SMILES IDX 11 14 12 15 13 16 7 17 10 18
REMARK H PARENT 10 19
REMARK Flexibility Score: inf
ROOT
ATOM      1  C   UNL     1     137.702 132.553 121.351  1.00  0.00     0.052 C 
ATOM      2  C   UNL     1     137.263 133.825 120.697  1.00  0.00     0.040 C 
ATOM      3  C   UNL     1     137.403 135.055 121.189  1.00  0.00     0.012 C 
ATOM      4  C   UNL     1     137.968 135.398 122.534  1.00  0.00     0.047 C 
ATOM      5  C   UNL     1     137.803 136.908 122.808  1.00  0.00     0.025 C 
ATOM      6  C   UNL     1     138.314 137.236 124.202  1.00  0.00    -0.073 C 
ATOM      7  C   UNL     1     139.595 137.598 124.388  1.00  0.00     0.008 C 
ATOM      8  C   UNL     1     137.418 136.990 125.390  1.00  0.00     0.031 C 
ATOM      9  C   UNL     1     136.031 137.581 125.147  1.00  0.00     0.005 C 
ATOM     10  C   UNL     1     135.441 137.093 123.817  1.00  0.00     0.008 C 
ATOM     11  C   UNL     1     136.329 137.426 122.578  1.00  0.00    -0.019 C 
ATOM     12  C   UNL     1     135.648 136.788 121.302  1.00  0.00     0.092 C 
ATOM     13  C   UNL     1     136.632 136.056 120.373  1.00  0.00     0.235 C 
ATOM     14  O   UNL     1     135.957 135.248 119.408  1.00  0.00    -0.426 OA
ATOM     15  C   UNL     1     136.347 133.933 119.582  1.00  0.00     0.336 C 
ATOM     16  O   UNL     1     135.924 132.976 118.882  1.00  0.00    -0.246 OA
ATOM     17  C   UNL     1     136.375 138.962 122.371  1.00  0.00     0.012 C 
ENDROOT
BRANCH  13  18
ATOM     18  O   UNL     1     137.509 136.946 119.735  1.00  0.00    -0.353 OA
ATOM     19  H   UNL     1     138.278 136.407 119.413  1.00  0.00     0.215 HD
ENDBRANCH  13  18
TORSDOF 1
ENDMDL
MODEL 4
REMARK VINA RESULT:    -6.280     15.085     17.758
REMARK INTER + INTRA:          -6.464
REMARK INTER:                  -6.464
REMARK INTRA:                   0.000
REMARK UNBOUND:                 0.000
REMARK SMILES C=C1CCC[C@]2(C)C[C@]3(O)OC(=O)C(C)=C3C[C@H]12
REMARK SMILES IDX 15 1 14 2 16 3 17 4 18 5 2 6 1 7 3 8 4 9 5 10 6 11 8 12 9 13
REMARK SMILES IDX 11 14 12 15 13 16 7 17 10 18
REMARK H PARENT 10 19
REMARK Flexibility Score: inf
ROOT
ATOM      1  C   UNL     1     137.381 141.548 120.662  1.00  0.00     0.052 C 
ATOM      2  C   UNL     1     138.462 142.310 119.962  1.00  0.00     0.040 C 
ATOM      3  C   UNL     1     139.408 143.050 120.539  1.00  0.00     0.012 C 
ATOM      4  C   UNL     1     139.529 143.319 122.009  1.00  0.00     0.047 C 
ATOM      5  C   UNL     1     140.643 144.356 122.266  1.00  0.00     0.025 C 
ATOM      6  C   UNL     1     140.713 144.678 123.751  1.00  0.00    -0.073 C 
ATOM      7  C   UNL     1     141.524 143.977 124.560  1.00  0.00     0.008 C 
ATOM      8  C   UNL     1     139.742 145.676 124.332  1.00  0.00     0.031 C 
ATOM      9  C   UNL     1     139.704 146.945 123.484  1.00  0.00     0.005 C 
ATOM     10  C   UNL     1     139.446 146.621 122.006  1.00  0.00     0.008 C 
ATOM     11  C   UNL     1     140.502 145.657 121.382  1.00  0.00    -0.019 C 
ATOM     12  C   UNL     1     140.060 145.342 119.897  1.00  0.00     0.092 C 
ATOM     13  C   UNL     1     140.165 143.855 119.519  1.00  0.00     0.235 C 
ATOM     14  O   UNL     1     139.486 143.564 118.297  1.00  0.00    -0.426 OA
ATOM     15  C   UNL     1     138.496 142.633 118.551  1.00  0.00     0.336 C 
ATOM     16  O   UNL     1     137.721 142.173 117.674  1.00  0.00    -0.246 OA
ATOM     17  C   UNL     1     141.880 146.364 121.326  1.00  0.00     0.012 C 
ENDROOT
BRANCH  13  18
ATOM     18  O   UNL     1     141.498 143.426 119.449  1.00  0.00    -0.353 OA
ATOM     19  H   UNL     1     141.482 142.499 119.094  1.00  0.00     0.215 HD
ENDBRANCH  13  18
TORSDOF 1
ENDMDL
MODEL 5
REMARK VINA RESULT:    -6.274      3.461      6.130
REMARK INTER + INTRA:          -6.458
REMARK INTER:                  -6.458
REMARK INTRA:                   0.000
REMARK UNBOUND:                 0.000
REMARK SMILES C=C1CCC[C@]2(C)C[C@]3(O)OC(=O)C(C)=C3C[C@H]12
REMARK SMILES IDX 15 1 14 2 16 3 17 4 18 5 2 6 1 7 3 8 4 9 5 10 6 11 8 12 9 13
REMARK SMILES IDX 11 14 12 15 13 16 7 17 10 18
REMARK H PARENT 10 19
REMARK Flexibility Score: inf
ROOT
ATOM      1  C   UNL     1     137.390 133.326 120.832  1.00  0.00     0.052 C 
ATOM      2  C   UNL     1     136.318 132.572 120.111  1.00  0.00     0.040 C 
ATOM      3  C   UNL     1     135.368 131.822 120.667  1.00  0.00     0.012 C 
ATOM      4  C   UNL     1     135.233 131.530 122.131  1.00  0.00     0.047 C 
ATOM      5  C   UNL     1     134.118 130.487 122.363  1.00  0.00     0.025 C 
ATOM      6  C   UNL     1     134.035 130.144 123.841  1.00  0.00    -0.073 C 
ATOM      7  C   UNL     1     133.213 130.831 124.653  1.00  0.00     0.008 C 
ATOM      8  C   UNL     1     135.002 129.140 124.418  1.00  0.00     0.031 C 
ATOM      9  C   UNL     1     135.051 127.883 123.552  1.00  0.00     0.005 C 
ATOM     10  C   UNL     1     135.324 128.229 122.081  1.00  0.00     0.008 C 
ATOM     11  C   UNL     1     134.272 129.200 121.461  1.00  0.00    -0.019 C 
ATOM     12  C   UNL     1     134.728 129.537 119.985  1.00  0.00     0.092 C 
ATOM     13  C   UNL     1     134.624 131.030 119.628  1.00  0.00     0.235 C 
ATOM     14  O   UNL     1     135.314 131.340 118.417  1.00  0.00    -0.426 OA
ATOM     15  C   UNL     1     136.299 132.270 118.695  1.00  0.00     0.336 C 
ATOM     16  O   UNL     1     137.082 132.744 117.832  1.00  0.00    -0.246 OA
ATOM     17  C   UNL     1     132.896 128.490 121.380  1.00  0.00     0.012 C 
ENDROOT
BRANCH  13  18
ATOM     18  O   UNL     1     133.290 131.457 119.551  1.00  0.00    -0.353 OA
ATOM     19  H   UNL     1     133.126 131.715 118.607  1.00  0.00     0.215 HD
ENDBRANCH  13  18
TORSDOF 1
ENDMDL
MODEL 6
REMARK VINA RESULT:    -6.212      3.328      5.700
REMARK INTER + INTRA:          -6.393
REMARK INTER:                  -6.393
REMARK INTRA:                   0.000
REMARK UNBOUND:                 0.000
REMARK SMILES C=C1CCC[C@]2(C)C[C@]3(O)OC(=O)C(C)=C3C[C@H]12
REMARK SMILES IDX 15 1 14 2 16 3 17 4 18 5 2 6 1 7 3 8 4 9 5 10 6 11 8 12 9 13
REMARK SMILES IDX 11 14 12 15 13 16 7 17 10 18
REMARK H PARENT 10 19
REMARK Flexibility Score: inf
ROOT
ATOM      1  C   UNL     1     134.330 133.470 121.130  1.00  0.00     0.052 C 
ATOM      2  C   UNL     1     135.288 132.325 121.027  1.00  0.00     0.040 C 
ATOM      3  C   UNL     1     135.034 131.053 121.331  1.00  0.00     0.012 C 
ATOM      4  C   UNL     1     133.752 130.533 121.906  1.00  0.00     0.047 C 
ATOM      5  C   UNL     1     133.906 129.043 122.282  1.00  0.00     0.025 C 
ATOM      6  C   UNL     1     132.626 128.541 122.930  1.00  0.00    -0.073 C 
ATOM      7  C   UNL     1     131.656 127.992 122.180  1.00  0.00     0.008 C 
ATOM      8  C   UNL     1     132.386 128.816 124.394  1.00  0.00     0.031 C 
ATOM      9  C   UNL     1     133.616 128.444 125.219  1.00  0.00     0.005 C 
ATOM     10  C   UNL     1     134.883 129.109 124.664  1.00  0.00     0.008 C 
ATOM     11  C   UNL     1     135.178 128.753 123.174  1.00  0.00    -0.019 C 
ATOM     12  C   UNL     1     136.447 129.576 122.715  1.00  0.00     0.092 C 
ATOM     13  C   UNL     1     136.296 130.234 121.333  1.00  0.00     0.235 C 
ATOM     14  O   UNL     1     137.318 131.200 121.085  1.00  0.00    -0.426 OA
ATOM     15  C   UNL     1     136.724 132.431 120.879  1.00  0.00     0.336 C 
ATOM     16  O   UNL     1     137.362 133.488 120.636  1.00  0.00    -0.246 OA
ATOM     17  C   UNL     1     135.523 127.247 123.060  1.00  0.00     0.012 C 
ENDROOT
BRANCH  13  18
ATOM     18  O   UNL     1     136.263 129.284 120.302  1.00  0.00    -0.353 OA
ATOM     19  H   UNL     1     137.193 128.956 120.187  1.00  0.00     0.215 HD
ENDBRANCH  13  18
TORSDOF 1
ENDMDL
MODEL 7
REMARK VINA RESULT:    -6.126     14.680     17.306
REMARK INTER + INTRA:          -6.305
REMARK INTER:                  -6.305
REMARK INTRA:                   0.000
REMARK UNBOUND:                 0.000
REMARK SMILES C=C1CCC[C@]2(C)C[C@]3(O)OC(=O)C(C)=C3C[C@H]12
REMARK SMILES IDX 15 1 14 2 16 3 17 4 18 5 2 6 1 7 3 8 4 9 5 10 6 11 8 12 9 13
REMARK SMILES IDX 11 14 12 15 13 16 7 17 10 18
REMARK H PARENT 10 19
REMARK Flexibility Score: inf
ROOT
ATOM      1  C   UNL     1     140.476 140.589 122.494  1.00  0.00     0.052 C 
ATOM      2  C   UNL     1     139.569 141.403 121.625  1.00  0.00     0.040 C 
ATOM      3  C   UNL     1     139.714 142.691 121.320  1.00  0.00     0.012 C 
ATOM      4  C   UNL     1     140.784 143.598 121.849  1.00  0.00     0.047 C 
ATOM      5  C   UNL     1     140.514 145.052 121.403  1.00  0.00     0.025 C 
ATOM      6  C   UNL     1     141.563 145.976 122.001  1.00  0.00    -0.073 C 
ATOM      7  C   UNL     1     142.694 146.245 121.328  1.00  0.00     0.008 C 
ATOM      8  C   UNL     1     141.397 146.452 123.423  1.00  0.00     0.031 C 
ATOM      9  C   UNL     1     139.984 146.986 123.649  1.00  0.00     0.005 C 
ATOM     10  C   UNL     1     138.925 145.964 123.212  1.00  0.00     0.008 C 
ATOM     11  C   UNL     1     139.044 145.538 121.716  1.00  0.00    -0.019 C 
ATOM     12  C   UNL     1     137.959 144.424 121.436  1.00  0.00     0.092 C 
ATOM     13  C   UNL     1     138.490 143.226 120.629  1.00  0.00     0.235 C 
ATOM     14  O   UNL     1     137.586 142.121 120.654  1.00  0.00    -0.426 OA
ATOM     15  C   UNL     1     138.229 141.036 121.219  1.00  0.00     0.336 C 
ATOM     16  O   UNL     1     137.695 139.908 121.382  1.00  0.00    -0.246 OA
ATOM     17  C   UNL     1     138.724 146.750 120.805  1.00  0.00     0.012 C 
ENDROOT
BRANCH  13  18
ATOM     18  O   UNL     1     138.791 143.580 119.306  1.00  0.00    -0.353 OA
ATOM     19  H   UNL     1     139.780 143.561 119.223  1.00  0.00     0.215 HD
ENDBRANCH  13  18
TORSDOF 1
ENDMDL
MODEL 8
REMARK VINA RESULT:    -6.122      2.232      3.070
REMARK INTER + INTRA:          -6.301
REMARK INTER:                  -6.301
REMARK INTRA:                   0.000
REMARK UNBOUND:                 0.000
REMARK SMILES C=C1CCC[C@]2(C)C[C@]3(O)OC(=O)C(C)=C3C[C@H]12
REMARK SMILES IDX 15 1 14 2 16 3 17 4 18 5 2 6 1 7 3 8 4 9 5 10 6 11 8 12 9 13
REMARK SMILES IDX 11 14 12 15 13 16 7 17 10 18
REMARK H PARENT 10 19
REMARK Flexibility Score: inf
ROOT
ATOM      1  C   UNL     1     131.459 131.497 124.010  1.00  0.00     0.052 C 
ATOM      2  C   UNL     1     132.431 130.435 124.421  1.00  0.00     0.040 C 
ATOM      3  C   UNL     1     133.624 130.204 123.877  1.00  0.00     0.012 C 
ATOM      4  C   UNL     1     134.198 130.922 122.693  1.00  0.00     0.047 C 
ATOM      5  C   UNL     1     135.520 130.254 122.258  1.00  0.00     0.025 C 
ATOM      6  C   UNL     1     136.059 130.943 121.015  1.00  0.00    -0.073 C 
ATOM      7  C   UNL     1     136.911 131.976 121.126  1.00  0.00     0.008 C 
ATOM      8  C   UNL     1     135.501 130.566 119.665  1.00  0.00     0.031 C 
ATOM      9  C   UNL     1     135.477 129.047 119.499  1.00  0.00     0.005 C 
ATOM     10  C   UNL     1     134.762 128.369 120.675  1.00  0.00     0.008 C 
ATOM     11  C   UNL     1     135.395 128.691 122.064  1.00  0.00    -0.019 C 
ATOM     12  C   UNL     1     134.506 128.006 123.178  1.00  0.00     0.092 C 
ATOM     13  C   UNL     1     134.210 128.915 124.384  1.00  0.00     0.235 C 
ATOM     14  O   UNL     1     133.176 128.384 125.213  1.00  0.00    -0.426 OA
ATOM     15  C   UNL     1     132.134 129.292 125.257  1.00  0.00     0.336 C 
ATOM     16  O   UNL     1     131.072 129.112 125.907  1.00  0.00    -0.246 OA
ATOM     17  C   UNL     1     136.813 128.072 122.144  1.00  0.00     0.012 C 
ENDROOT
BRANCH  13  18
ATOM     18  O   UNL     1     135.362 129.167 125.143  1.00  0.00    -0.353 OA
ATOM     19  H   UNL     1     135.087 129.756 125.893  1.00  0.00     0.215 HD
ENDBRANCH  13  18
TORSDOF 1
ENDMDL
MODEL 9
REMARK VINA RESULT:    -6.093     16.157     18.889
REMARK INTER + INTRA:          -6.271
REMARK INTER:                  -6.271
REMARK INTRA:                   0.000
REMARK UNBOUND:                 0.000
REMARK SMILES C=C1CCC[C@]2(C)C[C@]3(O)OC(=O)C(C)=C3C[C@H]12
REMARK SMILES IDX 15 1 14 2 16 3 17 4 18 5 2 6 1 7 3 8 4 9 5 10 6 11 8 12 9 13
REMARK SMILES IDX 11 14 12 15 13 16 7 17 10 18
REMARK H PARENT 10 19
REMARK Flexibility Score: inf
ROOT
ATOM      1  C   UNL     1     143.347 143.326 124.015  1.00  0.00     0.052 C 
ATOM      2  C   UNL     1     142.373 144.388 124.418  1.00  0.00     0.040 C 
ATOM      3  C   UNL     1     141.182 144.618 123.867  1.00  0.00     0.012 C 
ATOM      4  C   UNL     1     140.615 143.897 122.682  1.00  0.00     0.047 C 
ATOM      5  C   UNL     1     139.295 144.564 122.238  1.00  0.00     0.025 C 
ATOM      6  C   UNL     1     138.763 143.872 120.994  1.00  0.00    -0.073 C 
ATOM      7  C   UNL     1     137.911 142.839 121.104  1.00  0.00     0.008 C 
ATOM      8  C   UNL     1     139.328 144.247 119.646  1.00  0.00     0.031 C 
ATOM      9  C   UNL     1     139.352 145.765 119.477  1.00  0.00     0.005 C 
ATOM     10  C   UNL     1     140.061 146.446 120.656  1.00  0.00     0.008 C 
ATOM     11  C   UNL     1     139.421 146.127 122.042  1.00  0.00    -0.019 C 
ATOM     12  C   UNL     1     140.304 146.814 123.159  1.00  0.00     0.092 C 
ATOM     13  C   UNL     1     140.593 145.908 124.368  1.00  0.00     0.235 C 
ATOM     14  O   UNL     1     141.623 146.441 125.202  1.00  0.00    -0.426 OA
ATOM     15  C   UNL     1     142.665 145.534 125.253  1.00  0.00     0.336 C 
ATOM     16  O   UNL     1     143.723 145.715 125.908  1.00  0.00    -0.246 OA
ATOM     17  C   UNL     1     138.002 146.746 122.113  1.00  0.00     0.012 C 
ENDROOT
BRANCH  13  18
ATOM     18  O   UNL     1     139.437 145.658 125.122  1.00  0.00    -0.353 OA
ATOM     19  H   UNL     1     139.572 146.091 126.005  1.00  0.00     0.215 HD
ENDBRANCH  13  18
TORSDOF 1
ENDMDL
