MODEL 1
REMARK VINA RESULT:     0.000      0.000      0.000
REMARK INTER + INTRA:          -0.142
REMARK INTER:                   0.000
REMARK INTRA:                  -0.142
REMARK UNBOUND:                -0.142
REMARK SMILES CCCCC(=O)[O-]
REMARK SMILES IDX 4 1 5 2 6 3 7 4 3 5 2 6 1 7
REMARK H PARENT
REMARK Flexibility Score: inf
ROOT
ATOM      1  C   UNL     1     178.015 183.769 185.243  1.00  0.00     0.053 C 
ENDROOT
BRANCH   1   2
ATOM      2  C   UNL     1     176.520 183.767 185.317  1.00  0.00     0.041 C 
ATOM      3  O   UNL     1     175.941 183.642 186.428  1.00  0.00    -0.550 OA
ATOM      4  O   UNL     1     175.766 183.952 184.165  1.00  0.00    -0.550 OA
ENDBRANCH   1   2
BRANCH   1   5
ATOM      5  C   UNL     1     178.514 185.022 184.519  1.00  0.00     0.006 C 
BRANCH   5   6
ATOM      6  C   UNL     1     178.222 186.283 185.338  1.00  0.00    -0.003 C 
ATOM      7  C   UNL     1     177.473 187.320 184.507  1.00  0.00     0.004 C 
ENDBRANCH   5   6
ENDBRANCH   1   5
TORSDOF 3
ENDMDL
MODEL 2
REMARK VINA RESULT:     0.000      3.101      3.662
REMARK INTER + INTRA:          -0.142
REMARK INTER:                   0.000
REMARK INTRA:                  -0.142
REMARK UNBOUND:                -0.142
REMARK SMILES CCCCC(=O)[O-]
REMARK SMILES IDX 4 1 5 2 6 3 7 4 3 5 2 6 1 7
REMARK H PARENT
REMARK Flexibility Score: inf
ROOT
ATOM      1  C   UNL     1     175.185 181.773 185.171  1.00  0.00     0.053 C 
ENDROOT
BRANCH   1   2
ATOM      2  C   UNL     1     175.096 182.746 184.037  1.00  0.00     0.041 C 
ATOM      3  O   UNL     1     174.764 183.941 184.253  1.00  0.00    -0.550 OA
ATOM      4  O   UNL     1     175.427 182.345 182.750  1.00  0.00    -0.550 OA
ENDBRANCH   1   2
BRANCH   1   5
ATOM      5  C   UNL     1     176.562 181.106 185.199  1.00  0.00     0.006 C 
BRANCH   5   6
ATOM      6  C   UNL     1     177.658 182.120 185.545  1.00  0.00    -0.003 C 
ATOM      7  C   UNL     1     178.776 182.099 184.509  1.00  0.00     0.004 C 
ENDBRANCH   5   6
ENDBRANCH   1   5
TORSDOF 3
ENDMDL
MODEL 3
REMARK VINA RESULT:     0.000      7.925      8.814
REMARK INTER + INTRA:          -0.142
REMARK INTER:                   0.000
REMARK INTRA:                  -0.142
REMARK UNBOUND:                -0.142
REMARK SMILES CCCCC(=O)[O-]
REMARK SMILES IDX 4 1 5 2 6 3 7 4 3 5 2 6 1 7
REMARK H PARENT
REMARK Flexibility Score: inf
ROOT
ATOM      1  C   UNL     1     183.581 182.362 181.439  1.00  0.00     0.053 C 
ENDROOT
BRANCH   1   2
ATOM      2  C   UNL     1     184.306 183.630 181.765  1.00  0.00     0.041 C 
ATOM      3  O   UNL     1     183.745 184.522 182.453  1.00  0.00    -0.550 OA
ATOM      4  O   UNL     1     185.620 183.805 181.348  1.00  0.00    -0.550 OA
ENDBRANCH   1   2
BRANCH   1   5
ATOM      5  C   UNL     1     184.404 181.146 181.871  1.00  0.00     0.006 C 
BRANCH   5   6
ATOM      6  C   UNL     1     184.524 181.076 183.397  1.00  0.00    -0.003 C 
ATOM      7  C   UNL     1     185.981 180.964 183.832  1.00  0.00     0.004 C 
ENDBRANCH   5   6
ENDBRANCH   1   5
TORSDOF 3
ENDMDL
MODEL 4
REMARK VINA RESULT:     0.000      6.063      6.743
REMARK INTER + INTRA:          -0.142
REMARK INTER:                   0.000
REMARK INTRA:                  -0.142
REMARK UNBOUND:                -0.142
REMARK SMILES CCCCC(=O)[O-]
REMARK SMILES IDX 4 1 5 2 6 3 7 4 3 5 2 6 1 7
REMARK H PARENT
REMARK Flexibility Score: inf
ROOT
ATOM      1  C   UNL     1     182.420 182.577 181.856  1.00  0.00     0.053 C 
ENDROOT
BRANCH   1   2
ATOM      2  C   UNL     1     183.455 183.468 182.470  1.00  0.00     0.041 C 
ATOM      3  O   UNL     1     184.587 183.588 181.933  1.00  0.00    -0.550 OA
ATOM      4  O   UNL     1     183.151 184.203 183.608  1.00  0.00    -0.550 OA
ENDBRANCH   1   2
BRANCH   1   5
ATOM      5  C   UNL     1     181.121 183.350 181.616  1.00  0.00     0.006 C 
BRANCH   5   6
ATOM      6  C   UNL     1     181.312 184.426 180.541  1.00  0.00    -0.003 C 
ATOM      7  C   UNL     1     180.858 185.793 181.042  1.00  0.00     0.004 C 
ENDBRANCH   5   6
ENDBRANCH   1   5
TORSDOF 3
ENDMDL
MODEL 5
REMARK VINA RESULT:     0.000      9.445     10.217
REMARK INTER + INTRA:          -0.142
REMARK INTER:                   0.000
REMARK INTRA:                  -0.142
REMARK UNBOUND:                -0.142
REMARK SMILES CCCCC(=O)[O-]
REMARK SMILES IDX 4 1 5 2 6 3 7 4 3 5 2 6 1 7
REMARK H PARENT
REMARK Flexibility Score: inf
ROOT
ATOM      1  C   UNL     1     180.889 186.113 177.124  1.00  0.00     0.053 C 
ENDROOT
BRANCH   1   2
ATOM      2  C   UNL     1     180.653 185.785 175.683  1.00  0.00     0.041 C 
ATOM      3  O   UNL     1     179.505 185.918 175.183  1.00  0.00    -0.550 OA
ATOM      4  O   UNL     1     181.711 185.378 174.881  1.00  0.00    -0.550 OA
ENDBRANCH   1   2
BRANCH   1   5
ATOM      5  C   UNL     1     182.035 187.119 177.264  1.00  0.00     0.006 C 
BRANCH   5   6
ATOM      6  C   UNL     1     181.647 188.480 176.675  1.00  0.00    -0.003 C 
ATOM      7  C   UNL     1     182.684 188.957 175.662  1.00  0.00     0.004 C 
ENDBRANCH   5   6
ENDBRANCH   1   5
TORSDOF 3
ENDMDL
MODEL 6
REMARK VINA RESULT:     0.000      9.363     10.113
REMARK INTER + INTRA:          -0.142
REMARK INTER:                   0.000
REMARK INTRA:                  -0.142
REMARK UNBOUND:                -0.142
REMARK SMILES CCCCC(=O)[O-]
REMARK SMILES IDX 4 1 5 2 6 3 7 4 3 5 2 6 1 7
REMARK H PARENT
REMARK Flexibility Score: inf
ROOT
ATOM      1  C   UNL     1     178.186 175.637 183.016  1.00  0.00     0.053 C 
ENDROOT
BRANCH   1   2
ATOM      2  C   UNL     1     176.816 175.656 182.414  1.00  0.00     0.041 C 
ATOM      3  O   UNL     1     176.166 176.732 182.352  1.00  0.00    -0.550 OA
ATOM      4  O   UNL     1     176.278 174.495 181.875  1.00  0.00    -0.550 OA
ENDBRANCH   1   2
BRANCH   1   5
ATOM      5  C   UNL     1     179.195 175.030 182.038  1.00  0.00     0.006 C 
BRANCH   5   6
ATOM      6  C   UNL     1     179.384 175.933 180.813  1.00  0.00    -0.003 C 
ATOM      7  C   UNL     1     179.173 175.156 179.518  1.00  0.00     0.004 C 
ENDBRANCH   5   6
ENDBRANCH   1   5
TORSDOF 3
ENDMDL
MODEL 7
REMARK VINA RESULT:     0.000      2.441      3.396
REMARK INTER + INTRA:          -0.142
REMARK INTER:                   0.000
REMARK INTRA:                  -0.142
REMARK UNBOUND:                -0.142
REMARK SMILES CCCCC(=O)[O-]
REMARK SMILES IDX 4 1 5 2 6 3 7 4 3 5 2 6 1 7
REMARK H PARENT
REMARK Flexibility Score: inf
ROOT
ATOM      1  C   UNL     1     179.058 182.548 186.225  1.00  0.00     0.053 C 
ENDROOT
BRANCH   1   2
ATOM      2  C   UNL     1     177.923 183.320 185.628  1.00  0.00     0.041 C 
ATOM      3  O   UNL     1     177.832 184.561 185.819  1.00  0.00    -0.550 OA
ATOM      4  O   UNL     1     176.994 182.676 184.821  1.00  0.00    -0.550 OA
ENDBRANCH   1   2
BRANCH   1   5
ATOM      5  C   UNL     1     179.802 181.763 185.142  1.00  0.00     0.006 C 
BRANCH   5   6
ATOM      6  C   UNL     1     180.518 182.708 184.172  1.00  0.00    -0.003 C 
ATOM      7  C   UNL     1     180.142 182.403 182.725  1.00  0.00     0.004 C 
ENDBRANCH   5   6
ENDBRANCH   1   5
TORSDOF 3
ENDMDL
MODEL 8
REMARK VINA RESULT:     0.000      3.331      4.093
REMARK INTER + INTRA:          -0.142
REMARK INTER:                   0.000
REMARK INTRA:                  -0.142
REMARK UNBOUND:                -0.142
REMARK SMILES CCCCC(=O)[O-]
REMARK SMILES IDX 4 1 5 2 6 3 7 4 3 5 2 6 1 7
REMARK H PARENT
REMARK Flexibility Score: inf
ROOT
ATOM      1  C   UNL     1     178.426 186.209 183.897  1.00  0.00     0.053 C 
ENDROOT
BRANCH   1   2
ATOM      2  C   UNL     1     179.697 185.432 183.757  1.00  0.00     0.041 C 
ATOM      3  O   UNL     1     179.754 184.449 182.971  1.00  0.00    -0.550 OA
ATOM      4  O   UNL     1     180.832 185.821 184.456  1.00  0.00    -0.550 OA
ENDBRANCH   1   2
BRANCH   1   5
ATOM      5  C   UNL     1     178.677 187.698 183.644  1.00  0.00     0.006 C 
BRANCH   5   6
ATOM      6  C   UNL     1     179.059 187.950 182.181  1.00  0.00    -0.003 C 
ATOM      7  C   UNL     1     180.361 188.738 182.080  1.00  0.00     0.004 C 
ENDBRANCH   5   6
ENDBRANCH   1   5
TORSDOF 3
ENDMDL
MODEL 9
REMARK VINA RESULT:     0.000      9.187      9.978
REMARK INTER + INTRA:          -0.142
REMARK INTER:                   0.000
REMARK INTRA:                  -0.142
REMARK UNBOUND:                -0.142
REMARK SMILES CCCCC(=O)[O-]
REMARK SMILES IDX 4 1 5 2 6 3 7 4 3 5 2 6 1 7
REMARK H PARENT
REMARK Flexibility Score: inf
ROOT
ATOM      1  C   UNL     1     181.713 176.434 188.197  1.00  0.00     0.053 C 
ENDROOT
BRANCH   1   2
ATOM      2  C   UNL     1     180.987 175.335 188.909  1.00  0.00     0.041 C 
ATOM      3  O   UNL     1     180.655 175.475 190.115  1.00  0.00    -0.550 OA
ATOM      4  O   UNL     1     180.635 174.179 188.227  1.00  0.00    -0.550 OA
ENDBRANCH   1   2
BRANCH   1   5
ATOM      5  C   UNL     1     180.974 176.820 186.912  1.00  0.00     0.006 C 
BRANCH   5   6
ATOM      6  C   UNL     1     179.622 177.469 187.230  1.00  0.00    -0.003 C 
ATOM      7  C   UNL     1     178.488 176.772 186.485  1.00  0.00     0.004 C 
ENDBRANCH   5   6
ENDBRANCH   1   5
TORSDOF 3
ENDMDL
