MODEL 1
REMARK VINA RESULT:    -5.592      0.000      0.000
REMARK INTER + INTRA:          -5.755
REMARK INTER:                  -5.755
REMARK INTRA:                   0.000
REMARK UNBOUND:                 0.000
REMARK SMILES Nc1ncnc2nc[nH]c12
REMARK SMILES IDX 8 1 7 2 6 3 5 4 4 5 3 6 2 7 10 8 9 9 1 11
REMARK H PARENT 9 10 1 12 1 13
REMARK Flexibility Score: inf
ROOT
ATOM      1  C   UNL     1      28.879  -1.569 168.166  1.00  0.00     0.199 A 
ATOM      2  N   UNL     1      29.703  -1.816 167.113  1.00  0.00    -0.217 NA
ATOM      3  C   UNL     1      30.403  -0.674 167.024  1.00  0.00     0.182 A 
ATOM      4  N   UNL     1      31.375  -0.390 166.124  1.00  0.00    -0.215 NA
ATOM      5  C   UNL     1      31.978   0.837 166.191  1.00  0.00     0.226 A 
ATOM      6  N   UNL     1      31.602   1.746 167.147  1.00  0.00    -0.217 NA
ATOM      7  C   UNL     1      30.621   1.461 168.056  1.00  0.00     0.152 A 
ATOM      8  C   UNL     1      30.017   0.210 167.974  1.00  0.00     0.127 A 
ATOM      9  N   UNL     1      29.046  -0.339 168.715  1.00  0.00    -0.340 N 
ATOM     10  H   UNL     1      28.533   0.072 169.525  1.00  0.00     0.168 HD
ENDROOT
BRANCH   7  11
ATOM     11  N   UNL     1      30.247   2.424 169.042  1.00  0.00    -0.382 N 
ATOM     12  H   UNL     1      29.858   3.354 168.772  1.00  0.00     0.158 HD
ATOM     13  H   UNL     1      30.359   2.204 170.055  1.00  0.00     0.158 HD
ENDBRANCH   7  11
TORSDOF 1
ENDMDL
MODEL 2
REMARK VINA RESULT:    -5.476      0.990      2.973
REMARK INTER + INTRA:          -5.636
REMARK INTER:                  -5.636
REMARK INTRA:                   0.000
REMARK UNBOUND:                 0.000
REMARK SMILES Nc1ncnc2nc[nH]c12
REMARK SMILES IDX 8 1 7 2 6 3 5 4 4 5 3 6 2 7 10 8 9 9 1 11
REMARK H PARENT 9 10 1 12 1 13
REMARK Flexibility Score: inf
ROOT
ATOM      1  C   UNL     1      32.535   1.834 166.177  1.00  0.00     0.199 A 
ATOM      2  N   UNL     1      32.243   0.641 165.590  1.00  0.00    -0.217 NA
ATOM      3  C   UNL     1      31.306   0.141 166.411  1.00  0.00     0.182 A 
ATOM      4  N   UNL     1      30.668  -1.047 166.281  1.00  0.00    -0.215 NA
ATOM      5  C   UNL     1      29.738  -1.387 167.225  1.00  0.00     0.226 A 
ATOM      6  N   UNL     1      29.465  -0.541 168.270  1.00  0.00    -0.217 NA
ATOM      7  C   UNL     1      30.107   0.658 168.403  1.00  0.00     0.152 A 
ATOM      8  C   UNL     1      31.051   0.989 167.435  1.00  0.00     0.127 A 
ATOM      9  N   UNL     1      31.823   2.076 167.307  1.00  0.00    -0.340 N 
ATOM     10  H   UNL     1      31.874   2.917 167.923  1.00  0.00     0.168 HD
ENDROOT
BRANCH   7  11
ATOM     11  N   UNL     1      29.806   1.522 169.499  1.00  0.00    -0.382 N 
ATOM     12  H   UNL     1      29.801   1.171 170.482  1.00  0.00     0.158 HD
ATOM     13  H   UNL     1      29.586   2.528 169.327  1.00  0.00     0.158 HD
ENDBRANCH   7  11
TORSDOF 1
ENDMDL
MODEL 3
REMARK VINA RESULT:    -5.476      1.060      3.003
REMARK INTER + INTRA:          -5.636
REMARK INTER:                  -5.636
REMARK INTRA:                   0.000
REMARK UNBOUND:                 0.000
REMARK SMILES Nc1ncnc2nc[nH]c12
REMARK SMILES IDX 8 1 7 2 6 3 5 4 4 5 3 6 2 7 10 8 9 9 1 11
REMARK H PARENT 9 10 1 12 1 13
REMARK Flexibility Score: inf
ROOT
ATOM      1  C   UNL     1      30.532   1.768 168.860  1.00  0.00     0.199 A 
ATOM      2  N   UNL     1      31.190   1.588 167.682  1.00  0.00    -0.217 NA
ATOM      3  C   UNL     1      30.681   0.424 167.247  1.00  0.00     0.182 A 
ATOM      4  N   UNL     1      31.003  -0.219 166.099  1.00  0.00    -0.215 NA
ATOM      5  C   UNL     1      30.374  -1.402 165.824  1.00  0.00     0.226 A 
ATOM      6  N   UNL     1      29.445  -1.916 166.694  1.00  0.00    -0.217 NA
ATOM      7  C   UNL     1      29.120  -1.268 167.853  1.00  0.00     0.152 A 
ATOM      8  C   UNL     1      29.768  -0.065 168.118  1.00  0.00     0.127 A 
ATOM      9  N   UNL     1      29.656   0.775 169.154  1.00  0.00    -0.340 N 
ATOM     10  H   UNL     1      29.043   0.695 169.995  1.00  0.00     0.168 HD
ENDROOT
BRANCH   7  11
ATOM     11  N   UNL     1      28.149  -1.822 168.742  1.00  0.00    -0.382 N 
ATOM     12  H   UNL     1      27.592  -2.665 168.482  1.00  0.00     0.158 HD
ATOM     13  H   UNL     1      27.986  -1.383 169.675  1.00  0.00     0.158 HD
ENDBRANCH   7  11
TORSDOF 1
ENDMDL
MODEL 4
REMARK VINA RESULT:    -4.935      1.950      3.135
REMARK INTER + INTRA:          -5.079
REMARK INTER:                  -5.079
REMARK INTRA:                   0.000
REMARK UNBOUND:                 0.000
REMARK SMILES Nc1ncnc2nc[nH]c12
REMARK SMILES IDX 8 1 7 2 6 3 5 4 4 5 3 6 2 7 10 8 9 9 1 11
REMARK H PARENT 9 10 1 12 1 13
REMARK Flexibility Score: inf
ROOT
ATOM      1  C   UNL     1      28.739  -2.864 164.547  1.00  0.00     0.199 A 
ATOM      2  N   UNL     1      29.851  -2.092 164.411  1.00  0.00    -0.217 NA
ATOM      3  C   UNL     1      29.962  -1.534 165.627  1.00  0.00     0.182 A 
ATOM      4  N   UNL     1      30.919  -0.665 166.033  1.00  0.00    -0.215 NA
ATOM      5  C   UNL     1      30.866  -0.200 167.319  1.00  0.00     0.226 A 
ATOM      6  N   UNL     1      29.867  -0.610 168.166  1.00  0.00    -0.217 NA
ATOM      7  C   UNL     1      28.901  -1.487 167.758  1.00  0.00     0.152 A 
ATOM      8  C   UNL     1      28.969  -1.949 166.447  1.00  0.00     0.127 A 
ATOM      9  N   UNL     1      28.176  -2.798 165.781  1.00  0.00    -0.340 N 
ATOM     10  H   UNL     1      27.325  -3.298 166.119  1.00  0.00     0.168 HD
ENDROOT
BRANCH   7  11
ATOM     11  N   UNL     1      27.872  -1.899 168.658  1.00  0.00    -0.382 N 
ATOM     12  H   UNL     1      27.927  -2.808 169.168  1.00  0.00     0.158 HD
ATOM     13  H   UNL     1      27.042  -1.286 168.818  1.00  0.00     0.158 HD
ENDBRANCH   7  11
TORSDOF 1
ENDMDL
MODEL 5
REMARK VINA RESULT:    -4.752      1.036      3.876
REMARK INTER + INTRA:          -4.891
REMARK INTER:                  -4.891
REMARK INTRA:                   0.000
REMARK UNBOUND:                 0.000
REMARK SMILES Nc1ncnc2nc[nH]c12
REMARK SMILES IDX 8 1 7 2 6 3 5 4 4 5 3 6 2 7 10 8 9 9 1 11
REMARK H PARENT 9 10 1 12 1 13
REMARK Flexibility Score: inf
ROOT
ATOM      1  C   UNL     1      31.917   1.774 166.595  1.00  0.00     0.199 A 
ATOM      2  N   UNL     1      31.183   1.747 167.741  1.00  0.00    -0.217 NA
ATOM      3  C   UNL     1      30.542   0.571 167.642  1.00  0.00     0.182 A 
ATOM      4  N   UNL     1      29.669   0.049 168.537  1.00  0.00    -0.215 NA
ATOM      5  C   UNL     1      29.113  -1.170 168.260  1.00  0.00     0.226 A 
ATOM      6  N   UNL     1      29.437  -1.837 167.106  1.00  0.00    -0.217 NA
ATOM      7  C   UNL     1      30.318  -1.312 166.202  1.00  0.00     0.152 A 
ATOM      8  C   UNL     1      30.875  -0.071 166.498  1.00  0.00     0.127 A 
ATOM      9  N   UNL     1      31.750   0.677 165.814  1.00  0.00    -0.340 N 
ATOM     10  H   UNL     1      32.205   0.474 164.897  1.00  0.00     0.168 HD
ENDROOT
BRANCH   7  11
ATOM     11  N   UNL     1      30.640  -2.025 165.007  1.00  0.00    -0.382 N 
ATOM     12  H   UNL     1      30.812  -3.054 165.019  1.00  0.00     0.158 HD
ATOM     13  H   UNL     1      30.709  -1.517 164.098  1.00  0.00     0.158 HD
ENDBRANCH   7  11
TORSDOF 1
ENDMDL
MODEL 6
REMARK VINA RESULT:    -4.731      2.088      3.666
REMARK INTER + INTRA:          -4.869
REMARK INTER:                  -4.869
REMARK INTRA:                   0.000
REMARK UNBOUND:                 0.000
REMARK SMILES Nc1ncnc2nc[nH]c12
REMARK SMILES IDX 8 1 7 2 6 3 5 4 4 5 3 6 2 7 10 8 9 9 1 11
REMARK H PARENT 9 10 1 12 1 13
REMARK Flexibility Score: inf
ROOT
ATOM      1  C   UNL     1      29.353  -0.783 168.417  1.00  0.00     0.199 A 
ATOM      2  N   UNL     1      30.424  -0.344 167.702  1.00  0.00    -0.217 NA
ATOM      3  C   UNL     1      30.272  -0.989 166.534  1.00  0.00     0.182 A 
ATOM      4  N   UNL     1      31.082  -0.905 165.453  1.00  0.00    -0.215 NA
ATOM      5  C   UNL     1      30.762  -1.643 164.346  1.00  0.00     0.226 A 
ATOM      6  N   UNL     1      29.648  -2.444 164.342  1.00  0.00    -0.217 NA
ATOM      7  C   UNL     1      28.828  -2.530 165.433  1.00  0.00     0.152 A 
ATOM      8  C   UNL     1      29.168  -1.773 166.551  1.00  0.00     0.127 A 
ATOM      9  N   UNL     1      28.566  -1.658 167.741  1.00  0.00    -0.340 N 
ATOM     10  H   UNL     1      27.697  -2.126 168.080  1.00  0.00     0.168 HD
ENDROOT
BRANCH   7  11
ATOM     11  N   UNL     1      27.674  -3.371 165.406  1.00  0.00    -0.382 N 
ATOM     12  H   UNL     1      27.478  -3.998 164.595  1.00  0.00     0.158 HD
ATOM     13  H   UNL     1      27.005  -3.366 166.207  1.00  0.00     0.158 HD
ENDBRANCH   7  11
TORSDOF 1
ENDMDL
MODEL 7
REMARK VINA RESULT:    -4.613      1.948      3.499
REMARK INTER + INTRA:          -4.747
REMARK INTER:                  -4.747
REMARK INTRA:                   0.000
REMARK UNBOUND:                 0.000
REMARK SMILES Nc1ncnc2nc[nH]c12
REMARK SMILES IDX 8 1 7 2 6 3 5 4 4 5 3 6 2 7 10 8 9 9 1 11
REMARK H PARENT 9 10 1 12 1 13
REMARK Flexibility Score: inf
ROOT
ATOM      1  C   UNL     1      29.158  -2.662 164.227  1.00  0.00     0.199 A 
ATOM      2  N   UNL     1      28.213  -2.739 165.203  1.00  0.00    -0.217 NA
ATOM      3  C   UNL     1      28.791  -2.071 166.214  1.00  0.00     0.182 A 
ATOM      4  N   UNL     1      28.266  -1.850 167.443  1.00  0.00    -0.215 NA
ATOM      5  C   UNL     1      29.011  -1.144 168.347  1.00  0.00     0.226 A 
ATOM      6  N   UNL     1      30.256  -0.677 168.009  1.00  0.00    -0.217 NA
ATOM      7  C   UNL     1      30.788  -0.898 166.769  1.00  0.00     0.152 A 
ATOM      8  C   UNL     1      30.018  -1.619 165.861  1.00  0.00     0.127 A 
ATOM      9  N   UNL     1      30.273  -1.983 164.598  1.00  0.00    -0.340 N 
ATOM     10  H   UNL     1      31.124  -1.795 164.024  1.00  0.00     0.168 HD
ENDROOT
BRANCH   7  11
ATOM     11  N   UNL     1      32.086  -0.402 166.440  1.00  0.00    -0.382 N 
ATOM     12  H   UNL     1      32.577  -0.700 165.568  1.00  0.00     0.158 HD
ATOM     13  H   UNL     1      32.564   0.273 167.077  1.00  0.00     0.158 HD
ENDBRANCH   7  11
TORSDOF 1
ENDMDL
MODEL 8
REMARK VINA RESULT:    -4.607      1.884      4.062
REMARK INTER + INTRA:          -4.742
REMARK INTER:                  -4.742
REMARK INTRA:                   0.000
REMARK UNBOUND:                 0.000
REMARK SMILES Nc1ncnc2nc[nH]c12
REMARK SMILES IDX 8 1 7 2 6 3 5 4 4 5 3 6 2 7 10 8 9 9 1 11
REMARK H PARENT 9 10 1 12 1 13
REMARK Flexibility Score: inf
ROOT
ATOM      1  C   UNL     1      31.480  -1.227 164.340  1.00  0.00     0.199 A 
ATOM      2  N   UNL     1      31.778  -0.536 165.474  1.00  0.00    -0.217 NA
ATOM      3  C   UNL     1      30.733  -0.824 166.266  1.00  0.00     0.182 A 
ATOM      4  N   UNL     1      30.531  -0.382 167.530  1.00  0.00    -0.215 NA
ATOM      5  C   UNL     1      29.398  -0.786 168.183  1.00  0.00     0.226 A 
ATOM      6  N   UNL     1      28.498  -1.617 167.565  1.00  0.00    -0.217 NA
ATOM      7  C   UNL     1      28.700  -2.064 166.289  1.00  0.00     0.152 A 
ATOM      8  C   UNL     1      29.856  -1.644 165.639  1.00  0.00     0.127 A 
ATOM      9  N   UNL     1      30.312  -1.915 164.409  1.00  0.00    -0.340 N 
ATOM     10  H   UNL     1      29.880  -2.511 163.670  1.00  0.00     0.168 HD
ENDROOT
BRANCH   7  11
ATOM     11  N   UNL     1      27.748  -2.928 165.667  1.00  0.00    -0.382 N 
ATOM     12  H   UNL     1      26.738  -2.672 165.609  1.00  0.00     0.158 HD
ATOM     13  H   UNL     1      28.057  -3.837 165.257  1.00  0.00     0.158 HD
ENDBRANCH   7  11
TORSDOF 1
ENDMDL
MODEL 9
REMARK VINA RESULT:    -4.532      1.875      4.029
REMARK INTER + INTRA:          -4.665
REMARK INTER:                  -4.665
REMARK INTRA:                   0.000
REMARK UNBOUND:                 0.000
REMARK SMILES Nc1ncnc2nc[nH]c12
REMARK SMILES IDX 8 1 7 2 6 3 5 4 4 5 3 6 2 7 10 8 9 9 1 11
REMARK H PARENT 9 10 1 12 1 13
REMARK Flexibility Score: inf
ROOT
ATOM      1  C   UNL     1      30.776  -0.220 168.012  1.00  0.00     0.199 A 
ATOM      2  N   UNL     1      29.498  -0.663 168.164  1.00  0.00    -0.217 NA
ATOM      3  C   UNL     1      29.305  -1.368 167.038  1.00  0.00     0.182 A 
ATOM      4  N   UNL     1      28.178  -2.031 166.682  1.00  0.00    -0.215 NA
ATOM      5  C   UNL     1      28.171  -2.697 165.487  1.00  0.00     0.226 A 
ATOM      6  N   UNL     1      29.279  -2.688 164.678  1.00  0.00    -0.217 NA
ATOM      7  C   UNL     1      30.417  -2.020 165.035  1.00  0.00     0.152 A 
ATOM      8  C   UNL     1      30.409  -1.347 166.254  1.00  0.00     0.127 A 
ATOM      9  N   UNL     1      31.360  -0.621 166.854  1.00  0.00    -0.340 N 
ATOM     10  H   UNL     1      32.326  -0.408 166.522  1.00  0.00     0.168 HD
ENDROOT
BRANCH   7  11
ATOM     11  N   UNL     1      31.559  -2.026 164.177  1.00  0.00    -0.382 N 
ATOM     12  H   UNL     1      32.497  -1.720 164.519  1.00  0.00     0.158 HD
ATOM     13  H   UNL     1      31.466  -2.340 163.186  1.00  0.00     0.158 HD
ENDBRANCH   7  11
TORSDOF 1
ENDMDL
