MODEL 1
REMARK VINA RESULT:    -3.913      0.000      0.000
REMARK INTER + INTRA:          -4.532
REMARK INTER:                  -4.484
REMARK INTRA:                  -0.047
REMARK UNBOUND:                -0.047
REMARK SMILES CC(C)[C@@H]([NH3+])C(=O)[O-]
REMARK SMILES IDX 4 1 5 2 6 6 7 7 8 8 2 9 1 10 3 11
REMARK H PARENT 5 3 5 4 5 5
REMARK Flexibility Score: inf
ROOT
ATOM      1  C   UNL     1     -39.560  20.909 -29.288  1.00  0.00     0.230 C 
ENDROOT
BRANCH   1   2
ATOM      2  N   UNL     1     -40.821  21.657 -29.156  1.00  0.00    -0.350 N 
ATOM      3  H   UNL     1     -40.833  22.441 -29.849  1.00  0.00     0.345 HD
ATOM      4  H   UNL     1     -40.928  22.060 -28.198  1.00  0.00     0.345 HD
ATOM      5  H   UNL     1     -41.636  21.038 -29.366  1.00  0.00     0.345 HD
ENDBRANCH   1   2
BRANCH   1   6
ATOM      6  C   UNL     1     -38.396  21.716 -28.766  1.00  0.00     0.099 C 
ATOM      7  O   UNL     1     -38.582  22.815 -28.179  1.00  0.00    -0.544 OA
ATOM      8  O   UNL     1     -37.104  21.219 -28.890  1.00  0.00    -0.544 OA
ENDBRANCH   1   6
BRANCH   1   9
ATOM      9  C   UNL     1     -39.609  19.504 -28.614  1.00  0.00     0.047 C 
ATOM     10  C   UNL     1     -39.216  18.387 -29.592  1.00  0.00     0.014 C 
ATOM     11  C   UNL     1     -40.962  19.183 -27.958  1.00  0.00     0.014 C 
ENDBRANCH   1   9
TORSDOF 3
ENDMDL
MODEL 2
REMARK VINA RESULT:    -3.795     16.533     17.064
REMARK INTER + INTRA:          -4.397
REMARK INTER:                  -4.335
REMARK INTRA:                  -0.062
REMARK UNBOUND:                -0.047
REMARK SMILES CC(C)[C@@H]([NH3+])C(=O)[O-]
REMARK SMILES IDX 4 1 5 2 6 6 7 7 8 8 2 9 1 10 3 11
REMARK H PARENT 5 3 5 4 5 5
REMARK Flexibility Score: inf
ROOT
ATOM      1  C   UNL     1     -52.515  22.814 -39.319  1.00  0.00     0.230 C 
ENDROOT
BRANCH   1   2
ATOM      2  N   UNL     1     -51.289  22.355 -39.990  1.00  0.00    -0.350 N 
ATOM      3  H   UNL     1     -51.538  21.650 -40.723  1.00  0.00     0.345 HD
ATOM      4  H   UNL     1     -50.627  21.910 -39.315  1.00  0.00     0.345 HD
ATOM      5  H   UNL     1     -50.814  23.153 -40.468  1.00  0.00     0.345 HD
ENDBRANCH   1   2
BRANCH   1   6
ATOM      6  C   UNL     1     -53.255  21.657 -38.693  1.00  0.00     0.099 C 
ATOM      7  O   UNL     1     -53.736  20.735 -39.405  1.00  0.00    -0.544 OA
ATOM      8  O   UNL     1     -53.366  21.578 -37.310  1.00  0.00    -0.544 OA
ENDBRANCH   1   6
BRANCH   1   9
ATOM      9  C   UNL     1     -52.254  23.938 -38.271  1.00  0.00     0.047 C 
ATOM     10  C   UNL     1     -53.020  25.225 -38.609  1.00  0.00     0.014 C 
ATOM     11  C   UNL     1     -50.763  24.248 -38.060  1.00  0.00     0.014 C 
ENDBRANCH   1   9
TORSDOF 3
ENDMDL
MODEL 3
REMARK VINA RESULT:    -3.741      2.578      3.523
REMARK INTER + INTRA:          -4.335
REMARK INTER:                  -4.274
REMARK INTRA:                  -0.061
REMARK UNBOUND:                -0.047
REMARK SMILES CC(C)[C@@H]([NH3+])C(=O)[O-]
REMARK SMILES IDX 4 1 5 2 6 6 7 7 8 8 2 9 1 10 3 11
REMARK H PARENT 5 3 5 4 5 5
REMARK Flexibility Score: inf
ROOT
ATOM      1  C   UNL     1     -38.843  18.738 -29.943  1.00  0.00     0.230 C 
ENDROOT
BRANCH   1   2
ATOM      2  N   UNL     1     -38.343  19.463 -31.122  1.00  0.00    -0.350 N 
ATOM      3  H   UNL     1     -38.745  20.429 -31.131  1.00  0.00     0.345 HD
ATOM      4  H   UNL     1     -38.616  18.983 -32.010  1.00  0.00     0.345 HD
ATOM      5  H   UNL     1     -37.303  19.554 -31.082  1.00  0.00     0.345 HD
ENDBRANCH   1   2
BRANCH   1   6
ATOM      6  C   UNL     1     -37.823  17.743 -29.447  1.00  0.00     0.099 C 
ATOM      7  O   UNL     1     -37.101  18.000 -28.447  1.00  0.00    -0.544 OA
ATOM      8  O   UNL     1     -37.709  16.506 -30.070  1.00  0.00    -0.544 OA
ENDBRANCH   1   6
BRANCH   1   9
ATOM      9  C   UNL     1     -39.299  19.687 -28.793  1.00  0.00     0.047 C 
ATOM     10  C   UNL     1     -40.617  19.221 -28.156  1.00  0.00     0.014 C 
ATOM     11  C   UNL     1     -39.405  21.161 -29.215  1.00  0.00     0.014 C 
ENDBRANCH   1   9
TORSDOF 3
ENDMDL
MODEL 4
REMARK VINA RESULT:    -3.741      2.522      3.106
REMARK INTER + INTRA:          -4.335
REMARK INTER:                  -4.292
REMARK INTRA:                  -0.043
REMARK UNBOUND:                -0.047
REMARK SMILES CC(C)[C@@H]([NH3+])C(=O)[O-]
REMARK SMILES IDX 4 1 5 2 6 6 7 7 8 8 2 9 1 10 3 11
REMARK H PARENT 5 3 5 4 5 5
REMARK Flexibility Score: inf
ROOT
ATOM      1  C   UNL     1     -38.358  19.219 -30.097  1.00  0.00     0.230 C 
ENDROOT
BRANCH   1   2
ATOM      2  N   UNL     1     -38.344  19.713 -31.483  1.00  0.00    -0.350 N 
ATOM      3  H   UNL     1     -39.132  19.276 -32.015  1.00  0.00     0.345 HD
ATOM      4  H   UNL     1     -37.448  19.475 -31.965  1.00  0.00     0.345 HD
ATOM      5  H   UNL     1     -38.486  20.748 -31.504  1.00  0.00     0.345 HD
ENDBRANCH   1   2
BRANCH   1   6
ATOM      6  C   UNL     1     -39.486  19.842 -29.312  1.00  0.00     0.099 C 
ATOM      7  O   UNL     1     -39.792  21.054 -29.470  1.00  0.00    -0.544 OA
ATOM      8  O   UNL     1     -40.231  19.059 -28.438  1.00  0.00    -0.544 OA
ENDBRANCH   1   6
BRANCH   1   9
ATOM      9  C   UNL     1     -38.408  17.664 -30.004  1.00  0.00     0.047 C 
ATOM     10  C   UNL     1     -37.003  17.045 -30.005  1.00  0.00     0.014 C 
ATOM     11  C   UNL     1     -39.276  17.009 -31.091  1.00  0.00     0.014 C 
ENDBRANCH   1   9
TORSDOF 3
ENDMDL
MODEL 5
REMARK VINA RESULT:    -3.721      1.238      1.539
REMARK INTER + INTRA:          -4.313
REMARK INTER:                  -4.247
REMARK INTRA:                  -0.066
REMARK UNBOUND:                -0.047
REMARK SMILES CC(C)[C@@H]([NH3+])C(=O)[O-]
REMARK SMILES IDX 4 1 5 2 6 6 7 7 8 8 2 9 1 10 3 11
REMARK H PARENT 5 3 5 4 5 5
REMARK Flexibility Score: inf
ROOT
ATOM      1  C   UNL     1     -39.482  20.781 -29.449  1.00  0.00     0.230 C 
ENDROOT
BRANCH   1   2
ATOM      2  N   UNL     1     -39.770  21.939 -28.588  1.00  0.00    -0.350 N 
ATOM      3  H   UNL     1     -40.768  21.897 -28.273  1.00  0.00     0.345 HD
ATOM      4  H   UNL     1     -39.623  22.840 -29.095  1.00  0.00     0.345 HD
ATOM      5  H   UNL     1     -39.169  21.918 -27.733  1.00  0.00     0.345 HD
ENDBRANCH   1   2
BRANCH   1   6
ATOM      6  C   UNL     1     -38.135  20.925 -30.114  1.00  0.00     0.099 C 
ATOM      7  O   UNL     1     -37.082  21.026 -29.430  1.00  0.00    -0.544 OA
ATOM      8  O   UNL     1     -38.046  20.898 -31.501  1.00  0.00    -0.544 OA
ENDBRANCH   1   6
BRANCH   1   9
ATOM      9  C   UNL     1     -39.588  19.420 -28.697  1.00  0.00     0.047 C 
ATOM     10  C   UNL     1     -39.302  18.230 -29.625  1.00  0.00     0.014 C 
ATOM     11  C   UNL     1     -40.930  19.218 -27.974  1.00  0.00     0.014 C 
ENDBRANCH   1   9
TORSDOF 3
ENDMDL
MODEL 6
REMARK VINA RESULT:    -3.660      3.218      3.829
REMARK INTER + INTRA:          -4.243
REMARK INTER:                  -4.184
REMARK INTRA:                  -0.059
REMARK UNBOUND:                -0.047
REMARK SMILES CC(C)[C@@H]([NH3+])C(=O)[O-]
REMARK SMILES IDX 4 1 5 2 6 6 7 7 8 8 2 9 1 10 3 11
REMARK H PARENT 5 3 5 4 5 5
REMARK Flexibility Score: inf
ROOT
ATOM      1  C   UNL     1     -38.098  18.772 -28.882  1.00  0.00     0.230 C 
ENDROOT
BRANCH   1   2
ATOM      2  N   UNL     1     -37.849  18.335 -27.499  1.00  0.00    -0.350 N 
ATOM      3  H   UNL     1     -36.818  18.307 -27.325  1.00  0.00     0.345 HD
ATOM      4  H   UNL     1     -38.240  17.382 -27.322  1.00  0.00     0.345 HD
ATOM      5  H   UNL     1     -38.265  19.012 -26.821  1.00  0.00     0.345 HD
ENDBRANCH   1   2
BRANCH   1   6
ATOM      6  C   UNL     1     -37.925  17.628 -29.850  1.00  0.00     0.099 C 
ATOM      7  O   UNL     1     -36.807  17.066 -29.995  1.00  0.00    -0.544 OA
ATOM      8  O   UNL     1     -39.023  17.152 -30.557  1.00  0.00    -0.544 OA
ENDBRANCH   1   6
BRANCH   1   9
ATOM      9  C   UNL     1     -39.490  19.451 -29.066  1.00  0.00     0.047 C 
ATOM     10  C   UNL     1     -39.362  20.965 -29.288  1.00  0.00     0.014 C 
ATOM     11  C   UNL     1     -40.472  19.163 -27.919  1.00  0.00     0.014 C 
ENDBRANCH   1   9
TORSDOF 3
ENDMDL
MODEL 7
REMARK VINA RESULT:    -3.629      2.318      3.202
REMARK INTER + INTRA:          -4.206
REMARK INTER:                  -4.142
REMARK INTRA:                  -0.064
REMARK UNBOUND:                -0.047
REMARK SMILES CC(C)[C@@H]([NH3+])C(=O)[O-]
REMARK SMILES IDX 4 1 5 2 6 6 7 7 8 8 2 9 1 10 3 11
REMARK H PARENT 5 3 5 4 5 5
REMARK Flexibility Score: inf
ROOT
ATOM      1  C   UNL     1     -38.919  18.798 -29.382  1.00  0.00     0.230 C 
ENDROOT
BRANCH   1   2
ATOM      2  N   UNL     1     -38.136  18.772 -28.136  1.00  0.00    -0.350 N 
ATOM      3  H   UNL     1     -38.358  17.897 -27.606  1.00  0.00     0.345 HD
ATOM      4  H   UNL     1     -38.358  19.592 -27.527  1.00  0.00     0.345 HD
ATOM      5  H   UNL     1     -37.113  18.762 -28.347  1.00  0.00     0.345 HD
ENDBRANCH   1   2
BRANCH   1   6
ATOM      6  C   UNL     1     -39.078  20.209 -29.891  1.00  0.00     0.099 C 
ATOM      7  O   UNL     1     -38.528  20.576 -30.963  1.00  0.00    -0.544 OA
ATOM      8  O   UNL     1     -39.882  21.105 -29.197  1.00  0.00    -0.544 OA
ENDBRANCH   1   6
BRANCH   1   9
ATOM      9  C   UNL     1     -38.335  17.869 -30.489  1.00  0.00     0.047 C 
ATOM     10  C   UNL     1     -39.384  16.882 -31.021  1.00  0.00     0.014 C 
ATOM     11  C   UNL     1     -37.068  17.114 -30.055  1.00  0.00     0.014 C 
ENDBRANCH   1   9
TORSDOF 3
ENDMDL
MODEL 8
REMARK VINA RESULT:    -3.625      3.601      4.246
REMARK INTER + INTRA:          -4.202
REMARK INTER:                  -4.131
REMARK INTRA:                  -0.071
REMARK UNBOUND:                -0.047
REMARK SMILES CC(C)[C@@H]([NH3+])C(=O)[O-]
REMARK SMILES IDX 4 1 5 2 6 6 7 7 8 8 2 9 1 10 3 11
REMARK H PARENT 5 3 5 4 5 5
REMARK Flexibility Score: inf
ROOT
ATOM      1  C   UNL     1     -37.361  17.223 -29.718  1.00  0.00     0.230 C 
ENDROOT
BRANCH   1   2
ATOM      2  N   UNL     1     -36.726  16.141 -30.487  1.00  0.00    -0.350 N 
ATOM      3  H   UNL     1     -36.416  16.512 -31.416  1.00  0.00     0.345 HD
ATOM      4  H   UNL     1     -37.387  15.349 -30.652  1.00  0.00     0.345 HD
ATOM      5  H   UNL     1     -35.878  15.788 -29.990  1.00  0.00     0.345 HD
ENDBRANCH   1   2
BRANCH   1   6
ATOM      6  C   UNL     1     -36.365  18.304 -29.379  1.00  0.00     0.099 C 
ATOM      7  O   UNL     1     -35.833  18.359 -28.238  1.00  0.00    -0.544 OA
ATOM      8  O   UNL     1     -35.989  19.223 -30.352  1.00  0.00    -0.544 OA
ENDBRANCH   1   6
BRANCH   1   9
ATOM      9  C   UNL     1     -38.612  17.823 -30.429  1.00  0.00     0.047 C 
ATOM     10  C   UNL     1     -39.502  18.608 -29.455  1.00  0.00     0.014 C 
ATOM     11  C   UNL     1     -39.449  16.781 -31.189  1.00  0.00     0.014 C 
ENDBRANCH   1   9
TORSDOF 3
ENDMDL
MODEL 9
REMARK VINA RESULT:    -3.506     16.135     16.630
REMARK INTER + INTRA:          -4.065
REMARK INTER:                  -4.017
REMARK INTRA:                  -0.049
REMARK UNBOUND:                -0.047
REMARK SMILES CC(C)[C@@H]([NH3+])C(=O)[O-]
REMARK SMILES IDX 4 1 5 2 6 6 7 7 8 8 2 9 1 10 3 11
REMARK H PARENT 5 3 5 4 5 5
REMARK Flexibility Score: inf
ROOT
ATOM      1  C   UNL     1     -53.214  23.429 -37.551  1.00  0.00     0.230 C 
ENDROOT
BRANCH   1   2
ATOM      2  N   UNL     1     -54.117  23.580 -38.704  1.00  0.00    -0.350 N 
ATOM      3  H   UNL     1     -53.639  24.142 -39.446  1.00  0.00     0.345 HD
ATOM      4  H   UNL     1     -55.001  24.069 -38.436  1.00  0.00     0.345 HD
ATOM      5  H   UNL     1     -54.346  22.647 -39.114  1.00  0.00     0.345 HD
ENDBRANCH   1   2
BRANCH   1   6
ATOM      6  C   UNL     1     -53.447  22.113 -36.851  1.00  0.00     0.099 C 
ATOM      7  O   UNL     1     -53.401  22.031 -35.595  1.00  0.00    -0.544 OA
ATOM      8  O   UNL     1     -53.765  20.983 -37.596  1.00  0.00    -0.544 OA
ENDBRANCH   1   6
BRANCH   1   9
ATOM      9  C   UNL     1     -51.711  23.600 -37.927  1.00  0.00     0.047 C 
ATOM     10  C   UNL     1     -51.269  25.070 -37.861  1.00  0.00     0.014 C 
ATOM     11  C   UNL     1     -51.344  22.997 -39.292  1.00  0.00     0.014 C 
ENDBRANCH   1   9
TORSDOF 3
ENDMDL
