MODEL 1
REMARK VINA RESULT:     4.451      0.000      0.000
REMARK INTER + INTRA:           6.191
REMARK INTER:                   6.012
REMARK INTRA:                   0.179
REMARK UNBOUND:                 0.179
REMARK SMILES C=C1CCC=C(C)CC[C@@H]2[C@H]1CC2(C)C
REMARK SMILES IDX 11 1 12 2 13 3 10 4 14 5 15 6 9 7 8 8 6 9 7 10 5 11 2 13
REMARK SMILES IDX 1 14 3 15 4 16
REMARK H PARENT
REMARK Flexibility Score: 70.00
ROOT
ATOM      1  C   UNL     1     -15.761  -1.973  18.618  1.00  0.00     0.018 C 
ATOM      2  C   UNL     1     -15.366  -1.504  20.024  1.00  0.00     0.015 C 
ATOM      3  C   UNL     1     -14.047  -2.295  19.920  1.00  0.00    -0.031 C 
ATOM      4  C   UNL     1     -14.423  -2.726  18.475  1.00  0.00     0.002 C 
ATOM      5  C   UNL     1     -12.800  -1.404  20.097  1.00  0.00     0.011 C 
ATOM      6  C   UNL     1     -14.007  -3.491  20.891  1.00  0.00     0.011 C 
ENDROOT
BRANCH   4   7
ATOM      7  C   UNL     1     -13.441  -2.327  17.338  1.00  0.00     0.009 C 
BRANCH   7   8
ATOM      8  C   UNL     1     -13.429  -3.247  16.095  1.00  0.00     0.030 C 
BRANCH   8   9
ATOM      9  C   UNL     1     -14.716  -4.014  15.855  1.00  0.00    -0.077 C 
ATOM     10  C   UNL     1     -14.691  -5.513  16.000  1.00  0.00     0.039 C 
ATOM     11  C   UNL     1     -15.886  -3.423  15.513  1.00  0.00    -0.028 CG0
ATOM     12  G   UNL     1     -16.099  -1.938  15.299  1.00  0.00     0.000 G0
ENDBRANCH   8   9
ENDBRANCH   7   8
ENDBRANCH   4   7
BRANCH   1  13
ATOM     13  C   UNL     1     -16.106  -0.890  17.602  1.00  0.00    -0.074 C 
ATOM     14  C   UNL     1     -15.710   0.389  17.737  1.00  0.00     0.008 C 
BRANCH  13  15
ATOM     15  C   UNL     1     -16.938  -1.283  16.402  1.00  0.00     0.035 C 
BRANCH  15  16
ATOM     16  C   UNL     1     -16.103  -1.931  15.289  1.00  0.00     0.032 CG0
ATOM     17  G   UNL     1     -15.889  -3.415  15.509  1.00  0.00     0.000 G0
ENDBRANCH  15  16
ENDBRANCH  13  15
ENDBRANCH   1  13
TORSDOF 0
ENDMDL
MODEL 2
REMARK VINA RESULT:     5.790      1.244      3.244
REMARK INTER + INTRA:           7.999
REMARK INTER:                   6.317
REMARK INTRA:                   1.682
REMARK UNBOUND:                 0.179
REMARK SMILES C=C1CCC=C(C)CC[C@@H]2[C@H]1CC2(C)C
REMARK SMILES IDX 11 1 12 2 13 3 10 4 14 5 15 6 9 7 8 8 6 9 7 10 5 11 2 13
REMARK SMILES IDX 1 14 3 15 4 16
REMARK H PARENT
REMARK Flexibility Score: 70.00
ROOT
ATOM      1  C   UNL     1     -13.152  -2.280  19.046  1.00  0.00     0.018 C 
ATOM      2  C   UNL     1     -13.205  -3.243  20.239  1.00  0.00     0.015 C 
ATOM      3  C   UNL     1     -14.069  -2.234  21.019  1.00  0.00    -0.031 C 
ATOM      4  C   UNL     1     -14.061  -1.282  19.790  1.00  0.00     0.002 C 
ATOM      5  C   UNL     1     -15.427  -2.823  21.455  1.00  0.00     0.011 C 
ATOM      6  C   UNL     1     -13.320  -1.633  22.224  1.00  0.00     0.011 C 
ENDROOT
BRANCH   4   7
ATOM      7  C   UNL     1     -15.439  -0.902  19.179  1.00  0.00     0.009 C 
BRANCH   7   8
ATOM      8  C   UNL     1     -15.400  -0.088  17.865  1.00  0.00     0.030 C 
BRANCH   8   9
ATOM      9  C   UNL     1     -16.531  -0.381  16.896  1.00  0.00    -0.077 C 
ATOM     10  C   UNL     1     -17.668   0.603  16.807  1.00  0.00     0.039 C 
ATOM     11  C   UNL     1     -16.575  -1.484  16.110  1.00  0.00    -0.028 CG0
ATOM     12  G   UNL     1     -15.541  -2.591  16.078  1.00  0.00     0.000 G0
ENDBRANCH   8   9
ENDBRANCH   7   8
ENDBRANCH   4   7
BRANCH   1  13
ATOM     13  C   UNL     1     -13.611  -2.827  17.698  1.00  0.00    -0.074 C 
ATOM     14  C   UNL     1     -12.756  -3.131  16.705  1.00  0.00     0.008 C 
BRANCH  13  15
ATOM     15  C   UNL     1     -15.095  -3.021  17.481  1.00  0.00     0.035 C 
BRANCH  15  16
ATOM     16  C   UNL     1     -15.549  -2.601  16.077  1.00  0.00     0.032 CG0
ATOM     17  G   UNL     1     -16.579  -1.490  16.104  1.00  0.00     0.000 G0
ENDBRANCH  15  16
ENDBRANCH  13  15
ENDBRANCH   1  13
TORSDOF 0
ENDMDL
MODEL 3
REMARK VINA RESULT:     6.684      1.994      4.378
REMARK INTER + INTRA:           9.207
REMARK INTER:                   7.771
REMARK INTRA:                   1.436
REMARK UNBOUND:                 0.179
REMARK SMILES C=C1CCC=C(C)CC[C@@H]2[C@H]1CC2(C)C
REMARK SMILES IDX 11 1 12 2 13 3 10 4 14 5 15 6 9 7 8 8 6 9 7 10 5 11 2 13
REMARK SMILES IDX 1 14 3 15 4 16
REMARK H PARENT
REMARK Flexibility Score: 70.00
ROOT
ATOM      1  C   UNL     1     -14.597  -1.327  16.450  1.00  0.00     0.018 C 
ATOM      2  C   UNL     1     -14.748  -2.177  15.182  1.00  0.00     0.015 C 
ATOM      3  C   UNL     1     -13.701  -3.170  15.720  1.00  0.00    -0.031 C 
ATOM      4  C   UNL     1     -13.588  -2.339  17.028  1.00  0.00     0.002 C 
ATOM      5  C   UNL     1     -14.245  -4.609  15.834  1.00  0.00     0.011 C 
ATOM      6  C   UNL     1     -12.396  -3.143  14.900  1.00  0.00     0.011 C 
ENDROOT
BRANCH   4   7
ATOM      7  C   UNL     1     -13.916  -3.068  18.361  1.00  0.00     0.009 C 
BRANCH   7   8
ATOM      8  C   UNL     1     -13.049  -2.679  19.581  1.00  0.00     0.030 C 
BRANCH   8   9
ATOM      9  C   UNL     1     -13.829  -2.323  20.834  1.00  0.00    -0.077 C 
ATOM     10  C   UNL     1     -13.105  -2.342  22.154  1.00  0.00     0.039 C 
ATOM     11  C   UNL     1     -15.143  -1.992  20.827  1.00  0.00    -0.028 CG0
ATOM     12  G   UNL     1     -16.038  -1.941  19.604  1.00  0.00     0.000 G0
ENDBRANCH   8   9
ENDBRANCH   7   8
ENDBRANCH   4   7
BRANCH   1  13
ATOM     13  C   UNL     1     -15.870  -1.030  17.236  1.00  0.00    -0.074 C 
ATOM     14  C   UNL     1     -17.091  -1.022  16.670  1.00  0.00     0.008 C 
BRANCH  13  15
ATOM     15  C   UNL     1     -15.737  -0.724  18.711  1.00  0.00     0.035 C 
BRANCH  15  16
ATOM     16  C   UNL     1     -16.034  -1.942  19.597  1.00  0.00     0.032 CG0
ATOM     17  G   UNL     1     -15.146  -2.001  20.824  1.00  0.00     0.000 G0
ENDBRANCH  15  16
ENDBRANCH  13  15
ENDBRANCH   1  13
TORSDOF 0
ENDMDL
MODEL 4
REMARK VINA RESULT:     7.067      2.415      5.158
REMARK INTER + INTRA:           9.724
REMARK INTER:                   7.997
REMARK INTRA:                   1.727
REMARK UNBOUND:                 0.179
REMARK SMILES C=C1CCC=C(C)CC[C@@H]2[C@H]1CC2(C)C
REMARK SMILES IDX 11 1 12 2 13 3 10 4 14 5 15 6 9 7 8 8 6 9 7 10 5 11 2 13
REMARK SMILES IDX 1 14 3 15 4 16
REMARK H PARENT
REMARK Flexibility Score: 70.00
ROOT
ATOM      1  C   UNL     1     -14.989  -2.571  17.286  1.00  0.00     0.018 C 
ATOM      2  C   UNL     1     -15.334  -1.574  16.173  1.00  0.00     0.015 C 
ATOM      3  C   UNL     1     -16.234  -0.792  17.149  1.00  0.00    -0.031 C 
ATOM      4  C   UNL     1     -15.841  -1.771  18.291  1.00  0.00     0.002 C 
ATOM      5  C   UNL     1     -15.812   0.684  17.299  1.00  0.00     0.011 C 
ATOM      6  C   UNL     1     -17.726  -0.899  16.781  1.00  0.00     0.011 C 
ENDROOT
BRANCH   4   7
ATOM      7  C   UNL     1     -15.163  -1.158  19.548  1.00  0.00     0.009 C 
BRANCH   7   8
ATOM      8  C   UNL     1     -15.392  -1.909  20.880  1.00  0.00     0.030 C 
BRANCH   8   9
ATOM      9  C   UNL     1     -14.163  -2.038  21.762  1.00  0.00    -0.077 C 
ATOM     10  C   UNL     1     -14.229  -1.488  23.162  1.00  0.00     0.039 C 
ATOM     11  C   UNL     1     -13.009  -2.618  21.354  1.00  0.00    -0.028 CG0
ATOM     12  G   UNL     1     -12.747  -3.204  19.981  1.00  0.00     0.000 G0
ENDBRANCH   8   9
ENDBRANCH   7   8
ENDBRANCH   4   7
BRANCH   1  13
ATOM     13  C   UNL     1     -13.508  -2.784  17.585  1.00  0.00    -0.074 C 
ATOM     14  C   UNL     1     -12.696  -3.490  16.778  1.00  0.00     0.008 C 
BRANCH  13  15
ATOM     15  C   UNL     1     -12.947  -2.176  18.851  1.00  0.00     0.035 C 
BRANCH  15  16
ATOM     16  C   UNL     1     -12.759  -3.209  19.970  1.00  0.00     0.032 CG0
ATOM     17  G   UNL     1     -13.004  -2.627  21.348  1.00  0.00     0.000 G0
ENDBRANCH  15  16
ENDBRANCH  13  15
ENDBRANCH   1  13
TORSDOF 0
ENDMDL
