MODEL 1
REMARK VINA RESULT:    -3.846      0.000      0.000
REMARK INTER + INTRA:          -4.917
REMARK INTER:                  -4.745
REMARK INTRA:                  -0.172
REMARK UNBOUND:                -0.172
REMARK SMILES CCCCCC(=O)[O-]
REMARK SMILES IDX 4 1 5 2 6 3 7 4 8 5 3 6 2 7 1 8
REMARK H PARENT
REMARK Flexibility Score: inf
ROOT
ATOM      1  C   UNL     1      14.358  43.464 -10.676  1.00  0.00     0.006 C 
ENDROOT
BRANCH   1   2
ATOM      2  C   UNL     1      14.922  44.733 -10.021  1.00  0.00     0.053 C 
BRANCH   2   3
ATOM      3  C   UNL     1      14.876  45.879 -10.981  1.00  0.00     0.041 C 
ATOM      4  O   UNL     1      14.195  45.794 -12.038  1.00  0.00    -0.550 OA
ATOM      5  O   UNL     1      15.545  47.061 -10.686  1.00  0.00    -0.550 OA
ENDBRANCH   2   3
ENDBRANCH   1   2
BRANCH   1   6
ATOM      6  C   UNL     1      13.163  42.884  -9.904  1.00  0.00     0.000 C 
BRANCH   6   7
ATOM      7  C   UNL     1      11.867  43.673 -10.138  1.00  0.00    -0.003 C 
ATOM      8  C   UNL     1      10.982  43.659  -8.895  1.00  0.00     0.004 C 
ENDBRANCH   6   7
ENDBRANCH   1   6
TORSDOF 4
ENDMDL
MODEL 2
REMARK VINA RESULT:    -3.649      2.587      3.925
REMARK INTER + INTRA:          -4.675
REMARK INTER:                  -4.563
REMARK INTRA:                  -0.112
REMARK UNBOUND:                -0.172
REMARK SMILES CCCCCC(=O)[O-]
REMARK SMILES IDX 4 1 5 2 6 3 7 4 8 5 3 6 2 7 1 8
REMARK H PARENT
REMARK Flexibility Score: inf
ROOT
ATOM      1  C   UNL     1      13.834  44.065 -10.869  1.00  0.00     0.006 C 
ENDROOT
BRANCH   1   2
ATOM      2  C   UNL     1      13.143  43.237  -9.776  1.00  0.00     0.053 C 
BRANCH   2   3
ATOM      3  C   UNL     1      11.701  43.620  -9.667  1.00  0.00     0.041 C 
ATOM      4  O   UNL     1      10.933  43.484 -10.656  1.00  0.00    -0.550 OA
ATOM      5  O   UNL     1      11.193  44.079  -8.458  1.00  0.00    -0.550 OA
ENDBRANCH   2   3
ENDBRANCH   1   2
BRANCH   1   6
ATOM      6  C   UNL     1      15.224  44.563 -10.441  1.00  0.00     0.000 C 
BRANCH   6   7
ATOM      7  C   UNL     1      15.447  46.046 -10.770  1.00  0.00    -0.003 C 
ATOM      8  C   UNL     1      14.284  46.901 -10.275  1.00  0.00     0.004 C 
ENDBRANCH   6   7
ENDBRANCH   1   6
TORSDOF 4
ENDMDL
MODEL 3
REMARK VINA RESULT:    -3.506     15.432     16.347
REMARK INTER + INTRA:          -4.498
REMARK INTER:                  -4.323
REMARK INTRA:                  -0.176
REMARK UNBOUND:                -0.172
REMARK SMILES CCCCCC(=O)[O-]
REMARK SMILES IDX 4 1 5 2 6 3 7 4 8 5 3 6 2 7 1 8
REMARK H PARENT
REMARK Flexibility Score: inf
ROOT
ATOM      1  C   UNL     1       2.116  50.318   0.324  1.00  0.00     0.006 C 
ENDROOT
BRANCH   1   2
ATOM      2  C   UNL     1       1.983  51.554  -0.576  1.00  0.00     0.053 C 
BRANCH   2   3
ATOM      3  C   UNL     1       2.683  51.328  -1.878  1.00  0.00     0.041 C 
ATOM      4  O   UNL     1       2.159  50.598  -2.760  1.00  0.00    -0.550 OA
ATOM      5  O   UNL     1       3.892  51.963  -2.138  1.00  0.00    -0.550 OA
ENDBRANCH   2   3
ENDBRANCH   1   2
BRANCH   1   6
ATOM      6  C   UNL     1       3.045  50.559   1.525  1.00  0.00     0.000 C 
BRANCH   6   7
ATOM      7  C   UNL     1       3.701  51.946   1.496  1.00  0.00    -0.003 C 
ATOM      8  C   UNL     1       5.221  51.835   1.418  1.00  0.00     0.004 C 
ENDBRANCH   6   7
ENDBRANCH   1   6
TORSDOF 4
ENDMDL
MODEL 4
REMARK VINA RESULT:    -3.441     14.942     16.131
REMARK INTER + INTRA:          -4.418
REMARK INTER:                  -4.231
REMARK INTRA:                  -0.187
REMARK UNBOUND:                -0.172
REMARK SMILES CCCCCC(=O)[O-]
REMARK SMILES IDX 4 1 5 2 6 3 7 4 8 5 3 6 2 7 1 8
REMARK H PARENT
REMARK Flexibility Score: inf
ROOT
ATOM      1  C   UNL     1       1.977  51.536  -0.252  1.00  0.00     0.006 C 
ENDROOT
BRANCH   1   2
ATOM      2  C   UNL     1       1.909  51.091  -1.719  1.00  0.00     0.053 C 
BRANCH   2   3
ATOM      3  C   UNL     1       3.034  51.693  -2.499  1.00  0.00     0.041 C 
ATOM      4  O   UNL     1       3.676  52.671  -2.033  1.00  0.00    -0.550 OA
ATOM      5  O   UNL     1       3.407  51.142  -3.720  1.00  0.00    -0.550 OA
ENDBRANCH   2   3
ENDBRANCH   1   2
BRANCH   1   6
ATOM      6  C   UNL     1       2.280  50.371   0.705  1.00  0.00     0.000 C 
BRANCH   6   7
ATOM      7  C   UNL     1       3.289  50.751   1.798  1.00  0.00    -0.003 C 
ATOM      8  C   UNL     1       4.476  51.510   1.212  1.00  0.00     0.004 C 
ENDBRANCH   6   7
ENDBRANCH   1   6
TORSDOF 4
ENDMDL
MODEL 5
REMARK VINA RESULT:    -3.416     16.726     17.249
REMARK INTER + INTRA:          -4.387
REMARK INTER:                  -4.207
REMARK INTRA:                  -0.180
REMARK UNBOUND:                -0.172
REMARK SMILES CCCCCC(=O)[O-]
REMARK SMILES IDX 4 1 5 2 6 3 7 4 8 5 3 6 2 7 1 8
REMARK H PARENT
REMARK Flexibility Score: inf
ROOT
ATOM      1  C   UNL     1       4.282  51.587   0.717  1.00  0.00     0.006 C 
ENDROOT
BRANCH   1   2
ATOM      2  C   UNL     1       5.072  52.688   1.438  1.00  0.00     0.053 C 
BRANCH   2   3
ATOM      3  C   UNL     1       4.327  53.983   1.385  1.00  0.00     0.041 C 
ATOM      4  O   UNL     1       4.742  54.980   2.034  1.00  0.00    -0.550 OA
ATOM      5  O   UNL     1       3.202  54.106   0.578  1.00  0.00    -0.550 OA
ENDBRANCH   2   3
ENDBRANCH   1   2
BRANCH   1   6
ATOM      6  C   UNL     1       3.401  50.769   1.674  1.00  0.00     0.000 C 
BRANCH   6   7
ATOM      7  C   UNL     1       2.156  50.191   0.984  1.00  0.00    -0.003 C 
ATOM      8  C   UNL     1       1.875  50.909  -0.333  1.00  0.00     0.004 C 
ENDBRANCH   6   7
ENDBRANCH   1   6
TORSDOF 4
ENDMDL
MODEL 6
REMARK VINA RESULT:    -3.347     16.592     17.189
REMARK INTER + INTRA:          -4.302
REMARK INTER:                  -4.092
REMARK INTRA:                  -0.210
REMARK UNBOUND:                -0.172
REMARK SMILES CCCCCC(=O)[O-]
REMARK SMILES IDX 4 1 5 2 6 3 7 4 8 5 3 6 2 7 1 8
REMARK H PARENT
REMARK Flexibility Score: inf
ROOT
ATOM      1  C   UNL     1       4.175  51.808   0.922  1.00  0.00     0.006 C 
ENDROOT
BRANCH   1   2
ATOM      2  C   UNL     1       4.085  53.234   1.485  1.00  0.00     0.053 C 
BRANCH   2   3
ATOM      3  C   UNL     1       3.553  54.170   0.448  1.00  0.00     0.041 C 
ATOM      4  O   UNL     1       2.360  54.071   0.057  1.00  0.00    -0.550 OA
ATOM      5  O   UNL     1       4.359  55.186  -0.053  1.00  0.00    -0.550 OA
ENDBRANCH   2   3
ENDBRANCH   1   2
BRANCH   1   6
ATOM      6  C   UNL     1       3.346  50.800   1.733  1.00  0.00     0.000 C 
BRANCH   6   7
ATOM      7  C   UNL     1       2.195  50.191   0.919  1.00  0.00    -0.003 C 
ATOM      8  C   UNL     1       2.262  50.628  -0.541  1.00  0.00     0.004 C 
ENDBRANCH   6   7
ENDBRANCH   1   6
TORSDOF 4
ENDMDL
MODEL 7
REMARK VINA RESULT:    -3.342     15.140     16.035
REMARK INTER + INTRA:          -4.296
REMARK INTER:                  -4.106
REMARK INTRA:                  -0.190
REMARK UNBOUND:                -0.172
REMARK SMILES CCCCCC(=O)[O-]
REMARK SMILES IDX 4 1 5 2 6 3 7 4 8 5 3 6 2 7 1 8
REMARK H PARENT
REMARK Flexibility Score: inf
ROOT
ATOM      1  C   UNL     1       3.895  52.118   1.257  1.00  0.00     0.006 C 
ENDROOT
BRANCH   1   2
ATOM      2  C   UNL     1       5.430  52.132   1.220  1.00  0.00     0.053 C 
BRANCH   2   3
ATOM      3  C   UNL     1       5.914  52.493  -0.148  1.00  0.00     0.041 C 
ATOM      4  O   UNL     1       5.317  52.056  -1.167  1.00  0.00    -0.550 OA
ATOM      5  O   UNL     1       6.995  53.353  -0.299  1.00  0.00    -0.550 OA
ENDBRANCH   2   3
ENDBRANCH   1   2
BRANCH   1   6
ATOM      6  C   UNL     1       3.327  50.751   1.670  1.00  0.00     0.000 C 
BRANCH   6   7
ATOM      7  C   UNL     1       2.164  50.299   0.776  1.00  0.00    -0.003 C 
ATOM      8  C   UNL     1       1.975  51.250  -0.403  1.00  0.00     0.004 C 
ENDBRANCH   6   7
ENDBRANCH   1   6
TORSDOF 4
ENDMDL
MODEL 8
REMARK VINA RESULT:    -3.324     16.449     17.114
REMARK INTER + INTRA:          -4.274
REMARK INTER:                  -4.069
REMARK INTRA:                  -0.205
REMARK UNBOUND:                -0.172
REMARK SMILES CCCCCC(=O)[O-]
REMARK SMILES IDX 4 1 5 2 6 3 7 4 8 5 3 6 2 7 1 8
REMARK H PARENT
REMARK Flexibility Score: inf
ROOT
ATOM      1  C   UNL     1       2.849  51.522  -0.641  1.00  0.00     0.006 C 
ENDROOT
BRANCH   1   2
ATOM      2  C   UNL     1       1.876  52.706  -0.549  1.00  0.00     0.053 C 
BRANCH   2   3
ATOM      3  C   UNL     1       2.619  54.000  -0.644  1.00  0.00     0.041 C 
ATOM      4  O   UNL     1       3.117  54.522   0.389  1.00  0.00    -0.550 OA
ATOM      5  O   UNL     1       2.807  54.605  -1.880  1.00  0.00    -0.550 OA
ENDBRANCH   2   3
ENDBRANCH   1   2
BRANCH   1   6
ATOM      6  C   UNL     1       2.619  50.482   0.467  1.00  0.00     0.000 C 
BRANCH   6   7
ATOM      7  C   UNL     1       3.376  50.817   1.760  1.00  0.00    -0.003 C 
ATOM      8  C   UNL     1       4.722  51.469   1.456  1.00  0.00     0.004 C 
ENDBRANCH   6   7
ENDBRANCH   1   6
TORSDOF 4
ENDMDL
MODEL 9
REMARK VINA RESULT:    -3.240     14.016     15.435
REMARK INTER + INTRA:          -4.169
REMARK INTER:                  -3.995
REMARK INTRA:                  -0.174
REMARK UNBOUND:                -0.172
REMARK SMILES CCCCCC(=O)[O-]
REMARK SMILES IDX 4 1 5 2 6 3 7 4 8 5 3 6 2 7 1 8
REMARK H PARENT
REMARK Flexibility Score: inf
ROOT
ATOM      1  C   UNL     1       4.422  52.383   0.389  1.00  0.00     0.006 C 
ENDROOT
BRANCH   1   2
ATOM      2  C   UNL     1       5.731  52.408  -0.411  1.00  0.00     0.053 C 
BRANCH   2   3
ATOM      3  C   UNL     1       5.458  52.188  -1.865  1.00  0.00     0.041 C 
ATOM      4  O   UNL     1       4.273  52.088  -2.279  1.00  0.00    -0.550 OA
ATOM      5  O   UNL     1       6.510  52.143  -2.771  1.00  0.00    -0.550 OA
ENDBRANCH   2   3
ENDBRANCH   1   2
BRANCH   1   6
ATOM      6  C   UNL     1       4.452  51.362   1.538  1.00  0.00     0.000 C 
BRANCH   6   7
ATOM      7  C   UNL     1       3.140  50.575   1.665  1.00  0.00    -0.003 C 
ATOM      8  C   UNL     1       2.277  50.740   0.417  1.00  0.00     0.004 C 
ENDBRANCH   6   7
ENDBRANCH   1   6
TORSDOF 4
ENDMDL
