MODEL 1
REMARK VINA RESULT:    -2.817      0.000      0.000
REMARK INTER + INTRA:          -3.167
REMARK INTER:                  -3.146
REMARK INTRA:                  -0.021
REMARK UNBOUND:                -0.021
REMARK SMILES CCCC(=O)[O-]
REMARK SMILES IDX 3 1 4 2 5 3 6 4 2 5 1 6
REMARK H PARENT
REMARK Flexibility Score: inf
ROOT
ATOM      1  C   UNL     1      -2.854 -51.013   1.835  1.00  0.00     0.052 C 
ENDROOT
BRANCH   1   2
ATOM      2  C   UNL     1      -1.422 -51.448   1.785  1.00  0.00     0.041 C 
ATOM      3  O   UNL     1      -0.791 -51.432   0.695  1.00  0.00    -0.550 OA
ATOM      4  O   UNL     1      -0.793 -51.904   2.937  1.00  0.00    -0.550 OA
ENDBRANCH   1   2
BRANCH   1   5
ATOM      5  C   UNL     1      -3.374 -50.610   0.449  1.00  0.00     0.003 C 
ATOM      6  C   UNL     1      -4.765 -51.173   0.163  1.00  0.00     0.004 C 
ENDBRANCH   1   5
TORSDOF 2
ENDMDL
MODEL 2
REMARK VINA RESULT:    -2.737     22.624     23.040
REMARK INTER + INTRA:          -3.078
REMARK INTER:                  -3.041
REMARK INTRA:                  -0.037
REMARK UNBOUND:                -0.021
REMARK SMILES CCCC(=O)[O-]
REMARK SMILES IDX 3 1 4 2 5 3 6 4 2 5 1 6
REMARK H PARENT
REMARK Flexibility Score: inf
ROOT
ATOM      1  C   UNL     1       8.585 -33.005   7.763  1.00  0.00     0.052 C 
ENDROOT
BRANCH   1   2
ATOM      2  C   UNL     1       9.763 -32.428   7.040  1.00  0.00     0.041 C 
ATOM      3  O   UNL     1      10.895 -32.401   7.591  1.00  0.00    -0.550 OA
ATOM      4  O   UNL     1       9.603 -31.889   5.770  1.00  0.00    -0.550 OA
ENDBRANCH   1   2
BRANCH   1   5
ATOM      5  C   UNL     1       8.690 -32.795   9.279  1.00  0.00     0.003 C 
ATOM      6  C   UNL     1       8.932 -34.102  10.032  1.00  0.00     0.004 C 
ENDBRANCH   1   5
TORSDOF 2
ENDMDL
MODEL 3
REMARK VINA RESULT:    -2.688      1.738      2.292
REMARK INTER + INTRA:          -3.023
REMARK INTER:                  -2.987
REMARK INTRA:                  -0.036
REMARK UNBOUND:                -0.021
REMARK SMILES CCCC(=O)[O-]
REMARK SMILES IDX 3 1 4 2 5 3 6 4 2 5 1 6
REMARK H PARENT
REMARK Flexibility Score: inf
ROOT
ATOM      1  C   UNL     1      -2.113 -50.669   1.585  1.00  0.00     0.052 C 
ENDROOT
BRANCH   1   2
ATOM      2  C   UNL     1      -1.888 -51.479   2.825  1.00  0.00     0.041 C 
ATOM      3  O   UNL     1      -2.849 -52.080   3.373  1.00  0.00    -0.550 OA
ATOM      4  O   UNL     1      -0.622 -51.543   3.393  1.00  0.00    -0.550 OA
ENDBRANCH   1   2
BRANCH   1   5
ATOM      5  C   UNL     1      -2.263 -51.559   0.345  1.00  0.00     0.003 C 
ATOM      6  C   UNL     1      -0.955 -51.699  -0.432  1.00  0.00     0.004 C 
ENDBRANCH   1   5
TORSDOF 2
ENDMDL
MODEL 4
REMARK VINA RESULT:    -2.658      1.469      2.041
REMARK INTER + INTRA:          -2.990
REMARK INTER:                  -2.978
REMARK INTRA:                  -0.012
REMARK UNBOUND:                -0.021
REMARK SMILES CCCC(=O)[O-]
REMARK SMILES IDX 3 1 4 2 5 3 6 4 2 5 1 6
REMARK H PARENT
REMARK Flexibility Score: inf
ROOT
ATOM      1  C   UNL     1      -2.842 -51.449   2.753  1.00  0.00     0.052 C 
ENDROOT
BRANCH   1   2
ATOM      2  C   UNL     1      -1.800 -51.744   3.788  1.00  0.00     0.041 C 
ATOM      3  O   UNL     1      -0.580 -51.740   3.479  1.00  0.00    -0.550 OA
ATOM      4  O   UNL     1      -2.180 -52.057   5.087  1.00  0.00    -0.550 OA
ENDBRANCH   1   2
BRANCH   1   5
ATOM      5  C   UNL     1      -2.259 -50.674   1.565  1.00  0.00     0.003 C 
ATOM      6  C   UNL     1      -3.194 -50.674   0.356  1.00  0.00     0.004 C 
ENDBRANCH   1   5
TORSDOF 2
ENDMDL
MODEL 5
REMARK VINA RESULT:    -2.595      1.628      2.213
REMARK INTER + INTRA:          -2.920
REMARK INTER:                  -2.911
REMARK INTRA:                  -0.009
REMARK UNBOUND:                -0.021
REMARK SMILES CCCC(=O)[O-]
REMARK SMILES IDX 3 1 4 2 5 3 6 4 2 5 1 6
REMARK H PARENT
REMARK Flexibility Score: inf
ROOT
ATOM      1  C   UNL     1      -2.980 -51.544   2.383  1.00  0.00     0.052 C 
ENDROOT
BRANCH   1   2
ATOM      2  C   UNL     1      -1.498 -51.381   2.244  1.00  0.00     0.041 C 
ATOM      3  O   UNL     1      -0.983 -51.202   1.109  1.00  0.00    -0.550 OA
ATOM      4  O   UNL     1      -0.682 -51.459   3.365  1.00  0.00    -0.550 OA
ENDBRANCH   1   2
BRANCH   1   5
ATOM      5  C   UNL     1      -3.409 -51.613   3.854  1.00  0.00     0.003 C 
ATOM      6  C   UNL     1      -4.908 -51.863   4.012  1.00  0.00     0.004 C 
ENDBRANCH   1   5
TORSDOF 2
ENDMDL
MODEL 6
REMARK VINA RESULT:    -2.445     21.756     22.219
REMARK INTER + INTRA:          -2.752
REMARK INTER:                  -2.740
REMARK INTRA:                  -0.013
REMARK UNBOUND:                -0.021
REMARK SMILES CCCC(=O)[O-]
REMARK SMILES IDX 3 1 4 2 5 3 6 4 2 5 1 6
REMARK H PARENT
REMARK Flexibility Score: inf
ROOT
ATOM      1  C   UNL     1       7.822 -33.431   9.618  1.00  0.00     0.052 C 
ENDROOT
BRANCH   1   2
ATOM      2  C   UNL     1       8.980 -33.410   8.669  1.00  0.00     0.041 C 
ATOM      3  O   UNL     1      10.156 -33.546   9.099  1.00  0.00    -0.550 OA
ATOM      4  O   UNL     1       8.763 -33.206   7.312  1.00  0.00    -0.550 OA
ENDBRANCH   1   2
BRANCH   1   5
ATOM      5  C   UNL     1       6.500 -33.111   8.908  1.00  0.00     0.003 C 
ATOM      6  C   UNL     1       5.510 -32.387   9.820  1.00  0.00     0.004 C 
ENDBRANCH   1   5
TORSDOF 2
ENDMDL
MODEL 7
REMARK VINA RESULT:    -2.366      1.933      2.921
REMARK INTER + INTRA:          -2.664
REMARK INTER:                  -2.632
REMARK INTRA:                  -0.032
REMARK UNBOUND:                -0.021
REMARK SMILES CCCC(=O)[O-]
REMARK SMILES IDX 3 1 4 2 5 3 6 4 2 5 1 6
REMARK H PARENT
REMARK Flexibility Score: inf
ROOT
ATOM      1  C   UNL     1      -2.165 -50.714   1.753  1.00  0.00     0.052 C 
ENDROOT
BRANCH   1   2
ATOM      2  C   UNL     1      -1.794 -51.356   0.451  1.00  0.00     0.041 C 
ATOM      3  O   UNL     1      -2.689 -51.790  -0.321  1.00  0.00    -0.550 OA
ATOM      4  O   UNL     1      -0.456 -51.504   0.106  1.00  0.00    -0.550 OA
ENDBRANCH   1   2
BRANCH   1   5
ATOM      5  C   UNL     1      -2.284 -51.747   2.881  1.00  0.00     0.003 C 
ATOM      6  C   UNL     1      -1.133 -51.649   3.882  1.00  0.00     0.004 C 
ENDBRANCH   1   5
TORSDOF 2
ENDMDL
MODEL 8
REMARK VINA RESULT:    -2.347      2.405      3.056
REMARK INTER + INTRA:          -2.642
REMARK INTER:                  -2.636
REMARK INTRA:                  -0.006
REMARK UNBOUND:                -0.021
REMARK SMILES CCCC(=O)[O-]
REMARK SMILES IDX 3 1 4 2 5 3 6 4 2 5 1 6
REMARK H PARENT
REMARK Flexibility Score: inf
ROOT
ATOM      1  C   UNL     1      -2.490 -51.005  -0.038  1.00  0.00     0.052 C 
ENDROOT
BRANCH   1   2
ATOM      2  C   UNL     1      -3.399 -51.182   1.139  1.00  0.00     0.041 C 
ATOM      3  O   UNL     1      -4.635 -51.347   0.967  1.00  0.00    -0.550 OA
ATOM      4  O   UNL     1      -2.884 -51.131   2.429  1.00  0.00    -0.550 OA
ENDBRANCH   1   2
BRANCH   1   5
ATOM      5  C   UNL     1      -1.161 -51.747   0.154  1.00  0.00     0.003 C 
ATOM      6  C   UNL     1      -0.346 -51.824  -1.137  1.00  0.00     0.004 C 
ENDBRANCH   1   5
TORSDOF 2
ENDMDL
