MODEL 1
REMARK VINA RESULT:    -4.266      0.000      0.000
REMARK INTER + INTRA:          -5.648
REMARK INTER:                  -5.263
REMARK INTRA:                  -0.385
REMARK UNBOUND:                -0.385
REMARK SMILES COc1cc(-c2oc3cc(O)cc(O)c3c(=O)c2O)ccc1O
REMARK SMILES IDX 6 1 18 2 16 3 17 4 15 5 13 6 12 7 10 8 9 9 8 10 7 11 5 12
REMARK SMILES IDX 3 13 22 14 4 15 21 16 20 17 2 18 1 19 23 20 19 22 14 24
REMARK SMILES IDX 11 26
REMARK H PARENT 23 21 19 23 14 25 11 27
REMARK Flexibility Score: inf
ROOT
ATOM      1  C   UNL     1      -3.274 -12.044 -13.688  1.00  0.00     0.180 A 
ATOM      2  C   UNL     1      -2.181 -12.594 -14.382  1.00  0.00     0.208 A 
ATOM      3  C   UNL     1      -2.288 -13.894 -14.899  1.00  0.00     0.238 A 
ATOM      4  O   UNL     1      -1.327 -14.360 -15.566  1.00  0.00    -0.285 OA
ATOM      5  C   UNL     1      -3.479 -14.635 -14.705  1.00  0.00     0.111 A 
ATOM      6  C   UNL     1      -3.682 -15.975 -15.151  1.00  0.00     0.134 A 
ATOM      7  C   UNL     1      -4.945 -16.564 -15.019  1.00  0.00     0.093 A 
ATOM      8  C   UNL     1      -5.994 -15.886 -14.398  1.00  0.00     0.123 A 
ATOM      9  C   UNL     1      -5.789 -14.597 -13.904  1.00  0.00     0.094 A 
ATOM     10  C   UNL     1      -4.550 -13.970 -14.054  1.00  0.00     0.146 A 
ATOM     11  O   UNL     1      -4.401 -12.739 -13.579  1.00  0.00    -0.452 OA
ENDROOT
BRANCH   1  12
ATOM     12  C   UNL     1      -3.228 -10.689 -13.092  1.00  0.00     0.025 A 
ATOM     13  C   UNL     1      -3.586  -8.273 -13.238  1.00  0.00     0.161 A 
ATOM     14  C   UNL     1      -3.069  -8.128 -11.938  1.00  0.00     0.157 A 
ATOM     15  C   UNL     1      -3.655  -9.559 -13.812  1.00  0.00     0.062 A 
ATOM     16  C   UNL     1      -2.623  -9.250 -11.233  1.00  0.00     0.051 A 
ATOM     17  C   UNL     1      -2.695 -10.520 -11.806  1.00  0.00     0.016 A 
BRANCH  13  18
ATOM     18  O   UNL     1      -4.013  -7.127 -13.928  1.00  0.00    -0.493 OA
ATOM     19  C   UNL     1      -4.087  -7.019 -15.347  1.00  0.00     0.278 C 
ENDBRANCH  13  18
BRANCH  14  20
ATOM     20  O   UNL     1      -2.985  -6.875 -11.332  1.00  0.00    -0.504 OA
ATOM     21  H   UNL     1      -2.097  -6.430 -11.131  1.00  0.00     0.293 HD
ENDBRANCH  14  20
ENDBRANCH   1  12
BRANCH   2  22
ATOM     22  O   UNL     1      -1.024 -11.837 -14.581  1.00  0.00    -0.502 OA
ATOM     23  H   UNL     1      -0.144 -12.060 -14.131  1.00  0.00     0.293 HD
ENDBRANCH   2  22
BRANCH   6  24
ATOM     24  O   UNL     1      -2.676 -16.775 -15.703  1.00  0.00    -0.507 OA
ATOM     25  H   UNL     1      -1.919 -17.189 -15.179  1.00  0.00     0.293 HD
ENDBRANCH   6  24
BRANCH   8  26
ATOM     26  O   UNL     1      -7.234 -16.508 -14.269  1.00  0.00    -0.508 OA
ATOM     27  H   UNL     1      -7.982 -16.342 -14.933  1.00  0.00     0.293 HD
ENDBRANCH   8  26
TORSDOF 6
ENDMDL
MODEL 2
REMARK VINA RESULT:    -4.218      1.775      7.166
REMARK INTER + INTRA:          -5.589
REMARK INTER:                  -5.210
REMARK INTRA:                  -0.379
REMARK UNBOUND:                -0.385
REMARK SMILES COc1cc(-c2oc3cc(O)cc(O)c3c(=O)c2O)ccc1O
REMARK SMILES IDX 6 1 18 2 16 3 17 4 15 5 13 6 12 7 10 8 9 9 8 10 7 11 5 12
REMARK SMILES IDX 3 13 22 14 4 15 21 16 20 17 2 18 1 19 23 20 19 22 14 24
REMARK SMILES IDX 11 26
REMARK H PARENT 23 21 19 23 14 25 11 27
REMARK Flexibility Score: inf
ROOT
ATOM      1  C   UNL     1      -3.318 -11.916 -13.755  1.00  0.00     0.180 A 
ATOM      2  C   UNL     1      -3.793 -11.236 -14.890  1.00  0.00     0.208 A 
ATOM      3  C   UNL     1      -3.907  -9.838 -14.848  1.00  0.00     0.238 A 
ATOM      4  O   UNL     1      -4.281  -9.230 -15.885  1.00  0.00    -0.285 OA
ATOM      5  C   UNL     1      -3.561  -9.138 -13.666  1.00  0.00     0.111 A 
ATOM      6  C   UNL     1      -3.676  -7.725 -13.498  1.00  0.00     0.134 A 
ATOM      7  C   UNL     1      -3.182  -7.126 -12.333  1.00  0.00     0.093 A 
ATOM      8  C   UNL     1      -2.638  -7.893 -11.304  1.00  0.00     0.123 A 
ATOM      9  C   UNL     1      -2.575  -9.281 -11.433  1.00  0.00     0.094 A 
ATOM     10  C   UNL     1      -3.027  -9.904 -12.599  1.00  0.00     0.146 A 
ATOM     11  O   UNL     1      -2.940 -11.226 -12.685  1.00  0.00    -0.452 OA
ENDROOT
BRANCH   1  12
ATOM     12  C   UNL     1      -3.194 -13.391 -13.715  1.00  0.00     0.025 A 
ATOM     13  C   UNL     1      -4.067 -15.598 -13.120  1.00  0.00     0.161 A 
ATOM     14  C   UNL     1      -2.889 -16.187 -13.612  1.00  0.00     0.157 A 
ATOM     15  C   UNL     1      -4.209 -14.197 -13.169  1.00  0.00     0.062 A 
ATOM     16  C   UNL     1      -1.870 -15.384 -14.133  1.00  0.00     0.051 A 
ATOM     17  C   UNL     1      -2.017 -13.996 -14.179  1.00  0.00     0.016 A 
BRANCH  13  18
ATOM     18  O   UNL     1      -5.068 -16.428 -12.590  1.00  0.00    -0.493 OA
ATOM     19  C   UNL     1      -6.085 -15.996 -11.690  1.00  0.00     0.278 C 
ENDBRANCH  13  18
BRANCH  14  20
ATOM     20  O   UNL     1      -2.708 -17.569 -13.585  1.00  0.00    -0.504 OA
ATOM     21  H   UNL     1      -2.863 -18.119 -12.748  1.00  0.00     0.293 HD
ENDBRANCH  14  20
ENDBRANCH   1  12
BRANCH   2  22
ATOM     22  O   UNL     1      -4.108 -11.945 -16.052  1.00  0.00    -0.502 OA
ATOM     23  H   UNL     1      -3.397 -12.312 -16.675  1.00  0.00     0.293 HD
ENDBRANCH   2  22
BRANCH   6  24
ATOM     24  O   UNL     1      -4.286  -6.876 -14.426  1.00  0.00    -0.507 OA
ATOM     25  H   UNL     1      -4.290  -7.023 -15.425  1.00  0.00     0.293 HD
ENDBRANCH   6  24
BRANCH   8  26
ATOM     26  O   UNL     1      -2.170  -7.264 -10.152  1.00  0.00    -0.508 OA
ATOM     27  H   UNL     1      -1.178  -7.164  -9.968  1.00  0.00     0.293 HD
ENDBRANCH   8  26
TORSDOF 6
ENDMDL
MODEL 3
REMARK VINA RESULT:    -4.217      1.976      7.141
REMARK INTER + INTRA:          -5.588
REMARK INTER:                  -5.227
REMARK INTRA:                  -0.361
REMARK UNBOUND:                -0.385
REMARK SMILES COc1cc(-c2oc3cc(O)cc(O)c3c(=O)c2O)ccc1O
REMARK SMILES IDX 6 1 18 2 16 3 17 4 15 5 13 6 12 7 10 8 9 9 8 10 7 11 5 12
REMARK SMILES IDX 3 13 22 14 4 15 21 16 20 17 2 18 1 19 23 20 19 22 14 24
REMARK SMILES IDX 11 26
REMARK H PARENT 23 21 19 23 14 25 11 27
REMARK Flexibility Score: inf
ROOT
ATOM      1  C   UNL     1      -3.548 -11.287 -13.790  1.00  0.00     0.180 A 
ATOM      2  C   UNL     1      -2.857 -10.770 -14.901  1.00  0.00     0.208 A 
ATOM      3  C   UNL     1      -2.140  -9.573 -14.760  1.00  0.00     0.238 A 
ATOM      4  O   UNL     1      -1.479  -9.145 -15.742  1.00  0.00    -0.285 OA
ATOM      5  C   UNL     1      -2.132  -8.898 -13.515  1.00  0.00     0.111 A 
ATOM      6  C   UNL     1      -1.472  -7.657 -13.270  1.00  0.00     0.134 A 
ATOM      7  C   UNL     1      -1.423  -7.145 -11.967  1.00  0.00     0.093 A 
ATOM      8  C   UNL     1      -2.065  -7.795 -10.915  1.00  0.00     0.123 A 
ATOM      9  C   UNL     1      -2.765  -8.978 -11.154  1.00  0.00     0.094 A 
ATOM     10  C   UNL     1      -2.801  -9.532 -12.436  1.00  0.00     0.146 A 
ATOM     11  O   UNL     1      -3.469 -10.664 -12.619  1.00  0.00    -0.452 OA
ENDROOT
BRANCH   1  12
ATOM     12  C   UNL     1      -4.348 -12.531 -13.868  1.00  0.00     0.025 A 
ATOM     13  C   UNL     1      -4.601 -14.939 -13.514  1.00  0.00     0.161 A 
ATOM     14  C   UNL     1      -5.883 -14.879 -14.088  1.00  0.00     0.157 A 
ATOM     15  C   UNL     1      -3.835 -13.759 -13.414  1.00  0.00     0.062 A 
ATOM     16  C   UNL     1      -6.382 -13.661 -14.560  1.00  0.00     0.051 A 
ATOM     17  C   UNL     1      -5.620 -12.496 -14.458  1.00  0.00     0.016 A 
BRANCH  13  18
ATOM     18  O   UNL     1      -4.119 -16.177 -13.060  1.00  0.00    -0.493 OA
ATOM     19  C   UNL     1      -3.763 -16.461 -11.710  1.00  0.00     0.278 C 
ENDBRANCH  13  18
BRANCH  14  20
ATOM     20  O   UNL     1      -6.675 -16.020 -14.204  1.00  0.00    -0.504 OA
ATOM     21  H   UNL     1      -6.789 -16.512 -15.082  1.00  0.00     0.293 HD
ENDBRANCH  14  20
ENDBRANCH   1  12
BRANCH   2  22
ATOM     22  O   UNL     1      -2.860 -11.465 -16.113  1.00  0.00    -0.502 OA
ATOM     23  H   UNL     1      -2.253 -12.258 -16.286  1.00  0.00     0.293 HD
ENDBRANCH   2  22
BRANCH   6  24
ATOM     24  O   UNL     1      -0.876  -6.879 -14.268  1.00  0.00    -0.507 OA
ATOM     25  H   UNL     1      -1.373  -6.240 -14.872  1.00  0.00     0.293 HD
ENDBRANCH   6  24
BRANCH   8  26
ATOM     26  O   UNL     1      -2.008  -7.249  -9.633  1.00  0.00    -0.508 OA
ATOM     27  H   UNL     1      -1.350  -7.589  -8.942  1.00  0.00     0.293 HD
ENDBRANCH   8  26
TORSDOF 6
ENDMDL
MODEL 4
REMARK VINA RESULT:    -4.192      1.991      2.651
REMARK INTER + INTRA:          -5.557
REMARK INTER:                  -5.217
REMARK INTRA:                  -0.341
REMARK UNBOUND:                -0.385
REMARK SMILES COc1cc(-c2oc3cc(O)cc(O)c3c(=O)c2O)ccc1O
REMARK SMILES IDX 6 1 18 2 16 3 17 4 15 5 13 6 12 7 10 8 9 9 8 10 7 11 5 12
REMARK SMILES IDX 3 13 22 14 4 15 21 16 20 17 2 18 1 19 23 20 19 22 14 24
REMARK SMILES IDX 11 26
REMARK H PARENT 23 21 19 23 14 25 11 27
REMARK Flexibility Score: inf
ROOT
ATOM      1  C   UNL     1      -3.274 -12.647 -13.844  1.00  0.00     0.180 A 
ATOM      2  C   UNL     1      -2.092 -13.324 -14.196  1.00  0.00     0.208 A 
ATOM      3  C   UNL     1      -1.910 -14.646 -13.762  1.00  0.00     0.238 A 
ATOM      4  O   UNL     1      -0.875 -15.264 -14.126  1.00  0.00    -0.285 OA
ATOM      5  C   UNL     1      -2.903 -15.272 -12.970  1.00  0.00     0.111 A 
ATOM      6  C   UNL     1      -2.804 -16.593 -12.442  1.00  0.00     0.134 A 
ATOM      7  C   UNL     1      -3.903 -17.157 -11.780  1.00  0.00     0.093 A 
ATOM      8  C   UNL     1      -5.070 -16.424 -11.571  1.00  0.00     0.123 A 
ATOM      9  C   UNL     1      -5.155 -15.110 -12.030  1.00  0.00     0.094 A 
ATOM     10  C   UNL     1      -4.089 -14.533 -12.726  1.00  0.00     0.146 A 
ATOM     11  O   UNL     1      -4.215 -13.283 -13.155  1.00  0.00    -0.452 OA
ENDROOT
BRANCH   1  12
ATOM     12  C   UNL     1      -3.527 -11.244 -14.243  1.00  0.00     0.025 A 
ATOM     13  C   UNL     1      -3.656  -8.858 -13.714  1.00  0.00     0.161 A 
ATOM     14  C   UNL     1      -4.072  -8.599 -15.032  1.00  0.00     0.157 A 
ATOM     15  C   UNL     1      -3.392 -10.187 -13.325  1.00  0.00     0.062 A 
ATOM     16  C   UNL     1      -4.228  -9.653 -15.937  1.00  0.00     0.051 A 
ATOM     17  C   UNL     1      -3.965 -10.966 -15.546  1.00  0.00     0.016 A 
BRANCH  13  18
ATOM     18  O   UNL     1      -3.520  -7.782 -12.823  1.00  0.00    -0.493 OA
ATOM     19  C   UNL     1      -2.394  -7.571 -11.976  1.00  0.00     0.278 C 
ENDBRANCH  13  18
BRANCH  14  20
ATOM     20  O   UNL     1      -4.341  -7.299 -15.460  1.00  0.00    -0.504 OA
ATOM     21  H   UNL     1      -5.195  -7.056 -15.947  1.00  0.00     0.293 HD
ENDBRANCH  14  20
ENDBRANCH   1  12
BRANCH   2  22
ATOM     22  O   UNL     1      -1.136 -12.695 -14.997  1.00  0.00    -0.502 OA
ATOM     23  H   UNL     1      -0.817 -13.090 -15.874  1.00  0.00     0.293 HD
ENDBRANCH   2  22
BRANCH   6  24
ATOM     24  O   UNL     1      -1.651 -17.380 -12.515  1.00  0.00    -0.507 OA
ATOM     25  H   UNL     1      -1.644 -18.379 -12.657  1.00  0.00     0.293 HD
ENDBRANCH   6  24
BRANCH   8  26
ATOM     26  O   UNL     1      -6.138 -17.012 -10.895  1.00  0.00    -0.508 OA
ATOM     27  H   UNL     1      -6.183 -18.013 -10.743  1.00  0.00     0.293 HD
ENDBRANCH   8  26
TORSDOF 6
ENDMDL
MODEL 5
REMARK VINA RESULT:    -4.014      0.879      2.085
REMARK INTER + INTRA:          -5.338
REMARK INTER:                  -4.985
REMARK INTRA:                  -0.353
REMARK UNBOUND:                -0.385
REMARK SMILES COc1cc(-c2oc3cc(O)cc(O)c3c(=O)c2O)ccc1O
REMARK SMILES IDX 6 1 18 2 16 3 17 4 15 5 13 6 12 7 10 8 9 9 8 10 7 11 5 12
REMARK SMILES IDX 3 13 22 14 4 15 21 16 20 17 2 18 1 19 23 20 19 22 14 24
REMARK SMILES IDX 11 26
REMARK H PARENT 23 21 19 23 14 25 11 27
REMARK Flexibility Score: inf
ROOT
ATOM      1  C   UNL     1      -3.336 -12.051 -13.864  1.00  0.00     0.180 A 
ATOM      2  C   UNL     1      -2.207 -12.733 -14.353  1.00  0.00     0.208 A 
ATOM      3  C   UNL     1      -2.372 -14.009 -14.913  1.00  0.00     0.238 A 
ATOM      4  O   UNL     1      -1.367 -14.591 -15.398  1.00  0.00    -0.285 OA
ATOM      5  C   UNL     1      -3.661 -14.595 -14.965  1.00  0.00     0.111 A 
ATOM      6  C   UNL     1      -3.938 -15.898 -15.474  1.00  0.00     0.134 A 
ATOM      7  C   UNL     1      -5.266 -16.324 -15.596  1.00  0.00     0.093 A 
ATOM      8  C   UNL     1      -6.322 -15.521 -15.167  1.00  0.00     0.123 A 
ATOM      9  C   UNL     1      -6.058 -14.268 -14.612  1.00  0.00     0.094 A 
ATOM     10  C   UNL     1      -4.745 -13.801 -14.511  1.00  0.00     0.146 A 
ATOM     11  O   UNL     1      -4.539 -12.600 -13.986  1.00  0.00    -0.452 OA
ENDROOT
BRANCH   1  12
ATOM     12  C   UNL     1      -3.237 -10.713 -13.237  1.00  0.00     0.025 A 
ATOM     13  C   UNL     1      -2.674  -9.275 -11.339  1.00  0.00     0.161 A 
ATOM     14  C   UNL     1      -3.120  -8.157 -12.066  1.00  0.00     0.157 A 
ATOM     15  C   UNL     1      -2.743 -10.553 -11.930  1.00  0.00     0.062 A 
ATOM     16  C   UNL     1      -3.633  -8.321 -13.356  1.00  0.00     0.051 A 
ATOM     17  C   UNL     1      -3.698  -9.589 -13.936  1.00  0.00     0.016 A 
BRANCH  13  18
ATOM     18  O   UNL     1      -2.176  -9.083 -10.040  1.00  0.00    -0.493 OA
ATOM     19  C   UNL     1      -0.875  -9.471  -9.607  1.00  0.00     0.278 C 
ENDBRANCH  13  18
BRANCH  14  20
ATOM     20  O   UNL     1      -3.068  -6.875 -11.520  1.00  0.00    -0.504 OA
ATOM     21  H   UNL     1      -3.275  -6.693 -10.546  1.00  0.00     0.293 HD
ENDBRANCH  14  20
ENDBRANCH   1  12
BRANCH   2  22
ATOM     22  O   UNL     1      -0.949 -12.127 -14.311  1.00  0.00    -0.502 OA
ATOM     23  H   UNL     1      -0.818 -11.165 -14.019  1.00  0.00     0.293 HD
ENDBRANCH   2  22
BRANCH   6  24
ATOM     24  O   UNL     1      -2.952 -16.818 -15.846  1.00  0.00    -0.507 OA
ATOM     25  H   UNL     1      -2.614 -17.567 -15.259  1.00  0.00     0.293 HD
ENDBRANCH   6  24
BRANCH   8  26
ATOM     26  O   UNL     1      -7.631 -15.983 -15.290  1.00  0.00    -0.508 OA
ATOM     27  H   UNL     1      -8.176 -15.814 -16.127  1.00  0.00     0.293 HD
ENDBRANCH   8  26
TORSDOF 6
ENDMDL
MODEL 6
REMARK VINA RESULT:    -3.780      2.120      3.178
REMARK INTER + INTRA:          -5.048
REMARK INTER:                  -4.730
REMARK INTRA:                  -0.318
REMARK UNBOUND:                -0.385
REMARK SMILES COc1cc(-c2oc3cc(O)cc(O)c3c(=O)c2O)ccc1O
REMARK SMILES IDX 6 1 18 2 16 3 17 4 15 5 13 6 12 7 10 8 9 9 8 10 7 11 5 12
REMARK SMILES IDX 3 13 22 14 4 15 21 16 20 17 2 18 1 19 23 20 19 22 14 24
REMARK SMILES IDX 11 26
REMARK H PARENT 23 21 19 23 14 25 11 27
REMARK Flexibility Score: inf
ROOT
ATOM      1  C   UNL     1      -4.238 -12.211 -14.115  1.00  0.00     0.180 A 
ATOM      2  C   UNL     1      -5.262 -12.390 -15.063  1.00  0.00     0.208 A 
ATOM      3  C   UNL     1      -6.015 -13.573 -15.036  1.00  0.00     0.238 A 
ATOM      4  O   UNL     1      -6.965 -13.703 -15.851  1.00  0.00    -0.285 OA
ATOM      5  C   UNL     1      -5.728 -14.570 -14.072  1.00  0.00     0.111 A 
ATOM      6  C   UNL     1      -6.401 -15.825 -13.979  1.00  0.00     0.134 A 
ATOM      7  C   UNL     1      -6.122 -16.681 -12.906  1.00  0.00     0.093 A 
ATOM      8  C   UNL     1      -5.148 -16.357 -11.962  1.00  0.00     0.123 A 
ATOM      9  C   UNL     1      -4.442 -15.160 -12.077  1.00  0.00     0.094 A 
ATOM     10  C   UNL     1      -4.723 -14.269 -13.116  1.00  0.00     0.146 A 
ATOM     11  O   UNL     1      -4.035 -13.136 -13.184  1.00  0.00    -0.452 OA
ENDROOT
BRANCH   1  12
ATOM     12  C   UNL     1      -3.384 -11.001 -14.097  1.00  0.00     0.025 A 
ATOM     13  C   UNL     1      -2.747  -8.845 -13.131  1.00  0.00     0.161 A 
ATOM     14  C   UNL     1      -1.775  -8.693 -14.135  1.00  0.00     0.157 A 
ATOM     15  C   UNL     1      -3.554 -10.001 -13.123  1.00  0.00     0.062 A 
ATOM     16  C   UNL     1      -1.623  -9.677 -15.117  1.00  0.00     0.051 A 
ATOM     17  C   UNL     1      -2.424 -10.820 -15.103  1.00  0.00     0.016 A 
BRANCH  13  18
ATOM     18  O   UNL     1      -2.887  -7.834 -12.166  1.00  0.00    -0.493 OA
ATOM     19  C   UNL     1      -2.324  -7.882 -10.858  1.00  0.00     0.278 C 
ENDBRANCH  13  18
BRANCH  14  20
ATOM     20  O   UNL     1      -0.954  -7.567 -14.179  1.00  0.00    -0.504 OA
ATOM     21  H   UNL     1      -1.240  -6.674 -13.796  1.00  0.00     0.293 HD
ENDBRANCH  14  20
ENDBRANCH   1  12
BRANCH   2  22
ATOM     22  O   UNL     1      -5.543 -11.383 -15.990  1.00  0.00    -0.502 OA
ATOM     23  H   UNL     1      -5.410 -11.509 -16.987  1.00  0.00     0.293 HD
ENDBRANCH   2  22
BRANCH   6  24
ATOM     24  O   UNL     1      -7.325 -16.287 -14.920  1.00  0.00    -0.507 OA
ATOM     25  H   UNL     1      -8.035 -15.717 -15.356  1.00  0.00     0.293 HD
ENDBRANCH   6  24
BRANCH   8  26
ATOM     26  O   UNL     1      -4.886 -17.240 -10.915  1.00  0.00    -0.508 OA
ATOM     27  H   UNL     1      -4.312 -18.064 -11.049  1.00  0.00     0.293 HD
ENDBRANCH   8  26
TORSDOF 6
ENDMDL
MODEL 7
REMARK VINA RESULT:    -3.201      4.729      8.333
REMARK INTER + INTRA:          -4.334
REMARK INTER:                  -4.751
REMARK INTRA:                   0.417
REMARK UNBOUND:                -0.385
REMARK SMILES COc1cc(-c2oc3cc(O)cc(O)c3c(=O)c2O)ccc1O
REMARK SMILES IDX 6 1 18 2 16 3 17 4 15 5 13 6 12 7 10 8 9 9 8 10 7 11 5 12
REMARK SMILES IDX 3 13 22 14 4 15 21 16 20 17 2 18 1 19 23 20 19 22 14 24
REMARK SMILES IDX 11 26
REMARK H PARENT 23 21 19 23 14 25 11 27
REMARK Flexibility Score: inf
ROOT
ATOM      1  C   UNL     1      -6.089 -16.594 -13.903  1.00  0.00     0.180 A 
ATOM      2  C   UNL     1      -5.803 -16.657 -12.528  1.00  0.00     0.208 A 
ATOM      3  C   UNL     1      -4.519 -16.307 -12.083  1.00  0.00     0.238 A 
ATOM      4  O   UNL     1      -4.285 -16.313 -10.846  1.00  0.00    -0.285 OA
ATOM      5  C   UNL     1      -3.532 -15.911 -13.019  1.00  0.00     0.111 A 
ATOM      6  C   UNL     1      -2.187 -15.573 -12.684  1.00  0.00     0.134 A 
ATOM      7  C   UNL     1      -1.334 -15.071 -13.674  1.00  0.00     0.093 A 
ATOM      8  C   UNL     1      -1.756 -14.957 -14.998  1.00  0.00     0.123 A 
ATOM      9  C   UNL     1      -3.051 -15.341 -15.348  1.00  0.00     0.094 A 
ATOM     10  C   UNL     1      -3.937 -15.811 -14.375  1.00  0.00     0.146 A 
ATOM     11  O   UNL     1      -5.163 -16.157 -14.748  1.00  0.00    -0.452 OA
ENDROOT
BRANCH   1  12
ATOM     12  C   UNL     1      -7.413 -16.972 -14.451  1.00  0.00     0.025 A 
ATOM     13  C   UNL     1      -9.336 -18.482 -14.550  1.00  0.00     0.161 A 
ATOM     14  C   UNL     1      -9.899 -17.682 -15.560  1.00  0.00     0.157 A 
ATOM     15  C   UNL     1      -8.086 -18.124 -14.005  1.00  0.00     0.062 A 
ATOM     16  C   UNL     1      -9.218 -16.550 -16.018  1.00  0.00     0.051 A 
ATOM     17  C   UNL     1      -7.981 -16.200 -15.474  1.00  0.00     0.016 A 
BRANCH  13  18
ATOM     18  O   UNL     1     -10.036 -19.620 -14.119  1.00  0.00    -0.493 OA
ATOM     19  C   UNL     1     -10.563 -20.622 -14.985  1.00  0.00     0.278 C 
ENDBRANCH  13  18
BRANCH  14  20
ATOM     20  O   UNL     1     -11.134 -17.998 -16.124  1.00  0.00    -0.504 OA
ATOM     21  H   UNL     1     -11.471 -17.555 -16.971  1.00  0.00     0.293 HD
ENDBRANCH  14  20
ENDBRANCH   1  12
BRANCH   2  22
ATOM     22  O   UNL     1      -6.798 -17.029 -11.621  1.00  0.00    -0.502 OA
ATOM     23  H   UNL     1      -7.784 -16.998 -11.852  1.00  0.00     0.293 HD
ENDBRANCH   2  22
BRANCH   6  24
ATOM     24  O   UNL     1      -1.635 -15.735 -11.410  1.00  0.00    -0.507 OA
ATOM     25  H   UNL     1      -2.171 -15.870 -10.564  1.00  0.00     0.293 HD
ENDBRANCH   6  24
BRANCH   8  26
ATOM     26  O   UNL     1      -0.875 -14.467 -15.961  1.00  0.00    -0.508 OA
ATOM     27  H   UNL     1      -0.155 -15.054 -16.367  1.00  0.00     0.293 HD
ENDBRANCH   8  26
TORSDOF 6
ENDMDL
MODEL 8
REMARK VINA RESULT:    -3.187      4.834      7.893
REMARK INTER + INTRA:          -4.317
REMARK INTER:                  -4.745
REMARK INTRA:                   0.428
REMARK UNBOUND:                -0.385
REMARK SMILES COc1cc(-c2oc3cc(O)cc(O)c3c(=O)c2O)ccc1O
REMARK SMILES IDX 6 1 18 2 16 3 17 4 15 5 13 6 12 7 10 8 9 9 8 10 7 11 5 12
REMARK SMILES IDX 3 13 22 14 4 15 21 16 20 17 2 18 1 19 23 20 19 22 14 24
REMARK SMILES IDX 11 26
REMARK H PARENT 23 21 19 23 14 25 11 27
REMARK Flexibility Score: inf
ROOT
ATOM      1  C   UNL     1      -5.719 -16.440 -14.008  1.00  0.00     0.180 A 
ATOM      2  C   UNL     1      -4.718 -15.837 -14.791  1.00  0.00     0.208 A 
ATOM      3  C   UNL     1      -3.456 -15.607 -14.224  1.00  0.00     0.238 A 
ATOM      4  O   UNL     1      -2.549 -15.117 -14.947  1.00  0.00    -0.285 OA
ATOM      5  C   UNL     1      -3.211 -15.970 -12.877  1.00  0.00     0.111 A 
ATOM      6  C   UNL     1      -1.982 -15.747 -12.188  1.00  0.00     0.134 A 
ATOM      7  C   UNL     1      -1.809 -16.263 -10.898  1.00  0.00     0.093 A 
ATOM      8  C   UNL     1      -2.843 -16.936 -10.248  1.00  0.00     0.123 A 
ATOM      9  C   UNL     1      -4.070 -17.107 -10.890  1.00  0.00     0.094 A 
ATOM     10  C   UNL     1      -4.260 -16.635 -12.191  1.00  0.00     0.146 A 
ATOM     11  O   UNL     1      -5.439 -16.828 -12.769  1.00  0.00    -0.452 OA
ENDROOT
BRANCH   1  12
ATOM     12  C   UNL     1      -7.082 -16.691 -14.529  1.00  0.00     0.025 A 
ATOM     13  C   UNL     1      -9.114 -18.051 -14.642  1.00  0.00     0.161 A 
ATOM     14  C   UNL     1      -9.647 -17.157 -15.587  1.00  0.00     0.157 A 
ATOM     15  C   UNL     1      -7.825 -17.815 -14.122  1.00  0.00     0.062 A 
ATOM     16  C   UNL     1      -8.899 -16.054 -16.008  1.00  0.00     0.051 A 
ATOM     17  C   UNL     1      -7.623 -15.825 -15.489  1.00  0.00     0.016 A 
BRANCH  13  18
ATOM     18  O   UNL     1      -9.882 -19.158 -14.248  1.00  0.00    -0.493 OA
ATOM     19  C   UNL     1     -10.246 -20.236 -15.106  1.00  0.00     0.278 C 
ENDBRANCH  13  18
BRANCH  14  20
ATOM     20  O   UNL     1     -10.919 -17.351 -16.125  1.00  0.00    -0.504 OA
ATOM     21  H   UNL     1     -11.725 -17.560 -15.547  1.00  0.00     0.293 HD
ENDBRANCH  14  20
ENDBRANCH   1  12
BRANCH   2  22
ATOM     22  O   UNL     1      -4.975 -15.508 -16.125  1.00  0.00    -0.502 OA
ATOM     23  H   UNL     1      -5.910 -15.329 -16.471  1.00  0.00     0.293 HD
ENDBRANCH   2  22
BRANCH   6  24
ATOM     24  O   UNL     1      -0.917 -15.008 -12.711  1.00  0.00    -0.507 OA
ATOM     25  H   UNL     1       0.048 -15.111 -12.430  1.00  0.00     0.293 HD
ENDBRANCH   6  24
BRANCH   8  26
ATOM     26  O   UNL     1      -2.641 -17.423  -8.958  1.00  0.00    -0.508 OA
ATOM     27  H   UNL     1      -2.242 -18.339  -8.794  1.00  0.00     0.293 HD
ENDBRANCH   8  26
TORSDOF 6
ENDMDL
MODEL 9
REMARK VINA RESULT:    -3.153      2.656      7.065
REMARK INTER + INTRA:          -4.276
REMARK INTER:                  -4.280
REMARK INTRA:                   0.005
REMARK UNBOUND:                -0.385
REMARK SMILES COc1cc(-c2oc3cc(O)cc(O)c3c(=O)c2O)ccc1O
REMARK SMILES IDX 6 1 18 2 16 3 17 4 15 5 13 6 12 7 10 8 9 9 8 10 7 11 5 12
REMARK SMILES IDX 3 13 22 14 4 15 21 16 20 17 2 18 1 19 23 20 19 22 14 24
REMARK SMILES IDX 11 26
REMARK H PARENT 23 21 19 23 14 25 11 27
REMARK Flexibility Score: inf
ROOT
ATOM      1  C   UNL     1      -4.192 -13.082 -13.462  1.00  0.00     0.180 A 
ATOM      2  C   UNL     1      -5.061 -12.781 -14.526  1.00  0.00     0.208 A 
ATOM      3  C   UNL     1      -4.978 -11.521 -15.138  1.00  0.00     0.238 A 
ATOM      4  O   UNL     1      -5.721 -11.278 -16.125  1.00  0.00    -0.285 OA
ATOM      5  C   UNL     1      -4.037 -10.571 -14.671  1.00  0.00     0.111 A 
ATOM      6  C   UNL     1      -3.893  -9.250 -15.191  1.00  0.00     0.134 A 
ATOM      7  C   UNL     1      -2.843  -8.441 -14.740  1.00  0.00     0.093 A 
ATOM      8  C   UNL     1      -1.973  -8.880 -13.743  1.00  0.00     0.123 A 
ATOM      9  C   UNL     1      -2.141 -10.148 -13.185  1.00  0.00     0.094 A 
ATOM     10  C   UNL     1      -3.158 -10.992 -13.640  1.00  0.00     0.146 A 
ATOM     11  O   UNL     1      -3.277 -12.194 -13.090  1.00  0.00    -0.452 OA
ENDROOT
BRANCH   1  12
ATOM     12  C   UNL     1      -4.238 -14.379 -12.750  1.00  0.00     0.025 A 
ATOM     13  C   UNL     1      -3.130 -16.366 -11.848  1.00  0.00     0.161 A 
ATOM     14  C   UNL     1      -4.380 -16.867 -11.443  1.00  0.00     0.157 A 
ATOM     15  C   UNL     1      -3.068 -15.123 -12.509  1.00  0.00     0.062 A 
ATOM     16  C   UNL     1      -5.544 -16.138 -11.704  1.00  0.00     0.051 A 
ATOM     17  C   UNL     1      -5.476 -14.907 -12.358  1.00  0.00     0.016 A 
BRANCH  13  18
ATOM     18  O   UNL     1      -1.979 -17.126 -11.584  1.00  0.00    -0.493 OA
ATOM     19  C   UNL     1      -0.920 -16.717 -10.724  1.00  0.00     0.278 C 
ENDBRANCH  13  18
BRANCH  14  20
ATOM     20  O   UNL     1      -4.487 -18.091 -10.784  1.00  0.00    -0.504 OA
ATOM     21  H   UNL     1      -5.189 -18.264 -10.074  1.00  0.00     0.293 HD
ENDBRANCH  14  20
ENDBRANCH   1  12
BRANCH   2  22
ATOM     22  O   UNL     1      -5.966 -13.742 -14.985  1.00  0.00    -0.502 OA
ATOM     23  H   UNL     1      -6.897 -13.842 -14.595  1.00  0.00     0.293 HD
ENDBRANCH   2  22
BRANCH   6  24
ATOM     24  O   UNL     1      -4.764  -8.679 -16.124  1.00  0.00    -0.507 OA
ATOM     25  H   UNL     1      -5.558  -9.150 -16.532  1.00  0.00     0.293 HD
ENDBRANCH   6  24
BRANCH   8  26
ATOM     26  O   UNL     1      -0.948  -8.042 -13.308  1.00  0.00    -0.508 OA
ATOM     27  H   UNL     1      -0.056  -8.412 -13.000  1.00  0.00     0.293 HD
ENDBRANCH   8  26
TORSDOF 6
ENDMDL
