MODEL 1
REMARK VINA RESULT:    -3.223      0.000      0.000
REMARK INTER + INTRA:         -13.821
REMARK INTER:                  -8.498
REMARK INTRA:                  -5.323
REMARK UNBOUND:                -5.323
REMARK SMILES CCCCCCCCCCCCCCCCCCCCCCCCCCCCCC(=O)[O-]
REMARK SMILES IDX 16 1 17 2 18 3 19 4 20 5 21 6 22 7 23 8 24 9 25 10 26 11
REMARK SMILES IDX 27 12 28 13 29 14 30 15 31 16 32 17 15 18 14 19 13 20 12 21
REMARK SMILES IDX 11 22 10 23 9 24 8 25 7 26 6 27 5 28 4 29 3 30 2 31 1 32
REMARK H PARENT
REMARK Flexibility Score: inf
ROOT
ATOM      1  C   UNL     1      42.744  35.013  49.637  1.00  0.00     0.000 C 
ENDROOT
BRANCH   1   2
ATOM      2  C   UNL     1      41.639  34.519  48.688  1.00  0.00     0.000 C 
BRANCH   2   3
ATOM      3  C   UNL     1      40.875  35.671  48.012  1.00  0.00     0.000 C 
BRANCH   3   4
ATOM      4  C   UNL     1      40.793  35.519  46.483  1.00  0.00     0.000 C 
BRANCH   4   5
ATOM      5  C   UNL     1      41.949  34.722  45.847  1.00  0.00     0.000 C 
BRANCH   5   6
ATOM      6  C   UNL     1      43.175  35.561  45.432  1.00  0.00     0.000 C 
BRANCH   6   7
ATOM      7  C   UNL     1      44.438  35.325  46.280  1.00  0.00     0.000 C 
BRANCH   7   8
ATOM      8  C   UNL     1      44.938  36.603  46.973  1.00  0.00     0.000 C 
BRANCH   8   9
ATOM      9  C   UNL     1      43.854  37.688  47.072  1.00  0.00     0.000 C 
BRANCH   9  10
ATOM     10  C   UNL     1      43.813  38.357  48.459  1.00  0.00     0.000 C 
BRANCH  10  11
ATOM     11  C   UNL     1      44.956  37.883  49.372  1.00  0.00     0.000 C 
BRANCH  11  12
ATOM     12  C   UNL     1      45.348  38.929  50.425  1.00  0.00     0.000 C 
BRANCH  12  13
ATOM     13  C   UNL     1      44.314  40.059  50.486  1.00  0.00     0.006 C 
BRANCH  13  14
ATOM     14  C   UNL     1      43.664  40.143  51.870  1.00  0.00     0.053 C 
BRANCH  14  15
ATOM     15  C   UNL     1      44.697  40.434  52.913  1.00  0.00     0.041 C 
ATOM     16  O   UNL     1      45.303  41.539  52.915  1.00  0.00    -0.550 OA
ATOM     17  O   UNL     1      44.946  39.510  53.919  1.00  0.00    -0.550 OA
ENDBRANCH  14  15
ENDBRANCH  13  14
ENDBRANCH  12  13
ENDBRANCH  11  12
ENDBRANCH  10  11
ENDBRANCH   9  10
ENDBRANCH   8   9
ENDBRANCH   7   8
ENDBRANCH   6   7
ENDBRANCH   5   6
ENDBRANCH   4   5
ENDBRANCH   3   4
ENDBRANCH   2   3
ENDBRANCH   1   2
BRANCH   1  18
ATOM     18  C   UNL     1      44.023  34.152  49.647  1.00  0.00     0.000 C 
BRANCH  18  19
ATOM     19  C   UNL     1      43.863  32.750  49.027  1.00  0.00     0.000 C 
BRANCH  19  20
ATOM     20  C   UNL     1      45.130  31.874  49.073  1.00  0.00     0.000 C 
BRANCH  20  21
ATOM     21  C   UNL     1      45.672  31.420  47.702  1.00  0.00     0.000 C 
BRANCH  21  22
ATOM     22  C   UNL     1      45.558  29.910  47.420  1.00  0.00     0.000 C 
BRANCH  22  23
ATOM     23  C   UNL     1      44.979  29.119  48.605  1.00  0.00     0.000 C 
BRANCH  23  24
ATOM     24  C   UNL     1      46.039  28.279  49.338  1.00  0.00    -0.000 C 
BRANCH  24  25
ATOM     25  C   UNL     1      46.273  28.698  50.807  1.00  0.00    -0.000 C 
BRANCH  25  26
ATOM     26  C   UNL     1      47.370  29.768  51.006  1.00  0.00    -0.000 C 
BRANCH  26  27
ATOM     27  C   UNL     1      48.517  29.750  49.975  1.00  0.00    -0.000 C 
BRANCH  27  28
ATOM     28  C   UNL     1      49.081  31.129  49.582  1.00  0.00    -0.000 C 
BRANCH  28  29
ATOM     29  C   UNL     1      48.299  32.320  50.179  1.00  0.00    -0.000 C 
BRANCH  29  30
ATOM     30  C   UNL     1      48.859  33.680  49.736  1.00  0.00    -0.000 C 
BRANCH  30  31
ATOM     31  C   UNL     1      47.787  34.505  49.012  1.00  0.00    -0.003 C 
ATOM     32  C   UNL     1      47.823  34.256  47.506  1.00  0.00     0.004 C 
ENDBRANCH  30  31
ENDBRANCH  29  30
ENDBRANCH  28  29
ENDBRANCH  27  28
ENDBRANCH  26  27
ENDBRANCH  25  26
ENDBRANCH  24  25
ENDBRANCH  23  24
ENDBRANCH  22  23
ENDBRANCH  21  22
ENDBRANCH  20  21
ENDBRANCH  19  20
ENDBRANCH  18  19
ENDBRANCH   1  18
TORSDOF 28
ENDMDL
MODEL 2
REMARK VINA RESULT:    -3.189      3.383      8.029
REMARK INTER + INTRA:         -13.732
REMARK INTER:                  -8.296
REMARK INTRA:                  -5.435
REMARK UNBOUND:                -5.323
REMARK SMILES CCCCCCCCCCCCCCCCCCCCCCCCCCCCCC(=O)[O-]
REMARK SMILES IDX 16 1 17 2 18 3 19 4 20 5 21 6 22 7 23 8 24 9 25 10 26 11
REMARK SMILES IDX 27 12 28 13 29 14 30 15 31 16 32 17 15 18 14 19 13 20 12 21
REMARK SMILES IDX 11 22 10 23 9 24 8 25 7 26 6 27 5 28 4 29 3 30 2 31 1 32
REMARK H PARENT
REMARK Flexibility Score: inf
ROOT
ATOM      1  C   UNL     1      43.108  34.660  50.229  1.00  0.00     0.000 C 
ENDROOT
BRANCH   1   2
ATOM      2  C   UNL     1      42.390  34.344  48.906  1.00  0.00     0.000 C 
BRANCH   2   3
ATOM      3  C   UNL     1      41.232  35.314  48.611  1.00  0.00     0.000 C 
BRANCH   3   4
ATOM      4  C   UNL     1      41.051  35.591  47.108  1.00  0.00     0.000 C 
BRANCH   4   5
ATOM      5  C   UNL     1      41.022  34.335  46.216  1.00  0.00     0.000 C 
BRANCH   5   6
ATOM      6  C   UNL     1      42.065  34.311  45.080  1.00  0.00     0.000 C 
BRANCH   6   7
ATOM      7  C   UNL     1      43.333  35.141  45.347  1.00  0.00     0.000 C 
BRANCH   7   8
ATOM      8  C   UNL     1      44.601  34.276  45.449  1.00  0.00     0.000 C 
BRANCH   8   9
ATOM      9  C   UNL     1      44.313  32.858  45.970  1.00  0.00     0.000 C 
BRANCH   9  10
ATOM     10  C   UNL     1      45.317  32.410  47.048  1.00  0.00     0.000 C 
BRANCH  10  11
ATOM     11  C   UNL     1      44.658  31.552  48.141  1.00  0.00     0.000 C 
BRANCH  11  12
ATOM     12  C   UNL     1      45.243  31.815  49.537  1.00  0.00     0.000 C 
BRANCH  12  13
ATOM     13  C   UNL     1      46.728  32.186  49.446  1.00  0.00     0.006 C 
BRANCH  13  14
ATOM     14  C   UNL     1      47.581  31.284  50.342  1.00  0.00     0.053 C 
BRANCH  14  15
ATOM     15  C   UNL     1      48.170  30.163  49.545  1.00  0.00     0.041 C 
ATOM     16  O   UNL     1      48.033  30.135  48.293  1.00  0.00    -0.550 OA
ATOM     17  O   UNL     1      48.922  29.182  50.179  1.00  0.00    -0.550 OA
ENDBRANCH  14  15
ENDBRANCH  13  14
ENDBRANCH  12  13
ENDBRANCH  11  12
ENDBRANCH  10  11
ENDBRANCH   9  10
ENDBRANCH   8   9
ENDBRANCH   7   8
ENDBRANCH   6   7
ENDBRANCH   5   6
ENDBRANCH   4   5
ENDBRANCH   3   4
ENDBRANCH   2   3
ENDBRANCH   1   2
BRANCH   1  18
ATOM     18  C   UNL     1      44.266  35.672  50.112  1.00  0.00     0.000 C 
BRANCH  18  19
ATOM     19  C   UNL     1      45.062  35.594  48.795  1.00  0.00     0.000 C 
BRANCH  19  20
ATOM     20  C   UNL     1      45.231  36.939  48.061  1.00  0.00     0.000 C 
BRANCH  20  21
ATOM     21  C   UNL     1      43.971  37.829  48.011  1.00  0.00     0.000 C 
BRANCH  21  22
ATOM     22  C   UNL     1      44.012  39.072  48.921  1.00  0.00     0.000 C 
BRANCH  22  23
ATOM     23  C   UNL     1      45.422  39.384  49.450  1.00  0.00     0.000 C 
BRANCH  23  24
ATOM     24  C   UNL     1      45.505  39.357  50.985  1.00  0.00    -0.000 C 
BRANCH  24  25
ATOM     25  C   UNL     1      44.359  38.574  51.667  1.00  0.00    -0.000 C 
BRANCH  25  26
ATOM     26  C   UNL     1      44.052  39.010  53.117  1.00  0.00    -0.000 C 
BRANCH  26  27
ATOM     27  C   UNL     1      45.130  39.878  53.797  1.00  0.00    -0.000 C 
BRANCH  27  28
ATOM     28  C   UNL     1      44.708  41.321  54.135  1.00  0.00    -0.000 C 
BRANCH  28  29
ATOM     29  C   UNL     1      45.246  42.379  53.145  1.00  0.00    -0.000 C 
BRANCH  29  30
ATOM     30  C   UNL     1      44.124  43.170  52.456  1.00  0.00    -0.000 C 
BRANCH  30  31
ATOM     31  C   UNL     1      43.899  42.669  51.024  1.00  0.00    -0.003 C 
ATOM     32  C   UNL     1      42.625  41.833  50.925  1.00  0.00     0.004 C 
ENDBRANCH  30  31
ENDBRANCH  29  30
ENDBRANCH  28  29
ENDBRANCH  27  28
ENDBRANCH  26  27
ENDBRANCH  25  26
ENDBRANCH  24  25
ENDBRANCH  23  24
ENDBRANCH  22  23
ENDBRANCH  21  22
ENDBRANCH  20  21
ENDBRANCH  19  20
ENDBRANCH  18  19
ENDBRANCH   1  18
TORSDOF 28
ENDMDL
MODEL 3
REMARK VINA RESULT:    -3.178      1.678      3.377
REMARK INTER + INTRA:         -13.703
REMARK INTER:                  -7.234
REMARK INTRA:                  -6.470
REMARK UNBOUND:                -5.323
REMARK SMILES CCCCCCCCCCCCCCCCCCCCCCCCCCCCCC(=O)[O-]
REMARK SMILES IDX 16 1 17 2 18 3 19 4 20 5 21 6 22 7 23 8 24 9 25 10 26 11
REMARK SMILES IDX 27 12 28 13 29 14 30 15 31 16 32 17 15 18 14 19 13 20 12 21
REMARK SMILES IDX 11 22 10 23 9 24 8 25 7 26 6 27 5 28 4 29 3 30 2 31 1 32
REMARK H PARENT
REMARK Flexibility Score: inf
ROOT
ATOM      1  C   UNL     1      43.955  34.290  49.985  1.00  0.00     0.000 C 
ENDROOT
BRANCH   1   2
ATOM      2  C   UNL     1      42.694  35.159  49.834  1.00  0.00     0.000 C 
BRANCH   2   3
ATOM      3  C   UNL     1      41.742  34.640  48.742  1.00  0.00     0.000 C 
BRANCH   3   4
ATOM      4  C   UNL     1      41.073  35.774  47.944  1.00  0.00     0.000 C 
BRANCH   4   5
ATOM      5  C   UNL     1      40.714  35.418  46.487  1.00  0.00     0.000 C 
BRANCH   5   6
ATOM      6  C   UNL     1      41.180  34.026  46.016  1.00  0.00     0.000 C 
BRANCH   6   7
ATOM      7  C   UNL     1      42.419  34.031  45.104  1.00  0.00     0.000 C 
BRANCH   7   8
ATOM      8  C   UNL     1      43.663  33.435  45.786  1.00  0.00     0.000 C 
BRANCH   8   9
ATOM      9  C   UNL     1      44.711  34.502  46.145  1.00  0.00     0.000 C 
BRANCH   9  10
ATOM     10  C   UNL     1      44.329  35.902  45.629  1.00  0.00     0.000 C 
BRANCH  10  11
ATOM     11  C   UNL     1      44.504  36.989  46.703  1.00  0.00     0.000 C 
BRANCH  11  12
ATOM     12  C   UNL     1      45.602  36.648  47.721  1.00  0.00     0.000 C 
BRANCH  12  13
ATOM     13  C   UNL     1      45.493  37.541  48.963  1.00  0.00     0.006 C 
BRANCH  13  14
ATOM     14  C   UNL     1      44.197  38.355  48.949  1.00  0.00     0.053 C 
BRANCH  14  15
ATOM     15  C   UNL     1      44.462  39.766  49.371  1.00  0.00     0.041 C 
ATOM     16  O   UNL     1      43.516  40.499  49.765  1.00  0.00    -0.550 OA
ATOM     17  O   UNL     1      45.763  40.253  49.387  1.00  0.00    -0.550 OA
ENDBRANCH  14  15
ENDBRANCH  13  14
ENDBRANCH  12  13
ENDBRANCH  11  12
ENDBRANCH  10  11
ENDBRANCH   9  10
ENDBRANCH   8   9
ENDBRANCH   7   8
ENDBRANCH   6   7
ENDBRANCH   5   6
ENDBRANCH   4   5
ENDBRANCH   3   4
ENDBRANCH   2   3
ENDBRANCH   1   2
BRANCH   1  18
ATOM     18  C   UNL     1      43.850  32.882  49.364  1.00  0.00     0.000 C 
BRANCH  18  19
ATOM     19  C   UNL     1      45.129  32.031  49.474  1.00  0.00     0.000 C 
BRANCH  19  20
ATOM     20  C   UNL     1      45.037  30.637  48.822  1.00  0.00     0.000 C 
BRANCH  20  21
ATOM     21  C   UNL     1      46.172  30.292  47.835  1.00  0.00     0.000 C 
BRANCH  21  22
ATOM     22  C   UNL     1      45.864  30.584  46.354  1.00  0.00     0.000 C 
BRANCH  22  23
ATOM     23  C   UNL     1      46.920  31.481  45.686  1.00  0.00     0.000 C 
BRANCH  23  24
ATOM     24  C   UNL     1      48.309  31.355  46.335  1.00  0.00    -0.000 C 
BRANCH  24  25
ATOM     25  C   UNL     1      48.903  32.697  46.820  1.00  0.00    -0.000 C 
BRANCH  25  26
ATOM     26  C   UNL     1      47.943  33.559  47.669  1.00  0.00    -0.000 C 
BRANCH  26  27
ATOM     27  C   UNL     1      48.250  33.612  49.180  1.00  0.00    -0.000 C 
BRANCH  27  28
ATOM     28  C   UNL     1      49.127  32.467  49.722  1.00  0.00    -0.000 C 
BRANCH  28  29
ATOM     29  C   UNL     1      48.511  31.721  50.926  1.00  0.00    -0.000 C 
BRANCH  29  30
ATOM     30  C   UNL     1      48.461  30.200  50.719  1.00  0.00    -0.000 C 
BRANCH  30  31
ATOM     31  C   UNL     1      49.686  29.712  49.936  1.00  0.00    -0.003 C 
ATOM     32  C   UNL     1      49.282  28.750  48.821  1.00  0.00     0.004 C 
ENDBRANCH  30  31
ENDBRANCH  29  30
ENDBRANCH  28  29
ENDBRANCH  27  28
ENDBRANCH  26  27
ENDBRANCH  25  26
ENDBRANCH  24  25
ENDBRANCH  23  24
ENDBRANCH  22  23
ENDBRANCH  21  22
ENDBRANCH  20  21
ENDBRANCH  19  20
ENDBRANCH  18  19
ENDBRANCH   1  18
TORSDOF 28
ENDMDL
MODEL 4
REMARK VINA RESULT:    -3.151      2.864      4.835
REMARK INTER + INTRA:         -13.632
REMARK INTER:                  -7.383
REMARK INTRA:                  -6.249
REMARK UNBOUND:                -5.323
REMARK SMILES CCCCCCCCCCCCCCCCCCCCCCCCCCCCCC(=O)[O-]
REMARK SMILES IDX 16 1 17 2 18 3 19 4 20 5 21 6 22 7 23 8 24 9 25 10 26 11
REMARK SMILES IDX 27 12 28 13 29 14 30 15 31 16 32 17 15 18 14 19 13 20 12 21
REMARK SMILES IDX 11 22 10 23 9 24 8 25 7 26 6 27 5 28 4 29 3 30 2 31 1 32
REMARK H PARENT
REMARK Flexibility Score: inf
ROOT
ATOM      1  C   UNL     1      44.867  32.515  49.387  1.00  0.00     0.000 C 
ENDROOT
BRANCH   1   2
ATOM      2  C   UNL     1      43.625  33.341  49.013  1.00  0.00     0.000 C 
BRANCH   2   3
ATOM      3  C   UNL     1      43.550  34.679  49.768  1.00  0.00     0.000 C 
BRANCH   3   4
ATOM      4  C   UNL     1      42.429  35.597  49.250  1.00  0.00     0.000 C 
BRANCH   4   5
ATOM      5  C   UNL     1      41.235  34.865  48.607  1.00  0.00     0.000 C 
BRANCH   5   6
ATOM      6  C   UNL     1      40.778  35.421  47.244  1.00  0.00     0.000 C 
BRANCH   6   7
ATOM      7  C   UNL     1      40.880  34.429  46.072  1.00  0.00     0.000 C 
BRANCH   7   8
ATOM      8  C   UNL     1      42.006  34.783  45.086  1.00  0.00     0.000 C 
BRANCH   8   9
ATOM      9  C   UNL     1      43.192  33.808  45.165  1.00  0.00     0.000 C 
BRANCH   9  10
ATOM     10  C   UNL     1      44.517  34.517  45.507  1.00  0.00     0.000 C 
BRANCH  10  11
ATOM     11  C   UNL     1      44.298  35.945  46.033  1.00  0.00     0.000 C 
BRANCH  11  12
ATOM     12  C   UNL     1      45.379  36.383  47.032  1.00  0.00     0.000 C 
BRANCH  12  13
ATOM     13  C   UNL     1      46.360  35.239  47.313  1.00  0.00     0.006 C 
BRANCH  13  14
ATOM     14  C   UNL     1      47.126  35.472  48.617  1.00  0.00     0.053 C 
BRANCH  14  15
ATOM     15  C   UNL     1      48.519  35.936  48.328  1.00  0.00     0.041 C 
ATOM     16  O   UNL     1      48.966  35.907  47.150  1.00  0.00    -0.550 OA
ATOM     17  O   UNL     1      49.303  36.457  49.349  1.00  0.00    -0.550 OA
ENDBRANCH  14  15
ENDBRANCH  13  14
ENDBRANCH  12  13
ENDBRANCH  11  12
ENDBRANCH  10  11
ENDBRANCH   9  10
ENDBRANCH   8   9
ENDBRANCH   7   8
ENDBRANCH   6   7
ENDBRANCH   5   6
ENDBRANCH   4   5
ENDBRANCH   3   4
ENDBRANCH   2   3
ENDBRANCH   1   2
BRANCH   1  18
ATOM     18  C   UNL     1      45.021  31.189  48.614  1.00  0.00     0.000 C 
BRANCH  18  19
ATOM     19  C   UNL     1      45.029  31.333  47.080  1.00  0.00     0.000 C 
BRANCH  19  20
ATOM     20  C   UNL     1      46.024  30.410  46.348  1.00  0.00     0.000 C 
BRANCH  20  21
ATOM     21  C   UNL     1      47.296  30.045  47.142  1.00  0.00     0.000 C 
BRANCH  21  22
ATOM     22  C   UNL     1      48.552  30.858  46.775  1.00  0.00     0.000 C 
BRANCH  22  23
ATOM     23  C   UNL     1      48.622  32.214  47.497  1.00  0.00     0.000 C 
BRANCH  23  24
ATOM     24  C   UNL     1      49.818  32.318  48.459  1.00  0.00    -0.000 C 
BRANCH  24  25
ATOM     25  C   UNL     1      49.446  32.795  49.881  1.00  0.00    -0.000 C 
BRANCH  25  26
ATOM     26  C   UNL     1      48.280  32.022  50.537  1.00  0.00    -0.000 C 
BRANCH  26  27
ATOM     27  C   UNL     1      48.531  30.522  50.792  1.00  0.00    -0.000 C 
BRANCH  27  28
ATOM     28  C   UNL     1      47.270  29.648  50.928  1.00  0.00    -0.000 C 
BRANCH  28  29
ATOM     29  C   UNL     1      47.333  28.327  50.131  1.00  0.00    -0.000 C 
BRANCH  29  30
ATOM     30  C   UNL     1      46.023  27.529  50.199  1.00  0.00    -0.000 C 
BRANCH  30  31
ATOM     31  C   UNL     1      45.636  26.990  48.816  1.00  0.00    -0.003 C 
ATOM     32  C   UNL     1      44.328  27.609  48.328  1.00  0.00     0.004 C 
ENDBRANCH  30  31
ENDBRANCH  29  30
ENDBRANCH  28  29
ENDBRANCH  27  28
ENDBRANCH  26  27
ENDBRANCH  25  26
ENDBRANCH  24  25
ENDBRANCH  23  24
ENDBRANCH  22  23
ENDBRANCH  21  22
ENDBRANCH  20  21
ENDBRANCH  19  20
ENDBRANCH  18  19
ENDBRANCH   1  18
TORSDOF 28
ENDMDL
MODEL 5
REMARK VINA RESULT:    -3.086      3.808      9.131
REMARK INTER + INTRA:         -13.461
REMARK INTER:                  -9.180
REMARK INTRA:                  -4.281
REMARK UNBOUND:                -5.323
REMARK SMILES CCCCCCCCCCCCCCCCCCCCCCCCCCCCCC(=O)[O-]
REMARK SMILES IDX 16 1 17 2 18 3 19 4 20 5 21 6 22 7 23 8 24 9 25 10 26 11
REMARK SMILES IDX 27 12 28 13 29 14 30 15 31 16 32 17 15 18 14 19 13 20 12 21
REMARK SMILES IDX 11 22 10 23 9 24 8 25 7 26 6 27 5 28 4 29 3 30 2 31 1 32
REMARK H PARENT
REMARK Flexibility Score: inf
ROOT
ATOM      1  C   UNL     1      44.577  35.347  49.574  1.00  0.00     0.000 C 
ENDROOT
BRANCH   1   2
ATOM      2  C   UNL     1      43.296  34.717  50.146  1.00  0.00     0.000 C 
BRANCH   2   3
ATOM      3  C   UNL     1      42.333  34.227  49.050  1.00  0.00     0.000 C 
BRANCH   3   4
ATOM      4  C   UNL     1      41.165  35.198  48.802  1.00  0.00     0.000 C 
BRANCH   4   5
ATOM      5  C   UNL     1      40.749  35.350  47.326  1.00  0.00     0.000 C 
BRANCH   5   6
ATOM      6  C   UNL     1      41.225  34.223  46.388  1.00  0.00     0.000 C 
BRANCH   6   7
ATOM      7  C   UNL     1      42.420  34.589  45.490  1.00  0.00     0.000 C 
BRANCH   7   8
ATOM      8  C   UNL     1      43.568  33.569  45.579  1.00  0.00     0.000 C 
BRANCH   8   9
ATOM      9  C   UNL     1      44.904  34.213  45.986  1.00  0.00     0.000 C 
BRANCH   9  10
ATOM     10  C   UNL     1      45.722  33.320  46.938  1.00  0.00     0.000 C 
BRANCH  10  11
ATOM     11  C   UNL     1      44.908  32.130  47.471  1.00  0.00     0.000 C 
BRANCH  11  12
ATOM     12  C   UNL     1      45.278  31.755  48.914  1.00  0.00     0.000 C 
BRANCH  12  13
ATOM     13  C   UNL     1      46.167  30.507  48.944  1.00  0.00     0.006 C 
BRANCH  13  14
ATOM     14  C   UNL     1      45.396  29.288  49.456  1.00  0.00     0.053 C 
BRANCH  14  15
ATOM     15  C   UNL     1      44.858  28.491  48.309  1.00  0.00     0.041 C 
ATOM     16  O   UNL     1      45.316  28.662  47.148  1.00  0.00    -0.550 OA
ATOM     17  O   UNL     1      43.892  27.518  48.533  1.00  0.00    -0.550 OA
ENDBRANCH  14  15
ENDBRANCH  13  14
ENDBRANCH  12  13
ENDBRANCH  11  12
ENDBRANCH  10  11
ENDBRANCH   9  10
ENDBRANCH   8   9
ENDBRANCH   7   8
ENDBRANCH   6   7
ENDBRANCH   5   6
ENDBRANCH   4   5
ENDBRANCH   3   4
ENDBRANCH   2   3
ENDBRANCH   1   2
BRANCH   1  18
ATOM     18  C   UNL     1      44.503  36.870  49.342  1.00  0.00     0.000 C 
BRANCH  18  19
ATOM     19  C   UNL     1      44.000  37.286  47.946  1.00  0.00     0.000 C 
BRANCH  19  20
ATOM     20  C   UNL     1      43.719  38.793  47.783  1.00  0.00     0.000 C 
BRANCH  20  21
ATOM     21  C   UNL     1      44.919  39.724  48.056  1.00  0.00     0.000 C 
BRANCH  21  22
ATOM     22  C   UNL     1      44.699  40.765  49.170  1.00  0.00     0.000 C 
BRANCH  22  23
ATOM     23  C   UNL     1      43.212  41.061  49.431  1.00  0.00     0.000 C 
BRANCH  23  24
ATOM     24  C   UNL     1      42.923  41.426  50.897  1.00  0.00    -0.000 C 
BRANCH  24  25
ATOM     25  C   UNL     1      42.325  42.838  51.090  1.00  0.00    -0.000 C 
BRANCH  25  26
ATOM     26  C   UNL     1      42.023  43.217  52.557  1.00  0.00    -0.000 C 
BRANCH  26  27
ATOM     27  C   UNL     1      42.816  42.437  53.626  1.00  0.00    -0.000 C 
BRANCH  27  28
ATOM     28  C   UNL     1      44.221  42.984  53.944  1.00  0.00    -0.000 C 
BRANCH  28  29
ATOM     29  C   UNL     1      45.331  41.910  53.920  1.00  0.00    -0.000 C 
BRANCH  29  30
ATOM     30  C   UNL     1      44.784  40.487  54.105  1.00  0.00    -0.000 C 
BRANCH  30  31
ATOM     31  C   UNL     1      45.263  39.564  52.978  1.00  0.00    -0.003 C 
ATOM     32  C   UNL     1      44.250  38.455  52.704  1.00  0.00     0.004 C 
ENDBRANCH  30  31
ENDBRANCH  29  30
ENDBRANCH  28  29
ENDBRANCH  27  28
ENDBRANCH  26  27
ENDBRANCH  25  26
ENDBRANCH  24  25
ENDBRANCH  23  24
ENDBRANCH  22  23
ENDBRANCH  21  22
ENDBRANCH  20  21
ENDBRANCH  19  20
ENDBRANCH  18  19
ENDBRANCH   1  18
TORSDOF 28
ENDMDL
MODEL 6
REMARK VINA RESULT:    -3.070      1.685      3.843
REMARK INTER + INTRA:         -13.419
REMARK INTER:                  -7.851
REMARK INTRA:                  -5.568
REMARK UNBOUND:                -5.323
REMARK SMILES CCCCCCCCCCCCCCCCCCCCCCCCCCCCCC(=O)[O-]
REMARK SMILES IDX 16 1 17 2 18 3 19 4 20 5 21 6 22 7 23 8 24 9 25 10 26 11
REMARK SMILES IDX 27 12 28 13 29 14 30 15 31 16 32 17 15 18 14 19 13 20 12 21
REMARK SMILES IDX 11 22 10 23 9 24 8 25 7 26 6 27 5 28 4 29 3 30 2 31 1 32
REMARK H PARENT
REMARK Flexibility Score: inf
ROOT
ATOM      1  C   UNL     1      43.807  34.600  49.850  1.00  0.00     0.000 C 
ENDROOT
BRANCH   1   2
ATOM      2  C   UNL     1      42.382  35.175  49.785  1.00  0.00     0.000 C 
BRANCH   2   3
ATOM      3  C   UNL     1      41.566  34.609  48.609  1.00  0.00     0.000 C 
BRANCH   3   4
ATOM      4  C   UNL     1      40.874  35.705  47.779  1.00  0.00     0.000 C 
BRANCH   4   5
ATOM      5  C   UNL     1      40.763  35.406  46.271  1.00  0.00     0.000 C 
BRANCH   5   6
ATOM      6  C   UNL     1      41.307  34.031  45.832  1.00  0.00     0.000 C 
BRANCH   6   7
ATOM      7  C   UNL     1      42.676  34.069  45.131  1.00  0.00     0.000 C 
BRANCH   7   8
ATOM      8  C   UNL     1      43.825  33.602  46.040  1.00  0.00     0.000 C 
BRANCH   8   9
ATOM      9  C   UNL     1      44.926  34.663  46.200  1.00  0.00     0.000 C 
BRANCH   9  10
ATOM     10  C   UNL     1      44.423  36.086  45.891  1.00  0.00     0.000 C 
BRANCH  10  11
ATOM     11  C   UNL     1      44.329  36.961  47.151  1.00  0.00     0.000 C 
BRANCH  11  12
ATOM     12  C   UNL     1      45.622  37.740  47.432  1.00  0.00     0.000 C 
BRANCH  12  13
ATOM     13  C   UNL     1      45.879  37.848  48.939  1.00  0.00     0.006 C 
BRANCH  13  14
ATOM     14  C   UNL     1      44.587  38.145  49.704  1.00  0.00     0.053 C 
BRANCH  14  15
ATOM     15  C   UNL     1      44.457  39.613  49.959  1.00  0.00     0.041 C 
ATOM     16  O   UNL     1      43.574  40.285  49.361  1.00  0.00    -0.550 OA
ATOM     17  O   UNL     1      45.271  40.229  50.901  1.00  0.00    -0.550 OA
ENDBRANCH  14  15
ENDBRANCH  13  14
ENDBRANCH  12  13
ENDBRANCH  11  12
ENDBRANCH  10  11
ENDBRANCH   9  10
ENDBRANCH   8   9
ENDBRANCH   7   8
ENDBRANCH   6   7
ENDBRANCH   5   6
ENDBRANCH   4   5
ENDBRANCH   3   4
ENDBRANCH   2   3
ENDBRANCH   1   2
BRANCH   1  18
ATOM     18  C   UNL     1      43.895  33.066  49.712  1.00  0.00     0.000 C 
BRANCH  18  19
ATOM     19  C   UNL     1      45.282  32.532  49.306  1.00  0.00     0.000 C 
BRANCH  19  20
ATOM     20  C   UNL     1      45.653  31.166  49.916  1.00  0.00     0.000 C 
BRANCH  20  21
ATOM     21  C   UNL     1      47.162  30.920  50.122  1.00  0.00     0.000 C 
BRANCH  21  22
ATOM     22  C   UNL     1      47.558  29.452  50.371  1.00  0.00     0.000 C 
BRANCH  22  23
ATOM     23  C   UNL     1      48.783  29.013  49.551  1.00  0.00     0.000 C 
BRANCH  23  24
ATOM     24  C   UNL     1      48.444  28.714  48.081  1.00  0.00    -0.000 C 
BRANCH  24  25
ATOM     25  C   UNL     1      49.027  29.736  47.078  1.00  0.00    -0.000 C 
BRANCH  25  26
ATOM     26  C   UNL     1      48.058  30.161  45.952  1.00  0.00    -0.000 C 
BRANCH  26  27
ATOM     27  C   UNL     1      46.856  31.020  46.393  1.00  0.00    -0.000 C 
BRANCH  27  28
ATOM     28  C   UNL     1      45.471  30.367  46.218  1.00  0.00    -0.000 C 
BRANCH  28  29
ATOM     29  C   UNL     1      45.512  28.981  45.538  1.00  0.00    -0.000 C 
BRANCH  29  30
ATOM     30  C   UNL     1      45.098  27.844  46.484  1.00  0.00    -0.000 C 
BRANCH  30  31
ATOM     31  C   UNL     1      44.741  28.388  47.873  1.00  0.00    -0.003 C 
ATOM     32  C   UNL     1      45.022  27.353  48.960  1.00  0.00     0.004 C 
ENDBRANCH  30  31
ENDBRANCH  29  30
ENDBRANCH  28  29
ENDBRANCH  27  28
ENDBRANCH  26  27
ENDBRANCH  25  26
ENDBRANCH  24  25
ENDBRANCH  23  24
ENDBRANCH  22  23
ENDBRANCH  21  22
ENDBRANCH  20  21
ENDBRANCH  19  20
ENDBRANCH  18  19
ENDBRANCH   1  18
TORSDOF 28
ENDMDL
MODEL 7
REMARK VINA RESULT:    -3.062      1.271      2.814
REMARK INTER + INTRA:         -13.397
REMARK INTER:                  -7.751
REMARK INTRA:                  -5.646
REMARK UNBOUND:                -5.323
REMARK SMILES CCCCCCCCCCCCCCCCCCCCCCCCCCCCCC(=O)[O-]
REMARK SMILES IDX 16 1 17 2 18 3 19 4 20 5 21 6 22 7 23 8 24 9 25 10 26 11
REMARK SMILES IDX 27 12 28 13 29 14 30 15 31 16 32 17 15 18 14 19 13 20 12 21
REMARK SMILES IDX 11 22 10 23 9 24 8 25 7 26 6 27 5 28 4 29 3 30 2 31 1 32
REMARK H PARENT
REMARK Flexibility Score: inf
ROOT
ATOM      1  C   UNL     1      43.489  34.511  49.992  1.00  0.00     0.000 C 
ENDROOT
BRANCH   1   2
ATOM      2  C   UNL     1      42.206  35.094  49.374  1.00  0.00     0.000 C 
BRANCH   2   3
ATOM      3  C   UNL     1      41.590  34.174  48.304  1.00  0.00     0.000 C 
BRANCH   3   4
ATOM      4  C   UNL     1      40.943  34.954  47.146  1.00  0.00     0.000 C 
BRANCH   4   5
ATOM      5  C   UNL     1      41.726  34.913  45.818  1.00  0.00     0.000 C 
BRANCH   5   6
ATOM      6  C   UNL     1      43.022  34.079  45.845  1.00  0.00     0.000 C 
BRANCH   6   7
ATOM      7  C   UNL     1      44.323  34.902  45.823  1.00  0.00     0.000 C 
BRANCH   7   8
ATOM      8  C   UNL     1      44.079  36.406  46.030  1.00  0.00     0.000 C 
BRANCH   8   9
ATOM      9  C   UNL     1      45.008  37.018  47.091  1.00  0.00     0.000 C 
BRANCH   9  10
ATOM     10  C   UNL     1      44.239  37.821  48.157  1.00  0.00     0.000 C 
BRANCH  10  11
ATOM     11  C   UNL     1      44.966  37.843  49.512  1.00  0.00     0.000 C 
BRANCH  11  12
ATOM     12  C   UNL     1      44.634  39.090  50.344  1.00  0.00     0.000 C 
BRANCH  12  13
ATOM     13  C   UNL     1      44.911  38.845  51.832  1.00  0.00     0.006 C 
BRANCH  13  14
ATOM     14  C   UNL     1      43.798  39.424  52.707  1.00  0.00     0.053 C 
BRANCH  14  15
ATOM     15  C   UNL     1      43.775  40.917  52.603  1.00  0.00     0.041 C 
ATOM     16  O   UNL     1      42.823  41.497  52.017  1.00  0.00    -0.550 OA
ATOM     17  O   UNL     1      44.775  41.669  53.205  1.00  0.00    -0.550 OA
ENDBRANCH  14  15
ENDBRANCH  13  14
ENDBRANCH  12  13
ENDBRANCH  11  12
ENDBRANCH  10  11
ENDBRANCH   9  10
ENDBRANCH   8   9
ENDBRANCH   7   8
ENDBRANCH   6   7
ENDBRANCH   5   6
ENDBRANCH   4   5
ENDBRANCH   3   4
ENDBRANCH   2   3
ENDBRANCH   1   2
BRANCH   1  18
ATOM     18  C   UNL     1      43.909  33.135  49.436  1.00  0.00     0.000 C 
BRANCH  18  19
ATOM     19  C   UNL     1      45.428  32.942  49.269  1.00  0.00     0.000 C 
BRANCH  19  20
ATOM     20  C   UNL     1      46.215  34.231  48.961  1.00  0.00     0.000 C 
BRANCH  20  21
ATOM     21  C   UNL     1      47.445  34.055  48.046  1.00  0.00     0.000 C 
BRANCH  21  22
ATOM     22  C   UNL     1      47.560  32.678  47.364  1.00  0.00     0.000 C 
BRANCH  22  23
ATOM     23  C   UNL     1      47.192  32.714  45.871  1.00  0.00     0.000 C 
BRANCH  23  24
ATOM     24  C   UNL     1      46.474  31.439  45.400  1.00  0.00    -0.000 C 
BRANCH  24  25
ATOM     25  C   UNL     1      45.178  31.120  46.180  1.00  0.00    -0.000 C 
BRANCH  25  26
ATOM     26  C   UNL     1      45.195  29.774  46.940  1.00  0.00    -0.000 C 
BRANCH  26  27
ATOM     27  C   UNL     1      46.418  28.872  46.674  1.00  0.00    -0.000 C 
BRANCH  27  28
ATOM     28  C   UNL     1      47.354  28.647  47.877  1.00  0.00    -0.000 C 
BRANCH  28  29
ATOM     29  C   UNL     1      47.074  29.584  49.073  1.00  0.00    -0.000 C 
BRANCH  29  30
ATOM     30  C   UNL     1      48.301  29.775  49.977  1.00  0.00    -0.000 C 
BRANCH  30  31
ATOM     31  C   UNL     1      48.010  30.788  51.091  1.00  0.00    -0.003 C 
ATOM     32  C   UNL     1      48.780  32.087  50.871  1.00  0.00     0.004 C 
ENDBRANCH  30  31
ENDBRANCH  29  30
ENDBRANCH  28  29
ENDBRANCH  27  28
ENDBRANCH  26  27
ENDBRANCH  25  26
ENDBRANCH  24  25
ENDBRANCH  23  24
ENDBRANCH  22  23
ENDBRANCH  21  22
ENDBRANCH  20  21
ENDBRANCH  19  20
ENDBRANCH  18  19
ENDBRANCH   1  18
TORSDOF 28
ENDMDL
MODEL 8
REMARK VINA RESULT:    -3.037      1.161      1.857
REMARK INTER + INTRA:         -13.333
REMARK INTER:                  -7.805
REMARK INTRA:                  -5.528
REMARK UNBOUND:                -5.323
REMARK SMILES CCCCCCCCCCCCCCCCCCCCCCCCCCCCCC(=O)[O-]
REMARK SMILES IDX 16 1 17 2 18 3 19 4 20 5 21 6 22 7 23 8 24 9 25 10 26 11
REMARK SMILES IDX 27 12 28 13 29 14 30 15 31 16 32 17 15 18 14 19 13 20 12 21
REMARK SMILES IDX 11 22 10 23 9 24 8 25 7 26 6 27 5 28 4 29 3 30 2 31 1 32
REMARK H PARENT
REMARK Flexibility Score: inf
ROOT
ATOM      1  C   UNL     1      43.488  34.434  50.119  1.00  0.00     0.000 C 
ENDROOT
BRANCH   1   2
ATOM      2  C   UNL     1      42.769  35.320  49.087  1.00  0.00     0.000 C 
BRANCH   2   3
ATOM      3  C   UNL     1      41.292  34.933  48.897  1.00  0.00     0.000 C 
BRANCH   3   4
ATOM      4  C   UNL     1      40.785  35.194  47.468  1.00  0.00     0.000 C 
BRANCH   4   5
ATOM      5  C   UNL     1      41.280  34.189  46.409  1.00  0.00     0.000 C 
BRANCH   5   6
ATOM      6  C   UNL     1      42.112  34.798  45.262  1.00  0.00     0.000 C 
BRANCH   6   7
ATOM      7  C   UNL     1      42.881  36.079  45.630  1.00  0.00     0.000 C 
BRANCH   7   8
ATOM      8  C   UNL     1      44.391  35.967  45.359  1.00  0.00     0.000 C 
BRANCH   8   9
ATOM      9  C   UNL     1      45.231  36.849  46.297  1.00  0.00     0.000 C 
BRANCH   9  10
ATOM     10  C   UNL     1      46.013  36.027  47.338  1.00  0.00     0.000 C 
BRANCH  10  11
ATOM     11  C   UNL     1      46.493  36.884  48.521  1.00  0.00     0.000 C 
BRANCH  11  12
ATOM     12  C   UNL     1      45.382  37.771  49.102  1.00  0.00     0.000 C 
BRANCH  12  13
ATOM     13  C   UNL     1      45.975  38.944  49.891  1.00  0.00     0.006 C 
BRANCH  13  14
ATOM     14  C   UNL     1      44.980  40.102  49.996  1.00  0.00     0.053 C 
BRANCH  14  15
ATOM     15  C   UNL     1      44.233  40.033  51.290  1.00  0.00     0.041 C 
ATOM     16  O   UNL     1      43.230  40.770  51.484  1.00  0.00    -0.550 OA
ATOM     17  O   UNL     1      44.608  39.112  52.260  1.00  0.00    -0.550 OA
ENDBRANCH  14  15
ENDBRANCH  13  14
ENDBRANCH  12  13
ENDBRANCH  11  12
ENDBRANCH  10  11
ENDBRANCH   9  10
ENDBRANCH   8   9
ENDBRANCH   7   8
ENDBRANCH   6   7
ENDBRANCH   5   6
ENDBRANCH   4   5
ENDBRANCH   3   4
ENDBRANCH   2   3
ENDBRANCH   1   2
BRANCH   1  18
ATOM     18  C   UNL     1      44.513  33.447  49.525  1.00  0.00     0.000 C 
BRANCH  18  19
ATOM     19  C   UNL     1      43.955  32.517  48.431  1.00  0.00     0.000 C 
BRANCH  19  20
ATOM     20  C   UNL     1      44.576  32.716  47.034  1.00  0.00     0.000 C 
BRANCH  20  21
ATOM     21  C   UNL     1      46.044  32.265  46.891  1.00  0.00     0.000 C 
BRANCH  21  22
ATOM     22  C   UNL     1      46.247  30.907  46.191  1.00  0.00     0.000 C 
BRANCH  22  23
ATOM     23  C   UNL     1      46.425  29.743  47.180  1.00  0.00     0.000 C 
BRANCH  23  24
ATOM     24  C   UNL     1      45.123  28.962  47.426  1.00  0.00    -0.000 C 
BRANCH  24  25
ATOM     25  C   UNL     1      44.892  28.568  48.903  1.00  0.00    -0.000 C 
BRANCH  25  26
ATOM     26  C   UNL     1      45.484  29.554  49.935  1.00  0.00    -0.000 C 
BRANCH  26  27
ATOM     27  C   UNL     1      46.733  29.058  50.692  1.00  0.00    -0.000 C 
BRANCH  27  28
ATOM     28  C   UNL     1      47.934  30.023  50.699  1.00  0.00    -0.000 C 
BRANCH  28  29
ATOM     29  C   UNL     1      47.559  31.494  50.413  1.00  0.00    -0.000 C 
BRANCH  29  30
ATOM     30  C   UNL     1      48.600  32.214  49.544  1.00  0.00    -0.000 C 
BRANCH  30  31
ATOM     31  C   UNL     1      48.233  33.692  49.359  1.00  0.00    -0.003 C 
ATOM     32  C   UNL     1      49.411  34.601  49.701  1.00  0.00     0.004 C 
ENDBRANCH  30  31
ENDBRANCH  29  30
ENDBRANCH  28  29
ENDBRANCH  27  28
ENDBRANCH  26  27
ENDBRANCH  25  26
ENDBRANCH  24  25
ENDBRANCH  23  24
ENDBRANCH  22  23
ENDBRANCH  21  22
ENDBRANCH  20  21
ENDBRANCH  19  20
ENDBRANCH  18  19
ENDBRANCH   1  18
TORSDOF 28
ENDMDL
MODEL 9
REMARK VINA RESULT:    -3.002      1.380      2.989
REMARK INTER + INTRA:         -13.239
REMARK INTER:                  -7.909
REMARK INTRA:                  -5.330
REMARK UNBOUND:                -5.323
REMARK SMILES CCCCCCCCCCCCCCCCCCCCCCCCCCCCCC(=O)[O-]
REMARK SMILES IDX 16 1 17 2 18 3 19 4 20 5 21 6 22 7 23 8 24 9 25 10 26 11
REMARK SMILES IDX 27 12 28 13 29 14 30 15 31 16 32 17 15 18 14 19 13 20 12 21
REMARK SMILES IDX 11 22 10 23 9 24 8 25 7 26 6 27 5 28 4 29 3 30 2 31 1 32
REMARK H PARENT
REMARK Flexibility Score: inf
ROOT
ATOM      1  C   UNL     1      44.075  34.415  49.752  1.00  0.00     0.000 C 
ENDROOT
BRANCH   1   2
ATOM      2  C   UNL     1      42.771  35.217  49.899  1.00  0.00     0.000 C 
BRANCH   2   3
ATOM      3  C   UNL     1      41.716  34.835  48.845  1.00  0.00     0.000 C 
BRANCH   3   4
ATOM      4  C   UNL     1      41.741  35.757  47.613  1.00  0.00     0.000 C 
BRANCH   4   5
ATOM      5  C   UNL     1      42.624  35.263  46.450  1.00  0.00     0.000 C 
BRANCH   5   6
ATOM      6  C   UNL     1      43.717  36.248  45.989  1.00  0.00     0.000 C 
BRANCH   6   7
ATOM      7  C   UNL     1      44.809  36.539  47.033  1.00  0.00     0.000 C 
BRANCH   7   8
ATOM      8  C   UNL     1      44.935  38.036  47.363  1.00  0.00     0.000 C 
BRANCH   8   9
ATOM      9  C   UNL     1      43.792  38.546  48.257  1.00  0.00     0.000 C 
BRANCH   9  10
ATOM     10  C   UNL     1      44.304  39.301  49.497  1.00  0.00     0.000 C 
BRANCH  10  11
ATOM     11  C   UNL     1      44.640  38.355  50.662  1.00  0.00     0.000 C 
BRANCH  11  12
ATOM     12  C   UNL     1      45.016  39.105  51.948  1.00  0.00     0.000 C 
BRANCH  12  13
ATOM     13  C   UNL     1      43.788  39.784  52.565  1.00  0.00     0.006 C 
BRANCH  13  14
ATOM     14  C   UNL     1      43.949  41.306  52.590  1.00  0.00     0.053 C 
BRANCH  14  15
ATOM     15  C   UNL     1      44.211  41.780  53.985  1.00  0.00     0.041 C 
ATOM     16  O   UNL     1      45.321  41.552  54.534  1.00  0.00    -0.550 OA
ATOM     17  O   UNL     1      43.251  42.526  54.656  1.00  0.00    -0.550 OA
ENDBRANCH  14  15
ENDBRANCH  13  14
ENDBRANCH  12  13
ENDBRANCH  11  12
ENDBRANCH  10  11
ENDBRANCH   9  10
ENDBRANCH   8   9
ENDBRANCH   7   8
ENDBRANCH   6   7
ENDBRANCH   5   6
ENDBRANCH   4   5
ENDBRANCH   3   4
ENDBRANCH   2   3
ENDBRANCH   1   2
BRANCH   1  18
ATOM     18  C   UNL     1      43.892  32.959  49.279  1.00  0.00     0.000 C 
BRANCH  18  19
ATOM     19  C   UNL     1      45.036  32.004  49.669  1.00  0.00     0.000 C 
BRANCH  19  20
ATOM     20  C   UNL     1      45.113  30.711  48.832  1.00  0.00     0.000 C 
BRANCH  20  21
ATOM     21  C   UNL     1      46.354  29.830  49.087  1.00  0.00     0.000 C 
BRANCH  21  22
ATOM     22  C   UNL     1      47.030  30.032  50.457  1.00  0.00     0.000 C 
BRANCH  22  23
ATOM     23  C   UNL     1      48.484  30.519  50.343  1.00  0.00     0.000 C 
BRANCH  23  24
ATOM     24  C   UNL     1      48.688  31.933  50.913  1.00  0.00    -0.000 C 
BRANCH  24  25
ATOM     25  C   UNL     1      49.128  32.980  49.865  1.00  0.00    -0.000 C 
BRANCH  25  26
ATOM     26  C   UNL     1      48.008  33.937  49.398  1.00  0.00    -0.000 C 
BRANCH  26  27
ATOM     27  C   UNL     1      47.679  33.898  47.892  1.00  0.00    -0.000 C 
BRANCH  27  28
ATOM     28  C   UNL     1      48.024  32.582  47.168  1.00  0.00    -0.000 C 
BRANCH  28  29
ATOM     29  C   UNL     1      47.058  32.228  46.017  1.00  0.00    -0.000 C 
BRANCH  29  30
ATOM     30  C   UNL     1      45.784  33.087  46.026  1.00  0.00    -0.000 C 
BRANCH  30  31
ATOM     31  C   UNL     1      44.577  32.282  45.529  1.00  0.00    -0.003 C 
ATOM     32  C   UNL     1      44.983  30.866  45.129  1.00  0.00     0.004 C 
ENDBRANCH  30  31
ENDBRANCH  29  30
ENDBRANCH  28  29
ENDBRANCH  27  28
ENDBRANCH  26  27
ENDBRANCH  25  26
ENDBRANCH  24  25
ENDBRANCH  23  24
ENDBRANCH  22  23
ENDBRANCH  21  22
ENDBRANCH  20  21
ENDBRANCH  19  20
ENDBRANCH  18  19
ENDBRANCH   1  18
TORSDOF 28
ENDMDL
