MODEL 1
REMARK VINA RESULT:    -5.830      0.000      0.000
REMARK INTER + INTRA:          -6.439
REMARK INTER:                  -6.171
REMARK INTRA:                  -0.268
REMARK UNBOUND:                -0.268
REMARK SMILES CC1=C[C@@H]2C(=C(C)CC[C@@H]2C(C)C)CC1
REMARK SMILES IDX 1 1 2 2 3 3 4 4 10 5 9 6 8 7 6 8 5 9 14 10 15 11 7 12 11 13
REMARK SMILES IDX 12 14 13 15
REMARK H PARENT
REMARK Flexibility Score: inf
ROOT
ATOM      1  C   UNL     1      10.039  10.061  30.733  1.00  0.00     0.039 C 
ATOM      2  C   UNL     1       9.782   8.806  29.944  1.00  0.00    -0.076 C 
ATOM      3  C   UNL     1      10.214   8.739  28.660  1.00  0.00    -0.020 C 
ATOM      4  C   UNL     1       9.933   7.537  27.768  1.00  0.00     0.041 C 
ATOM      5  C   UNL     1      10.947   7.343  26.599  1.00  0.00     0.003 C 
ATOM      6  C   UNL     1      12.246   6.747  27.171  1.00  0.00     0.009 C 
ATOM      7  C   UNL     1      11.965   5.369  27.774  1.00  0.00     0.031 C 
ATOM      8  C   UNL     1      10.796   5.370  28.738  1.00  0.00    -0.073 C 
ATOM      9  C   UNL     1       9.814   6.313  28.658  1.00  0.00    -0.064 C 
ATOM     10  C   UNL     1       8.749   6.472  29.717  1.00  0.00     0.036 C 
ATOM     11  C   UNL     1       9.167   7.609  30.660  1.00  0.00     0.035 C 
ATOM     12  C   UNL     1      10.720   4.236  29.732  1.00  0.00     0.039 C 
ENDROOT
BRANCH   5  13
ATOM     13  C   UNL     1      11.200   8.620  25.726  1.00  0.00    -0.013 C 
ATOM     14  C   UNL     1      12.699   8.810  25.418  1.00  0.00     0.007 C 
ATOM     15  C   UNL     1      10.435   8.563  24.390  1.00  0.00     0.007 C 
ENDBRANCH   5  13
TORSDOF 1
ENDMDL
MODEL 2
REMARK VINA RESULT:    -5.744     10.344     13.732
REMARK INTER + INTRA:          -6.349
REMARK INTER:                  -6.075
REMARK INTRA:                  -0.274
REMARK UNBOUND:                -0.268
REMARK SMILES CC1=C[C@@H]2C(=C(C)CC[C@@H]2C(C)C)CC1
REMARK SMILES IDX 1 1 2 2 3 3 4 4 10 5 9 6 8 7 6 8 5 9 14 10 15 11 7 12 11 13
REMARK SMILES IDX 12 14 13 15
REMARK H PARENT
REMARK Flexibility Score: inf
ROOT
ATOM      1  C   UNL     1       6.746   7.413  19.268  1.00  0.00     0.039 C 
ATOM      2  C   UNL     1       6.142   8.065  18.054  1.00  0.00    -0.076 C 
ATOM      3  C   UNL     1       6.586   7.703  16.826  1.00  0.00    -0.020 C 
ATOM      4  C   UNL     1       6.083   8.364  15.549  1.00  0.00     0.041 C 
ATOM      5  C   UNL     1       6.210   7.486  14.267  1.00  0.00     0.003 C 
ATOM      6  C   UNL     1       5.092   6.428  14.285  1.00  0.00     0.009 C 
ATOM      7  C   UNL     1       3.726   7.115  14.242  1.00  0.00     0.031 C 
ATOM      8  C   UNL     1       3.576   8.205  15.283  1.00  0.00    -0.073 C 
ATOM      9  C   UNL     1       4.665   8.843  15.800  1.00  0.00    -0.064 C 
ATOM     10  C   UNL     1       4.574   9.783  16.979  1.00  0.00     0.036 C 
ATOM     11  C   UNL     1       4.962   9.011  18.248  1.00  0.00     0.035 C 
ATOM     12  C   UNL     1       2.171   8.613  15.658  1.00  0.00     0.039 C 
ENDROOT
BRANCH   5  13
ATOM     13  C   UNL     1       7.629   6.862  14.032  1.00  0.00    -0.013 C 
ATOM     14  C   UNL     1       7.560   5.328  13.893  1.00  0.00     0.007 C 
ATOM     15  C   UNL     1       8.306   7.433  12.771  1.00  0.00     0.007 C 
ENDBRANCH   5  13
TORSDOF 1
ENDMDL
MODEL 3
REMARK VINA RESULT:    -5.678      2.038      5.557
REMARK INTER + INTRA:          -6.278
REMARK INTER:                  -6.010
REMARK INTRA:                  -0.269
REMARK UNBOUND:                -0.268
REMARK SMILES CC1=C[C@@H]2C(=C(C)CC[C@@H]2C(C)C)CC1
REMARK SMILES IDX 1 1 2 2 3 3 4 4 10 5 9 6 8 7 6 8 5 9 14 10 15 11 7 12 11 13
REMARK SMILES IDX 12 14 13 15
REMARK H PARENT
REMARK Flexibility Score: inf
ROOT
ATOM      1  C   UNL     1      11.305   6.745  21.877  1.00  0.00     0.039 C 
ATOM      2  C   UNL     1      11.794   7.377  23.152  1.00  0.00    -0.076 C 
ATOM      3  C   UNL     1      11.258   6.975  24.331  1.00  0.00    -0.020 C 
ATOM      4  C   UNL     1      11.641   7.613  25.660  1.00  0.00     0.041 C 
ATOM      5  C   UNL     1      11.426   6.700  26.906  1.00  0.00     0.003 C 
ATOM      6  C   UNL     1      12.564   5.663  26.956  1.00  0.00     0.009 C 
ATOM      7  C   UNL     1      13.908   6.374  27.128  1.00  0.00     0.031 C 
ATOM      8  C   UNL     1      14.121   7.492  26.129  1.00  0.00    -0.073 C 
ATOM      9  C   UNL     1      13.065   8.124  25.539  1.00  0.00    -0.064 C 
ATOM     10  C   UNL     1      13.233   9.095  24.394  1.00  0.00     0.036 C 
ATOM     11  C   UNL     1      12.966   8.348  23.080  1.00  0.00     0.035 C 
ATOM     12  C   UNL     1      15.542   7.935  25.880  1.00  0.00     0.039 C 
ENDROOT
BRANCH   5  13
ATOM     13  C   UNL     1      10.006   6.044  27.008  1.00  0.00    -0.013 C 
ATOM     14  C   UNL     1      10.094   4.552  27.387  1.00  0.00     0.007 C 
ATOM     15  C   UNL     1       9.118   6.757  28.046  1.00  0.00     0.007 C 
ENDBRANCH   5  13
TORSDOF 1
ENDMDL
MODEL 4
REMARK VINA RESULT:    -5.554      3.094      5.785
REMARK INTER + INTRA:          -6.148
REMARK INTER:                  -5.872
REMARK INTRA:                  -0.276
REMARK UNBOUND:                -0.268
REMARK SMILES CC1=C[C@@H]2C(=C(C)CC[C@@H]2C(C)C)CC1
REMARK SMILES IDX 1 1 2 2 3 3 4 4 10 5 9 6 8 7 6 8 5 9 14 10 15 11 7 12 11 13
REMARK SMILES IDX 12 14 13 15
REMARK H PARENT
REMARK Flexibility Score: inf
ROOT
ATOM      1  C   UNL     1      13.488   5.499  27.739  1.00  0.00     0.039 C 
ATOM      2  C   UNL     1      13.271   6.714  26.878  1.00  0.00    -0.076 C 
ATOM      3  C   UNL     1      14.344   7.307  26.300  1.00  0.00    -0.020 C 
ATOM      4  C   UNL     1      14.224   8.581  25.474  1.00  0.00     0.041 C 
ATOM      5  C   UNL     1      15.364   8.791  24.431  1.00  0.00     0.003 C 
ATOM      6  C   UNL     1      15.105   7.863  23.230  1.00  0.00     0.009 C 
ATOM      7  C   UNL     1      13.784   8.241  22.556  1.00  0.00     0.031 C 
ATOM      8  C   UNL     1      12.629   8.345  23.530  1.00  0.00    -0.073 C 
ATOM      9  C   UNL     1      12.840   8.605  24.852  1.00  0.00    -0.064 C 
ATOM     10  C   UNL     1      11.742   8.514  25.886  1.00  0.00     0.036 C 
ATOM     11  C   UNL     1      11.841   7.149  26.581  1.00  0.00     0.035 C 
ATOM     12  C   UNL     1      11.235   8.236  22.962  1.00  0.00     0.039 C 
ENDROOT
BRANCH   5  13
ATOM     13  C   UNL     1      16.817   8.649  25.002  1.00  0.00    -0.013 C 
ATOM     14  C   UNL     1      17.575   7.477  24.346  1.00  0.00     0.007 C 
ATOM     15  C   UNL     1      17.642   9.934  24.798  1.00  0.00     0.007 C 
ENDBRANCH   5  13
TORSDOF 1
ENDMDL
MODEL 5
REMARK VINA RESULT:    -5.383      2.673      6.716
REMARK INTER + INTRA:          -5.966
REMARK INTER:                  -5.699
REMARK INTRA:                  -0.267
REMARK UNBOUND:                -0.268
REMARK SMILES CC1=C[C@@H]2C(=C(C)CC[C@@H]2C(C)C)CC1
REMARK SMILES IDX 1 1 2 2 3 3 4 4 10 5 9 6 8 7 6 8 5 9 14 10 15 11 7 12 11 13
REMARK SMILES IDX 12 14 13 15
REMARK H PARENT
REMARK Flexibility Score: inf
ROOT
ATOM      1  C   UNL     1      12.372   7.179  20.952  1.00  0.00     0.039 C 
ATOM      2  C   UNL     1      12.864   8.055  22.072  1.00  0.00    -0.076 C 
ATOM      3  C   UNL     1      12.503   7.757  23.345  1.00  0.00    -0.020 C 
ATOM      4  C   UNL     1      12.895   8.631  24.529  1.00  0.00     0.041 C 
ATOM      5  C   UNL     1      12.935   7.889  25.900  1.00  0.00     0.003 C 
ATOM      6  C   UNL     1      14.222   7.045  25.962  1.00  0.00     0.009 C 
ATOM      7  C   UNL     1      15.447   7.959  25.893  1.00  0.00     0.031 C 
ATOM      8  C   UNL     1      15.393   8.938  24.739  1.00  0.00    -0.073 C 
ATOM      9  C   UNL     1      14.205   9.318  24.188  1.00  0.00    -0.064 C 
ATOM     10  C   UNL     1      14.118  10.125  22.914  1.00  0.00     0.036 C 
ATOM     11  C   UNL     1      13.858   9.163  21.746  1.00  0.00     0.035 C 
ATOM     12  C   UNL     1      16.701   9.539  24.282  1.00  0.00     0.039 C 
ENDROOT
BRANCH   5  13
ATOM     13  C   UNL     1      11.650   7.058  26.240  1.00  0.00    -0.013 C 
ATOM     14  C   UNL     1      12.002   5.711  26.902  1.00  0.00     0.007 C 
ATOM     15  C   UNL     1      10.702   7.826  27.181  1.00  0.00     0.007 C 
ENDBRANCH   5  13
TORSDOF 1
ENDMDL
MODEL 6
REMARK VINA RESULT:    -5.178     10.505     13.974
REMARK INTER + INTRA:          -5.749
REMARK INTER:                  -5.485
REMARK INTRA:                  -0.264
REMARK UNBOUND:                -0.268
REMARK SMILES CC1=C[C@@H]2C(=C(C)CC[C@@H]2C(C)C)CC1
REMARK SMILES IDX 1 1 2 2 3 3 4 4 10 5 9 6 8 7 6 8 5 9 14 10 15 11 7 12 11 13
REMARK SMILES IDX 12 14 13 15
REMARK H PARENT
REMARK Flexibility Score: inf
ROOT
ATOM      1  C   UNL     1       4.346   6.915  14.139  1.00  0.00     0.039 C 
ATOM      2  C   UNL     1       4.328   8.005  15.177  1.00  0.00    -0.076 C 
ATOM      3  C   UNL     1       3.165   8.281  15.817  1.00  0.00    -0.020 C 
ATOM      4  C   UNL     1       3.039   9.415  16.826  1.00  0.00     0.041 C 
ATOM      5  C   UNL     1       1.892   9.236  17.867  1.00  0.00     0.003 C 
ATOM      6  C   UNL     1       2.342   8.207  18.920  1.00  0.00     0.009 C 
ATOM      7  C   UNL     1       3.569   8.733  19.668  1.00  0.00     0.031 C 
ATOM      8  C   UNL     1       4.670   9.207  18.744  1.00  0.00    -0.073 C 
ATOM      9  C   UNL     1       4.398   9.617  17.472  1.00  0.00    -0.064 C 
ATOM     10  C   UNL     1       5.481   9.900  16.458  1.00  0.00     0.036 C 
ATOM     11  C   UNL     1       5.647   8.663  15.564  1.00  0.00     0.035 C 
ATOM     12  C   UNL     1       6.065   9.290  19.316  1.00  0.00     0.039 C 
ENDROOT
BRANCH   5  13
ATOM     13  C   UNL     1       0.489   8.899  17.253  1.00  0.00    -0.013 C 
ATOM     14  C   UNL     1      -0.488   8.372  18.322  1.00  0.00     0.007 C 
ATOM     15  C   UNL     1      -0.150  10.125  16.573  1.00  0.00     0.007 C 
ENDBRANCH   5  13
TORSDOF 1
ENDMDL
MODEL 7
REMARK VINA RESULT:    -5.173      3.218      6.414
REMARK INTER + INTRA:          -5.744
REMARK INTER:                  -5.487
REMARK INTRA:                  -0.257
REMARK UNBOUND:                -0.268
REMARK SMILES CC1=C[C@@H]2C(=C(C)CC[C@@H]2C(C)C)CC1
REMARK SMILES IDX 1 1 2 2 3 3 4 4 10 5 9 6 8 7 6 8 5 9 14 10 15 11 7 12 11 13
REMARK SMILES IDX 12 14 13 15
REMARK H PARENT
REMARK Flexibility Score: inf
ROOT
ATOM      1  C   UNL     1      11.312   7.806  26.441  1.00  0.00     0.039 C 
ATOM      2  C   UNL     1      12.488   7.687  25.509  1.00  0.00    -0.076 C 
ATOM      3  C   UNL     1      12.291   7.860  24.179  1.00  0.00    -0.020 C 
ATOM      4  C   UNL     1      13.409   7.685  23.160  1.00  0.00     0.041 C 
ATOM      5  C   UNL     1      13.201   8.464  21.825  1.00  0.00     0.003 C 
ATOM      6  C   UNL     1      13.516   9.951  22.072  1.00  0.00     0.009 C 
ATOM      7  C   UNL     1      14.982  10.111  22.479  1.00  0.00     0.031 C 
ATOM      8  C   UNL     1      15.390   9.187  23.607  1.00  0.00    -0.073 C 
ATOM      9  C   UNL     1      14.721   8.022  23.845  1.00  0.00    -0.064 C 
ATOM     10  C   UNL     1      14.962   7.181  25.075  1.00  0.00     0.036 C 
ATOM     11  C   UNL     1      13.877   7.511  26.110  1.00  0.00     0.035 C 
ATOM     12  C   UNL     1      16.617   9.566  24.402  1.00  0.00     0.039 C 
ENDROOT
BRANCH   5  13
ATOM     13  C   UNL     1      11.806   8.247  21.143  1.00  0.00    -0.013 C 
ATOM     14  C   UNL     1      11.614   9.178  19.930  1.00  0.00     0.007 C 
ATOM     15  C   UNL     1      11.618   6.792  20.672  1.00  0.00     0.007 C 
ENDBRANCH   5  13
TORSDOF 1
ENDMDL
MODEL 8
REMARK VINA RESULT:    -5.171      8.898     12.169
REMARK INTER + INTRA:          -5.742
REMARK INTER:                  -5.474
REMARK INTRA:                  -0.268
REMARK UNBOUND:                -0.268
REMARK SMILES CC1=C[C@@H]2C(=C(C)CC[C@@H]2C(C)C)CC1
REMARK SMILES IDX 1 1 2 2 3 3 4 4 10 5 9 6 8 7 6 8 5 9 14 10 15 11 7 12 11 13
REMARK SMILES IDX 12 14 13 15
REMARK H PARENT
REMARK Flexibility Score: inf
ROOT
ATOM      1  C   UNL     1       0.184   7.876  18.752  1.00  0.00     0.039 C 
ATOM      2  C   UNL     1       1.480   8.598  18.500  1.00  0.00    -0.076 C 
ATOM      3  C   UNL     1       2.449   8.557  19.448  1.00  0.00    -0.020 C 
ATOM      4  C   UNL     1       3.760   9.319  19.307  1.00  0.00     0.041 C 
ATOM      5  C   UNL     1       4.948   8.727  20.125  1.00  0.00     0.003 C 
ATOM      6  C   UNL     1       5.473   7.478  19.393  1.00  0.00     0.009 C 
ATOM      7  C   UNL     1       6.009   7.871  18.015  1.00  0.00     0.031 C 
ATOM      8  C   UNL     1       5.032   8.705  17.213  1.00  0.00    -0.073 C 
ATOM      9  C   UNL     1       4.067   9.448  17.826  1.00  0.00    -0.064 C 
ATOM     10  C   UNL     1       2.952  10.125  17.063  1.00  0.00     0.036 C 
ATOM     11  C   UNL     1       1.704   9.234  17.134  1.00  0.00     0.035 C 
ATOM     12  C   UNL     1       5.225   8.746  15.716  1.00  0.00     0.039 C 
ENDROOT
BRANCH   5  13
ATOM     13  C   UNL     1       4.639   8.456  21.638  1.00  0.00    -0.013 C 
ATOM     14  C   UNL     1       5.221   7.107  22.105  1.00  0.00     0.007 C 
ATOM     15  C   UNL     1       5.199   9.566  22.547  1.00  0.00     0.007 C 
ENDBRANCH   5  13
TORSDOF 1
ENDMDL
MODEL 9
REMARK VINA RESULT:    -4.998      9.223     12.930
REMARK INTER + INTRA:          -5.559
REMARK INTER:                  -5.283
REMARK INTRA:                  -0.276
REMARK UNBOUND:                -0.268
REMARK SMILES CC1=C[C@@H]2C(=C(C)CC[C@@H]2C(C)C)CC1
REMARK SMILES IDX 1 1 2 2 3 3 4 4 10 5 9 6 8 7 6 8 5 9 14 10 15 11 7 12 11 13
REMARK SMILES IDX 12 14 13 15
REMARK H PARENT
REMARK Flexibility Score: inf
ROOT
ATOM      1  C   UNL     1       7.533   7.688  14.812  1.00  0.00     0.039 C 
ATOM      2  C   UNL     1       6.233   7.417  15.520  1.00  0.00    -0.076 C 
ATOM      3  C   UNL     1       6.204   7.452  16.875  1.00  0.00    -0.020 C 
ATOM      4  C   UNL     1       4.950   7.118  17.672  1.00  0.00     0.041 C 
ATOM      5  C   UNL     1       4.894   7.756  19.095  1.00  0.00     0.003 C 
ATOM      6  C   UNL     1       4.533   9.246  18.949  1.00  0.00     0.009 C 
ATOM      7  C   UNL     1       3.143   9.385  18.324  1.00  0.00     0.031 C 
ATOM      8  C   UNL     1       2.978   8.573  17.057  1.00  0.00    -0.073 C 
ATOM      9  C   UNL     1       3.746   7.471  16.818  1.00  0.00    -0.064 C 
ATOM     10  C   UNL     1       3.757   6.758  15.486  1.00  0.00     0.036 C 
ATOM     11  C   UNL     1       4.970   7.246  14.683  1.00  0.00     0.035 C 
ATOM     12  C   UNL     1       1.873   8.982  16.113  1.00  0.00     0.039 C 
ENDROOT
BRANCH   5  13
ATOM     13  C   UNL     1       6.173   7.527  19.972  1.00  0.00    -0.013 C 
ATOM     14  C   UNL     1       6.875   8.856  20.313  1.00  0.00     0.007 C 
ATOM     15  C   UNL     1       5.841   6.802  21.291  1.00  0.00     0.007 C 
ENDBRANCH   5  13
TORSDOF 1
ENDMDL
