MODEL 1
REMARK VINA RESULT:     9.914      0.000      0.000
REMARK INTER + INTRA:          14.122
REMARK INTER:                  15.130
REMARK INTRA:                  -1.007
REMARK UNBOUND:                -1.007
REMARK SMILES CC(=O)CCC=C(C)CCC=C(C)CCC=C(C)C
REMARK SMILES IDX 10 1 11 2 12 3 13 4 14 5 15 6 16 7 18 8 17 9 19 10 9 11 7 12
REMARK SMILES IDX 6 13 8 14 5 15 4 16 2 17 3 18 1 19
REMARK H PARENT
REMARK Flexibility Score: inf
ROOT
ATOM      1  C   UNL     1      34.896  16.574  44.032  1.00  0.00     0.032 C 
ENDROOT
BRANCH   1   2
ATOM      2  C   UNL     1      34.718  15.251  43.323  1.00  0.00    -0.028 C 
ATOM      3  C   UNL     1      35.677  14.304  43.210  1.00  0.00    -0.077 C 
ATOM      4  C   UNL     1      37.077  14.518  43.737  1.00  0.00     0.039 C 
BRANCH   3   5
ATOM      5  C   UNL     1      35.334  12.994  42.534  1.00  0.00     0.034 C 
BRANCH   5   6
ATOM      6  C   UNL     1      34.573  13.235  41.227  1.00  0.00     0.032 C 
BRANCH   6   7
ATOM      7  C   UNL     1      34.377  11.942  40.476  1.00  0.00    -0.028 C 
ATOM      8  C   UNL     1      33.387   9.751  39.964  1.00  0.00     0.039 C 
ATOM      9  C   UNL     1      33.439  11.018  40.780  1.00  0.00    -0.080 C 
ATOM     10  C   UNL     1      32.439  11.228  41.894  1.00  0.00     0.039 C 
ENDBRANCH   6   7
ENDBRANCH   5   6
ENDBRANCH   3   5
ENDBRANCH   1   2
BRANCH   1  11
ATOM     11  C   UNL     1      35.002  17.738  43.037  1.00  0.00     0.034 C 
BRANCH  11  12
ATOM     12  C   UNL     1      33.871  17.725  42.030  1.00  0.00    -0.077 C 
ATOM     13  C   UNL     1      34.147  17.447  40.735  1.00  0.00    -0.028 C 
ATOM     14  C   UNL     1      32.467  18.017  42.502  1.00  0.00     0.039 C 
BRANCH  13  15
ATOM     15  C   UNL     1      33.129  17.435  39.618  1.00  0.00     0.035 C 
BRANCH  15  16
ATOM     16  C   UNL     1      33.038  18.798  38.924  1.00  0.00     0.079 C 
BRANCH  16  17
ATOM     17  C   UNL     1      31.805  18.910  38.066  1.00  0.00     0.130 C 
ATOM     18  O   UNL     1      31.274  19.998  37.905  1.00  0.00    -0.300 OA
ATOM     19  C   UNL     1      31.242  17.700  37.386  1.00  0.00     0.087 C 
ENDBRANCH  16  17
ENDBRANCH  15  16
ENDBRANCH  13  15
ENDBRANCH  11  12
ENDBRANCH   1  11
TORSDOF 9
ENDMDL
MODEL 2
REMARK VINA RESULT:    10.084      2.366      6.576
REMARK INTER + INTRA:          14.383
REMARK INTER:                  14.983
REMARK INTRA:                  -0.600
REMARK UNBOUND:                -1.007
REMARK SMILES CC(=O)CCC=C(C)CCC=C(C)CCC=C(C)C
REMARK SMILES IDX 10 1 11 2 12 3 13 4 14 5 15 6 16 7 18 8 17 9 19 10 9 11 7 12
REMARK SMILES IDX 6 13 8 14 5 15 4 16 2 17 3 18 1 19
REMARK H PARENT
REMARK Flexibility Score: inf
ROOT
ATOM      1  C   UNL     1      33.990  16.220  43.736  1.00  0.00     0.032 C 
ENDROOT
BRANCH   1   2
ATOM      2  C   UNL     1      34.373  16.771  42.382  1.00  0.00    -0.028 C 
ATOM      3  C   UNL     1      33.740  17.790  41.759  1.00  0.00    -0.077 C 
ATOM      4  C   UNL     1      32.511  18.445  42.347  1.00  0.00     0.039 C 
BRANCH   3   5
ATOM      5  C   UNL     1      34.279  18.286  40.435  1.00  0.00     0.034 C 
BRANCH   5   6
ATOM      6  C   UNL     1      33.415  17.790  39.271  1.00  0.00     0.032 C 
BRANCH   6   7
ATOM      7  C   UNL     1      32.554  18.905  38.732  1.00  0.00    -0.028 C 
ATOM      8  C   UNL     1      30.789  19.946  37.375  1.00  0.00     0.039 C 
ATOM      9  C   UNL     1      31.539  18.731  37.857  1.00  0.00    -0.080 C 
ATOM     10  C   UNL     1      31.130  17.360  37.369  1.00  0.00     0.039 C 
ENDBRANCH   6   7
ENDBRANCH   5   6
ENDBRANCH   3   5
ENDBRANCH   1   2
BRANCH   1  11
ATOM     11  C   UNL     1      35.127  15.392  44.352  1.00  0.00     0.034 C 
BRANCH  11  12
ATOM     12  C   UNL     1      35.643  14.339  43.393  1.00  0.00    -0.077 C 
ATOM     13  C   UNL     1      34.764  13.687  42.598  1.00  0.00    -0.028 C 
ATOM     14  C   UNL     1      37.125  14.053  43.349  1.00  0.00     0.039 C 
BRANCH  13  15
ATOM     15  C   UNL     1      35.129  12.591  41.624  1.00  0.00     0.035 C 
BRANCH  15  16
ATOM     16  C   UNL     1      34.012  12.347  40.604  1.00  0.00     0.079 C 
BRANCH  16  17
ATOM     17  C   UNL     1      33.243  11.087  40.904  1.00  0.00     0.130 C 
ATOM     18  O   UNL     1      32.393  11.089  41.781  1.00  0.00    -0.300 OA
ATOM     19  C   UNL     1      33.493   9.839  40.115  1.00  0.00     0.087 C 
ENDBRANCH  16  17
ENDBRANCH  15  16
ENDBRANCH  13  15
ENDBRANCH  11  12
ENDBRANCH   1  11
TORSDOF 9
ENDMDL
