MODEL 1
REMARK VINA RESULT:    -2.635      0.000      0.000
REMARK INTER + INTRA:          -3.199
REMARK INTER:                  -3.098
REMARK INTRA:                  -0.101
REMARK UNBOUND:                -0.101
REMARK SMILES O=C([O-])CCC(=O)[O-]
REMARK SMILES IDX 4 1 2 2 1 3 3 4 5 5 6 6 7 7 8 8
REMARK H PARENT
REMARK Flexibility Score: inf
ROOT
ATOM      1  C   UNL     1      57.590  18.366  51.381  1.00  0.00     0.059 C 
ENDROOT
BRANCH   1   2
ATOM      2  C   UNL     1      56.149  18.776  51.344  1.00  0.00     0.042 C 
ATOM      3  O   UNL     1      55.529  18.814  50.249  1.00  0.00    -0.550 OA
ATOM      4  O   UNL     1      55.505  19.157  52.514  1.00  0.00    -0.550 OA
ENDBRANCH   1   2
BRANCH   1   5
ATOM      5  C   UNL     1      57.875  17.223  50.401  1.00  0.00     0.059 C 
BRANCH   5   6
ATOM      6  C   UNL     1      58.721  17.679  49.252  1.00  0.00     0.042 C 
ATOM      7  O   UNL     1      58.986  16.889  48.308  1.00  0.00    -0.550 OA
ATOM      8  O   UNL     1      59.183  18.988  49.204  1.00  0.00    -0.550 OA
ENDBRANCH   5   6
ENDBRANCH   1   5
TORSDOF 3
ENDMDL
MODEL 2
REMARK VINA RESULT:    -2.606     17.674     18.707
REMARK INTER + INTRA:          -3.164
REMARK INTER:                  -3.037
REMARK INTRA:                  -0.127
REMARK UNBOUND:                -0.101
REMARK SMILES O=C([O-])CCC(=O)[O-]
REMARK SMILES IDX 4 1 2 2 1 3 3 4 5 5 6 6 7 7 8 8
REMARK H PARENT
REMARK Flexibility Score: inf
ROOT
ATOM      1  C   UNL     1      61.964  31.863  60.459  1.00  0.00     0.059 C 
ENDROOT
BRANCH   1   2
ATOM      2  C   UNL     1      61.624  31.020  61.649  1.00  0.00     0.042 C 
ATOM      3  O   UNL     1      60.534  31.189  62.256  1.00  0.00    -0.550 OA
ATOM      4  O   UNL     1      62.530  30.073  62.111  1.00  0.00    -0.550 OA
ENDBRANCH   1   2
BRANCH   1   5
ATOM      5  C   UNL     1      62.424  33.265  60.875  1.00  0.00     0.059 C 
BRANCH   5   6
ATOM      6  C   UNL     1      63.911  33.330  61.049  1.00  0.00     0.042 C 
ATOM      7  O   UNL     1      64.431  34.266  61.711  1.00  0.00    -0.550 OA
ATOM      8  O   UNL     1      64.719  32.333  60.516  1.00  0.00    -0.550 OA
ENDBRANCH   5   6
ENDBRANCH   1   5
TORSDOF 3
ENDMDL
MODEL 3
REMARK VINA RESULT:    -2.574     17.681     18.845
REMARK INTER + INTRA:          -3.126
REMARK INTER:                  -3.009
REMARK INTRA:                  -0.117
REMARK UNBOUND:                -0.101
REMARK SMILES O=C([O-])CCC(=O)[O-]
REMARK SMILES IDX 4 1 2 2 1 3 3 4 5 5 6 6 7 7 8 8
REMARK H PARENT
REMARK Flexibility Score: inf
ROOT
ATOM      1  C   UNL     1      62.469  33.168  60.888  1.00  0.00     0.059 C 
ENDROOT
BRANCH   1   2
ATOM      2  C   UNL     1      63.951  33.293  61.072  1.00  0.00     0.042 C 
ATOM      3  O   UNL     1      64.721  32.394  60.643  1.00  0.00    -0.550 OA
ATOM      4  O   UNL     1      64.477  34.383  61.754  1.00  0.00    -0.550 OA
ENDBRANCH   1   2
BRANCH   1   5
ATOM      5  C   UNL     1      62.068  31.744  60.489  1.00  0.00     0.059 C 
BRANCH   5   6
ATOM      6  C   UNL     1      61.671  30.927  61.679  1.00  0.00     0.042 C 
ATOM      7  O   UNL     1      62.441  30.034  62.120  1.00  0.00    -0.550 OA
ATOM      8  O   UNL     1      60.468  31.179  62.327  1.00  0.00    -0.550 OA
ENDBRANCH   5   6
ENDBRANCH   1   5
TORSDOF 3
ENDMDL
MODEL 4
REMARK VINA RESULT:    -2.556      0.240      3.910
REMARK INTER + INTRA:          -3.105
REMARK INTER:                  -3.018
REMARK INTRA:                  -0.088
REMARK UNBOUND:                -0.101
REMARK SMILES O=C([O-])CCC(=O)[O-]
REMARK SMILES IDX 4 1 2 2 1 3 3 4 5 5 6 6 7 7 8 8
REMARK H PARENT
REMARK Flexibility Score: inf
ROOT
ATOM      1  C   UNL     1      58.050  17.441  50.712  1.00  0.00     0.059 C 
ENDROOT
BRANCH   1   2
ATOM      2  C   UNL     1      58.716  17.795  49.418  1.00  0.00     0.042 C 
ATOM      3  O   UNL     1      59.218  18.938  49.255  1.00  0.00    -0.550 OA
ATOM      4  O   UNL     1      58.745  16.875  48.377  1.00  0.00    -0.550 OA
ENDBRANCH   1   2
BRANCH   1   5
ATOM      5  C   UNL     1      57.617  18.693  51.484  1.00  0.00     0.059 C 
BRANCH   5   6
ATOM      6  C   UNL     1      56.131  18.874  51.453  1.00  0.00     0.042 C 
ATOM      7  O   UNL     1      55.502  18.764  50.368  1.00  0.00    -0.550 OA
ATOM      8  O   UNL     1      55.435  19.126  52.629  1.00  0.00    -0.550 OA
ENDBRANCH   5   6
ENDBRANCH   1   5
TORSDOF 3
ENDMDL
MODEL 5
REMARK VINA RESULT:    -2.541      8.807      9.793
REMARK INTER + INTRA:          -3.088
REMARK INTER:                  -2.974
REMARK INTRA:                  -0.114
REMARK UNBOUND:                -0.101
REMARK SMILES O=C([O-])CCC(=O)[O-]
REMARK SMILES IDX 4 1 2 2 1 3 3 4 5 5 6 6 7 7 8 8
REMARK H PARENT
REMARK Flexibility Score: inf
ROOT
ATOM      1  C   UNL     1      58.198  28.087  50.669  1.00  0.00     0.059 C 
ENDROOT
BRANCH   1   2
ATOM      2  C   UNL     1      58.977  28.457  49.444  1.00  0.00     0.042 C 
ATOM      3  O   UNL     1      58.736  29.537  48.843  1.00  0.00    -0.550 OA
ATOM      4  O   UNL     1      59.940  27.590  48.944  1.00  0.00    -0.550 OA
ENDBRANCH   1   2
BRANCH   1   5
ATOM      5  C   UNL     1      56.736  27.773  50.334  1.00  0.00     0.059 C 
BRANCH   5   6
ATOM      6  C   UNL     1      56.520  26.305  50.127  1.00  0.00     0.042 C 
ATOM      7  O   UNL     1      57.393  25.478  50.497  1.00  0.00    -0.550 OA
ATOM      8  O   UNL     1      55.335  25.849  49.562  1.00  0.00    -0.550 OA
ENDBRANCH   5   6
ENDBRANCH   1   5
TORSDOF 3
ENDMDL
MODEL 6
REMARK VINA RESULT:    -2.473      9.628     10.362
REMARK INTER + INTRA:          -3.007
REMARK INTER:                  -2.976
REMARK INTRA:                  -0.032
REMARK UNBOUND:                -0.101
REMARK SMILES O=C([O-])CCC(=O)[O-]
REMARK SMILES IDX 4 1 2 2 1 3 3 4 5 5 6 6 7 7 8 8
REMARK H PARENT
REMARK Flexibility Score: inf
ROOT
ATOM      1  C   UNL     1      55.713  28.502  50.433  1.00  0.00     0.059 C 
ENDROOT
BRANCH   1   2
ATOM      2  C   UNL     1      54.732  27.446  50.025  1.00  0.00     0.042 C 
ATOM      3  O   UNL     1      53.506  27.720  49.936  1.00  0.00    -0.550 OA
ATOM      4  O   UNL     1      55.167  26.149  49.783  1.00  0.00    -0.550 OA
ENDBRANCH   1   2
BRANCH   1   5
ATOM      5  C   UNL     1      57.157  27.994  50.343  1.00  0.00     0.059 C 
BRANCH   5   6
ATOM      6  C   UNL     1      58.131  29.123  50.206  1.00  0.00     0.042 C 
ATOM      7  O   UNL     1      58.476  29.789  51.218  1.00  0.00    -0.550 OA
ATOM      8  O   UNL     1      58.691  29.414  48.968  1.00  0.00    -0.550 OA
ENDBRANCH   5   6
ENDBRANCH   1   5
TORSDOF 3
ENDMDL
MODEL 7
REMARK VINA RESULT:    -2.468     18.734     19.775
REMARK INTER + INTRA:          -3.001
REMARK INTER:                  -2.963
REMARK INTRA:                  -0.039
REMARK UNBOUND:                -0.101
REMARK SMILES O=C([O-])CCC(=O)[O-]
REMARK SMILES IDX 4 1 2 2 1 3 3 4 5 5 6 6 7 7 8 8
REMARK H PARENT
REMARK Flexibility Score: inf
ROOT
ATOM      1  C   UNL     1      62.455  33.222  60.796  1.00  0.00     0.059 C 
ENDROOT
BRANCH   1   2
ATOM      2  C   UNL     1      62.079  31.822  61.175  1.00  0.00     0.042 C 
ATOM      3  O   UNL     1      62.923  30.892  61.080  1.00  0.00    -0.550 OA
ATOM      4  O   UNL     1      60.785  31.538  61.593  1.00  0.00    -0.550 OA
ENDBRANCH   1   2
BRANCH   1   5
ATOM      5  C   UNL     1      63.913  33.530  61.153  1.00  0.00     0.059 C 
BRANCH   5   6
ATOM      6  C   UNL     1      64.096  34.966  61.539  1.00  0.00     0.042 C 
ATOM      7  O   UNL     1      65.235  35.395  61.862  1.00  0.00    -0.550 OA
ATOM      8  O   UNL     1      63.016  35.839  61.505  1.00  0.00    -0.550 OA
ENDBRANCH   5   6
ENDBRANCH   1   5
TORSDOF 3
ENDMDL
MODEL 8
REMARK VINA RESULT:    -2.467     17.147     18.302
REMARK INTER + INTRA:          -3.000
REMARK INTER:                  -2.882
REMARK INTRA:                  -0.119
REMARK UNBOUND:                -0.101
REMARK SMILES O=C([O-])CCC(=O)[O-]
REMARK SMILES IDX 4 1 2 2 1 3 3 4 5 5 6 6 7 7 8 8
REMARK H PARENT
REMARK Flexibility Score: inf
ROOT
ATOM      1  C   UNL     1      61.444  31.095  61.741  1.00  0.00     0.059 C 
ENDROOT
BRANCH   1   2
ATOM      2  C   UNL     1      62.434  29.980  61.890  1.00  0.00     0.042 C 
ATOM      3  O   UNL     1      62.036  28.796  62.049  1.00  0.00    -0.550 OA
ATOM      4  O   UNL     1      63.795  30.255  61.893  1.00  0.00    -0.550 OA
ENDBRANCH   1   2
BRANCH   1   5
ATOM      5  C   UNL     1      61.710  31.919  60.477  1.00  0.00     0.059 C 
BRANCH   5   6
ATOM      6  C   UNL     1      62.184  33.301  60.807  1.00  0.00     0.042 C 
ATOM      7  O   UNL     1      61.373  34.264  60.814  1.00  0.00    -0.550 OA
ATOM      8  O   UNL     1      63.513  33.518  61.148  1.00  0.00    -0.550 OA
ENDBRANCH   5   6
ENDBRANCH   1   5
TORSDOF 3
ENDMDL
MODEL 9
REMARK VINA RESULT:    -2.449     17.233     18.312
REMARK INTER + INTRA:          -2.979
REMARK INTER:                  -2.863
REMARK INTRA:                  -0.116
REMARK UNBOUND:                -0.101
REMARK SMILES O=C([O-])CCC(=O)[O-]
REMARK SMILES IDX 4 1 2 2 1 3 3 4 5 5 6 6 7 7 8 8
REMARK H PARENT
REMARK Flexibility Score: inf
ROOT
ATOM      1  C   UNL     1      62.041  32.005  60.433  1.00  0.00     0.059 C 
ENDROOT
BRANCH   1   2
ATOM      2  C   UNL     1      62.571  33.331  60.885  1.00  0.00     0.042 C 
ATOM      3  O   UNL     1      61.816  34.339  60.911  1.00  0.00    -0.550 OA
ATOM      4  O   UNL     1      63.908  33.462  61.237  1.00  0.00    -0.550 OA
ENDBRANCH   1   2
BRANCH   1   5
ATOM      5  C   UNL     1      61.547  31.163  61.615  1.00  0.00     0.059 C 
BRANCH   5   6
ATOM      6  C   UNL     1      62.440  29.989  61.869  1.00  0.00     0.042 C 
ATOM      7  O   UNL     1      61.951  28.836  61.995  1.00  0.00    -0.550 OA
ATOM      8  O   UNL     1      63.818  30.161  61.926  1.00  0.00    -0.550 OA
ENDBRANCH   5   6
ENDBRANCH   1   5
TORSDOF 3
ENDMDL
