MODEL 1
REMARK VINA RESULT:    -5.103      0.000      0.000
REMARK INTER + INTRA:         -13.426
REMARK INTER:                 -11.667
REMARK INTRA:                  -1.758
REMARK UNBOUND:                -1.758
REMARK SMILES CCCCCCCCCCCCCCCCCCCCCCCC(=O)[O-]
REMARK SMILES IDX 13 1 14 2 15 3 16 4 17 5 18 6 19 7 20 8 21 9 22 10 23 11
REMARK SMILES IDX 24 12 25 13 26 14 12 15 11 16 10 17 9 18 8 19 7 20 6 21 5 22
REMARK SMILES IDX 4 23 3 24 2 25 1 26
REMARK H PARENT
REMARK Flexibility Score: inf
ROOT
ATOM      1  C   UNL     1      -3.018  32.198  60.120  1.00  0.00     0.000 C 
ENDROOT
BRANCH   1   2
ATOM      2  C   UNL     1      -3.829  32.237  61.425  1.00  0.00     0.000 C 
BRANCH   2   3
ATOM      3  C   UNL     1      -3.028  32.816  62.605  1.00  0.00     0.000 C 
BRANCH   3   4
ATOM      4  C   UNL     1      -3.052  34.360  62.631  1.00  0.00     0.000 C 
BRANCH   4   5
ATOM      5  C   UNL     1      -1.660  35.011  62.528  1.00  0.00     0.000 C 
BRANCH   5   6
ATOM      6  C   UNL     1      -0.815  34.549  61.330  1.00  0.00     0.000 C 
BRANCH   6   7
ATOM      7  C   UNL     1       0.487  33.848  61.753  1.00  0.00     0.000 C 
BRANCH   7   8
ATOM      8  C   UNL     1       1.057  32.954  60.635  1.00  0.00     0.000 C 
BRANCH   8   9
ATOM      9  C   UNL     1       0.476  31.528  60.615  1.00  0.00     0.000 C 
BRANCH   9  10
ATOM     10  C   UNL     1       1.036  30.631  59.487  1.00  0.00     0.006 C 
BRANCH  10  11
ATOM     11  C   UNL     1       2.451  30.100  59.766  1.00  0.00     0.053 C 
BRANCH  11  12
ATOM     12  C   UNL     1       2.450  28.633  60.078  1.00  0.00     0.041 C 
ATOM     13  O   UNL     1       2.204  28.233  61.248  1.00  0.00    -0.550 OA
ATOM     14  O   UNL     1       2.742  27.710  59.082  1.00  0.00    -0.550 OA
ENDBRANCH  11  12
ENDBRANCH  10  11
ENDBRANCH   9  10
ENDBRANCH   8   9
ENDBRANCH   7   8
ENDBRANCH   6   7
ENDBRANCH   5   6
ENDBRANCH   4   5
ENDBRANCH   3   4
ENDBRANCH   2   3
ENDBRANCH   1   2
BRANCH   1  15
ATOM     15  C   UNL     1      -3.891  31.923  58.884  1.00  0.00     0.000 C 
BRANCH  15  16
ATOM     16  C   UNL     1      -4.572  30.543  58.928  1.00  0.00     0.000 C 
BRANCH  16  17
ATOM     17  C   UNL     1      -4.360  29.708  57.649  1.00  0.00     0.000 C 
BRANCH  17  18
ATOM     18  C   UNL     1      -2.871  29.490  57.336  1.00  0.00    -0.000 C 
BRANCH  18  19
ATOM     19  C   UNL     1      -2.688  28.524  56.160  1.00  0.00    -0.000 C 
BRANCH  19  20
ATOM     20  C   UNL     1      -4.045  28.019  55.650  1.00  0.00    -0.000 C 
BRANCH  20  21
ATOM     21  C   UNL     1      -3.930  26.737  54.805  1.00  0.00    -0.000 C 
BRANCH  21  22
ATOM     22  C   UNL     1      -2.588  26.614  54.053  1.00  0.00    -0.000 C 
BRANCH  22  23
ATOM     23  C   UNL     1      -2.789  26.301  52.562  1.00  0.00    -0.000 C 
BRANCH  23  24
ATOM     24  C   UNL     1      -1.464  25.889  51.901  1.00  0.00    -0.000 C 
BRANCH  24  25
ATOM     25  C   UNL     1      -1.333  26.417  50.464  1.00  0.00    -0.003 C 
ATOM     26  C   UNL     1      -2.494  27.325  50.059  1.00  0.00     0.004 C 
ENDBRANCH  24  25
ENDBRANCH  23  24
ENDBRANCH  22  23
ENDBRANCH  21  22
ENDBRANCH  20  21
ENDBRANCH  19  20
ENDBRANCH  18  19
ENDBRANCH  17  18
ENDBRANCH  16  17
ENDBRANCH  15  16
ENDBRANCH   1  15
TORSDOF 22
ENDMDL
MODEL 2
REMARK VINA RESULT:    -5.039      2.304      8.155
REMARK INTER + INTRA:         -13.279
REMARK INTER:                 -11.261
REMARK INTRA:                  -2.018
REMARK UNBOUND:                -1.758
REMARK SMILES CCCCCCCCCCCCCCCCCCCCCCCC(=O)[O-]
REMARK SMILES IDX 13 1 14 2 15 3 16 4 17 5 18 6 19 7 20 8 21 9 22 10 23 11
REMARK SMILES IDX 24 12 25 13 26 14 12 15 11 16 10 17 9 18 8 19 7 20 6 21 5 22
REMARK SMILES IDX 4 23 3 24 2 25 1 26
REMARK H PARENT
REMARK Flexibility Score: inf
ROOT
ATOM      1  C   UNL     1      -4.246  31.262  59.952  1.00  0.00     0.000 C 
ENDROOT
BRANCH   1   2
ATOM      2  C   UNL     1      -4.225  30.946  58.448  1.00  0.00     0.000 C 
BRANCH   2   3
ATOM      3  C   UNL     1      -2.918  30.264  58.003  1.00  0.00     0.000 C 
BRANCH   3   4
ATOM      4  C   UNL     1      -3.135  29.288  56.826  1.00  0.00     0.000 C 
BRANCH   4   5
ATOM      5  C   UNL     1      -4.611  28.918  56.582  1.00  0.00     0.000 C 
BRANCH   5   6
ATOM      6  C   UNL     1      -4.839  27.813  55.537  1.00  0.00     0.000 C 
BRANCH   6   7
ATOM      7  C   UNL     1      -3.690  26.792  55.489  1.00  0.00     0.000 C 
BRANCH   7   8
ATOM      8  C   UNL     1      -3.338  26.379  54.046  1.00  0.00     0.000 C 
BRANCH   8   9
ATOM      9  C   UNL     1      -1.828  26.385  53.743  1.00  0.00     0.000 C 
BRANCH   9  10
ATOM     10  C   UNL     1      -0.943  25.936  54.927  1.00  0.00     0.006 C 
BRANCH  10  11
ATOM     11  C   UNL     1      -0.122  24.669  54.640  1.00  0.00     0.053 C 
BRANCH  11  12
ATOM     12  C   UNL     1       1.002  24.931  53.684  1.00  0.00     0.041 C 
ATOM     13  O   UNL     1       2.082  25.436  54.094  1.00  0.00    -0.550 OA
ATOM     14  O   UNL     1       0.849  24.638  52.334  1.00  0.00    -0.550 OA
ENDBRANCH  11  12
ENDBRANCH  10  11
ENDBRANCH   9  10
ENDBRANCH   8   9
ENDBRANCH   7   8
ENDBRANCH   6   7
ENDBRANCH   5   6
ENDBRANCH   4   5
ENDBRANCH   3   4
ENDBRANCH   2   3
ENDBRANCH   1   2
BRANCH   1  15
ATOM     15  C   UNL     1      -3.170  32.281  60.361  1.00  0.00     0.000 C 
BRANCH  15  16
ATOM     16  C   UNL     1      -3.308  32.743  61.823  1.00  0.00     0.000 C 
BRANCH  16  17
ATOM     17  C   UNL     1      -1.991  32.672  62.622  1.00  0.00     0.000 C 
BRANCH  17  18
ATOM     18  C   UNL     1      -1.582  34.040  63.192  1.00  0.00    -0.000 C 
BRANCH  18  19
ATOM     19  C   UNL     1      -0.248  34.510  62.602  1.00  0.00    -0.000 C 
BRANCH  19  20
ATOM     20  C   UNL     1      -0.155  34.158  61.110  1.00  0.00    -0.000 C 
BRANCH  20  21
ATOM     21  C   UNL     1       1.215  33.582  60.713  1.00  0.00    -0.000 C 
BRANCH  21  22
ATOM     22  C   UNL     1       1.394  32.097  61.099  1.00  0.00    -0.000 C 
BRANCH  22  23
ATOM     23  C   UNL     1       0.461  31.177  60.298  1.00  0.00    -0.000 C 
BRANCH  23  24
ATOM     24  C   UNL     1       1.183  30.584  59.078  1.00  0.00    -0.000 C 
BRANCH  24  25
ATOM     25  C   UNL     1       2.197  29.496  59.465  1.00  0.00    -0.003 C 
ATOM     26  C   UNL     1       3.534  29.649  58.738  1.00  0.00     0.004 C 
ENDBRANCH  24  25
ENDBRANCH  23  24
ENDBRANCH  22  23
ENDBRANCH  21  22
ENDBRANCH  20  21
ENDBRANCH  19  20
ENDBRANCH  18  19
ENDBRANCH  17  18
ENDBRANCH  16  17
ENDBRANCH  15  16
ENDBRANCH   1  15
TORSDOF 22
ENDMDL
MODEL 3
REMARK VINA RESULT:    -5.004      1.855      7.640
REMARK INTER + INTRA:         -13.199
REMARK INTER:                 -10.724
REMARK INTRA:                  -2.475
REMARK UNBOUND:                -1.758
REMARK SMILES CCCCCCCCCCCCCCCCCCCCCCCC(=O)[O-]
REMARK SMILES IDX 13 1 14 2 15 3 16 4 17 5 18 6 19 7 20 8 21 9 22 10 23 11
REMARK SMILES IDX 24 12 25 13 26 14 12 15 11 16 10 17 9 18 8 19 7 20 6 21 5 22
REMARK SMILES IDX 4 23 3 24 2 25 1 26
REMARK H PARENT
REMARK Flexibility Score: inf
ROOT
ATOM      1  C   UNL     1      -4.263  31.147  59.677  1.00  0.00     0.000 C 
ENDROOT
BRANCH   1   2
ATOM      2  C   UNL     1      -4.167  30.924  58.159  1.00  0.00     0.000 C 
BRANCH   2   3
ATOM      3  C   UNL     1      -2.960  30.056  57.762  1.00  0.00     0.000 C 
BRANCH   3   4
ATOM      4  C   UNL     1      -3.154  29.369  56.392  1.00  0.00     0.000 C 
BRANCH   4   5
ATOM      5  C   UNL     1      -4.474  28.586  56.265  1.00  0.00     0.000 C 
BRANCH   5   6
ATOM      6  C   UNL     1      -4.458  27.452  55.227  1.00  0.00     0.000 C 
BRANCH   6   7
ATOM      7  C   UNL     1      -3.382  26.393  55.518  1.00  0.00     0.000 C 
BRANCH   7   8
ATOM      8  C   UNL     1      -2.223  26.445  54.502  1.00  0.00     0.000 C 
BRANCH   8   9
ATOM      9  C   UNL     1      -0.824  26.386  55.144  1.00  0.00     0.000 C 
BRANCH   9  10
ATOM     10  C   UNL     1      -0.799  26.759  56.643  1.00  0.00     0.006 C 
BRANCH  10  11
ATOM     11  C   UNL     1       0.235  27.840  56.994  1.00  0.00     0.053 C 
BRANCH  11  12
ATOM     12  C   UNL     1       1.559  27.250  57.377  1.00  0.00     0.041 C 
ATOM     13  O   UNL     1       2.454  27.080  56.506  1.00  0.00    -0.550 OA
ATOM     14  O   UNL     1       1.795  26.867  58.691  1.00  0.00    -0.550 OA
ENDBRANCH  11  12
ENDBRANCH  10  11
ENDBRANCH   9  10
ENDBRANCH   8   9
ENDBRANCH   7   8
ENDBRANCH   6   7
ENDBRANCH   5   6
ENDBRANCH   4   5
ENDBRANCH   3   4
ENDBRANCH   2   3
ENDBRANCH   1   2
BRANCH   1  15
ATOM     15  C   UNL     1      -3.145  32.052  60.218  1.00  0.00     0.000 C 
BRANCH  15  16
ATOM     16  C   UNL     1      -3.499  32.698  61.569  1.00  0.00     0.000 C 
BRANCH  16  17
ATOM     17  C   UNL     1      -2.319  33.443  62.227  1.00  0.00     0.000 C 
BRANCH  17  18
ATOM     18  C   UNL     1      -1.758  32.686  63.441  1.00  0.00    -0.000 C 
BRANCH  18  19
ATOM     19  C   UNL     1      -0.247  32.465  63.306  1.00  0.00    -0.000 C 
BRANCH  19  20
ATOM     20  C   UNL     1       0.061  31.012  62.916  1.00  0.00    -0.000 C 
BRANCH  20  21
ATOM     21  C   UNL     1       1.062  30.901  61.752  1.00  0.00    -0.000 C 
BRANCH  21  22
ATOM     22  C   UNL     1       0.422  31.137  60.367  1.00  0.00    -0.000 C 
BRANCH  22  23
ATOM     23  C   UNL     1       1.311  30.619  59.226  1.00  0.00    -0.000 C 
BRANCH  23  24
ATOM     24  C   UNL     1       2.714  30.258  59.739  1.00  0.00    -0.000 C 
BRANCH  24  25
ATOM     25  C   UNL     1       3.828  30.995  58.979  1.00  0.00    -0.003 C 
ATOM     26  C   UNL     1       5.068  31.240  59.839  1.00  0.00     0.004 C 
ENDBRANCH  24  25
ENDBRANCH  23  24
ENDBRANCH  22  23
ENDBRANCH  21  22
ENDBRANCH  20  21
ENDBRANCH  19  20
ENDBRANCH  18  19
ENDBRANCH  17  18
ENDBRANCH  16  17
ENDBRANCH  15  16
ENDBRANCH   1  15
TORSDOF 22
ENDMDL
MODEL 4
REMARK VINA RESULT:    -4.999      3.101      9.530
REMARK INTER + INTRA:         -13.187
REMARK INTER:                 -11.448
REMARK INTRA:                  -1.739
REMARK UNBOUND:                -1.758
REMARK SMILES CCCCCCCCCCCCCCCCCCCCCCCC(=O)[O-]
REMARK SMILES IDX 13 1 14 2 15 3 16 4 17 5 18 6 19 7 20 8 21 9 22 10 23 11
REMARK SMILES IDX 24 12 25 13 26 14 12 15 11 16 10 17 9 18 8 19 7 20 6 21 5 22
REMARK SMILES IDX 4 23 3 24 2 25 1 26
REMARK H PARENT
REMARK Flexibility Score: inf
ROOT
ATOM      1  C   UNL     1      -3.960  31.169  59.973  1.00  0.00     0.000 C 
ENDROOT
BRANCH   1   2
ATOM      2  C   UNL     1      -3.985  30.988  58.447  1.00  0.00     0.000 C 
BRANCH   2   3
ATOM      3  C   UNL     1      -2.756  30.224  57.920  1.00  0.00     0.000 C 
BRANCH   3   4
ATOM      4  C   UNL     1      -3.104  29.298  56.734  1.00  0.00     0.000 C 
BRANCH   4   5
ATOM      5  C   UNL     1      -4.604  28.972  56.611  1.00  0.00     0.000 C 
BRANCH   5   6
ATOM      6  C   UNL     1      -4.946  27.848  55.620  1.00  0.00     0.000 C 
BRANCH   6   7
ATOM      7  C   UNL     1      -3.789  26.854  55.426  1.00  0.00     0.000 C 
BRANCH   7   8
ATOM      8  C   UNL     1      -3.614  26.445  53.949  1.00  0.00     0.000 C 
BRANCH   8   9
ATOM      9  C   UNL     1      -2.145  26.372  53.489  1.00  0.00     0.000 C 
BRANCH   9  10
ATOM     10  C   UNL     1      -1.118  26.401  54.643  1.00  0.00     0.006 C 
BRANCH  10  11
ATOM     11  C   UNL     1      -0.331  25.090  54.804  1.00  0.00     0.053 C 
BRANCH  11  12
ATOM     12  C   UNL     1       0.968  25.120  54.056  1.00  0.00     0.041 C 
ATOM     13  O   UNL     1       1.008  24.803  52.837  1.00  0.00    -0.550 OA
ATOM     14  O   UNL     1       2.140  25.476  54.713  1.00  0.00    -0.550 OA
ENDBRANCH  11  12
ENDBRANCH  10  11
ENDBRANCH   9  10
ENDBRANCH   8   9
ENDBRANCH   7   8
ENDBRANCH   6   7
ENDBRANCH   5   6
ENDBRANCH   4   5
ENDBRANCH   3   4
ENDBRANCH   2   3
ENDBRANCH   1   2
BRANCH   1  15
ATOM     15  C   UNL     1      -3.050  32.325  60.420  1.00  0.00     0.000 C 
BRANCH  15  16
ATOM     16  C   UNL     1      -3.464  32.922  61.777  1.00  0.00     0.000 C 
BRANCH  16  17
ATOM     17  C   UNL     1      -2.457  33.949  62.335  1.00  0.00     0.000 C 
BRANCH  17  18
ATOM     18  C   UNL     1      -1.003  33.474  62.193  1.00  0.00    -0.000 C 
BRANCH  18  19
ATOM     19  C   UNL     1      -0.657  32.424  63.255  1.00  0.00    -0.000 C 
BRANCH  19  20
ATOM     20  C   UNL     1      -1.133  32.872  64.644  1.00  0.00    -0.000 C 
BRANCH  20  21
ATOM     21  C   UNL     1       0.026  33.257  65.580  1.00  0.00    -0.000 C 
BRANCH  21  22
ATOM     22  C   UNL     1       0.448  32.120  66.536  1.00  0.00    -0.000 C 
BRANCH  22  23
ATOM     23  C   UNL     1       1.667  31.346  66.011  1.00  0.00    -0.000 C 
BRANCH  23  24
ATOM     24  C   UNL     1       1.302  29.886  65.701  1.00  0.00    -0.000 C 
BRANCH  24  25
ATOM     25  C   UNL     1       1.435  29.549  64.208  1.00  0.00    -0.003 C 
ATOM     26  C   UNL     1       2.762  30.019  63.611  1.00  0.00     0.004 C 
ENDBRANCH  24  25
ENDBRANCH  23  24
ENDBRANCH  22  23
ENDBRANCH  21  22
ENDBRANCH  20  21
ENDBRANCH  19  20
ENDBRANCH  18  19
ENDBRANCH  17  18
ENDBRANCH  16  17
ENDBRANCH  15  16
ENDBRANCH   1  15
TORSDOF 22
ENDMDL
MODEL 5
REMARK VINA RESULT:    -4.956      2.747      6.275
REMARK INTER + INTRA:         -13.089
REMARK INTER:                 -11.109
REMARK INTRA:                  -1.980
REMARK UNBOUND:                -1.758
REMARK SMILES CCCCCCCCCCCCCCCCCCCCCCCC(=O)[O-]
REMARK SMILES IDX 13 1 14 2 15 3 16 4 17 5 18 6 19 7 20 8 21 9 22 10 23 11
REMARK SMILES IDX 24 12 25 13 26 14 12 15 11 16 10 17 9 18 8 19 7 20 6 21 5 22
REMARK SMILES IDX 4 23 3 24 2 25 1 26
REMARK H PARENT
REMARK Flexibility Score: inf
ROOT
ATOM      1  C   UNL     1      -3.463  29.342  56.239  1.00  0.00     0.000 C 
ENDROOT
BRANCH   1   2
ATOM      2  C   UNL     1      -3.120  29.743  57.683  1.00  0.00     0.000 C 
BRANCH   2   3
ATOM      3  C   UNL     1      -3.874  31.003  58.145  1.00  0.00     0.000 C 
BRANCH   3   4
ATOM      4  C   UNL     1      -4.716  30.751  59.416  1.00  0.00     0.000 C 
BRANCH   4   5
ATOM      5  C   UNL     1      -4.244  31.546  60.648  1.00  0.00     0.000 C 
BRANCH   5   6
ATOM      6  C   UNL     1      -2.964  32.372  60.435  1.00  0.00     0.000 C 
BRANCH   6   7
ATOM      7  C   UNL     1      -2.559  33.175  61.683  1.00  0.00     0.000 C 
BRANCH   7   8
ATOM      8  C   UNL     1      -2.741  32.364  62.982  1.00  0.00     0.000 C 
BRANCH   8   9
ATOM      9  C   UNL     1      -1.962  32.928  64.186  1.00  0.00     0.000 C 
BRANCH   9  10
ATOM     10  C   UNL     1      -0.588  32.260  64.419  1.00  0.00     0.006 C 
BRANCH  10  11
ATOM     11  C   UNL     1      -0.021  32.487  65.829  1.00  0.00     0.053 C 
BRANCH  11  12
ATOM     12  C   UNL     1       1.289  33.215  65.799  1.00  0.00     0.041 C 
ATOM     13  O   UNL     1       2.371  32.573  65.724  1.00  0.00    -0.550 OA
ATOM     14  O   UNL     1       1.316  34.602  65.874  1.00  0.00    -0.550 OA
ENDBRANCH  11  12
ENDBRANCH  10  11
ENDBRANCH   9  10
ENDBRANCH   8   9
ENDBRANCH   7   8
ENDBRANCH   6   7
ENDBRANCH   5   6
ENDBRANCH   4   5
ENDBRANCH   3   4
ENDBRANCH   2   3
ENDBRANCH   1   2
BRANCH   1  15
ATOM     15  C   UNL     1      -4.584  28.293  56.163  1.00  0.00     0.000 C 
BRANCH  15  16
ATOM     16  C   UNL     1      -4.305  27.194  55.122  1.00  0.00     0.000 C 
BRANCH  16  17
ATOM     17  C   UNL     1      -3.140  26.259  55.505  1.00  0.00     0.000 C 
BRANCH  17  18
ATOM     18  C   UNL     1      -1.980  26.333  54.500  1.00  0.00    -0.000 C 
BRANCH  18  19
ATOM     19  C   UNL     1      -0.624  26.260  55.212  1.00  0.00    -0.000 C 
BRANCH  19  20
ATOM     20  C   UNL     1      -0.649  27.062  56.520  1.00  0.00    -0.000 C 
BRANCH  20  21
ATOM     21  C   UNL     1       0.757  27.377  57.059  1.00  0.00    -0.000 C 
BRANCH  21  22
ATOM     22  C   UNL     1       0.855  28.750  57.759  1.00  0.00    -0.000 C 
BRANCH  22  23
ATOM     23  C   UNL     1       2.129  28.875  58.608  1.00  0.00    -0.000 C 
BRANCH  23  24
ATOM     24  C   UNL     1       2.425  30.344  58.947  1.00  0.00    -0.000 C 
BRANCH  24  25
ATOM     25  C   UNL     1       2.031  30.708  60.387  1.00  0.00    -0.003 C 
ATOM     26  C   UNL     1       0.603  31.245  60.492  1.00  0.00     0.004 C 
ENDBRANCH  24  25
ENDBRANCH  23  24
ENDBRANCH  22  23
ENDBRANCH  21  22
ENDBRANCH  20  21
ENDBRANCH  19  20
ENDBRANCH  18  19
ENDBRANCH  17  18
ENDBRANCH  16  17
ENDBRANCH  15  16
ENDBRANCH   1  15
TORSDOF 22
ENDMDL
MODEL 6
REMARK VINA RESULT:    -4.924      3.361      5.130
REMARK INTER + INTRA:         -13.015
REMARK INTER:                 -11.337
REMARK INTRA:                  -1.677
REMARK UNBOUND:                -1.758
REMARK SMILES CCCCCCCCCCCCCCCCCCCCCCCC(=O)[O-]
REMARK SMILES IDX 13 1 14 2 15 3 16 4 17 5 18 6 19 7 20 8 21 9 22 10 23 11
REMARK SMILES IDX 24 12 25 13 26 14 12 15 11 16 10 17 9 18 8 19 7 20 6 21 5 22
REMARK SMILES IDX 4 23 3 24 2 25 1 26
REMARK H PARENT
REMARK Flexibility Score: inf
ROOT
ATOM      1  C   UNL     1      -3.818  31.020  58.142  1.00  0.00     0.000 C 
ENDROOT
BRANCH   1   2
ATOM      2  C   UNL     1      -4.591  30.663  59.422  1.00  0.00     0.000 C 
BRANCH   2   3
ATOM      3  C   UNL     1      -4.224  31.572  60.609  1.00  0.00     0.000 C 
BRANCH   3   4
ATOM      4  C   UNL     1      -2.954  32.408  60.340  1.00  0.00     0.000 C 
BRANCH   4   5
ATOM      5  C   UNL     1      -2.298  32.979  61.611  1.00  0.00     0.000 C 
BRANCH   5   6
ATOM      6  C   UNL     1      -2.828  32.396  62.932  1.00  0.00     0.000 C 
BRANCH   6   7
ATOM      7  C   UNL     1      -1.735  31.693  63.754  1.00  0.00     0.000 C 
BRANCH   7   8
ATOM      8  C   UNL     1      -0.363  32.381  63.609  1.00  0.00     0.000 C 
BRANCH   8   9
ATOM      9  C   UNL     1       0.555  32.212  64.835  1.00  0.00     0.000 C 
BRANCH   9  10
ATOM     10  C   UNL     1       0.167  33.095  66.042  1.00  0.00     0.006 C 
BRANCH  10  11
ATOM     11  C   UNL     1       0.239  32.363  67.392  1.00  0.00     0.053 C 
BRANCH  11  12
ATOM     12  C   UNL     1       1.650  32.035  67.779  1.00  0.00     0.041 C 
ATOM     13  O   UNL     1       2.349  32.876  68.406  1.00  0.00    -0.550 OA
ATOM     14  O   UNL     1       2.201  30.809  67.427  1.00  0.00    -0.550 OA
ENDBRANCH  11  12
ENDBRANCH  10  11
ENDBRANCH   9  10
ENDBRANCH   8   9
ENDBRANCH   7   8
ENDBRANCH   6   7
ENDBRANCH   5   6
ENDBRANCH   4   5
ENDBRANCH   3   4
ENDBRANCH   2   3
ENDBRANCH   1   2
BRANCH   1  15
ATOM     15  C   UNL     1      -2.906  29.880  57.660  1.00  0.00     0.000 C 
BRANCH  15  16
ATOM     16  C   UNL     1      -3.361  29.275  56.320  1.00  0.00     0.000 C 
BRANCH  16  17
ATOM     17  C   UNL     1      -4.743  28.593  56.386  1.00  0.00     0.000 C 
BRANCH  17  18
ATOM     18  C   UNL     1      -4.844  27.391  55.434  1.00  0.00    -0.000 C 
BRANCH  18  19
ATOM     19  C   UNL     1      -3.596  27.276  54.552  1.00  0.00    -0.000 C 
BRANCH  19  20
ATOM     20  C   UNL     1      -2.721  26.094  54.992  1.00  0.00    -0.000 C 
BRANCH  20  21
ATOM     21  C   UNL     1      -1.313  26.126  54.372  1.00  0.00    -0.000 C 
BRANCH  21  22
ATOM     22  C   UNL     1      -0.181  26.189  55.420  1.00  0.00    -0.000 C 
BRANCH  22  23
ATOM     23  C   UNL     1      -0.609  26.947  56.686  1.00  0.00    -0.000 C 
BRANCH  23  24
ATOM     24  C   UNL     1       0.505  27.889  57.169  1.00  0.00    -0.000 C 
BRANCH  24  25
ATOM     25  C   UNL     1       1.734  27.129  57.693  1.00  0.00    -0.003 C 
ATOM     26  C   UNL     1       2.985  27.375  56.850  1.00  0.00     0.004 C 
ENDBRANCH  24  25
ENDBRANCH  23  24
ENDBRANCH  22  23
ENDBRANCH  21  22
ENDBRANCH  20  21
ENDBRANCH  19  20
ENDBRANCH  18  19
ENDBRANCH  17  18
ENDBRANCH  16  17
ENDBRANCH  15  16
ENDBRANCH   1  15
TORSDOF 22
ENDMDL
MODEL 7
REMARK VINA RESULT:    -4.917      2.862      5.648
REMARK INTER + INTRA:         -12.999
REMARK INTER:                 -10.152
REMARK INTRA:                  -2.846
REMARK UNBOUND:                -1.758
REMARK SMILES CCCCCCCCCCCCCCCCCCCCCCCC(=O)[O-]
REMARK SMILES IDX 13 1 14 2 15 3 16 4 17 5 18 6 19 7 20 8 21 9 22 10 23 11
REMARK SMILES IDX 24 12 25 13 26 14 12 15 11 16 10 17 9 18 8 19 7 20 6 21 5 22
REMARK SMILES IDX 4 23 3 24 2 25 1 26
REMARK H PARENT
REMARK Flexibility Score: inf
ROOT
ATOM      1  C   UNL     1      -3.166  29.427  56.214  1.00  0.00     0.000 C 
ENDROOT
BRANCH   1   2
ATOM      2  C   UNL     1      -2.184  29.343  57.393  1.00  0.00     0.000 C 
BRANCH   2   3
ATOM      3  C   UNL     1      -0.739  29.059  56.944  1.00  0.00     0.000 C 
BRANCH   3   4
ATOM      4  C   UNL     1      -0.302  27.609  57.249  1.00  0.00     0.000 C 
BRANCH   4   5
ATOM      5  C   UNL     1       1.213  27.369  57.111  1.00  0.00     0.000 C 
BRANCH   5   6
ATOM      6  C   UNL     1       1.930  26.984  58.415  1.00  0.00     0.000 C 
BRANCH   6   7
ATOM      7  C   UNL     1       2.902  28.071  58.905  1.00  0.00     0.000 C 
BRANCH   7   8
ATOM      8  C   UNL     1       2.890  29.316  57.995  1.00  0.00     0.000 C 
BRANCH   8   9
ATOM      9  C   UNL     1       2.280  30.568  58.653  1.00  0.00     0.000 C 
BRANCH   9  10
ATOM     10  C   UNL     1       1.609  30.301  60.019  1.00  0.00     0.006 C 
BRANCH  10  11
ATOM     11  C   UNL     1       0.466  31.275  60.348  1.00  0.00     0.053 C 
BRANCH  11  12
ATOM     12  C   UNL     1       0.620  31.884  61.709  1.00  0.00     0.041 C 
ATOM     13  O   UNL     1       1.235  32.975  61.852  1.00  0.00    -0.550 OA
ATOM     14  O   UNL     1       0.104  31.234  62.824  1.00  0.00    -0.550 OA
ENDBRANCH  11  12
ENDBRANCH  10  11
ENDBRANCH   9  10
ENDBRANCH   8   9
ENDBRANCH   7   8
ENDBRANCH   6   7
ENDBRANCH   5   6
ENDBRANCH   4   5
ENDBRANCH   3   4
ENDBRANCH   2   3
ENDBRANCH   1   2
BRANCH   1  15
ATOM     15  C   UNL     1      -4.462  28.638  56.461  1.00  0.00     0.000 C 
BRANCH  15  16
ATOM     16  C   UNL     1      -4.732  27.576  55.380  1.00  0.00     0.000 C 
BRANCH  16  17
ATOM     17  C   UNL     1      -3.534  26.639  55.120  1.00  0.00     0.000 C 
BRANCH  17  18
ATOM     18  C   UNL     1      -3.247  26.465  53.620  1.00  0.00    -0.000 C 
BRANCH  18  19
ATOM     19  C   UNL     1      -1.751  26.250  53.364  1.00  0.00    -0.000 C 
BRANCH  19  20
ATOM     20  C   UNL     1      -1.036  25.799  54.645  1.00  0.00    -0.000 C 
BRANCH  20  21
ATOM     21  C   UNL     1       0.335  25.154  54.373  1.00  0.00    -0.000 C 
BRANCH  21  22
ATOM     22  C   UNL     1       0.569  24.811  52.886  1.00  0.00    -0.000 C 
BRANCH  22  23
ATOM     23  C   UNL     1       2.014  24.364  52.618  1.00  0.00    -0.000 C 
BRANCH  23  24
ATOM     24  C   UNL     1       3.013  25.212  53.421  1.00  0.00    -0.000 C 
BRANCH  24  25
ATOM     25  C   UNL     1       3.852  24.370  54.395  1.00  0.00    -0.003 C 
ATOM     26  C   UNL     1       3.811  24.906  55.826  1.00  0.00     0.004 C 
ENDBRANCH  24  25
ENDBRANCH  23  24
ENDBRANCH  22  23
ENDBRANCH  21  22
ENDBRANCH  20  21
ENDBRANCH  19  20
ENDBRANCH  18  19
ENDBRANCH  17  18
ENDBRANCH  16  17
ENDBRANCH  15  16
ENDBRANCH   1  15
TORSDOF 22
ENDMDL
MODEL 8
REMARK VINA RESULT:    -4.912      3.070     10.123
REMARK INTER + INTRA:         -12.987
REMARK INTER:                 -11.940
REMARK INTRA:                  -1.047
REMARK UNBOUND:                -1.758
REMARK SMILES CCCCCCCCCCCCCCCCCCCCCCCC(=O)[O-]
REMARK SMILES IDX 13 1 14 2 15 3 16 4 17 5 18 6 19 7 20 8 21 9 22 10 23 11
REMARK SMILES IDX 24 12 25 13 26 14 12 15 11 16 10 17 9 18 8 19 7 20 6 21 5 22
REMARK SMILES IDX 4 23 3 24 2 25 1 26
REMARK H PARENT
REMARK Flexibility Score: inf
ROOT
ATOM      1  C   UNL     1      -4.581  28.620  56.508  1.00  0.00     0.000 C 
ENDROOT
BRANCH   1   2
ATOM      2  C   UNL     1      -4.746  27.553  55.414  1.00  0.00     0.000 C 
BRANCH   2   3
ATOM      3  C   UNL     1      -3.397  27.039  54.879  1.00  0.00     0.000 C 
BRANCH   3   4
ATOM      4  C   UNL     1      -3.515  26.454  53.454  1.00  0.00     0.000 C 
BRANCH   4   5
ATOM      5  C   UNL     1      -2.195  26.470  52.659  1.00  0.00     0.000 C 
BRANCH   5   6
ATOM      6  C   UNL     1      -2.358  26.586  51.135  1.00  0.00     0.000 C 
BRANCH   6   7
ATOM      7  C   UNL     1      -1.062  26.265  50.371  1.00  0.00     0.000 C 
BRANCH   7   8
ATOM      8  C   UNL     1      -0.035  25.524  51.251  1.00  0.00     0.000 C 
BRANCH   8   9
ATOM      9  C   UNL     1       1.354  25.375  50.603  1.00  0.00     0.000 C 
BRANCH   9  10
ATOM     10  C   UNL     1       2.463  24.923  51.580  1.00  0.00     0.006 C 
BRANCH  10  11
ATOM     11  C   UNL     1       3.803  25.647  51.373  1.00  0.00     0.053 C 
BRANCH  11  12
ATOM     12  C   UNL     1       4.683  25.558  52.583  1.00  0.00     0.041 C 
ATOM     13  O   UNL     1       5.651  24.750  52.608  1.00  0.00    -0.550 OA
ATOM     14  O   UNL     1       4.422  26.353  53.692  1.00  0.00    -0.550 OA
ENDBRANCH  11  12
ENDBRANCH  10  11
ENDBRANCH   9  10
ENDBRANCH   8   9
ENDBRANCH   7   8
ENDBRANCH   6   7
ENDBRANCH   5   6
ENDBRANCH   4   5
ENDBRANCH   3   4
ENDBRANCH   2   3
ENDBRANCH   1   2
BRANCH   1  15
ATOM     15  C   UNL     1      -3.109  28.878  56.871  1.00  0.00     0.000 C 
BRANCH  15  16
ATOM     16  C   UNL     1      -2.919  30.130  57.746  1.00  0.00     0.000 C 
BRANCH  16  17
ATOM     17  C   UNL     1      -4.237  30.863  58.073  1.00  0.00     0.000 C 
BRANCH  17  18
ATOM     18  C   UNL     1      -4.424  31.078  59.583  1.00  0.00    -0.000 C 
BRANCH  18  19
ATOM     19  C   UNL     1      -3.189  31.739  60.205  1.00  0.00    -0.000 C 
BRANCH  19  20
ATOM     20  C   UNL     1      -3.553  32.465  61.508  1.00  0.00    -0.000 C 
BRANCH  20  21
ATOM     21  C   UNL     1      -2.327  33.039  62.240  1.00  0.00    -0.000 C 
BRANCH  21  22
ATOM     22  C   UNL     1      -2.188  32.538  63.693  1.00  0.00    -0.000 C 
BRANCH  22  23
ATOM     23  C   UNL     1      -0.867  32.987  64.335  1.00  0.00    -0.000 C 
BRANCH  23  24
ATOM     24  C   UNL     1      -0.086  31.786  64.889  1.00  0.00    -0.000 C 
BRANCH  24  25
ATOM     25  C   UNL     1       0.598  30.965  63.785  1.00  0.00    -0.003 C 
ATOM     26  C   UNL     1       0.193  29.491  63.807  1.00  0.00     0.004 C 
ENDBRANCH  24  25
ENDBRANCH  23  24
ENDBRANCH  22  23
ENDBRANCH  21  22
ENDBRANCH  20  21
ENDBRANCH  19  20
ENDBRANCH  18  19
ENDBRANCH  17  18
ENDBRANCH  16  17
ENDBRANCH  15  16
ENDBRANCH   1  15
TORSDOF 22
ENDMDL
MODEL 9
REMARK VINA RESULT:    -4.832      4.090      9.955
REMARK INTER + INTRA:         -12.804
REMARK INTER:                 -11.519
REMARK INTRA:                  -1.285
REMARK UNBOUND:                -1.758
REMARK SMILES CCCCCCCCCCCCCCCCCCCCCCCC(=O)[O-]
REMARK SMILES IDX 13 1 14 2 15 3 16 4 17 5 18 6 19 7 20 8 21 9 22 10 23 11
REMARK SMILES IDX 24 12 25 13 26 14 12 15 11 16 10 17 9 18 8 19 7 20 6 21 5 22
REMARK SMILES IDX 4 23 3 24 2 25 1 26
REMARK H PARENT
REMARK Flexibility Score: inf
ROOT
ATOM      1  C   UNL     1      -1.984  32.795  61.351  1.00  0.00     0.000 C 
ENDROOT
BRANCH   1   2
ATOM      2  C   UNL     1      -3.431  32.384  61.031  1.00  0.00     0.000 C 
BRANCH   2   3
ATOM      3  C   UNL     1      -3.557  31.664  59.677  1.00  0.00     0.000 C 
BRANCH   3   4
ATOM      4  C   UNL     1      -4.741  30.672  59.646  1.00  0.00     0.000 C 
BRANCH   4   5
ATOM      5  C   UNL     1      -4.803  29.809  58.371  1.00  0.00     0.000 C 
BRANCH   5   6
ATOM      6  C   UNL     1      -3.730  30.130  57.318  1.00  0.00     0.000 C 
BRANCH   6   7
ATOM      7  C   UNL     1      -3.343  28.907  56.470  1.00  0.00     0.000 C 
BRANCH   7   8
ATOM      8  C   UNL     1      -4.577  28.160  55.927  1.00  0.00     0.000 C 
BRANCH   8   9
ATOM      9  C   UNL     1      -4.241  27.042  54.922  1.00  0.00     0.000 C 
BRANCH   9  10
ATOM     10  C   UNL     1      -2.979  26.227  55.281  1.00  0.00     0.006 C 
BRANCH  10  11
ATOM     11  C   UNL     1      -1.876  26.291  54.212  1.00  0.00     0.053 C 
BRANCH  11  12
ATOM     12  C   UNL     1      -0.525  25.974  54.778  1.00  0.00     0.041 C 
ATOM     13  O   UNL     1      -0.204  26.385  55.926  1.00  0.00    -0.550 OA
ATOM     14  O   UNL     1       0.389  25.244  54.028  1.00  0.00    -0.550 OA
ENDBRANCH  11  12
ENDBRANCH  10  11
ENDBRANCH   9  10
ENDBRANCH   8   9
ENDBRANCH   7   8
ENDBRANCH   6   7
ENDBRANCH   5   6
ENDBRANCH   4   5
ENDBRANCH   3   4
ENDBRANCH   2   3
ENDBRANCH   1   2
BRANCH   1  15
ATOM     15  C   UNL     1      -1.633  32.628  62.838  1.00  0.00     0.000 C 
BRANCH  15  16
ATOM     16  C   UNL     1      -0.299  31.891  63.058  1.00  0.00     0.000 C 
BRANCH  16  17
ATOM     17  C   UNL     1      -0.385  30.752  64.095  1.00  0.00     0.000 C 
BRANCH  17  18
ATOM     18  C   UNL     1       0.642  29.641  63.826  1.00  0.00    -0.000 C 
BRANCH  18  19
ATOM     19  C   UNL     1       1.968  29.928  64.540  1.00  0.00    -0.000 C 
BRANCH  19  20
ATOM     20  C   UNL     1       1.729  30.687  65.853  1.00  0.00    -0.000 C 
BRANCH  20  21
ATOM     21  C   UNL     1       3.018  30.905  66.665  1.00  0.00    -0.000 C 
BRANCH  21  22
ATOM     22  C   UNL     1       4.272  31.102  65.786  1.00  0.00    -0.000 C 
BRANCH  22  23
ATOM     23  C   UNL     1       5.392  30.115  66.148  1.00  0.00    -0.000 C 
BRANCH  23  24
ATOM     24  C   UNL     1       4.821  28.850  66.807  1.00  0.00    -0.000 C 
BRANCH  24  25
ATOM     25  C   UNL     1       5.350  27.559  66.164  1.00  0.00    -0.003 C 
ATOM     26  C   UNL     1       4.789  26.297  66.820  1.00  0.00     0.004 C 
ENDBRANCH  24  25
ENDBRANCH  23  24
ENDBRANCH  22  23
ENDBRANCH  21  22
ENDBRANCH  20  21
ENDBRANCH  19  20
ENDBRANCH  18  19
ENDBRANCH  17  18
ENDBRANCH  16  17
ENDBRANCH  15  16
ENDBRANCH   1  15
TORSDOF 22
ENDMDL
