MODEL 1
REMARK VINA RESULT:    -4.386      0.000      0.000
REMARK INTER + INTRA:          -7.778
REMARK INTER:                  -6.694
REMARK INTRA:                  -1.084
REMARK UNBOUND:                -1.084
REMARK SMILES O=C([O-])CCCCCCCCC(=O)[O-]
REMARK SMILES IDX 7 1 6 2 5 3 4 4 2 5 1 6 3 7 8 8 9 9 10 10 11 11 12 12 13 13
REMARK SMILES IDX 14 14
REMARK H PARENT
REMARK Flexibility Score: inf
ROOT
ATOM      1  C   UNL     1      64.125  29.703  11.177  1.00  0.00     0.000 C 
ENDROOT
BRANCH   1   2
ATOM      2  C   UNL     1      62.849  30.072  10.405  1.00  0.00     0.000 C 
BRANCH   2   3
ATOM      3  C   UNL     1      61.692  29.096  10.674  1.00  0.00     0.006 C 
BRANCH   3   4
ATOM      4  C   UNL     1      60.598  29.705  11.560  1.00  0.00     0.053 C 
BRANCH   4   5
ATOM      5  C   UNL     1      60.441  28.908  12.817  1.00  0.00     0.041 C 
ATOM      6  O   UNL     1      61.381  28.853  13.653  1.00  0.00    -0.550 OA
ATOM      7  O   UNL     1      59.240  28.266  13.087  1.00  0.00    -0.550 OA
ENDBRANCH   4   5
ENDBRANCH   3   4
ENDBRANCH   2   3
ENDBRANCH   1   2
BRANCH   1   8
ATOM      8  C   UNL     1      64.290  30.589  12.420  1.00  0.00     0.000 C 
BRANCH   8   9
ATOM      9  C   UNL     1      64.178  32.089  12.101  1.00  0.00     0.000 C 
BRANCH   9  10
ATOM     10  C   UNL     1      63.466  32.880  13.212  1.00  0.00     0.006 C 
BRANCH  10  11
ATOM     11  C   UNL     1      61.938  32.786  13.101  1.00  0.00     0.053 C 
BRANCH  11  12
ATOM     12  C   UNL     1      61.320  32.250  14.356  1.00  0.00     0.041 C 
ATOM     13  O   UNL     1      62.048  31.784  15.272  1.00  0.00    -0.550 OA
ATOM     14  O   UNL     1      59.939  32.238  14.501  1.00  0.00    -0.550 OA
ENDBRANCH  11  12
ENDBRANCH  10  11
ENDBRANCH   9  10
ENDBRANCH   8   9
ENDBRANCH   1   8
TORSDOF 9
ENDMDL
MODEL 2
REMARK VINA RESULT:    -4.340      2.104      4.541
REMARK INTER + INTRA:          -7.707
REMARK INTER:                  -6.749
REMARK INTRA:                  -0.958
REMARK UNBOUND:                -1.084
REMARK SMILES O=C([O-])CCCCCCCCC(=O)[O-]
REMARK SMILES IDX 7 1 6 2 5 3 4 4 2 5 1 6 3 7 8 8 9 9 10 10 11 11 12 12 13 13
REMARK SMILES IDX 14 14
REMARK H PARENT
REMARK Flexibility Score: inf
ROOT
ATOM      1  C   UNL     1      62.805  29.301  13.381  1.00  0.00     0.000 C 
ENDROOT
BRANCH   1   2
ATOM      2  C   UNL     1      62.100  30.329  14.279  1.00  0.00     0.000 C 
BRANCH   2   3
ATOM      3  C   UNL     1      60.938  31.039  13.568  1.00  0.00     0.006 C 
BRANCH   3   4
ATOM      4  C   UNL     1      61.394  32.270  12.775  1.00  0.00     0.053 C 
BRANCH   4   5
ATOM      5  C   UNL     1      62.093  33.241  13.674  1.00  0.00     0.041 C 
ATOM      6  O   UNL     1      61.440  33.899  14.526  1.00  0.00    -0.550 OA
ATOM      7  O   UNL     1      63.473  33.382  13.605  1.00  0.00    -0.550 OA
ENDBRANCH   4   5
ENDBRANCH   3   4
ENDBRANCH   2   3
ENDBRANCH   1   2
BRANCH   1   8
ATOM      8  C   UNL     1      64.232  29.756  13.041  1.00  0.00     0.000 C 
BRANCH   8   9
ATOM      9  C   UNL     1      64.323  30.454  11.674  1.00  0.00     0.000 C 
BRANCH   9  10
ATOM     10  C   UNL     1      64.022  29.503  10.502  1.00  0.00     0.006 C 
BRANCH  10  11
ATOM     11  C   UNL     1      62.922  30.049   9.581  1.00  0.00     0.053 C 
BRANCH  11  12
ATOM     12  C   UNL     1      61.677  29.220   9.646  1.00  0.00     0.041 C 
ATOM     13  O   UNL     1      61.611  28.126   9.025  1.00  0.00    -0.550 OA
ATOM     14  O   UNL     1      60.578  29.667  10.369  1.00  0.00    -0.550 OA
ENDBRANCH  11  12
ENDBRANCH  10  11
ENDBRANCH   9  10
ENDBRANCH   8   9
ENDBRANCH   1   8
TORSDOF 9
ENDMDL
MODEL 3
REMARK VINA RESULT:    -4.320      1.790      2.390
REMARK INTER + INTRA:          -7.677
REMARK INTER:                  -6.735
REMARK INTRA:                  -0.942
REMARK UNBOUND:                -1.084
REMARK SMILES O=C([O-])CCCCCCCCC(=O)[O-]
REMARK SMILES IDX 7 1 6 2 5 3 4 4 2 5 1 6 3 7 8 8 9 9 10 10 11 11 12 12 13 13
REMARK SMILES IDX 14 14
REMARK H PARENT
REMARK Flexibility Score: inf
ROOT
ATOM      1  C   UNL     1      63.402  29.654  13.150  1.00  0.00     0.000 C 
ENDROOT
BRANCH   1   2
ATOM      2  C   UNL     1      62.034  29.338  13.773  1.00  0.00     0.000 C 
BRANCH   2   3
ATOM      3  C   UNL     1      61.004  28.868  12.734  1.00  0.00     0.006 C 
BRANCH   3   4
ATOM      4  C   UNL     1      60.664  29.953  11.705  1.00  0.00     0.053 C 
BRANCH   4   5
ATOM      5  C   UNL     1      60.933  29.458  10.318  1.00  0.00     0.041 C 
ATOM      6  O   UNL     1      60.367  30.000   9.332  1.00  0.00    -0.550 OA
ATOM      7  O   UNL     1      61.844  28.432  10.111  1.00  0.00    -0.550 OA
ENDBRANCH   4   5
ENDBRANCH   3   4
ENDBRANCH   2   3
ENDBRANCH   1   2
BRANCH   1   8
ATOM      8  C   UNL     1      64.094  30.803  13.898  1.00  0.00     0.000 C 
BRANCH   8   9
ATOM      9  C   UNL     1      64.192  32.086  13.057  1.00  0.00     0.000 C 
BRANCH   9  10
ATOM     10  C   UNL     1      63.342  33.235  13.628  1.00  0.00     0.006 C 
BRANCH  10  11
ATOM     11  C   UNL     1      61.851  33.068  13.304  1.00  0.00     0.053 C 
BRANCH  11  12
ATOM     12  C   UNL     1      61.039  32.804  14.534  1.00  0.00     0.041 C 
ATOM     13  O   UNL     1      59.894  32.289  14.439  1.00  0.00    -0.550 OA
ATOM     14  O   UNL     1      61.535  33.153  15.784  1.00  0.00    -0.550 OA
ENDBRANCH  11  12
ENDBRANCH  10  11
ENDBRANCH   9  10
ENDBRANCH   8   9
ENDBRANCH   1   8
TORSDOF 9
ENDMDL
MODEL 4
REMARK VINA RESULT:    -4.305      2.239      2.818
REMARK INTER + INTRA:          -7.654
REMARK INTER:                  -6.718
REMARK INTRA:                  -0.936
REMARK UNBOUND:                -1.084
REMARK SMILES O=C([O-])CCCCCCCCC(=O)[O-]
REMARK SMILES IDX 7 1 6 2 5 3 4 4 2 5 1 6 3 7 8 8 9 9 10 10 11 11 12 12 13 13
REMARK SMILES IDX 14 14
REMARK H PARENT
REMARK Flexibility Score: inf
ROOT
ATOM      1  C   UNL     1      62.184  28.943  13.393  1.00  0.00     0.000 C 
ENDROOT
BRANCH   1   2
ATOM      2  C   UNL     1      61.179  29.112  12.243  1.00  0.00     0.000 C 
BRANCH   2   3
ATOM      3  C   UNL     1      61.321  30.464  11.526  1.00  0.00     0.006 C 
BRANCH   3   4
ATOM      4  C   UNL     1      61.250  30.335  10.000  1.00  0.00     0.053 C 
BRANCH   4   5
ATOM      5  C   UNL     1      62.189  29.272   9.522  1.00  0.00     0.041 C 
ATOM      6  O   UNL     1      63.434  29.445   9.600  1.00  0.00    -0.550 OA
ATOM      7  O   UNL     1      61.690  28.071   9.037  1.00  0.00    -0.550 OA
ENDBRANCH   4   5
ENDBRANCH   3   4
ENDBRANCH   2   3
ENDBRANCH   1   2
BRANCH   1   8
ATOM      8  C   UNL     1      63.430  29.811  13.165  1.00  0.00     0.000 C 
BRANCH   8   9
ATOM      9  C   UNL     1      63.700  30.781  14.328  1.00  0.00     0.000 C 
BRANCH   9  10
ATOM     10  C   UNL     1      62.539  30.836  15.336  1.00  0.00     0.006 C 
BRANCH  10  11
ATOM     11  C   UNL     1      62.044  32.269  15.571  1.00  0.00     0.053 C 
BRANCH  11  12
ATOM     12  C   UNL     1      61.164  32.746  14.456  1.00  0.00     0.041 C 
ATOM     13  O   UNL     1      61.554  33.667  13.691  1.00  0.00    -0.550 OA
ATOM     14  O   UNL     1      59.902  32.193  14.280  1.00  0.00    -0.550 OA
ENDBRANCH  11  12
ENDBRANCH  10  11
ENDBRANCH   9  10
ENDBRANCH   8   9
ENDBRANCH   1   8
TORSDOF 9
ENDMDL
MODEL 5
REMARK VINA RESULT:    -4.273      2.997      6.160
REMARK INTER + INTRA:          -7.605
REMARK INTER:                  -7.189
REMARK INTRA:                  -0.415
REMARK UNBOUND:                -1.084
REMARK SMILES O=C([O-])CCCCCCCCC(=O)[O-]
REMARK SMILES IDX 7 1 6 2 5 3 4 4 2 5 1 6 3 7 8 8 9 9 10 10 11 11 12 12 13 13
REMARK SMILES IDX 14 14
REMARK H PARENT
REMARK Flexibility Score: inf
ROOT
ATOM      1  C   UNL     1      60.639  32.558  14.755  1.00  0.00     0.000 C 
ENDROOT
BRANCH   1   2
ATOM      2  C   UNL     1      61.555  33.776  14.558  1.00  0.00     0.000 C 
BRANCH   2   3
ATOM      3  C   UNL     1      61.741  34.592  15.846  1.00  0.00     0.006 C 
BRANCH   3   4
ATOM      4  C   UNL     1      62.475  33.810  16.942  1.00  0.00     0.053 C 
BRANCH   4   5
ATOM      5  C   UNL     1      62.866  34.723  18.061  1.00  0.00     0.041 C 
ATOM      6  O   UNL     1      63.922  35.403  17.984  1.00  0.00    -0.550 OA
ATOM      7  O   UNL     1      62.039  34.857  19.169  1.00  0.00    -0.550 OA
ENDBRANCH   4   5
ENDBRANCH   3   4
ENDBRANCH   2   3
ENDBRANCH   1   2
BRANCH   1   8
ATOM      8  C   UNL     1      61.031  31.417  13.805  1.00  0.00     0.000 C 
BRANCH   8   9
ATOM      9  C   UNL     1      62.111  30.497  14.396  1.00  0.00     0.000 C 
BRANCH   9  10
ATOM     10  C   UNL     1      62.464  29.323  13.465  1.00  0.00     0.006 C 
BRANCH  10  11
ATOM     11  C   UNL     1      61.314  28.975  12.511  1.00  0.00     0.053 C 
BRANCH  11  12
ATOM     12  C   UNL     1      61.756  28.977  11.080  1.00  0.00     0.041 C 
ATOM     13  O   UNL     1      62.983  28.973  10.796  1.00  0.00    -0.550 OA
ATOM     14  O   UNL     1      60.814  29.012  10.060  1.00  0.00    -0.550 OA
ENDBRANCH  11  12
ENDBRANCH  10  11
ENDBRANCH   9  10
ENDBRANCH   8   9
ENDBRANCH   1   8
TORSDOF 9
ENDMDL
MODEL 6
REMARK VINA RESULT:    -4.252      0.409      3.785
REMARK INTER + INTRA:          -7.573
REMARK INTER:                  -6.520
REMARK INTRA:                  -1.053
REMARK UNBOUND:                -1.084
REMARK SMILES O=C([O-])CCCCCCCCC(=O)[O-]
REMARK SMILES IDX 7 1 6 2 5 3 4 4 2 5 1 6 3 7 8 8 9 9 10 10 11 11 12 12 13 13
REMARK SMILES IDX 14 14
REMARK H PARENT
REMARK Flexibility Score: inf
ROOT
ATOM      1  C   UNL     1      64.300  30.380  12.451  1.00  0.00     0.000 C 
ENDROOT
BRANCH   1   2
ATOM      2  C   UNL     1      64.268  31.841  11.978  1.00  0.00     0.000 C 
BRANCH   2   3
ATOM      3  C   UNL     1      63.700  32.796  13.039  1.00  0.00     0.006 C 
BRANCH   3   4
ATOM      4  C   UNL     1      62.175  32.697  13.170  1.00  0.00     0.053 C 
BRANCH   4   5
ATOM      5  C   UNL     1      61.792  32.384  14.582  1.00  0.00     0.041 C 
ATOM      6  O   UNL     1      60.667  32.735  15.025  1.00  0.00    -0.550 OA
ATOM      7  O   UNL     1      62.657  31.661  15.393  1.00  0.00    -0.550 OA
ENDBRANCH   4   5
ENDBRANCH   3   4
ENDBRANCH   2   3
ENDBRANCH   1   2
BRANCH   1   8
ATOM      8  C   UNL     1      63.936  29.424  11.306  1.00  0.00     0.000 C 
BRANCH   8   9
ATOM      9  C   UNL     1      62.808  29.967  10.414  1.00  0.00     0.000 C 
BRANCH   9  10
ATOM     10  C   UNL     1      61.483  29.207  10.604  1.00  0.00     0.006 C 
BRANCH  10  11
ATOM     11  C   UNL     1      60.567  29.889  11.630  1.00  0.00     0.053 C 
BRANCH  11  12
ATOM     12  C   UNL     1      60.396  29.059  12.864  1.00  0.00     0.041 C 
ATOM     13  O   UNL     1      61.317  29.001  13.722  1.00  0.00    -0.550 OA
ATOM     14  O   UNL     1      59.233  28.324  13.054  1.00  0.00    -0.550 OA
ENDBRANCH  11  12
ENDBRANCH  10  11
ENDBRANCH   9  10
ENDBRANCH   8   9
ENDBRANCH   1   8
TORSDOF 9
ENDMDL
MODEL 7
REMARK VINA RESULT:    -4.242      2.056      4.699
REMARK INTER + INTRA:          -7.558
REMARK INTER:                  -6.670
REMARK INTRA:                  -0.887
REMARK UNBOUND:                -1.084
REMARK SMILES O=C([O-])CCCCCCCCC(=O)[O-]
REMARK SMILES IDX 7 1 6 2 5 3 4 4 2 5 1 6 3 7 8 8 9 9 10 10 11 11 12 12 13 13
REMARK SMILES IDX 14 14
REMARK H PARENT
REMARK Flexibility Score: inf
ROOT
ATOM      1  C   UNL     1      63.674  30.580  13.997  1.00  0.00     0.000 C 
ENDROOT
BRANCH   1   2
ATOM      2  C   UNL     1      64.004  31.693  12.991  1.00  0.00     0.000 C 
BRANCH   2   3
ATOM      3  C   UNL     1      63.451  33.062  13.417  1.00  0.00     0.006 C 
BRANCH   3   4
ATOM      4  C   UNL     1      61.919  33.082  13.496  1.00  0.00     0.053 C 
BRANCH   4   5
ATOM      5  C   UNL     1      61.473  33.329  14.903  1.00  0.00     0.041 C 
ATOM      6  O   UNL     1      61.448  34.500  15.364  1.00  0.00    -0.550 OA
ATOM      7  O   UNL     1      61.038  32.270  15.689  1.00  0.00    -0.550 OA
ENDBRANCH   4   5
ENDBRANCH   3   4
ENDBRANCH   2   3
ENDBRANCH   1   2
BRANCH   1   8
ATOM      8  C   UNL     1      63.018  29.382  13.296  1.00  0.00     0.000 C 
BRANCH   8   9
ATOM      9  C   UNL     1      61.537  29.212  13.672  1.00  0.00     0.000 C 
BRANCH   9  10
ATOM     10  C   UNL     1      60.627  29.051  12.442  1.00  0.00     0.006 C 
BRANCH  10  11
ATOM     11  C   UNL     1      60.942  30.084  11.351  1.00  0.00     0.053 C 
BRANCH  11  12
ATOM     12  C   UNL     1      61.101  29.444  10.006  1.00  0.00     0.041 C 
ATOM     13  O   UNL     1      61.768  28.383   9.884  1.00  0.00    -0.550 OA
ATOM     14  O   UNL     1      60.537  30.035   8.883  1.00  0.00    -0.550 OA
ENDBRANCH  11  12
ENDBRANCH  10  11
ENDBRANCH   9  10
ENDBRANCH   8   9
ENDBRANCH   1   8
TORSDOF 9
ENDMDL
MODEL 8
REMARK VINA RESULT:    -4.236      2.391      5.220
REMARK INTER + INTRA:          -7.549
REMARK INTER:                  -6.885
REMARK INTRA:                  -0.664
REMARK UNBOUND:                -1.084
REMARK SMILES O=C([O-])CCCCCCCCC(=O)[O-]
REMARK SMILES IDX 7 1 6 2 5 3 4 4 2 5 1 6 3 7 8 8 9 9 10 10 11 11 12 12 13 13
REMARK SMILES IDX 14 14
REMARK H PARENT
REMARK Flexibility Score: inf
ROOT
ATOM      1  C   UNL     1      61.290  29.877  13.349  1.00  0.00     0.000 C 
ENDROOT
BRANCH   1   2
ATOM      2  C   UNL     1      61.356  31.255  12.674  1.00  0.00     0.000 C 
BRANCH   2   3
ATOM      3  C   UNL     1      60.693  32.359  13.513  1.00  0.00     0.006 C 
BRANCH   3   4
ATOM      4  C   UNL     1      61.625  33.550  13.766  1.00  0.00     0.053 C 
BRANCH   4   5
ATOM      5  C   UNL     1      62.048  33.586  15.201  1.00  0.00     0.041 C 
ATOM      6  O   UNL     1      61.692  34.540  15.942  1.00  0.00    -0.550 OA
ATOM      7  O   UNL     1      62.794  32.543  15.732  1.00  0.00    -0.550 OA
ENDBRANCH   4   5
ENDBRANCH   3   4
ENDBRANCH   2   3
ENDBRANCH   1   2
BRANCH   1   8
ATOM      8  C   UNL     1      60.735  28.819  12.383  1.00  0.00     0.000 C 
BRANCH   8   9
ATOM      9  C   UNL     1      60.723  29.296  10.922  1.00  0.00     0.000 C 
BRANCH   9  10
ATOM     10  C   UNL     1      61.740  28.546  10.044  1.00  0.00     0.006 C 
BRANCH  10  11
ATOM     11  C   UNL     1      62.710  29.501   9.337  1.00  0.00     0.053 C 
BRANCH  11  12
ATOM     12  C   UNL     1      64.058  29.512   9.991  1.00  0.00     0.041 C 
ATOM     13  O   UNL     1      65.103  29.523   9.288  1.00  0.00    -0.550 OA
ATOM     14  O   UNL     1      64.160  29.482  11.376  1.00  0.00    -0.550 OA
ENDBRANCH  11  12
ENDBRANCH  10  11
ENDBRANCH   9  10
ENDBRANCH   8   9
ENDBRANCH   1   8
TORSDOF 9
ENDMDL
MODEL 9
REMARK VINA RESULT:    -4.143      2.163      3.121
REMARK INTER + INTRA:          -7.407
REMARK INTER:                  -6.470
REMARK INTRA:                  -0.937
REMARK UNBOUND:                -1.084
REMARK SMILES O=C([O-])CCCCCCCCC(=O)[O-]
REMARK SMILES IDX 7 1 6 2 5 3 4 4 2 5 1 6 3 7 8 8 9 9 10 10 11 11 12 12 13 13
REMARK SMILES IDX 14 14
REMARK H PARENT
REMARK Flexibility Score: inf
ROOT
ATOM      1  C   UNL     1      62.805  29.262  13.244  1.00  0.00     0.000 C 
ENDROOT
BRANCH   1   2
ATOM      2  C   UNL     1      63.585  30.200  12.311  1.00  0.00     0.000 C 
BRANCH   2   3
ATOM      3  C   UNL     1      63.993  29.520  10.994  1.00  0.00     0.006 C 
BRANCH   3   4
ATOM      4  C   UNL     1      63.397  30.211   9.762  1.00  0.00     0.053 C 
BRANCH   4   5
ATOM      5  C   UNL     1      62.060  29.625   9.432  1.00  0.00     0.041 C 
ATOM      6  O   UNL     1      61.127  30.367   9.026  1.00  0.00    -0.550 OA
ATOM      7  O   UNL     1      61.860  28.255   9.525  1.00  0.00    -0.550 OA
ENDBRANCH   4   5
ENDBRANCH   3   4
ENDBRANCH   2   3
ENDBRANCH   1   2
BRANCH   1   8
ATOM      8  C   UNL     1      61.308  29.605  13.240  1.00  0.00     0.000 C 
BRANCH   8   9
ATOM      9  C   UNL     1      61.018  30.993  12.648  1.00  0.00     0.000 C 
BRANCH   9  10
ATOM     10  C   UNL     1      60.641  32.029  13.722  1.00  0.00     0.006 C 
BRANCH  10  11
ATOM     11  C   UNL     1      61.634  33.198  13.773  1.00  0.00     0.053 C 
BRANCH  11  12
ATOM     12  C   UNL     1      62.457  33.176  15.024  1.00  0.00     0.041 C 
ATOM     13  O   UNL     1      62.729  34.251  15.621  1.00  0.00    -0.550 OA
ATOM     14  O   UNL     1      62.949  31.973  15.514  1.00  0.00    -0.550 OA
ENDBRANCH  11  12
ENDBRANCH  10  11
ENDBRANCH   9  10
ENDBRANCH   8   9
ENDBRANCH   1   8
TORSDOF 9
ENDMDL
