MODEL 1
REMARK VINA RESULT:     9.511      0.000      0.000
REMARK INTER + INTRA:          13.872
REMARK INTER:                  12.847
REMARK INTRA:                   1.025
REMARK UNBOUND:                 1.025
REMARK SMILES C=C(C)[C@@H]1CC[C@@H](C)C2=C(C1)[C@@H](C)CC2
REMARK SMILES IDX 10 1 9 2 15 3 14 4 12 5 13 6 7 7 8 8 6 9 11 11 4 12 5 13
REMARK SMILES IDX 2 15 1 16 3 17
REMARK H PARENT
REMARK Flexibility Score: 80.00
ROOT
ATOM      1  C   UNL     1      -0.789   6.501  -8.909  1.00  0.00    -0.067 C 
ATOM      2  C   UNL     1       0.342   5.999  -8.386  1.00  0.00    -0.068 C 
ATOM      3  C   UNL     1       0.751   6.749  -7.160  1.00  0.00     0.032 C 
ATOM      4  C   UNL     1      -0.189   7.949  -7.099  1.00  0.00     0.012 C 
ATOM      5  C   UNL     1      -1.307   7.657  -8.109  1.00  0.00     0.012 C 
ATOM      6  C   UNL     1      -2.622   7.291  -7.410  1.00  0.00     0.012 C 
ENDROOT
BRANCH   2   7
ATOM      7  C   UNL     1       1.177   4.835  -8.901  1.00  0.00     0.012 C 
ATOM      8  C   UNL     1       2.669   5.027  -8.585  1.00  0.00     0.012 C 
BRANCH   7   9
ATOM      9  C   UNL     1       0.927   4.464 -10.376  1.00  0.00     0.008 CG0
ATOM     10  G   UNL     1       0.716   5.652 -11.335  1.00  0.00     0.000 G0
ENDBRANCH   7   9
ENDBRANCH   2   7
BRANCH   1  11
ATOM     11  C   UNL     1      -1.524   5.996 -10.131  1.00  0.00     0.039 C 
BRANCH  11  12
ATOM     12  C   UNL     1      -0.720   6.204 -11.429  1.00  0.00     0.018 C 
BRANCH  12  13
ATOM     13  C   UNL     1       0.723   5.652 -11.331  1.00  0.00     0.009 CG0
ATOM     14  G   UNL     1       0.913   4.469 -10.361  1.00  0.00     0.000 G0
ENDBRANCH  12  13
BRANCH  12  15
ATOM     15  C   UNL     1      -1.434   5.578 -12.621  1.00  0.00    -0.077 C 
ATOM     16  C   UNL     1      -0.748   5.250 -13.728  1.00  0.00     0.008 C 
ATOM     17  C   UNL     1      -2.912   5.273 -12.568  1.00  0.00     0.039 C 
ENDBRANCH  12  15
ENDBRANCH  11  12
ENDBRANCH   1  11
TORSDOF 1
ENDMDL
