MODEL 1
REMARK VINA RESULT:    -2.454      0.000      0.000
REMARK INTER + INTRA:          -5.354
REMARK INTER:                  -4.320
REMARK INTRA:                  -1.034
REMARK UNBOUND:                -1.034
REMARK SMILES CCCCCCCCCCCCCCC(=O)[O-]
REMARK SMILES IDX 9 1 10 2 11 3 12 4 13 5 14 6 15 7 16 8 17 9 8 10 7 11 6 12
REMARK SMILES IDX 5 13 4 14 3 15 2 16 1 17
REMARK H PARENT
REMARK Flexibility Score: inf
ROOT
ATOM      1  C   UNL     1      -8.898 -22.863  18.141  1.00  0.00     0.000 C 
ENDROOT
BRANCH   1   2
ATOM      2  C   UNL     1     -10.077 -22.852  19.124  1.00  0.00     0.000 C 
BRANCH   2   3
ATOM      3  C   UNL     1      -9.981 -21.659  20.083  1.00  0.00     0.000 C 
BRANCH   3   4
ATOM      4  C   UNL     1     -10.093 -20.330  19.320  1.00  0.00     0.000 C 
BRANCH   4   5
ATOM      5  C   UNL     1     -10.954 -19.294  20.059  1.00  0.00     0.006 C 
BRANCH   5   6
ATOM      6  C   UNL     1     -10.119 -18.163  20.675  1.00  0.00     0.053 C 
BRANCH   6   7
ATOM      7  C   UNL     1     -10.019 -18.336  22.157  1.00  0.00     0.041 C 
ATOM      8  O   UNL     1      -9.262 -17.591  22.833  1.00  0.00    -0.550 OA
ATOM      9  O   UNL     1     -10.799 -19.288  22.800  1.00  0.00    -0.550 OA
ENDBRANCH   6   7
ENDBRANCH   5   6
ENDBRANCH   4   5
ENDBRANCH   3   4
ENDBRANCH   2   3
ENDBRANCH   1   2
BRANCH   1  10
ATOM     10  C   UNL     1      -7.534 -22.873  18.850  1.00  0.00     0.000 C 
BRANCH  10  11
ATOM     11  C   UNL     1      -6.366 -23.124  17.884  1.00  0.00    -0.000 C 
BRANCH  11  12
ATOM     12  C   UNL     1      -6.801 -22.912  16.429  1.00  0.00    -0.000 C 
BRANCH  12  13
ATOM     13  C   UNL     1      -6.159 -21.648  15.841  1.00  0.00    -0.000 C 
BRANCH  13  14
ATOM     14  C   UNL     1      -7.116 -20.861  14.925  1.00  0.00    -0.000 C 
BRANCH  14  15
ATOM     15  C   UNL     1      -8.580 -20.802  15.407  1.00  0.00    -0.000 C 
BRANCH  15  16
ATOM     16  C   UNL     1      -9.586 -20.280  14.366  1.00  0.00    -0.003 C 
ATOM     17  C   UNL     1     -11.027 -20.284  14.875  1.00  0.00     0.004 C 
ENDBRANCH  15  16
ENDBRANCH  14  15
ENDBRANCH  13  14
ENDBRANCH  12  13
ENDBRANCH  11  12
ENDBRANCH  10  11
ENDBRANCH   1  10
TORSDOF 13
ENDMDL
MODEL 2
REMARK VINA RESULT:    -2.406      2.967      6.073
REMARK INTER + INTRA:          -5.269
REMARK INTER:                  -4.449
REMARK INTRA:                  -0.820
REMARK UNBOUND:                -1.034
REMARK SMILES CCCCCCCCCCCCCCC(=O)[O-]
REMARK SMILES IDX 9 1 10 2 11 3 12 4 13 5 14 6 15 7 16 8 17 9 8 10 7 11 6 12
REMARK SMILES IDX 5 13 4 14 3 15 2 16 1 17
REMARK H PARENT
REMARK Flexibility Score: inf
ROOT
ATOM      1  C   UNL     1      -6.105 -22.989  19.358  1.00  0.00     0.000 C 
ENDROOT
BRANCH   1   2
ATOM      2  C   UNL     1      -7.280 -23.125  18.379  1.00  0.00     0.000 C 
BRANCH   2   3
ATOM      3  C   UNL     1      -7.160 -22.115  17.232  1.00  0.00     0.000 C 
BRANCH   3   4
ATOM      4  C   UNL     1      -8.547 -21.681  16.732  1.00  0.00     0.000 C 
BRANCH   4   5
ATOM      5  C   UNL     1      -9.691 -22.318  17.537  1.00  0.00     0.006 C 
BRANCH   5   6
ATOM      6  C   UNL     1     -11.075 -21.974  16.968  1.00  0.00     0.053 C 
BRANCH   6   7
ATOM      7  C   UNL     1     -11.045 -20.639  16.295  1.00  0.00     0.041 C 
ATOM      8  O   UNL     1     -11.031 -20.563  15.038  1.00  0.00    -0.550 OA
ATOM      9  O   UNL     1     -11.082 -19.477  17.054  1.00  0.00    -0.550 OA
ENDBRANCH   6   7
ENDBRANCH   5   6
ENDBRANCH   4   5
ENDBRANCH   3   4
ENDBRANCH   2   3
ENDBRANCH   1   2
BRANCH   1  10
ATOM     10  C   UNL     1      -6.545 -23.079  20.828  1.00  0.00     0.000 C 
BRANCH  10  11
ATOM     11  C   UNL     1      -8.072 -23.071  20.992  1.00  0.00    -0.000 C 
BRANCH  11  12
ATOM     12  C   UNL     1      -8.469 -22.677  22.420  1.00  0.00    -0.000 C 
BRANCH  12  13
ATOM     13  C   UNL     1      -9.995 -22.591  22.562  1.00  0.00    -0.000 C 
BRANCH  13  14
ATOM     14  C   UNL     1     -10.523 -21.145  22.493  1.00  0.00    -0.000 C 
BRANCH  14  15
ATOM     15  C   UNL     1      -9.470 -20.052  22.769  1.00  0.00    -0.000 C 
BRANCH  15  16
ATOM     16  C   UNL     1      -9.913 -18.621  22.420  1.00  0.00    -0.003 C 
ATOM     17  C   UNL     1      -9.126 -17.552  23.178  1.00  0.00     0.004 C 
ENDBRANCH  15  16
ENDBRANCH  14  15
ENDBRANCH  13  14
ENDBRANCH  12  13
ENDBRANCH  11  12
ENDBRANCH  10  11
ENDBRANCH   1  10
TORSDOF 13
ENDMDL
MODEL 3
REMARK VINA RESULT:    -2.243      1.440      2.153
REMARK INTER + INTRA:          -4.982
REMARK INTER:                  -4.290
REMARK INTRA:                  -0.692
REMARK UNBOUND:                -1.034
REMARK SMILES CCCCCCCCCCCCCCC(=O)[O-]
REMARK SMILES IDX 9 1 10 2 11 3 12 4 13 5 14 6 15 7 16 8 17 9 8 10 7 11 6 12
REMARK SMILES IDX 5 13 4 14 3 15 2 16 1 17
REMARK H PARENT
REMARK Flexibility Score: inf
ROOT
ATOM      1  C   UNL     1      -7.431 -22.502  18.686  1.00  0.00     0.000 C 
ENDROOT
BRANCH   1   2
ATOM      2  C   UNL     1      -8.653 -23.094  19.403  1.00  0.00     0.000 C 
BRANCH   2   3
ATOM      3  C   UNL     1      -8.526 -22.941  20.923  1.00  0.00     0.000 C 
BRANCH   3   4
ATOM      4  C   UNL     1      -9.782 -22.285  21.517  1.00  0.00     0.000 C 
BRANCH   4   5
ATOM      5  C   UNL     1     -10.196 -21.009  20.766  1.00  0.00     0.006 C 
BRANCH   5   6
ATOM      6  C   UNL     1     -10.373 -19.805  21.700  1.00  0.00     0.053 C 
BRANCH   6   7
ATOM      7  C   UNL     1     -10.383 -18.532  20.914  1.00  0.00     0.041 C 
ATOM      8  O   UNL     1      -9.801 -17.508  21.359  1.00  0.00    -0.550 OA
ATOM      9  O   UNL     1     -10.995 -18.490  19.669  1.00  0.00    -0.550 OA
ENDBRANCH   6   7
ENDBRANCH   5   6
ENDBRANCH   4   5
ENDBRANCH   3   4
ENDBRANCH   2   3
ENDBRANCH   1   2
BRANCH   1  10
ATOM     10  C   UNL     1      -7.380 -22.872  17.195  1.00  0.00     0.000 C 
BRANCH  10  11
ATOM     11  C   UNL     1      -6.342 -22.052  16.415  1.00  0.00    -0.000 C 
BRANCH  11  12
ATOM     12  C   UNL     1      -7.009 -21.240  15.298  1.00  0.00    -0.000 C 
BRANCH  12  13
ATOM     13  C   UNL     1      -8.539 -21.322  15.398  1.00  0.00    -0.000 C 
BRANCH  13  14
ATOM     14  C   UNL     1      -9.254 -20.328  14.464  1.00  0.00    -0.000 C 
BRANCH  14  15
ATOM     15  C   UNL     1     -10.756 -20.126  14.751  1.00  0.00    -0.000 C 
BRANCH  15  16
ATOM     16  C   UNL     1     -11.106 -19.866  16.226  1.00  0.00    -0.003 C 
ATOM     17  C   UNL     1     -11.028 -21.126  17.088  1.00  0.00     0.004 C 
ENDBRANCH  15  16
ENDBRANCH  14  15
ENDBRANCH  13  14
ENDBRANCH  12  13
ENDBRANCH  11  12
ENDBRANCH  10  11
ENDBRANCH   1  10
TORSDOF 13
ENDMDL
MODEL 4
REMARK VINA RESULT:    -1.953      6.204      9.021
REMARK INTER + INTRA:          -4.471
REMARK INTER:                  -4.017
REMARK INTRA:                  -0.454
REMARK UNBOUND:                -1.034
REMARK SMILES CCCCCCCCCCCCCCC(=O)[O-]
REMARK SMILES IDX 9 1 10 2 11 3 12 4 13 5 14 6 15 7 16 8 17 9 8 10 7 11 6 12
REMARK SMILES IDX 5 13 4 14 3 15 2 16 1 17
REMARK H PARENT
REMARK Flexibility Score: inf
ROOT
ATOM      1  C   UNL     1      -4.887 -23.113  17.082  1.00  0.00     0.000 C 
ENDROOT
BRANCH   1   2
ATOM      2  C   UNL     1      -4.021 -22.434  16.010  1.00  0.00     0.000 C 
BRANCH   2   3
ATOM      3  C   UNL     1      -2.572 -22.929  16.081  1.00  0.00     0.000 C 
BRANCH   3   4
ATOM      4  C   UNL     1      -1.585 -21.777  15.835  1.00  0.00     0.000 C 
BRANCH   4   5
ATOM      5  C   UNL     1      -0.160 -22.107  16.308  1.00  0.00     0.006 C 
BRANCH   5   6
ATOM      6  C   UNL     1       0.542 -23.125  15.399  1.00  0.00     0.053 C 
BRANCH   6   7
ATOM      7  C   UNL     1       1.928 -22.665  15.073  1.00  0.00     0.041 C 
ATOM      8  O   UNL     1       2.829 -22.697  15.952  1.00  0.00    -0.550 OA
ATOM      9  O   UNL     1       2.236 -22.245  13.786  1.00  0.00    -0.550 OA
ENDBRANCH   6   7
ENDBRANCH   5   6
ENDBRANCH   4   5
ENDBRANCH   3   4
ENDBRANCH   2   3
ENDBRANCH   1   2
BRANCH   1  10
ATOM     10  C   UNL     1      -6.315 -22.548  17.136  1.00  0.00     0.000 C 
BRANCH  10  11
ATOM     11  C   UNL     1      -6.941 -22.651  18.535  1.00  0.00    -0.000 C 
BRANCH  11  12
ATOM     12  C   UNL     1      -8.342 -22.027  18.558  1.00  0.00    -0.000 C 
BRANCH  12  13
ATOM     13  C   UNL     1      -9.209 -22.664  19.653  1.00  0.00    -0.000 C 
BRANCH  13  14
ATOM     14  C   UNL     1     -10.365 -21.753  20.106  1.00  0.00    -0.000 C 
BRANCH  14  15
ATOM     15  C   UNL     1     -10.713 -20.607  19.135  1.00  0.00    -0.000 C 
BRANCH  15  16
ATOM     16  C   UNL     1     -11.111 -19.282  19.808  1.00  0.00    -0.003 C 
ATOM     17  C   UNL     1      -9.988 -18.685  20.656  1.00  0.00     0.004 C 
ENDBRANCH  15  16
ENDBRANCH  14  15
ENDBRANCH  13  14
ENDBRANCH  12  13
ENDBRANCH  11  12
ENDBRANCH  10  11
ENDBRANCH   1  10
TORSDOF 13
ENDMDL
MODEL 5
REMARK VINA RESULT:    -1.829      4.103      5.793
REMARK INTER + INTRA:          -4.253
REMARK INTER:                  -3.930
REMARK INTRA:                  -0.322
REMARK UNBOUND:                -1.034
REMARK SMILES CCCCCCCCCCCCCCC(=O)[O-]
REMARK SMILES IDX 9 1 10 2 11 3 12 4 13 5 14 6 15 7 16 8 17 9 8 10 7 11 6 12
REMARK SMILES IDX 5 13 4 14 3 15 2 16 1 17
REMARK H PARENT
REMARK Flexibility Score: inf
ROOT
ATOM      1  C   UNL     1      -6.385 -22.265  17.828  1.00  0.00     0.000 C 
ENDROOT
BRANCH   1   2
ATOM      2  C   UNL     1      -7.874 -22.381  17.466  1.00  0.00     0.000 C 
BRANCH   2   3
ATOM      3  C   UNL     1      -8.758 -22.151  18.698  1.00  0.00     0.000 C 
BRANCH   3   4
ATOM      4  C   UNL     1     -10.213 -21.879  18.287  1.00  0.00     0.000 C 
BRANCH   4   5
ATOM      5  C   UNL     1     -10.695 -20.481  18.704  1.00  0.00     0.006 C 
BRANCH   5   6
ATOM      6  C   UNL     1     -10.407 -20.173  20.179  1.00  0.00     0.053 C 
BRANCH   6   7
ATOM      7  C   UNL     1     -10.643 -18.724  20.466  1.00  0.00     0.041 C 
ATOM      8  O   UNL     1     -11.083 -17.963  19.564  1.00  0.00    -0.550 OA
ATOM      9  O   UNL     1     -10.422 -18.223  21.741  1.00  0.00    -0.550 OA
ENDBRANCH   6   7
ENDBRANCH   5   6
ENDBRANCH   4   5
ENDBRANCH   3   4
ENDBRANCH   2   3
ENDBRANCH   1   2
BRANCH   1  10
ATOM     10  C   UNL     1      -5.482 -23.089  16.897  1.00  0.00     0.000 C 
BRANCH  10  11
ATOM     11  C   UNL     1      -4.413 -22.236  16.199  1.00  0.00    -0.000 C 
BRANCH  11  12
ATOM     12  C   UNL     1      -3.041 -22.918  16.257  1.00  0.00    -0.000 C 
BRANCH  12  13
ATOM     13  C   UNL     1      -1.941 -21.986  15.730  1.00  0.00    -0.000 C 
BRANCH  13  14
ATOM     14  C   UNL     1      -0.541 -22.353  16.258  1.00  0.00    -0.000 C 
BRANCH  14  15
ATOM     15  C   UNL     1       0.430 -22.913  15.199  1.00  0.00    -0.000 C 
BRANCH  15  16
ATOM     16  C   UNL     1       1.919 -22.842  15.581  1.00  0.00    -0.003 C 
ATOM     17  C   UNL     1       2.851 -23.008  14.380  1.00  0.00     0.004 C 
ENDBRANCH  15  16
ENDBRANCH  14  15
ENDBRANCH  13  14
ENDBRANCH  12  13
ENDBRANCH  11  12
ENDBRANCH  10  11
ENDBRANCH   1  10
TORSDOF 13
ENDMDL
MODEL 6
REMARK VINA RESULT:    -1.595      3.153      6.555
REMARK INTER + INTRA:          -3.842
REMARK INTER:                  -2.890
REMARK INTRA:                  -0.951
REMARK UNBOUND:                -1.034
REMARK SMILES CCCCCCCCCCCCCCC(=O)[O-]
REMARK SMILES IDX 9 1 10 2 11 3 12 4 13 5 14 6 15 7 16 8 17 9 8 10 7 11 6 12
REMARK SMILES IDX 5 13 4 14 3 15 2 16 1 17
REMARK H PARENT
REMARK Flexibility Score: inf
ROOT
ATOM      1  C   UNL     1     -10.079 -20.539  18.150  1.00  0.00     0.000 C 
ENDROOT
BRANCH   1   2
ATOM      2  C   UNL     1     -10.862 -21.627  17.401  1.00  0.00     0.000 C 
BRANCH   2   3
ATOM      3  C   UNL     1     -10.722 -21.459  15.884  1.00  0.00     0.000 C 
BRANCH   3   4
ATOM      4  C   UNL     1      -9.612 -20.453  15.542  1.00  0.00     0.000 C 
BRANCH   4   5
ATOM      5  C   UNL     1      -8.324 -21.135  15.055  1.00  0.00     0.006 C 
BRANCH   5   6
ATOM      6  C   UNL     1      -7.798 -22.180  16.048  1.00  0.00     0.053 C 
BRANCH   6   7
ATOM      7  C   UNL     1      -6.420 -21.819  16.505  1.00  0.00     0.041 C 
ATOM      8  O   UNL     1      -6.069 -22.039  17.694  1.00  0.00    -0.550 OA
ATOM      9  O   UNL     1      -5.509 -21.283  15.606  1.00  0.00    -0.550 OA
ENDBRANCH   6   7
ENDBRANCH   5   6
ENDBRANCH   4   5
ENDBRANCH   3   4
ENDBRANCH   2   3
ENDBRANCH   1   2
BRANCH   1  10
ATOM     10  C   UNL     1     -10.236 -20.638  19.676  1.00  0.00     0.000 C 
BRANCH  10  11
ATOM     11  C   UNL     1     -11.122 -21.816  20.105  1.00  0.00    -0.000 C 
BRANCH  11  12
ATOM     12  C   UNL     1     -10.606 -22.447  21.405  1.00  0.00    -0.000 C 
BRANCH  12  13
ATOM     13  C   UNL     1      -9.888 -21.405  22.274  1.00  0.00    -0.000 C 
BRANCH  13  14
ATOM     14  C   UNL     1     -10.836 -20.678  23.245  1.00  0.00    -0.000 C 
BRANCH  14  15
ATOM     15  C   UNL     1     -11.125 -19.204  22.896  1.00  0.00    -0.000 C 
BRANCH  15  16
ATOM     16  C   UNL     1      -9.878 -18.315  22.748  1.00  0.00    -0.003 C 
ATOM     17  C   UNL     1      -9.792 -17.632  21.383  1.00  0.00     0.004 C 
ENDBRANCH  15  16
ENDBRANCH  14  15
ENDBRANCH  13  14
ENDBRANCH  12  13
ENDBRANCH  11  12
ENDBRANCH  10  11
ENDBRANCH   1  10
TORSDOF 13
ENDMDL
MODEL 7
REMARK VINA RESULT:    -1.576      9.253     11.685
REMARK INTER + INTRA:          -3.807
REMARK INTER:                  -3.407
REMARK INTRA:                  -0.400
REMARK UNBOUND:                -1.034
REMARK SMILES CCCCCCCCCCCCCCC(=O)[O-]
REMARK SMILES IDX 9 1 10 2 11 3 12 4 13 5 14 6 15 7 16 8 17 9 8 10 7 11 6 12
REMARK SMILES IDX 5 13 4 14 3 15 2 16 1 17
REMARK H PARENT
REMARK Flexibility Score: inf
ROOT
ATOM      1  C   UNL     1       0.964 -22.377  15.666  1.00  0.00     0.000 C 
ENDROOT
BRANCH   1   2
ATOM      2  C   UNL     1      -0.428 -23.026  15.663  1.00  0.00     0.000 C 
BRANCH   2   3
ATOM      3  C   UNL     1      -1.479 -22.073  16.245  1.00  0.00     0.000 C 
BRANCH   3   4
ATOM      4  C   UNL     1      -2.861 -22.336  15.626  1.00  0.00     0.000 C 
BRANCH   4   5
ATOM      5  C   UNL     1      -3.871 -22.888  16.645  1.00  0.00     0.006 C 
BRANCH   5   6
ATOM      6  C   UNL     1      -5.250 -22.224  16.529  1.00  0.00     0.053 C 
BRANCH   6   7
ATOM      7  C   UNL     1      -6.148 -22.690  17.631  1.00  0.00     0.041 C 
ATOM      8  O   UNL     1      -5.674 -22.944  18.769  1.00  0.00    -0.550 OA
ATOM      9  O   UNL     1      -7.515 -22.796  17.414  1.00  0.00    -0.550 OA
ENDBRANCH   6   7
ENDBRANCH   5   6
ENDBRANCH   4   5
ENDBRANCH   3   4
ENDBRANCH   2   3
ENDBRANCH   1   2
BRANCH   1  10
ATOM     10  C   UNL     1       1.969 -23.124  14.775  1.00  0.00     0.000 C 
BRANCH  10  11
ATOM     11  C   UNL     1       3.416 -22.990  15.272  1.00  0.00    -0.000 C 
BRANCH  11  12
ATOM     12  C   UNL     1       4.377 -22.742  14.103  1.00  0.00    -0.000 C 
BRANCH  12  13
ATOM     13  C   UNL     1       5.816 -23.118  14.486  1.00  0.00    -0.000 C 
BRANCH  13  14
ATOM     14  C   UNL     1       6.353 -22.299  15.674  1.00  0.00    -0.000 C 
BRANCH  14  15
ATOM     15  C   UNL     1       7.887 -22.306  15.832  1.00  0.00    -0.000 C 
BRANCH  15  16
ATOM     16  C   UNL     1       8.666 -21.724  14.639  1.00  0.00    -0.003 C 
ATOM     17  C   UNL     1       8.419 -20.228  14.440  1.00  0.00     0.004 C 
ENDBRANCH  15  16
ENDBRANCH  14  15
ENDBRANCH  13  14
ENDBRANCH  12  13
ENDBRANCH  11  12
ENDBRANCH  10  11
ENDBRANCH   1  10
TORSDOF 13
ENDMDL
MODEL 8
REMARK VINA RESULT:    -1.541      1.917      3.681
REMARK INTER + INTRA:          -3.747
REMARK INTER:                  -3.002
REMARK INTRA:                  -0.746
REMARK UNBOUND:                -1.034
REMARK SMILES CCCCCCCCCCCCCCC(=O)[O-]
REMARK SMILES IDX 9 1 10 2 11 3 12 4 13 5 14 6 15 7 16 8 17 9 8 10 7 11 6 12
REMARK SMILES IDX 5 13 4 14 3 15 2 16 1 17
REMARK H PARENT
REMARK Flexibility Score: inf
ROOT
ATOM      1  C   UNL     1      -8.201 -22.152  19.253  1.00  0.00     0.000 C 
ENDROOT
BRANCH   1   2
ATOM      2  C   UNL     1      -8.895 -22.392  20.602  1.00  0.00     0.000 C 
BRANCH   2   3
ATOM      3  C   UNL     1     -10.420 -22.377  20.446  1.00  0.00     0.000 C 
BRANCH   3   4
ATOM      4  C   UNL     1     -11.053 -21.291  21.329  1.00  0.00     0.000 C 
BRANCH   4   5
ATOM      5  C   UNL     1     -10.005 -20.440  22.064  1.00  0.00     0.006 C 
BRANCH   5   6
ATOM      6  C   UNL     1     -10.596 -19.149  22.647  1.00  0.00     0.053 C 
BRANCH   6   7
ATOM      7  C   UNL     1      -9.722 -17.981  22.318  1.00  0.00     0.041 C 
ATOM      8  O   UNL     1      -9.605 -17.592  21.126  1.00  0.00    -0.550 OA
ATOM      9  O   UNL     1      -9.075 -17.290  23.334  1.00  0.00    -0.550 OA
ENDBRANCH   6   7
ENDBRANCH   5   6
ENDBRANCH   4   5
ENDBRANCH   3   4
ENDBRANCH   2   3
ENDBRANCH   1   2
BRANCH   1  10
ATOM     10  C   UNL     1      -8.673 -23.125  18.161  1.00  0.00     0.000 C 
BRANCH  10  11
ATOM     11  C   UNL     1      -8.909 -22.432  16.811  1.00  0.00    -0.000 C 
BRANCH  11  12
ATOM     12  C   UNL     1      -7.712 -21.552  16.429  1.00  0.00    -0.000 C 
BRANCH  12  13
ATOM     13  C   UNL     1      -6.495 -22.411  16.056  1.00  0.00    -0.000 C 
BRANCH  13  14
ATOM     14  C   UNL     1      -5.171 -21.841  16.599  1.00  0.00    -0.000 C 
BRANCH  14  15
ATOM     15  C   UNL     1      -3.960 -21.990  15.655  1.00  0.00    -0.000 C 
BRANCH  15  16
ATOM     16  C   UNL     1      -2.933 -23.055  16.079  1.00  0.00    -0.003 C 
ATOM     17  C   UNL     1      -1.512 -22.503  16.182  1.00  0.00     0.004 C 
ENDBRANCH  15  16
ENDBRANCH  14  15
ENDBRANCH  13  14
ENDBRANCH  12  13
ENDBRANCH  11  12
ENDBRANCH  10  11
ENDBRANCH   1  10
TORSDOF 13
ENDMDL
