MODEL 1
REMARK VINA RESULT:    -2.941      0.000      0.000
REMARK INTER + INTRA:          -2.941
REMARK INTER:                  -2.941
REMARK INTRA:                   0.000
REMARK UNBOUND:                 0.000
REMARK SMILES CC(=O)[O-]
REMARK SMILES IDX 1 1 2 2 3 3 4 4
REMARK H PARENT
REMARK Flexibility Score: inf
ROOT
ATOM      1  C   UNL     1      23.554  58.163  32.972  1.00  0.00     0.063 C 
ATOM      2  C   UNL     1      24.503  59.308  33.081  1.00  0.00     0.038 C 
ATOM      3  O   UNL     1      25.276  59.582  32.126  1.00  0.00    -0.550 OA
ATOM      4  O   UNL     1      24.574  60.043  34.257  1.00  0.00    -0.550 OA
ENDROOT
TORSDOF 0
ENDMDL
MODEL 2
REMARK VINA RESULT:    -2.900      0.134      1.625
REMARK INTER + INTRA:          -2.900
REMARK INTER:                  -2.900
REMARK INTRA:                   0.000
REMARK UNBOUND:                 0.000
REMARK SMILES CC(=O)[O-]
REMARK SMILES IDX 1 1 2 2 3 3 4 4
REMARK H PARENT
REMARK Flexibility Score: inf
ROOT
ATOM      1  C   UNL     1      23.386  58.225  33.052  1.00  0.00     0.063 C 
ATOM      2  C   UNL     1      24.416  59.293  33.192  1.00  0.00     0.038 C 
ATOM      3  O   UNL     1      24.483  59.972  34.249  1.00  0.00    -0.550 OA
ATOM      4  O   UNL     1      25.271  59.578  32.135  1.00  0.00    -0.550 OA
ENDROOT
TORSDOF 0
ENDMDL
MODEL 3
REMARK VINA RESULT:    -2.873      3.077      3.423
REMARK INTER + INTRA:          -2.873
REMARK INTER:                  -2.873
REMARK INTRA:                   0.000
REMARK UNBOUND:                 0.000
REMARK SMILES CC(=O)[O-]
REMARK SMILES IDX 1 1 2 2 3 3 4 4
REMARK H PARENT
REMARK Flexibility Score: inf
ROOT
ATOM      1  C   UNL     1      22.071  58.564  36.232  1.00  0.00     0.063 C 
ATOM      2  C   UNL     1      23.151  59.591  36.185  1.00  0.00     0.038 C 
ATOM      3  O   UNL     1      24.114  59.459  35.384  1.00  0.00    -0.550 OA
ATOM      4  O   UNL     1      23.126  60.668  37.061  1.00  0.00    -0.550 OA
ENDROOT
TORSDOF 0
ENDMDL
MODEL 4
REMARK VINA RESULT:    -2.798      1.356      1.894
REMARK INTER + INTRA:          -2.798
REMARK INTER:                  -2.798
REMARK INTRA:                   0.000
REMARK UNBOUND:                 0.000
REMARK SMILES CC(=O)[O-]
REMARK SMILES IDX 1 1 2 2 3 3 4 4
REMARK H PARENT
REMARK Flexibility Score: inf
ROOT
ATOM      1  C   UNL     1      24.005  58.613  34.061  1.00  0.00     0.063 C 
ATOM      2  C   UNL     1      24.708  58.578  32.746  1.00  0.00     0.038 C 
ATOM      3  O   UNL     1      25.190  59.634  32.259  1.00  0.00    -0.550 OA
ATOM      4  O   UNL     1      24.785  57.391  32.029  1.00  0.00    -0.550 OA
ENDROOT
TORSDOF 0
ENDMDL
MODEL 5
REMARK VINA RESULT:    -2.637      5.287      5.730
REMARK INTER + INTRA:          -2.637
REMARK INTER:                  -2.637
REMARK INTRA:                   0.000
REMARK UNBOUND:                 0.000
REMARK SMILES CC(=O)[O-]
REMARK SMILES IDX 1 1 2 2 3 3 4 4
REMARK H PARENT
REMARK Flexibility Score: inf
ROOT
ATOM      1  C   UNL     1      21.876  59.182  38.395  1.00  0.00     0.063 C 
ATOM      2  C   UNL     1      22.692  60.430  38.397  1.00  0.00     0.038 C 
ATOM      3  O   UNL     1      23.095  60.923  37.311  1.00  0.00    -0.550 OA
ATOM      4  O   UNL     1      23.055  61.022  39.600  1.00  0.00    -0.550 OA
ENDROOT
TORSDOF 0
ENDMDL
MODEL 6
REMARK VINA RESULT:    -2.595      1.809      2.541
REMARK INTER + INTRA:          -2.595
REMARK INTER:                  -2.595
REMARK INTRA:                   0.000
REMARK UNBOUND:                 0.000
REMARK SMILES CC(=O)[O-]
REMARK SMILES IDX 1 1 2 2 3 3 4 4
REMARK H PARENT
REMARK Flexibility Score: inf
ROOT
ATOM      1  C   UNL     1      22.682  56.606  31.910  1.00  0.00     0.063 C 
ATOM      2  C   UNL     1      23.447  57.784  32.410  1.00  0.00     0.038 C 
ATOM      3  O   UNL     1      23.001  58.467  33.369  1.00  0.00    -0.550 OA
ATOM      4  O   UNL     1      24.628  58.163  31.784  1.00  0.00    -0.550 OA
ENDROOT
TORSDOF 0
ENDMDL
MODEL 7
REMARK VINA RESULT:    -2.544      4.171      4.488
REMARK INTER + INTRA:          -2.544
REMARK INTER:                  -2.544
REMARK INTRA:                   0.000
REMARK UNBOUND:                 0.000
REMARK SMILES CC(=O)[O-]
REMARK SMILES IDX 1 1 2 2 3 3 4 4
REMARK H PARENT
REMARK Flexibility Score: inf
ROOT
ATOM      1  C   UNL     1      22.701  56.722  31.853  1.00  0.00     0.063 C 
ATOM      2  C   UNL     1      21.632  56.322  32.813  1.00  0.00     0.038 C 
ATOM      3  O   UNL     1      21.631  55.167  33.314  1.00  0.00    -0.550 OA
ATOM      4  O   UNL     1      20.604  57.206  33.117  1.00  0.00    -0.550 OA
ENDROOT
TORSDOF 0
ENDMDL
MODEL 8
REMARK VINA RESULT:    -2.509      2.356      2.535
REMARK INTER + INTRA:          -2.509
REMARK INTER:                  -2.509
REMARK INTRA:                   0.000
REMARK UNBOUND:                 0.000
REMARK SMILES CC(=O)[O-]
REMARK SMILES IDX 1 1 2 2 3 3 4 4
REMARK H PARENT
REMARK Flexibility Score: inf
ROOT
ATOM      1  C   UNL     1      24.947  58.117  32.251  1.00  0.00     0.063 C 
ATOM      2  C   UNL     1      23.521  57.751  32.490  1.00  0.00     0.038 C 
ATOM      3  O   UNL     1      22.998  56.799  31.854  1.00  0.00    -0.550 OA
ATOM      4  O   UNL     1      22.752  58.492  33.378  1.00  0.00    -0.550 OA
ENDROOT
TORSDOF 0
ENDMDL
MODEL 9
REMARK VINA RESULT:    -2.501      2.879      3.210
REMARK INTER + INTRA:          -2.501
REMARK INTER:                  -2.501
REMARK INTRA:                   0.000
REMARK UNBOUND:                 0.000
REMARK SMILES CC(=O)[O-]
REMARK SMILES IDX 1 1 2 2 3 3 4 4
REMARK H PARENT
REMARK Flexibility Score: inf
ROOT
ATOM      1  C   UNL     1      20.593  57.719  32.948  1.00  0.00     0.063 C 
ATOM      2  C   UNL     1      21.754  58.079  33.813  1.00  0.00     0.038 C 
ATOM      3  O   UNL     1      22.776  58.613  33.308  1.00  0.00    -0.550 OA
ATOM      4  O   UNL     1      21.730  57.778  35.168  1.00  0.00    -0.550 OA
ENDROOT
TORSDOF 0
ENDMDL
