MODEL 1
REMARK VINA RESULT:    -3.923      0.000      0.000
REMARK INTER + INTRA:          -3.923
REMARK INTER:                  -3.923
REMARK INTRA:                   0.000
REMARK UNBOUND:                 0.000
REMARK SMILES C=C1CCC[C@@]2(C)CC(=O)C(=C(C)C)C[C@H]12
REMARK SMILES IDX 13 1 12 2 11 3 15 4 16 5 2 6 1 7 3 8 4 9 5 10 6 11 8 12 9 13
REMARK SMILES IDX 10 14 7 15 14 16
REMARK H PARENT
REMARK Flexibility Score: inf
ROOT
ATOM      1  C   UNL     1      82.008   2.142  54.760  1.00  0.00     0.039 C 
ATOM      2  C   UNL     1      82.211   2.698  56.151  1.00  0.00    -0.070 C 
ATOM      3  C   UNL     1      81.870   3.980  56.472  1.00  0.00    -0.006 C 
ATOM      4  C   UNL     1      82.136   4.543  57.861  1.00  0.00     0.047 C 
ATOM      5  C   UNL     1      82.400   6.070  57.849  1.00  0.00     0.025 C 
ATOM      6  C   UNL     1      82.634   6.699  59.223  1.00  0.00    -0.073 C 
ATOM      7  C   UNL     1      82.612   6.012  60.382  1.00  0.00     0.008 C 
ATOM      8  C   UNL     1      82.954   8.175  59.235  1.00  0.00     0.031 C 
ATOM      9  C   UNL     1      81.887   8.958  58.463  1.00  0.00     0.005 C 
ATOM     10  C   UNL     1      81.660   8.373  57.058  1.00  0.00     0.008 C 
ATOM     11  C   UNL     1      81.295   6.858  57.078  1.00  0.00    -0.018 C 
ATOM     12  C   UNL     1      81.256   6.353  55.615  1.00  0.00     0.088 C 
ATOM     13  C   UNL     1      81.111   4.860  55.535  1.00  0.00     0.159 C 
ATOM     14  O   UNL     1      80.328   4.376  54.674  1.00  0.00    -0.295 OA
ATOM     15  C   UNL     1      79.894   6.669  57.724  1.00  0.00     0.012 C 
ATOM     16  C   UNL     1      82.848   1.777  57.169  1.00  0.00     0.039 C 
ENDROOT
TORSDOF 0
ENDMDL
MODEL 2
REMARK VINA RESULT:    -3.855      7.820     10.047
REMARK INTER + INTRA:          -3.855
REMARK INTER:                  -3.855
REMARK INTRA:                   0.000
REMARK UNBOUND:                 0.000
REMARK SMILES C=C1CCC[C@@]2(C)CC(=O)C(=C(C)C)C[C@H]12
REMARK SMILES IDX 13 1 12 2 11 3 15 4 16 5 2 6 1 7 3 8 4 9 5 10 6 11 8 12 9 13
REMARK SMILES IDX 10 14 7 15 14 16
REMARK H PARENT
REMARK Flexibility Score: inf
ROOT
ATOM      1  C   UNL     1      81.602   0.666  68.985  1.00  0.00     0.039 C 
ATOM      2  C   UNL     1      80.956   1.780  68.194  1.00  0.00    -0.070 C 
ATOM      3  C   UNL     1      80.491   1.586  66.926  1.00  0.00    -0.006 C 
ATOM      4  C   UNL     1      79.897   2.734  66.120  1.00  0.00     0.047 C 
ATOM      5  C   UNL     1      80.117   2.573  64.595  1.00  0.00     0.025 C 
ATOM      6  C   UNL     1      79.506   3.677  63.730  1.00  0.00    -0.073 C 
ATOM      7  C   UNL     1      78.813   4.724  64.221  1.00  0.00     0.008 C 
ATOM      8  C   UNL     1      79.757   3.577  62.245  1.00  0.00     0.031 C 
ATOM      9  C   UNL     1      79.339   2.198  61.725  1.00  0.00     0.005 C 
ATOM     10  C   UNL     1      79.974   1.065  62.550  1.00  0.00     0.008 C 
ATOM     11  C   UNL     1      79.667   1.172  64.074  1.00  0.00    -0.018 C 
ATOM     12  C   UNL     1      80.489   0.084  64.809  1.00  0.00     0.088 C 
ATOM     13  C   UNL     1      80.419   0.233  66.301  1.00  0.00     0.159 C 
ATOM     14  O   UNL     1      80.284  -0.804  67.004  1.00  0.00    -0.295 OA
ATOM     15  C   UNL     1      78.152   0.924  64.319  1.00  0.00     0.012 C 
ATOM     16  C   UNL     1      80.881   3.136  68.860  1.00  0.00     0.039 C 
ENDROOT
TORSDOF 0
ENDMDL
MODEL 3
REMARK VINA RESULT:    -3.750     16.810     18.780
REMARK INTER + INTRA:          -3.750
REMARK INTER:                  -3.750
REMARK INTRA:                   0.000
REMARK UNBOUND:                 0.000
REMARK SMILES C=C1CCC[C@@]2(C)CC(=O)C(=C(C)C)C[C@H]12
REMARK SMILES IDX 13 1 12 2 11 3 15 4 16 5 2 6 1 7 3 8 4 9 5 10 6 11 8 12 9 13
REMARK SMILES IDX 10 14 7 15 14 16
REMARK H PARENT
REMARK Flexibility Score: inf
ROOT
ATOM      1  C   UNL     1      74.443 -10.633  49.374  1.00  0.00     0.039 C 
ATOM      2  C   UNL     1      73.078 -10.463  50.001  1.00  0.00    -0.070 C 
ATOM      3  C   UNL     1      72.923  -9.994  51.274  1.00  0.00    -0.006 C 
ATOM      4  C   UNL     1      71.545  -9.885  51.911  1.00  0.00     0.047 C 
ATOM      5  C   UNL     1      71.579 -10.072  53.449  1.00  0.00     0.025 C 
ATOM      6  C   UNL     1      70.227  -9.932  54.150  1.00  0.00    -0.073 C 
ATOM      7  C   UNL     1      69.071  -9.658  53.514  1.00  0.00     0.008 C 
ATOM      8  C   UNL     1      70.221 -10.170  55.642  1.00  0.00     0.031 C 
ATOM      9  C   UNL     1      71.272  -9.290  56.326  1.00  0.00     0.005 C 
ATOM     10  C   UNL     1      72.655  -9.443  55.668  1.00  0.00     0.008 C 
ATOM     11  C   UNL     1      72.638  -9.155  54.136  1.00  0.00    -0.018 C 
ATOM     12  C   UNL     1      74.036  -9.500  53.566  1.00  0.00     0.088 C 
ATOM     13  C   UNL     1      74.064  -9.448  52.066  1.00  0.00     0.159 C 
ATOM     14  O   UNL     1      75.061  -8.924  51.500  1.00  0.00    -0.295 OA
ATOM     15  C   UNL     1      72.343  -7.648  53.893  1.00  0.00     0.012 C 
ATOM     16  C   UNL     1      71.886 -10.872  49.165  1.00  0.00     0.039 C 
ENDROOT
TORSDOF 0
ENDMDL
MODEL 4
REMARK VINA RESULT:    -3.713      8.037     10.090
REMARK INTER + INTRA:          -3.713
REMARK INTER:                  -3.713
REMARK INTRA:                   0.000
REMARK UNBOUND:                 0.000
REMARK SMILES C=C1CCC[C@@]2(C)CC(=O)C(=C(C)C)C[C@H]12
REMARK SMILES IDX 13 1 12 2 11 3 15 4 16 5 2 6 1 7 3 8 4 9 5 10 6 11 8 12 9 13
REMARK SMILES IDX 10 14 7 15 14 16
REMARK H PARENT
REMARK Flexibility Score: inf
ROOT
ATOM      1  C   UNL     1      79.278   1.358  69.125  1.00  0.00     0.039 C 
ATOM      2  C   UNL     1      78.194   1.919  68.233  1.00  0.00    -0.070 C 
ATOM      3  C   UNL     1      78.456   2.350  66.964  1.00  0.00    -0.006 C 
ATOM      4  C   UNL     1      77.365   2.967  66.100  1.00  0.00     0.047 C 
ATOM      5  C   UNL     1      77.913   4.016  65.101  1.00  0.00     0.025 C 
ATOM      6  C   UNL     1      76.868   4.642  64.177  1.00  0.00    -0.073 C 
ATOM      7  C   UNL     1      75.558   4.324  64.194  1.00  0.00     0.008 C 
ATOM      8  C   UNL     1      77.365   5.712  63.233  1.00  0.00     0.031 C 
ATOM      9  C   UNL     1      78.555   5.194  62.421  1.00  0.00     0.005 C 
ATOM     10  C   UNL     1      79.645   4.597  63.328  1.00  0.00     0.008 C 
ATOM     11  C   UNL     1      79.112   3.470  64.263  1.00  0.00    -0.018 C 
ATOM     12  C   UNL     1      80.251   3.069  65.233  1.00  0.00     0.088 C 
ATOM     13  C   UNL     1      79.778   2.132  66.307  1.00  0.00     0.159 C 
ATOM     14  O   UNL     1      80.513   1.159  66.623  1.00  0.00    -0.295 OA
ATOM     15  C   UNL     1      78.706   2.235  63.411  1.00  0.00     0.012 C 
ATOM     16  C   UNL     1      76.805   2.017  68.824  1.00  0.00     0.039 C 
ENDROOT
TORSDOF 0
ENDMDL
MODEL 5
REMARK VINA RESULT:    -3.691      9.690     12.057
REMARK INTER + INTRA:          -3.691
REMARK INTER:                  -3.691
REMARK INTRA:                   0.000
REMARK UNBOUND:                 0.000
REMARK SMILES C=C1CCC[C@@]2(C)CC(=O)C(=C(C)C)C[C@H]12
REMARK SMILES IDX 13 1 12 2 11 3 15 4 16 5 2 6 1 7 3 8 4 9 5 10 6 11 8 12 9 13
REMARK SMILES IDX 10 14 7 15 14 16
REMARK H PARENT
REMARK Flexibility Score: inf
ROOT
ATOM      1  C   UNL     1      79.749   3.449  64.840  1.00  0.00     0.039 C 
ATOM      2  C   UNL     1      79.918   1.950  64.749  1.00  0.00    -0.070 C 
ATOM      3  C   UNL     1      80.270   1.197  65.832  1.00  0.00    -0.006 C 
ATOM      4  C   UNL     1      80.494  -0.304  65.709  1.00  0.00     0.047 C 
ATOM      5  C   UNL     1      81.541  -0.838  66.718  1.00  0.00     0.025 C 
ATOM      6  C   UNL     1      81.779  -2.348  66.669  1.00  0.00    -0.073 C 
ATOM      7  C   UNL     1      81.137  -3.186  65.832  1.00  0.00     0.008 C 
ATOM      8  C   UNL     1      82.839  -2.888  67.600  1.00  0.00     0.031 C 
ATOM      9  C   UNL     1      82.565  -2.435  69.038  1.00  0.00     0.005 C 
ATOM     10  C   UNL     1      82.365  -0.912  69.125  1.00  0.00     0.008 C 
ATOM     11  C   UNL     1      81.240  -0.389  68.182  1.00  0.00    -0.018 C 
ATOM     12  C   UNL     1      81.248   1.159  68.236  1.00  0.00     0.088 C 
ATOM     13  C   UNL     1      80.335   1.766  67.210  1.00  0.00     0.159 C 
ATOM     14  O   UNL     1      79.621   2.749  67.545  1.00  0.00    -0.295 OA
ATOM     15  C   UNL     1      79.862  -0.912  68.675  1.00  0.00     0.012 C 
ATOM     16  C   UNL     1      79.714   1.321  63.388  1.00  0.00     0.039 C 
ENDROOT
TORSDOF 0
ENDMDL
MODEL 6
REMARK VINA RESULT:    -3.624      8.104      9.948
REMARK INTER + INTRA:          -3.624
REMARK INTER:                  -3.624
REMARK INTRA:                   0.000
REMARK UNBOUND:                 0.000
REMARK SMILES C=C1CCC[C@@]2(C)CC(=O)C(=C(C)C)C[C@H]12
REMARK SMILES IDX 13 1 12 2 11 3 15 4 16 5 2 6 1 7 3 8 4 9 5 10 6 11 8 12 9 13
REMARK SMILES IDX 10 14 7 15 14 16
REMARK H PARENT
REMARK Flexibility Score: inf
ROOT
ATOM      1  C   UNL     1      79.916   1.034  61.549  1.00  0.00     0.039 C 
ATOM      2  C   UNL     1      79.777   0.315  62.871  1.00  0.00    -0.070 C 
ATOM      3  C   UNL     1      79.829   0.981  64.062  1.00  0.00    -0.006 C 
ATOM      4  C   UNL     1      79.747   0.235  65.387  1.00  0.00     0.047 C 
ATOM      5  C   UNL     1      80.528   0.942  66.523  1.00  0.00     0.025 C 
ATOM      6  C   UNL     1      80.448   0.259  67.889  1.00  0.00    -0.073 C 
ATOM      7  C   UNL     1      79.753  -0.870  68.129  1.00  0.00     0.008 C 
ATOM      8  C   UNL     1      81.250   0.894  69.000  1.00  0.00     0.031 C 
ATOM      9  C   UNL     1      80.903   2.381  69.125  1.00  0.00     0.005 C 
ATOM     10  C   UNL     1      81.017   3.105  67.772  1.00  0.00     0.008 C 
ATOM     11  C   UNL     1      80.150   2.451  66.654  1.00  0.00    -0.018 C 
ATOM     12  C   UNL     1      80.475   3.160  65.316  1.00  0.00     0.088 C 
ATOM     13  C   UNL     1      79.842   2.471  64.142  1.00  0.00     0.159 C 
ATOM     14  O   UNL     1      79.314   3.178  63.241  1.00  0.00    -0.295 OA
ATOM     15  C   UNL     1      78.643   2.643  66.984  1.00  0.00     0.012 C 
ATOM     16  C   UNL     1      79.615  -1.188  62.819  1.00  0.00     0.039 C 
ENDROOT
TORSDOF 0
ENDMDL
MODEL 7
REMARK VINA RESULT:    -3.552      1.903      5.488
REMARK INTER + INTRA:          -3.552
REMARK INTER:                  -3.552
REMARK INTRA:                   0.000
REMARK UNBOUND:                 0.000
REMARK SMILES C=C1CCC[C@@]2(C)CC(=O)C(=C(C)C)C[C@H]12
REMARK SMILES IDX 13 1 12 2 11 3 15 4 16 5 2 6 1 7 3 8 4 9 5 10 6 11 8 12 9 13
REMARK SMILES IDX 10 14 7 15 14 16
REMARK H PARENT
REMARK Flexibility Score: inf
ROOT
ATOM      1  C   UNL     1      82.664   8.558  58.619  1.00  0.00     0.039 C 
ATOM      2  C   UNL     1      82.045   7.621  57.608  1.00  0.00    -0.070 C 
ATOM      3  C   UNL     1      82.072   6.266  57.769  1.00  0.00    -0.006 C 
ATOM      4  C   UNL     1      81.496   5.334  56.712  1.00  0.00     0.047 C 
ATOM      5  C   UNL     1      82.223   3.967  56.657  1.00  0.00     0.025 C 
ATOM      6  C   UNL     1      81.662   2.973  55.639  1.00  0.00    -0.073 C 
ATOM      7  C   UNL     1      80.608   3.226  54.839  1.00  0.00     0.008 C 
ATOM      8  C   UNL     1      82.389   1.655  55.522  1.00  0.00     0.031 C 
ATOM      9  C   UNL     1      82.521   0.995  56.898  1.00  0.00     0.005 C 
ATOM     10  C   UNL     1      83.125   1.959  57.934  1.00  0.00     0.008 C 
ATOM     11  C   UNL     1      82.332   3.295  58.061  1.00  0.00    -0.018 C 
ATOM     12  C   UNL     1      83.124   4.237  59.001  1.00  0.00     0.088 C 
ATOM     13  C   UNL     1      82.547   5.623  59.030  1.00  0.00     0.159 C 
ATOM     14  O   UNL     1      82.463   6.218  60.138  1.00  0.00    -0.295 OA
ATOM     15  C   UNL     1      80.933   3.013  58.677  1.00  0.00     0.012 C 
ATOM     16  C   UNL     1      81.422   8.253  56.382  1.00  0.00     0.039 C 
ENDROOT
TORSDOF 0
ENDMDL
MODEL 8
REMARK VINA RESULT:    -3.517      8.000     10.121
REMARK INTER + INTRA:          -3.517
REMARK INTER:                  -3.517
REMARK INTRA:                   0.000
REMARK UNBOUND:                 0.000
REMARK SMILES C=C1CCC[C@@]2(C)CC(=O)C(=C(C)C)C[C@H]12
REMARK SMILES IDX 13 1 12 2 11 3 15 4 16 5 2 6 1 7 3 8 4 9 5 10 6 11 8 12 9 13
REMARK SMILES IDX 10 14 7 15 14 16
REMARK H PARENT
REMARK Flexibility Score: inf
ROOT
ATOM      1  C   UNL     1      78.571   3.247  61.713  1.00  0.00     0.039 C 
ATOM      2  C   UNL     1      79.356   3.496  62.981  1.00  0.00    -0.070 C 
ATOM      3  C   UNL     1      79.332   2.619  64.027  1.00  0.00    -0.006 C 
ATOM      4  C   UNL     1      80.080   2.914  65.320  1.00  0.00     0.047 C 
ATOM      5  C   UNL     1      79.398   2.290  66.563  1.00  0.00     0.025 C 
ATOM      6  C   UNL     1      80.127   2.520  67.888  1.00  0.00    -0.073 C 
ATOM      7  C   UNL     1      81.284   3.200  68.005  1.00  0.00     0.008 C 
ATOM      8  C   UNL     1      79.453   1.974  69.125  1.00  0.00     0.031 C 
ATOM      9  C   UNL     1      79.128   0.488  68.943  1.00  0.00     0.005 C 
ATOM     10  C   UNL     1      78.355   0.232  67.638  1.00  0.00     0.008 C 
ATOM     11  C   UNL     1      79.092   0.772  66.375  1.00  0.00    -0.018 C 
ATOM     12  C   UNL     1      78.148   0.605  65.158  1.00  0.00     0.088 C 
ATOM     13  C   UNL     1      78.685   1.278  63.928  1.00  0.00     0.159 C 
ATOM     14  O   UNL     1      78.589   0.679  62.823  1.00  0.00    -0.295 OA
ATOM     15  C   UNL     1      80.387  -0.053  66.136  1.00  0.00     0.012 C 
ATOM     16  C   UNL     1      80.143   4.785  63.055  1.00  0.00     0.039 C 
ENDROOT
TORSDOF 0
ENDMDL
MODEL 9
REMARK VINA RESULT:    -3.510      8.368     10.677
REMARK INTER + INTRA:          -3.510
REMARK INTER:                  -3.510
REMARK INTRA:                   0.000
REMARK UNBOUND:                 0.000
REMARK SMILES C=C1CCC[C@@]2(C)CC(=O)C(=C(C)C)C[C@H]12
REMARK SMILES IDX 13 1 12 2 11 3 15 4 16 5 2 6 1 7 3 8 4 9 5 10 6 11 8 12 9 13
REMARK SMILES IDX 10 14 7 15 14 16
REMARK H PARENT
REMARK Flexibility Score: inf
ROOT
ATOM      1  C   UNL     1      77.643   5.093  62.777  1.00  0.00     0.039 C 
ATOM      2  C   UNL     1      77.242   4.551  64.130  1.00  0.00    -0.070 C 
ATOM      3  C   UNL     1      78.069   3.743  64.857  1.00  0.00    -0.006 C 
ATOM      4  C   UNL     1      77.626   3.158  66.191  1.00  0.00     0.047 C 
ATOM      5  C   UNL     1      78.276   1.784  66.488  1.00  0.00     0.025 C 
ATOM      6  C   UNL     1      77.900   1.164  67.835  1.00  0.00    -0.073 C 
ATOM      7  C   UNL     1      77.076   1.745  68.728  1.00  0.00     0.008 C 
ATOM      8  C   UNL     1      78.472  -0.203  68.124  1.00  0.00     0.031 C 
ATOM      9  C   UNL     1      79.993  -0.193  67.946  1.00  0.00     0.005 C 
ATOM     10  C   UNL     1      80.401   0.385  66.580  1.00  0.00     0.008 C 
ATOM     11  C   UNL     1      79.828   1.812  66.324  1.00  0.00    -0.018 C 
ATOM     12  C   UNL     1      80.165   2.212  64.867  1.00  0.00     0.088 C 
ATOM     13  C   UNL     1      79.483   3.486  64.457  1.00  0.00     0.159 C 
ATOM     14  O   UNL     1      80.137   4.330  63.787  1.00  0.00    -0.295 OA
ATOM     15  C   UNL     1      80.494   2.822  67.300  1.00  0.00     0.012 C 
ATOM     16  C   UNL     1      75.862   4.916  64.631  1.00  0.00     0.039 C 
ENDROOT
TORSDOF 0
ENDMDL
