MODEL 1
REMARK VINA RESULT:    -0.962      0.000      0.000
REMARK INTER + INTRA:          -4.563
REMARK INTER:                  -1.748
REMARK INTRA:                  -2.814
REMARK UNBOUND:                -2.814
REMARK SMILES CCCCCCCCCCCCCC[C@@H](C)C(=O)[O-]
REMARK SMILES IDX 9 1 10 2 11 3 12 4 13 5 14 6 15 7 16 8 17 9 18 10 19 11 8 12
REMARK SMILES IDX 7 13 6 14 5 15 4 16 3 17 2 18 1 19
REMARK H PARENT
REMARK Flexibility Score: inf
ROOT
ATOM      1  C   UNL     1     -13.276 -22.230  81.851  1.00  0.00     0.000 C 
ENDROOT
BRANCH   1   2
ATOM      2  C   UNL     1     -12.881 -22.742  83.248  1.00  0.00     0.000 C 
BRANCH   2   3
ATOM      3  C   UNL     1     -13.518 -21.919  84.379  1.00  0.00     0.000 C 
BRANCH   3   4
ATOM      4  C   UNL     1     -14.155 -22.798  85.467  1.00  0.00     0.000 C 
BRANCH   4   5
ATOM      5  C   UNL     1     -15.293 -23.649  84.889  1.00  0.00     0.001 C 
BRANCH   5   6
ATOM      6  C   UNL     1     -16.550 -22.797  84.651  1.00  0.00     0.009 C 
BRANCH   6   7
ATOM      7  C   UNL     1     -16.970 -22.756  83.166  1.00  0.00     0.032 C 
ATOM      8  C   UNL     1     -16.471 -23.980  82.385  1.00  0.00     0.014 C 
BRANCH   7   9
ATOM      9  C   UNL     1     -18.468 -22.673  83.065  1.00  0.00     0.044 C 
ATOM     10  O   UNL     1     -19.030 -21.559  82.889  1.00  0.00    -0.550 OA
ATOM     11  O   UNL     1     -19.244 -23.822  83.165  1.00  0.00    -0.550 OA
ENDBRANCH   7   9
ENDBRANCH   6   7
ENDBRANCH   5   6
ENDBRANCH   4   5
ENDBRANCH   3   4
ENDBRANCH   2   3
ENDBRANCH   1   2
BRANCH   1  12
ATOM     12  C   UNL     1     -13.987 -20.867  81.900  1.00  0.00     0.000 C 
BRANCH  12  13
ATOM     13  C   UNL     1     -13.753 -20.028  80.631  1.00  0.00    -0.000 C 
BRANCH  13  14
ATOM     14  C   UNL     1     -15.078 -19.553  79.994  1.00  0.00    -0.000 C 
BRANCH  14  15
ATOM     15  C   UNL     1     -16.334 -20.110  80.692  1.00  0.00    -0.000 C 
BRANCH  15  16
ATOM     16  C   UNL     1     -17.165 -21.085  79.844  1.00  0.00    -0.000 C 
BRANCH  16  17
ATOM     17  C   UNL     1     -16.411 -21.586  78.603  1.00  0.00    -0.000 C 
BRANCH  17  18
ATOM     18  C   UNL     1     -15.743 -22.938  78.877  1.00  0.00    -0.003 C 
ATOM     19  C   UNL     1     -14.318 -22.971  78.334  1.00  0.00     0.004 C 
ENDBRANCH  17  18
ENDBRANCH  16  17
ENDBRANCH  15  16
ENDBRANCH  14  15
ENDBRANCH  13  14
ENDBRANCH  12  13
ENDBRANCH   1  12
TORSDOF 14
ENDMDL
MODEL 2
REMARK VINA RESULT:    -0.864      2.660      5.111
REMARK INTER + INTRA:          -4.385
REMARK INTER:                  -1.718
REMARK INTRA:                  -2.667
REMARK UNBOUND:                -2.814
REMARK SMILES CCCCCCCCCCCCCC[C@@H](C)C(=O)[O-]
REMARK SMILES IDX 9 1 10 2 11 3 12 4 13 5 14 6 15 7 16 8 17 9 18 10 19 11 8 12
REMARK SMILES IDX 7 13 6 14 5 15 4 16 3 17 2 18 1 19
REMARK H PARENT
REMARK Flexibility Score: inf
ROOT
ATOM      1  C   UNL     1     -16.135 -22.871  84.670  1.00  0.00     0.000 C 
ENDROOT
BRANCH   1   2
ATOM      2  C   UNL     1     -14.917 -22.341  85.446  1.00  0.00     0.000 C 
BRANCH   2   3
ATOM      3  C   UNL     1     -13.587 -22.655  84.744  1.00  0.00     0.000 C 
BRANCH   3   4
ATOM      4  C   UNL     1     -12.875 -21.395  84.227  1.00  0.00     0.000 C 
BRANCH   4   5
ATOM      5  C   UNL     1     -13.328 -21.055  82.802  1.00  0.00     0.001 C 
BRANCH   5   6
ATOM      6  C   UNL     1     -13.467 -22.327  81.950  1.00  0.00     0.009 C 
BRANCH   6   7
ATOM      7  C   UNL     1     -14.515 -22.180  80.826  1.00  0.00     0.032 C 
ATOM      8  C   UNL     1     -15.706 -21.308  81.250  1.00  0.00     0.014 C 
BRANCH   7   9
ATOM      9  C   UNL     1     -13.868 -21.589  79.604  1.00  0.00     0.044 C 
ATOM     10  O   UNL     1     -14.219 -20.451  79.191  1.00  0.00    -0.550 OA
ATOM     11  O   UNL     1     -12.881 -22.290  78.923  1.00  0.00    -0.550 OA
ENDBRANCH   7   9
ENDBRANCH   6   7
ENDBRANCH   5   6
ENDBRANCH   4   5
ENDBRANCH   3   4
ENDBRANCH   2   3
ENDBRANCH   1   2
BRANCH   1  12
ATOM     12  C   UNL     1     -16.580 -24.264  85.146  1.00  0.00     0.000 C 
BRANCH  12  13
ATOM     13  C   UNL     1     -16.077 -25.395  84.233  1.00  0.00    -0.000 C 
BRANCH  13  14
ATOM     14  C   UNL     1     -15.965 -24.948  82.759  1.00  0.00    -0.000 C 
BRANCH  14  15
ATOM     15  C   UNL     1     -16.966 -25.651  81.822  1.00  0.00    -0.000 C 
BRANCH  15  16
ATOM     16  C   UNL     1     -18.408 -25.123  81.904  1.00  0.00    -0.000 C 
BRANCH  16  17
ATOM     17  C   UNL     1     -18.487 -23.592  81.793  1.00  0.00    -0.000 C 
BRANCH  17  18
ATOM     18  C   UNL     1     -19.479 -23.021  82.813  1.00  0.00    -0.003 C 
ATOM     19  C   UNL     1     -20.020 -24.115  83.729  1.00  0.00     0.004 C 
ENDBRANCH  17  18
ENDBRANCH  16  17
ENDBRANCH  15  16
ENDBRANCH  14  15
ENDBRANCH  13  14
ENDBRANCH  12  13
ENDBRANCH   1  12
TORSDOF 14
ENDMDL
MODEL 3
REMARK VINA RESULT:    -0.819      2.482      4.538
REMARK INTER + INTRA:          -4.304
REMARK INTER:                  -1.619
REMARK INTRA:                  -2.685
REMARK UNBOUND:                -2.814
REMARK SMILES CCCCCCCCCCCCCC[C@@H](C)C(=O)[O-]
REMARK SMILES IDX 9 1 10 2 11 3 12 4 13 5 14 6 15 7 16 8 17 9 18 10 19 11 8 12
REMARK SMILES IDX 7 13 6 14 5 15 4 16 3 17 2 18 1 19
REMARK H PARENT
REMARK Flexibility Score: inf
ROOT
ATOM      1  C   UNL     1     -13.938 -21.754  82.753  1.00  0.00     0.000 C 
ENDROOT
BRANCH   1   2
ATOM      2  C   UNL     1     -12.959 -22.231  81.666  1.00  0.00     0.000 C 
BRANCH   2   3
ATOM      3  C   UNL     1     -13.388 -23.563  81.030  1.00  0.00     0.000 C 
BRANCH   3   4
ATOM      4  C   UNL     1     -13.314 -24.742  82.013  1.00  0.00     0.000 C 
BRANCH   4   5
ATOM      5  C   UNL     1     -14.667 -25.459  82.113  1.00  0.00     0.001 C 
BRANCH   5   6
ATOM      6  C   UNL     1     -15.727 -24.757  81.250  1.00  0.00     0.009 C 
BRANCH   6   7
ATOM      7  C   UNL     1     -16.950 -25.653  80.962  1.00  0.00     0.032 C 
ATOM      8  C   UNL     1     -17.571 -26.221  82.246  1.00  0.00     0.014 C 
BRANCH   7   9
ATOM      9  C   UNL     1     -17.987 -24.868  80.207  1.00  0.00     0.044 C 
ATOM     10  O   UNL     1     -17.636 -24.035  79.329  1.00  0.00    -0.550 OA
ATOM     11  O   UNL     1     -19.339 -25.055  80.470  1.00  0.00    -0.550 OA
ENDBRANCH   7   9
ENDBRANCH   6   7
ENDBRANCH   5   6
ENDBRANCH   4   5
ENDBRANCH   3   4
ENDBRANCH   2   3
ENDBRANCH   1   2
BRANCH   1  12
ATOM     12  C   UNL     1     -13.237 -21.455  84.089  1.00  0.00     0.000 C 
BRANCH  12  13
ATOM     13  C   UNL     1     -13.190 -22.677  85.024  1.00  0.00    -0.000 C 
BRANCH  13  14
ATOM     14  C   UNL     1     -14.523 -22.888  85.776  1.00  0.00    -0.000 C 
BRANCH  14  15
ATOM     15  C   UNL     1     -15.198 -24.239  85.471  1.00  0.00    -0.000 C 
BRANCH  15  16
ATOM     16  C   UNL     1     -16.710 -24.160  85.206  1.00  0.00    -0.000 C 
BRANCH  16  17
ATOM     17  C   UNL     1     -17.188 -22.729  84.911  1.00  0.00    -0.000 C 
BRANCH  17  18
ATOM     18  C   UNL     1     -17.480 -22.547  83.417  1.00  0.00    -0.003 C 
ATOM     19  C   UNL     1     -18.973 -22.676  83.127  1.00  0.00     0.004 C 
ENDBRANCH  17  18
ENDBRANCH  16  17
ENDBRANCH  15  16
ENDBRANCH  14  15
ENDBRANCH  13  14
ENDBRANCH  12  13
ENDBRANCH   1  12
TORSDOF 14
ENDMDL
MODEL 4
REMARK VINA RESULT:    -0.809      2.639      5.252
REMARK INTER + INTRA:          -4.285
REMARK INTER:                  -1.572
REMARK INTRA:                  -2.713
REMARK UNBOUND:                -2.814
REMARK SMILES CCCCCCCCCCCCCC[C@@H](C)C(=O)[O-]
REMARK SMILES IDX 9 1 10 2 11 3 12 4 13 5 14 6 15 7 16 8 17 9 18 10 19 11 8 12
REMARK SMILES IDX 7 13 6 14 5 15 4 16 3 17 2 18 1 19
REMARK H PARENT
REMARK Flexibility Score: inf
ROOT
ATOM      1  C   UNL     1     -15.818 -24.557  82.713  1.00  0.00     0.000 C 
ENDROOT
BRANCH   1   2
ATOM      2  C   UNL     1     -14.454 -25.194  82.394  1.00  0.00     0.000 C 
BRANCH   2   3
ATOM      3  C   UNL     1     -14.041 -24.999  80.927  1.00  0.00     0.000 C 
BRANCH   3   4
ATOM      4  C   UNL     1     -14.112 -26.299  80.111  1.00  0.00     0.000 C 
BRANCH   4   5
ATOM      5  C   UNL     1     -15.286 -26.264  79.123  1.00  0.00     0.001 C 
BRANCH   5   6
ATOM      6  C   UNL     1     -15.126 -25.111  78.119  1.00  0.00     0.009 C 
BRANCH   6   7
ATOM      7  C   UNL     1     -16.473 -24.463  77.735  1.00  0.00     0.032 C 
ATOM      8  C   UNL     1     -17.647 -25.040  78.540  1.00  0.00     0.014 C 
BRANCH   7   9
ATOM      9  C   UNL     1     -16.400 -22.976  77.949  1.00  0.00     0.044 C 
ATOM     10  O   UNL     1     -15.350 -22.345  77.653  1.00  0.00    -0.550 OA
ATOM     11  O   UNL     1     -17.487 -22.288  78.473  1.00  0.00    -0.550 OA
ENDBRANCH   7   9
ENDBRANCH   6   7
ENDBRANCH   5   6
ENDBRANCH   4   5
ENDBRANCH   3   4
ENDBRANCH   2   3
ENDBRANCH   1   2
BRANCH   1  12
ATOM     12  C   UNL     1     -16.294 -23.595  81.611  1.00  0.00     0.000 C 
BRANCH  12  13
ATOM     13  C   UNL     1     -16.095 -22.116  81.985  1.00  0.00    -0.000 C 
BRANCH  13  14
ATOM     14  C   UNL     1     -15.061 -21.418  81.075  1.00  0.00    -0.000 C 
BRANCH  14  15
ATOM     15  C   UNL     1     -13.885 -20.788  81.845  1.00  0.00    -0.000 C 
BRANCH  15  16
ATOM     16  C   UNL     1     -13.036 -21.783  82.653  1.00  0.00    -0.000 C 
BRANCH  16  17
ATOM     17  C   UNL     1     -13.022 -21.469  84.157  1.00  0.00    -0.000 C 
BRANCH  17  18
ATOM     18  C   UNL     1     -13.533 -22.664  84.970  1.00  0.00    -0.003 C 
ATOM     19  C   UNL     1     -14.903 -22.373  85.577  1.00  0.00     0.004 C 
ENDBRANCH  17  18
ENDBRANCH  16  17
ENDBRANCH  15  16
ENDBRANCH  14  15
ENDBRANCH  13  14
ENDBRANCH  12  13
ENDBRANCH   1  12
TORSDOF 14
ENDMDL
MODEL 5
REMARK VINA RESULT:    -0.793      2.407      5.294
REMARK INTER + INTRA:          -4.257
REMARK INTER:                  -1.369
REMARK INTRA:                  -2.888
REMARK UNBOUND:                -2.814
REMARK SMILES CCCCCCCCCCCCCC[C@@H](C)C(=O)[O-]
REMARK SMILES IDX 9 1 10 2 11 3 12 4 13 5 14 6 15 7 16 8 17 9 18 10 19 11 8 12
REMARK SMILES IDX 7 13 6 14 5 15 4 16 3 17 2 18 1 19
REMARK H PARENT
REMARK Flexibility Score: inf
ROOT
ATOM      1  C   UNL     1     -16.940 -23.293  78.925  1.00  0.00     0.000 C 
ENDROOT
BRANCH   1   2
ATOM      2  C   UNL     1     -15.692 -24.178  78.760  1.00  0.00     0.000 C 
BRANCH   2   3
ATOM      3  C   UNL     1     -14.670 -23.973  79.889  1.00  0.00     0.000 C 
BRANCH   3   4
ATOM      4  C   UNL     1     -14.580 -22.510  80.350  1.00  0.00     0.000 C 
BRANCH   4   5
ATOM      5  C   UNL     1     -13.453 -22.326  81.375  1.00  0.00     0.001 C 
BRANCH   5   6
ATOM      6  C   UNL     1     -13.605 -23.314  82.543  1.00  0.00     0.009 C 
BRANCH   6   7
ATOM      7  C   UNL     1     -13.167 -22.712  83.895  1.00  0.00     0.032 C 
ATOM      8  C   UNL     1     -13.101 -21.178  83.855  1.00  0.00     0.014 C 
BRANCH   7   9
ATOM      9  C   UNL     1     -14.120 -23.145  84.975  1.00  0.00     0.044 C 
ATOM     10  O   UNL     1     -14.218 -24.363  85.281  1.00  0.00    -0.550 OA
ATOM     11  O   UNL     1     -14.897 -22.207  85.644  1.00  0.00    -0.550 OA
ENDBRANCH   7   9
ENDBRANCH   6   7
ENDBRANCH   5   6
ENDBRANCH   4   5
ENDBRANCH   3   4
ENDBRANCH   2   3
ENDBRANCH   1   2
BRANCH   1  12
ATOM     12  C   UNL     1     -18.240 -24.111  78.993  1.00  0.00     0.000 C 
BRANCH  12  13
ATOM     13  C   UNL     1     -17.997 -25.588  79.348  1.00  0.00    -0.000 C 
BRANCH  13  14
ATOM     14  C   UNL     1     -18.325 -25.894  80.826  1.00  0.00    -0.000 C 
BRANCH  14  15
ATOM     15  C   UNL     1     -17.079 -26.136  81.699  1.00  0.00    -0.000 C 
BRANCH  15  16
ATOM     16  C   UNL     1     -16.816 -25.057  82.763  1.00  0.00    -0.000 C 
BRANCH  16  17
ATOM     17  C   UNL     1     -17.869 -23.938  82.748  1.00  0.00    -0.000 C 
BRANCH  17  18
ATOM     18  C   UNL     1     -17.208 -22.563  82.895  1.00  0.00    -0.003 C 
ATOM     19  C   UNL     1     -17.870 -21.532  81.986  1.00  0.00     0.004 C 
ENDBRANCH  17  18
ENDBRANCH  16  17
ENDBRANCH  15  16
ENDBRANCH  14  15
ENDBRANCH  13  14
ENDBRANCH  12  13
ENDBRANCH   1  12
TORSDOF 14
ENDMDL
MODEL 6
REMARK VINA RESULT:    -0.787      2.437      4.366
REMARK INTER + INTRA:          -4.246
REMARK INTER:                  -1.407
REMARK INTRA:                  -2.839
REMARK UNBOUND:                -2.814
REMARK SMILES CCCCCCCCCCCCCC[C@@H](C)C(=O)[O-]
REMARK SMILES IDX 9 1 10 2 11 3 12 4 13 5 14 6 15 7 16 8 17 9 18 10 19 11 8 12
REMARK SMILES IDX 7 13 6 14 5 15 4 16 3 17 2 18 1 19
REMARK H PARENT
REMARK Flexibility Score: inf
ROOT
ATOM      1  C   UNL     1     -17.322 -20.758  79.575  1.00  0.00     0.000 C 
ENDROOT
BRANCH   1   2
ATOM      2  C   UNL     1     -16.393 -19.976  80.521  1.00  0.00     0.000 C 
BRANCH   2   3
ATOM      3  C   UNL     1     -14.912 -20.106  80.133  1.00  0.00     0.000 C 
BRANCH   3   4
ATOM      4  C   UNL     1     -14.032 -20.581  81.300  1.00  0.00     0.000 C 
BRANCH   4   5
ATOM      5  C   UNL     1     -13.527 -22.010  81.060  1.00  0.00     0.001 C 
BRANCH   5   6
ATOM      6  C   UNL     1     -14.030 -22.963  82.156  1.00  0.00     0.009 C 
BRANCH   6   7
ATOM      7  C   UNL     1     -14.861 -22.241  83.239  1.00  0.00     0.032 C 
ATOM      8  C   UNL     1     -16.216 -22.921  83.482  1.00  0.00     0.014 C 
BRANCH   7   9
ATOM      9  C   UNL     1     -14.084 -22.194  84.526  1.00  0.00     0.044 C 
ATOM     10  O   UNL     1     -12.875 -21.841  84.523  1.00  0.00    -0.550 OA
ATOM     11  O   UNL     1     -14.694 -22.538  85.726  1.00  0.00    -0.550 OA
ENDBRANCH   7   9
ENDBRANCH   6   7
ENDBRANCH   5   6
ENDBRANCH   4   5
ENDBRANCH   3   4
ENDBRANCH   2   3
ENDBRANCH   1   2
BRANCH   1  12
ATOM     12  C   UNL     1     -17.843 -22.062  80.202  1.00  0.00     0.000 C 
BRANCH  12  13
ATOM     13  C   UNL     1     -16.971 -23.281  79.855  1.00  0.00    -0.000 C 
BRANCH  13  14
ATOM     14  C   UNL     1     -16.647 -23.355  78.346  1.00  0.00    -0.000 C 
BRANCH  14  15
ATOM     15  C   UNL     1     -15.144 -23.231  78.030  1.00  0.00    -0.000 C 
BRANCH  15  16
ATOM     16  C   UNL     1     -14.775 -22.067  77.096  1.00  0.00    -0.000 C 
BRANCH  16  17
ATOM     17  C   UNL     1     -15.664 -22.004  75.844  1.00  0.00    -0.000 C 
BRANCH  17  18
ATOM     18  C   UNL     1     -16.064 -20.558  75.531  1.00  0.00    -0.003 C 
ATOM     19  C   UNL     1     -15.434 -19.583  76.522  1.00  0.00     0.004 C 
ENDBRANCH  17  18
ENDBRANCH  16  17
ENDBRANCH  15  16
ENDBRANCH  14  15
ENDBRANCH  13  14
ENDBRANCH  12  13
ENDBRANCH   1  12
TORSDOF 14
ENDMDL
MODEL 7
REMARK VINA RESULT:    -0.783      2.472      5.415
REMARK INTER + INTRA:          -4.239
REMARK INTER:                  -1.897
REMARK INTRA:                  -2.342
REMARK UNBOUND:                -2.814
REMARK SMILES CCCCCCCCCCCCCC[C@@H](C)C(=O)[O-]
REMARK SMILES IDX 9 1 10 2 11 3 12 4 13 5 14 6 15 7 16 8 17 9 18 10 19 11 8 12
REMARK SMILES IDX 7 13 6 14 5 15 4 16 3 17 2 18 1 19
REMARK H PARENT
REMARK Flexibility Score: inf
ROOT
ATOM      1  C   UNL     1     -16.265 -24.672  83.141  1.00  0.00     0.000 C 
ENDROOT
BRANCH   1   2
ATOM      2  C   UNL     1     -17.321 -23.552  83.113  1.00  0.00     0.000 C 
BRANCH   2   3
ATOM      3  C   UNL     1     -16.923 -22.389  82.191  1.00  0.00     0.000 C 
BRANCH   3   4
ATOM      4  C   UNL     1     -17.524 -22.516  80.782  1.00  0.00     0.000 C 
BRANCH   4   5
ATOM      5  C   UNL     1     -16.744 -21.662  79.774  1.00  0.00     0.001 C 
BRANCH   5   6
ATOM      6  C   UNL     1     -17.359 -20.259  79.649  1.00  0.00     0.009 C 
BRANCH   6   7
ATOM      7  C   UNL     1     -16.474 -19.162  80.278  1.00  0.00     0.032 C 
ATOM      8  C   UNL     1     -14.982 -19.380  79.988  1.00  0.00     0.014 C 
BRANCH   7   9
ATOM      9  C   UNL     1     -16.894 -17.814  79.761  1.00  0.00     0.044 C 
ATOM     10  O   UNL     1     -16.960 -17.604  78.520  1.00  0.00    -0.550 OA
ATOM     11  O   UNL     1     -17.213 -16.791  80.646  1.00  0.00    -0.550 OA
ENDBRANCH   7   9
ENDBRANCH   6   7
ENDBRANCH   5   6
ENDBRANCH   4   5
ENDBRANCH   3   4
ENDBRANCH   2   3
ENDBRANCH   1   2
BRANCH   1  12
ATOM     12  C   UNL     1     -15.389 -24.626  84.404  1.00  0.00     0.000 C 
BRANCH  12  13
ATOM     13  C   UNL     1     -15.873 -23.586  85.429  1.00  0.00    -0.000 C 
BRANCH  13  14
ATOM     14  C   UNL     1     -14.776 -22.557  85.779  1.00  0.00    -0.000 C 
BRANCH  14  15
ATOM     15  C   UNL     1     -13.535 -22.643  84.869  1.00  0.00    -0.000 C 
BRANCH  15  16
ATOM     16  C   UNL     1     -13.179 -21.339  84.137  1.00  0.00    -0.000 C 
BRANCH  16  17
ATOM     17  C   UNL     1     -13.438 -21.417  82.624  1.00  0.00    -0.000 C 
BRANCH  17  18
ATOM     18  C   UNL     1     -13.151 -22.825  82.092  1.00  0.00    -0.003 C 
ATOM     19  C   UNL     1     -13.412 -22.912  80.591  1.00  0.00     0.004 C 
ENDBRANCH  17  18
ENDBRANCH  16  17
ENDBRANCH  15  16
ENDBRANCH  14  15
ENDBRANCH  13  14
ENDBRANCH  12  13
ENDBRANCH   1  12
TORSDOF 14
ENDMDL
MODEL 8
REMARK VINA RESULT:    -0.770      7.801      9.982
REMARK INTER + INTRA:          -4.215
REMARK INTER:                  -1.138
REMARK INTRA:                  -3.077
REMARK UNBOUND:                -2.814
REMARK SMILES CCCCCCCCCCCCCC[C@@H](C)C(=O)[O-]
REMARK SMILES IDX 9 1 10 2 11 3 12 4 13 5 14 6 15 7 16 8 17 9 18 10 19 11 8 12
REMARK SMILES IDX 7 13 6 14 5 15 4 16 3 17 2 18 1 19
REMARK H PARENT
REMARK Flexibility Score: inf
ROOT
ATOM      1  C   UNL     1     -19.240 -13.315  84.596  1.00  0.00     0.000 C 
ENDROOT
BRANCH   1   2
ATOM      2  C   UNL     1     -17.916 -13.865  85.155  1.00  0.00     0.000 C 
BRANCH   2   3
ATOM      3  C   UNL     1     -17.426 -15.107  84.395  1.00  0.00     0.000 C 
BRANCH   3   4
ATOM      4  C   UNL     1     -17.867 -15.116  82.923  1.00  0.00     0.000 C 
BRANCH   4   5
ATOM      5  C   UNL     1     -16.708 -14.715  82.000  1.00  0.00     0.001 C 
BRANCH   5   6
ATOM      6  C   UNL     1     -17.183 -13.739  80.913  1.00  0.00     0.009 C 
BRANCH   6   7
ATOM      7  C   UNL     1     -18.714 -13.763  80.716  1.00  0.00     0.032 C 
ATOM      8  C   UNL     1     -19.306 -12.353  80.574  1.00  0.00     0.014 C 
BRANCH   7   9
ATOM      9  C   UNL     1     -19.055 -14.576  79.497  1.00  0.00     0.044 C 
ATOM     10  O   UNL     1     -19.475 -14.007  78.454  1.00  0.00    -0.550 OA
ATOM     11  O   UNL     1     -18.909 -15.958  79.511  1.00  0.00    -0.550 OA
ENDBRANCH   7   9
ENDBRANCH   6   7
ENDBRANCH   5   6
ENDBRANCH   4   5
ENDBRANCH   3   4
ENDBRANCH   2   3
ENDBRANCH   1   2
BRANCH   1  12
ATOM     12  C   UNL     1     -19.142 -11.834  84.194  1.00  0.00     0.000 C 
BRANCH  12  13
ATOM     13  C   UNL     1     -17.751 -11.234  84.461  1.00  0.00    -0.000 C 
BRANCH  13  14
ATOM     14  C   UNL     1     -17.031 -10.828  83.156  1.00  0.00    -0.000 C 
BRANCH  14  15
ATOM     15  C   UNL     1     -15.496 -10.777  83.286  1.00  0.00    -0.000 C 
BRANCH  15  16
ATOM     16  C   UNL     1     -14.821 -12.140  83.508  1.00  0.00    -0.000 C 
BRANCH  16  17
ATOM     17  C   UNL     1     -14.247 -12.296  84.925  1.00  0.00    -0.000 C 
BRANCH  17  18
ATOM     18  C   UNL     1     -14.128 -13.776  85.307  1.00  0.00    -0.003 C 
ATOM     19  C   UNL     1     -13.592 -14.605  84.143  1.00  0.00     0.004 C 
ENDBRANCH  17  18
ENDBRANCH  16  17
ENDBRANCH  15  16
ENDBRANCH  14  15
ENDBRANCH  13  14
ENDBRANCH  12  13
ENDBRANCH   1  12
TORSDOF 14
ENDMDL
MODEL 9
REMARK VINA RESULT:    -0.745      7.798     10.032
REMARK INTER + INTRA:          -4.168
REMARK INTER:                  -1.398
REMARK INTRA:                  -2.771
REMARK UNBOUND:                -2.814
REMARK SMILES CCCCCCCCCCCCCC[C@@H](C)C(=O)[O-]
REMARK SMILES IDX 9 1 10 2 11 3 12 4 13 5 14 6 15 7 16 8 17 9 18 10 19 11 8 12
REMARK SMILES IDX 7 13 6 14 5 15 4 16 3 17 2 18 1 19
REMARK H PARENT
REMARK Flexibility Score: inf
ROOT
ATOM      1  C   UNL     1     -16.340 -14.610  84.274  1.00  0.00     0.000 C 
ENDROOT
BRANCH   1   2
ATOM      2  C   UNL     1     -17.717 -15.218  83.957  1.00  0.00     0.000 C 
BRANCH   2   3
ATOM      3  C   UNL     1     -17.954 -15.390  82.449  1.00  0.00     0.000 C 
BRANCH   3   4
ATOM      4  C   UNL     1     -18.427 -14.094  81.771  1.00  0.00     0.000 C 
BRANCH   4   5
ATOM      5  C   UNL     1     -17.397 -13.603  80.746  1.00  0.00     0.001 C 
BRANCH   5   6
ATOM      6  C   UNL     1     -16.327 -14.675  80.484  1.00  0.00     0.009 C 
BRANCH   6   7
ATOM      7  C   UNL     1     -14.894 -14.102  80.494  1.00  0.00     0.032 C 
ATOM      8  C   UNL     1     -13.946 -14.919  81.383  1.00  0.00     0.014 C 
BRANCH   7   9
ATOM      9  C   UNL     1     -14.355 -14.060  79.091  1.00  0.00     0.044 C 
ATOM     10  O   UNL     1     -14.875 -13.296  78.235  1.00  0.00    -0.550 OA
ATOM     11  O   UNL     1     -13.280 -14.862  78.727  1.00  0.00    -0.550 OA
ENDBRANCH   7   9
ENDBRANCH   6   7
ENDBRANCH   5   6
ENDBRANCH   4   5
ENDBRANCH   3   4
ENDBRANCH   2   3
ENDBRANCH   1   2
BRANCH   1  12
ATOM     12  C   UNL     1     -16.187 -14.231  85.756  1.00  0.00     0.000 C 
BRANCH  12  13
ATOM     13  C   UNL     1     -14.747 -13.834  86.125  1.00  0.00    -0.000 C 
BRANCH  13  14
ATOM     14  C   UNL     1     -13.732 -14.243  85.034  1.00  0.00    -0.000 C 
BRANCH  14  15
ATOM     15  C   UNL     1     -12.912 -13.063  84.479  1.00  0.00    -0.000 C 
BRANCH  15  16
ATOM     16  C   UNL     1     -13.684 -11.739  84.360  1.00  0.00    -0.000 C 
BRANCH  16  17
ATOM     17  C   UNL     1     -14.262 -11.511  82.955  1.00  0.00    -0.000 C 
BRANCH  17  18
ATOM     18  C   UNL     1     -15.767 -11.230  83.021  1.00  0.00    -0.003 C 
ATOM     19  C   UNL     1     -16.179 -10.752  84.411  1.00  0.00     0.004 C 
ENDBRANCH  17  18
ENDBRANCH  16  17
ENDBRANCH  15  16
ENDBRANCH  14  15
ENDBRANCH  13  14
ENDBRANCH  12  13
ENDBRANCH   1  12
TORSDOF 14
ENDMDL
