MODEL 1
REMARK VINA RESULT:    -3.586      0.000      0.000
REMARK INTER + INTRA:          -4.801
REMARK INTER:                  -4.320
REMARK INTRA:                  -0.481
REMARK UNBOUND:                -0.481
REMARK SMILES NC(=O)C[C@H]([NH3+])C(=O)[O-]
REMARK SMILES IDX 4 1 5 2 6 3 7 7 8 8 9 9 2 10 3 11 1 12
REMARK H PARENT 6 4 6 5 6 6 1 13 1 14
REMARK Flexibility Score: inf
ROOT
ATOM      1  C   UNL     1      16.296  45.865  24.875  1.00  0.00     0.171 C 
ENDROOT
BRANCH   1   2
ATOM      2  C   UNL     1      15.652  45.707  26.267  1.00  0.00     0.237 C 
BRANCH   2   3
ATOM      3  N   UNL     1      16.265  46.613  27.249  1.00  0.00    -0.350 N 
ATOM      4  H   UNL     1      16.912  47.278  26.768  1.00  0.00     0.345 HD
ATOM      5  H   UNL     1      16.800  46.073  27.968  1.00  0.00     0.345 HD
ATOM      6  H   UNL     1      15.522  47.175  27.724  1.00  0.00     0.345 HD
ENDBRANCH   2   3
BRANCH   2   7
ATOM      7  C   UNL     1      15.774  44.279  26.728  1.00  0.00     0.100 C 
ATOM      8  O   UNL     1      15.338  43.933  27.859  1.00  0.00    -0.544 OA
ATOM      9  O   UNL     1      16.387  43.336  25.914  1.00  0.00    -0.544 OA
ENDBRANCH   2   7
ENDBRANCH   1   2
BRANCH   1  10
ATOM     10  C   UNL     1      17.744  46.249  24.973  1.00  0.00     0.223 C 
ATOM     11  O   UNL     1      18.068  47.465  25.024  1.00  0.00    -0.275 OA
ATOM     12  N   UNL     1      18.758  45.245  24.978  1.00  0.00    -0.369 N 
ATOM     13  H   UNL     1      19.766  45.514  25.035  1.00  0.00     0.159 HD
ATOM     14  H   UNL     1      18.506  44.233  24.926  1.00  0.00     0.159 HD
ENDBRANCH   1  10
TORSDOF 4
ENDMDL
MODEL 2
REMARK VINA RESULT:    -3.485      1.222      1.627
REMARK INTER + INTRA:          -4.679
REMARK INTER:                  -4.329
REMARK INTRA:                  -0.350
REMARK UNBOUND:                -0.481
REMARK SMILES NC(=O)C[C@H]([NH3+])C(=O)[O-]
REMARK SMILES IDX 4 1 5 2 6 3 7 7 8 8 9 9 2 10 3 11 1 12
REMARK H PARENT 6 4 6 5 6 6 1 13 1 14
REMARK Flexibility Score: inf
ROOT
ATOM      1  C   UNL     1      16.925  46.104  24.875  1.00  0.00     0.171 C 
ENDROOT
BRANCH   1   2
ATOM      2  C   UNL     1      16.008  45.849  26.088  1.00  0.00     0.237 C 
BRANCH   2   3
ATOM      3  N   UNL     1      16.466  46.588  27.273  1.00  0.00    -0.350 N 
ATOM      4  H   UNL     1      17.435  46.287  27.530  1.00  0.00     0.345 HD
ATOM      5  H   UNL     1      15.828  46.420  28.085  1.00  0.00     0.345 HD
ATOM      6  H   UNL     1      16.494  47.613  27.064  1.00  0.00     0.345 HD
ENDBRANCH   2   3
BRANCH   2   7
ATOM      7  C   UNL     1      15.949  44.375  26.384  1.00  0.00     0.100 C 
ATOM      8  O   UNL     1      16.500  43.546  25.612  1.00  0.00    -0.544 OA
ATOM      9  O   UNL     1      15.267  43.917  27.504  1.00  0.00    -0.544 OA
ENDBRANCH   2   7
ENDBRANCH   1   2
BRANCH   1  10
ATOM     10  C   UNL     1      18.228  46.726  25.284  1.00  0.00     0.223 C 
ATOM     11  O   UNL     1      19.030  46.082  26.012  1.00  0.00    -0.275 OA
ATOM     12  N   UNL     1      18.551  48.056  24.879  1.00  0.00    -0.369 N 
ATOM     13  H   UNL     1      19.453  48.492  25.174  1.00  0.00     0.159 HD
ATOM     14  H   UNL     1      17.893  48.607  24.285  1.00  0.00     0.159 HD
ENDBRANCH   1  10
TORSDOF 4
ENDMDL
MODEL 3
REMARK VINA RESULT:    -3.374      1.397      3.797
REMARK INTER + INTRA:          -4.545
REMARK INTER:                  -4.197
REMARK INTRA:                  -0.348
REMARK UNBOUND:                -0.481
REMARK SMILES NC(=O)C[C@H]([NH3+])C(=O)[O-]
REMARK SMILES IDX 4 1 5 2 6 3 7 7 8 8 9 9 2 10 3 11 1 12
REMARK H PARENT 6 4 6 5 6 6 1 13 1 14
REMARK Flexibility Score: inf
ROOT
ATOM      1  C   UNL     1      16.846  45.905  24.875  1.00  0.00     0.171 C 
ENDROOT
BRANCH   1   2
ATOM      2  C   UNL     1      18.277  45.607  25.368  1.00  0.00     0.237 C 
BRANCH   2   3
ATOM      3  N   UNL     1      18.294  44.491  26.324  1.00  0.00    -0.350 N 
ATOM      4  H   UNL     1      19.118  44.578  26.962  1.00  0.00     0.345 HD
ATOM      5  H   UNL     1      18.343  43.574  25.824  1.00  0.00     0.345 HD
ATOM      6  H   UNL     1      17.429  44.516  26.913  1.00  0.00     0.345 HD
ENDBRANCH   2   3
BRANCH   2   7
ATOM      7  C   UNL     1      18.869  46.840  25.995  1.00  0.00     0.100 C 
ATOM      8  O   UNL     1      19.732  46.741  26.908  1.00  0.00    -0.544 OA
ATOM      9  O   UNL     1      18.453  48.099  25.582  1.00  0.00    -0.544 OA
ENDBRANCH   2   7
ENDBRANCH   1   2
BRANCH   1  10
ATOM     10  C   UNL     1      15.810  45.354  25.811  1.00  0.00     0.223 C 
ATOM     11  O   UNL     1      15.469  44.145  25.728  1.00  0.00    -0.275 OA
ATOM     12  N   UNL     1      15.186  46.201  26.776  1.00  0.00    -0.369 N 
ATOM     13  H   UNL     1      14.457  45.820  27.418  1.00  0.00     0.159 HD
ATOM     14  H   UNL     1      15.451  47.208  26.850  1.00  0.00     0.159 HD
ENDBRANCH   1  10
TORSDOF 4
ENDMDL
MODEL 4
REMARK VINA RESULT:    -3.329     20.361     21.498
REMARK INTER + INTRA:          -4.491
REMARK INTER:                  -4.063
REMARK INTRA:                  -0.429
REMARK UNBOUND:                -0.481
REMARK SMILES NC(=O)C[C@H]([NH3+])C(=O)[O-]
REMARK SMILES IDX 4 1 5 2 6 3 7 7 8 8 9 9 2 10 3 11 1 12
REMARK H PARENT 6 4 6 5 6 6 1 13 1 14
REMARK Flexibility Score: inf
ROOT
ATOM      1  C   UNL     1      19.639  31.653  40.284  1.00  0.00     0.171 C 
ENDROOT
BRANCH   1   2
ATOM      2  C   UNL     1      20.208  30.306  40.774  1.00  0.00     0.237 C 
BRANCH   2   3
ATOM      3  N   UNL     1      19.143  29.420  41.265  1.00  0.00    -0.350 N 
ATOM      4  H   UNL     1      19.467  28.910  42.119  1.00  0.00     0.345 HD
ATOM      5  H   UNL     1      18.872  28.724  40.533  1.00  0.00     0.345 HD
ATOM      6  H   UNL     1      18.304  29.986  41.529  1.00  0.00     0.345 HD
ENDBRANCH   2   3
BRANCH   2   7
ATOM      7  C   UNL     1      21.227  30.545  41.855  1.00  0.00     0.100 C 
ATOM      8  O   UNL     1      21.393  29.700  42.775  1.00  0.00    -0.544 OA
ATOM      9  O   UNL     1      21.981  31.711  41.855  1.00  0.00    -0.544 OA
ENDBRANCH   2   7
ENDBRANCH   1   2
BRANCH   1  10
ATOM     10  C   UNL     1      18.750  32.289  41.313  1.00  0.00     0.223 C 
ATOM     11  O   UNL     1      17.561  31.896  41.443  1.00  0.00    -0.275 OA
ATOM     12  N   UNL     1      19.237  33.357  42.125  1.00  0.00    -0.369 N 
ATOM     13  H   UNL     1      18.614  33.806  42.832  1.00  0.00     0.159 HD
ATOM     14  H   UNL     1      20.217  33.701  42.022  1.00  0.00     0.159 HD
ENDBRANCH   1  10
TORSDOF 4
ENDMDL
MODEL 5
REMARK VINA RESULT:    -3.303      2.046      2.667
REMARK INTER + INTRA:          -4.460
REMARK INTER:                  -4.324
REMARK INTRA:                  -0.136
REMARK UNBOUND:                -0.481
REMARK SMILES NC(=O)C[C@H]([NH3+])C(=O)[O-]
REMARK SMILES IDX 4 1 5 2 6 3 7 7 8 8 9 9 2 10 3 11 1 12
REMARK H PARENT 6 4 6 5 6 6 1 13 1 14
REMARK Flexibility Score: inf
ROOT
ATOM      1  C   UNL     1      18.529  45.695  25.075  1.00  0.00     0.171 C 
ENDROOT
BRANCH   1   2
ATOM      2  C   UNL     1      17.702  44.592  25.766  1.00  0.00     0.237 C 
BRANCH   2   3
ATOM      3  N   UNL     1      17.497  43.439  24.879  1.00  0.00    -0.350 N 
ATOM      4  H   UNL     1      16.967  42.690  25.381  1.00  0.00     0.345 HD
ATOM      5  H   UNL     1      18.413  43.052  24.555  1.00  0.00     0.345 HD
ATOM      6  H   UNL     1      16.932  43.727  24.047  1.00  0.00     0.345 HD
ENDBRANCH   2   3
BRANCH   2   7
ATOM      7  C   UNL     1      16.377  45.150  26.211  1.00  0.00     0.100 C 
ATOM      8  O   UNL     1      15.424  45.262  25.394  1.00  0.00    -0.544 OA
ATOM      9  O   UNL     1      16.202  45.562  27.525  1.00  0.00    -0.544 OA
ENDBRANCH   2   7
ENDBRANCH   1   2
BRANCH   1  10
ATOM     10  C   UNL     1      18.914  46.784  26.034  1.00  0.00     0.223 C 
ATOM     11  O   UNL     1      19.604  46.510  27.051  1.00  0.00    -0.275 OA
ATOM     12  N   UNL     1      18.476  48.125  25.816  1.00  0.00    -0.369 N 
ATOM     13  H   UNL     1      18.734  48.880  26.490  1.00  0.00     0.159 HD
ATOM     14  H   UNL     1      17.894  48.366  24.984  1.00  0.00     0.159 HD
ENDBRANCH   1  10
TORSDOF 4
ENDMDL
MODEL 6
REMARK VINA RESULT:    -3.215      1.836      3.669
REMARK INTER + INTRA:          -4.354
REMARK INTER:                  -4.096
REMARK INTRA:                  -0.258
REMARK UNBOUND:                -0.481
REMARK SMILES NC(=O)C[C@H]([NH3+])C(=O)[O-]
REMARK SMILES IDX 4 1 5 2 6 3 7 7 8 8 9 9 2 10 3 11 1 12
REMARK H PARENT 6 4 6 5 6 6 1 13 1 14
REMARK Flexibility Score: inf
ROOT
ATOM      1  C   UNL     1      17.687  45.283  25.148  1.00  0.00     0.171 C 
ENDROOT
BRANCH   1   2
ATOM      2  C   UNL     1      17.942  46.054  26.459  1.00  0.00     0.237 C 
BRANCH   2   3
ATOM      3  N   UNL     1      16.694  46.591  27.019  1.00  0.00    -0.350 N 
ATOM      4  H   UNL     1      16.070  45.807  27.321  1.00  0.00     0.345 HD
ATOM      5  H   UNL     1      16.192  47.176  26.312  1.00  0.00     0.345 HD
ATOM      6  H   UNL     1      16.905  47.175  27.861  1.00  0.00     0.345 HD
ENDBRANCH   2   3
BRANCH   2   7
ATOM      7  C   UNL     1      18.925  47.167  26.215  1.00  0.00     0.100 C 
ATOM      8  O   UNL     1      18.629  48.124  25.450  1.00  0.00    -0.544 OA
ATOM      9  O   UNL     1      20.175  47.135  26.818  1.00  0.00    -0.544 OA
ENDBRANCH   2   7
ENDBRANCH   1   2
BRANCH   1  10
ATOM     10  C   UNL     1      16.726  44.147  25.350  1.00  0.00     0.223 C 
ATOM     11  O   UNL     1      15.495  44.324  25.150  1.00  0.00    -0.275 OA
ATOM     12  N   UNL     1      17.195  42.875  25.795  1.00  0.00    -0.369 N 
ATOM     13  H   UNL     1      16.524  42.089  25.946  1.00  0.00     0.159 HD
ATOM     14  H   UNL     1      18.211  42.716  25.975  1.00  0.00     0.159 HD
ENDBRANCH   1  10
TORSDOF 4
ENDMDL
MODEL 7
REMARK VINA RESULT:    -3.204      2.093      3.010
REMARK INTER + INTRA:          -4.341
REMARK INTER:                  -3.881
REMARK INTRA:                  -0.460
REMARK UNBOUND:                -0.481
REMARK SMILES NC(=O)C[C@H]([NH3+])C(=O)[O-]
REMARK SMILES IDX 4 1 5 2 6 3 7 7 8 8 9 9 2 10 3 11 1 12
REMARK H PARENT 6 4 6 5 6 6 1 13 1 14
REMARK Flexibility Score: inf
ROOT
ATOM      1  C   UNL     1      16.518  44.164  27.196  1.00  0.00     0.171 C 
ENDROOT
BRANCH   1   2
ATOM      2  C   UNL     1      16.637  45.577  27.802  1.00  0.00     0.237 C 
BRANCH   2   3
ATOM      3  N   UNL     1      15.779  46.539  27.097  1.00  0.00    -0.350 N 
ATOM      4  H   UNL     1      15.708  46.281  26.085  1.00  0.00     0.345 HD
ATOM      5  H   UNL     1      16.163  47.508  27.178  1.00  0.00     0.345 HD
ATOM      6  H   UNL     1      14.814  46.517  27.501  1.00  0.00     0.345 HD
ENDBRANCH   2   3
BRANCH   2   7
ATOM      7  C   UNL     1      18.071  46.031  27.763  1.00  0.00     0.100 C 
ATOM      8  O   UNL     1      18.831  45.836  28.749  1.00  0.00    -0.544 OA
ATOM      9  O   UNL     1      18.562  46.686  26.641  1.00  0.00    -0.544 OA
ENDBRANCH   2   7
ENDBRANCH   1   2
BRANCH   1  10
ATOM     10  C   UNL     1      16.394  44.209  25.701  1.00  0.00     0.223 C 
ATOM     11  O   UNL     1      15.258  44.322  25.169  1.00  0.00    -0.275 OA
ATOM     12  N   UNL     1      17.554  44.095  24.877  1.00  0.00    -0.369 N 
ATOM     13  H   UNL     1      17.465  44.115  23.837  1.00  0.00     0.159 HD
ATOM     14  H   UNL     1      18.501  43.991  25.303  1.00  0.00     0.159 HD
ENDBRANCH   1  10
TORSDOF 4
ENDMDL
MODEL 8
REMARK VINA RESULT:    -3.186     17.099     18.079
REMARK INTER + INTRA:          -4.319
REMARK INTER:                  -4.035
REMARK INTRA:                  -0.284
REMARK UNBOUND:                -0.481
REMARK SMILES NC(=O)C[C@H]([NH3+])C(=O)[O-]
REMARK SMILES IDX 4 1 5 2 6 3 7 7 8 8 9 9 2 10 3 11 1 12
REMARK H PARENT 6 4 6 5 6 6 1 13 1 14
REMARK Flexibility Score: inf
ROOT
ATOM      1  C   UNL     1      24.965  30.055  32.452  1.00  0.00     0.171 C 
ENDROOT
BRANCH   1   2
ATOM      2  C   UNL     1      23.964  31.219  32.306  1.00  0.00     0.237 C 
BRANCH   2   3
ATOM      3  N   UNL     1      23.207  31.436  33.546  1.00  0.00    -0.350 N 
ATOM      4  H   UNL     1      23.862  31.508  34.358  1.00  0.00     0.345 HD
ATOM      5  H   UNL     1      22.537  30.650  33.714  1.00  0.00     0.345 HD
ATOM      6  H   UNL     1      22.674  32.334  33.484  1.00  0.00     0.345 HD
ENDBRANCH   2   3
BRANCH   2   7
ATOM      7  C   UNL     1      23.025  30.946  31.162  1.00  0.00     0.100 C 
ATOM      8  O   UNL     1      21.802  30.730  31.377  1.00  0.00    -0.544 OA
ATOM      9  O   UNL     1      23.506  30.911  29.860  1.00  0.00    -0.544 OA
ENDBRANCH   2   7
ENDBRANCH   1   2
BRANCH   1  10
ATOM     10  C   UNL     1      25.654  30.078  33.785  1.00  0.00     0.223 C 
ATOM     11  O   UNL     1      26.171  31.147  34.205  1.00  0.00    -0.275 OA
ATOM     12  N   UNL     1      25.754  28.889  34.567  1.00  0.00    -0.369 N 
ATOM     13  H   UNL     1      26.244  28.904  35.489  1.00  0.00     0.159 HD
ATOM     14  H   UNL     1      25.340  27.992  34.228  1.00  0.00     0.159 HD
ENDBRANCH   1  10
TORSDOF 4
ENDMDL
