MODEL 1
REMARK VINA RESULT:    -6.560      0.000      0.000
REMARK INTER + INTRA:         -11.037
REMARK INTER:                 -10.011
REMARK INTRA:                  -1.026
REMARK UNBOUND:                -1.026
REMARK SMILES CC(=O)CCC=C(C)CCC=C(C)CCC=C(C)C
REMARK SMILES IDX 10 1 11 2 12 3 13 4 14 5 15 6 16 7 18 8 17 9 19 10 9 11 7 12
REMARK SMILES IDX 6 13 8 14 5 15 4 16 2 17 3 18 1 19
REMARK H PARENT
REMARK Flexibility Score: inf
ROOT
ATOM      1  C   UNL     1     138.328 138.037 113.478  1.00  0.00     0.032 C 
ENDROOT
BRANCH   1   2
ATOM      2  C   UNL     1     138.732 139.109 114.459  1.00  0.00    -0.028 C 
ATOM      3  C   UNL     1     139.472 140.196 114.143  1.00  0.00    -0.077 C 
ATOM      4  C   UNL     1     139.932 140.463 112.729  1.00  0.00     0.039 C 
BRANCH   3   5
ATOM      5  C   UNL     1     139.857 141.168 115.234  1.00  0.00     0.034 C 
BRANCH   5   6
ATOM      6  C   UNL     1     140.986 140.592 116.096  1.00  0.00     0.032 C 
BRANCH   6   7
ATOM      7  C   UNL     1     142.194 140.273 115.252  1.00  0.00    -0.028 C 
ATOM      8  C   UNL     1     142.909 142.667 115.073  1.00  0.00     0.039 C 
ATOM      9  C   UNL     1     143.081 141.190 114.807  1.00  0.00    -0.080 C 
ATOM     10  C   UNL     1     144.265 140.712 114.007  1.00  0.00     0.039 C 
ENDBRANCH   6   7
ENDBRANCH   5   6
ENDBRANCH   3   5
ENDBRANCH   1   2
BRANCH   1  11
ATOM     11  C   UNL     1     136.824 137.762 113.570  1.00  0.00     0.034 C 
BRANCH  11  12
ATOM     12  C   UNL     1     136.562 136.322 113.952  1.00  0.00    -0.077 C 
ATOM     13  C   UNL     1     135.965 135.504 113.056  1.00  0.00    -0.028 C 
ATOM     14  C   UNL     1     136.997 135.832 115.314  1.00  0.00     0.039 C 
BRANCH  13  15
ATOM     15  C   UNL     1     135.591 134.065 113.325  1.00  0.00     0.035 C 
BRANCH  15  16
ATOM     16  C   UNL     1     134.069 133.869 113.337  1.00  0.00     0.079 C 
BRANCH  16  17
ATOM     17  C   UNL     1     133.439 134.488 114.559  1.00  0.00     0.130 C 
ATOM     18  O   UNL     1     133.596 133.960 115.649  1.00  0.00    -0.300 OA
ATOM     19  C   UNL     1     132.623 135.742 114.464  1.00  0.00     0.087 C 
ENDBRANCH  16  17
ENDBRANCH  15  16
ENDBRANCH  13  15
ENDBRANCH  11  12
ENDBRANCH   1  11
TORSDOF 9
ENDMDL
MODEL 2
REMARK VINA RESULT:    -6.500      1.398      2.119
REMARK INTER + INTRA:         -10.947
REMARK INTER:                  -9.879
REMARK INTRA:                  -1.068
REMARK UNBOUND:                -1.026
REMARK SMILES CC(=O)CCC=C(C)CCC=C(C)CCC=C(C)C
REMARK SMILES IDX 10 1 11 2 12 3 13 4 14 5 15 6 16 7 18 8 17 9 19 10 9 11 7 12
REMARK SMILES IDX 6 13 8 14 5 15 4 16 2 17 3 18 1 19
REMARK H PARENT
REMARK Flexibility Score: inf
ROOT
ATOM      1  C   UNL     1     137.642 138.306 114.216  1.00  0.00     0.032 C 
ENDROOT
BRANCH   1   2
ATOM      2  C   UNL     1     138.586 138.833 113.164  1.00  0.00    -0.028 C 
ATOM      3  C   UNL     1     139.402 139.898 113.334  1.00  0.00    -0.077 C 
ATOM      4  C   UNL     1     139.476 140.645 114.644  1.00  0.00     0.039 C 
BRANCH   3   5
ATOM      5  C   UNL     1     140.260 140.360 112.178  1.00  0.00     0.034 C 
BRANCH   5   6
ATOM      6  C   UNL     1     141.190 141.495 112.617  1.00  0.00     0.032 C 
BRANCH   6   7
ATOM      7  C   UNL     1     142.612 141.007 112.734  1.00  0.00    -0.028 C 
ATOM      8  C   UNL     1     142.984 142.113 114.952  1.00  0.00     0.039 C 
ATOM      9  C   UNL     1     143.422 141.254 113.788  1.00  0.00    -0.080 C 
ATOM     10  C   UNL     1     144.808 140.662 113.781  1.00  0.00     0.039 C 
ENDBRANCH   6   7
ENDBRANCH   5   6
ENDBRANCH   3   5
ENDBRANCH   1   2
BRANCH   1  11
ATOM     11  C   UNL     1     137.708 136.777 114.282  1.00  0.00     0.034 C 
BRANCH  11  12
ATOM     12  C   UNL     1     136.564 136.223 115.102  1.00  0.00    -0.077 C 
ATOM     13  C   UNL     1     135.298 136.577 114.783  1.00  0.00    -0.028 C 
ATOM     14  C   UNL     1     136.865 135.274 116.237  1.00  0.00     0.039 C 
BRANCH  13  15
ATOM     15  C   UNL     1     134.069 136.148 115.550  1.00  0.00     0.035 C 
BRANCH  15  16
ATOM     16  C   UNL     1     133.037 135.477 114.634  1.00  0.00     0.079 C 
BRANCH  16  17
ATOM     17  C   UNL     1     133.656 134.372 113.816  1.00  0.00     0.130 C 
ATOM     18  O   UNL     1     133.727 134.489 112.602  1.00  0.00    -0.300 OA
ATOM     19  C   UNL     1     134.189 133.129 114.463  1.00  0.00     0.087 C 
ENDBRANCH  16  17
ENDBRANCH  15  16
ENDBRANCH  13  15
ENDBRANCH  11  12
ENDBRANCH   1  11
TORSDOF 9
ENDMDL
MODEL 3
REMARK VINA RESULT:    -6.485      1.981      3.346
REMARK INTER + INTRA:         -10.923
REMARK INTER:                  -9.492
REMARK INTRA:                  -1.431
REMARK UNBOUND:                -1.026
REMARK SMILES CC(=O)CCC=C(C)CCC=C(C)CCC=C(C)C
REMARK SMILES IDX 10 1 11 2 12 3 13 4 14 5 15 6 16 7 18 8 17 9 19 10 9 11 7 12
REMARK SMILES IDX 6 13 8 14 5 15 4 16 2 17 3 18 1 19
REMARK H PARENT
REMARK Flexibility Score: inf
ROOT
ATOM      1  C   UNL     1     139.567 139.763 112.367  1.00  0.00     0.032 C 
ENDROOT
BRANCH   1   2
ATOM      2  C   UNL     1     140.611 140.830 112.583  1.00  0.00    -0.028 C 
ATOM      3  C   UNL     1     141.943 140.599 112.618  1.00  0.00    -0.077 C 
ATOM      4  C   UNL     1     142.521 139.222 112.391  1.00  0.00     0.039 C 
BRANCH   3   5
ATOM      5  C   UNL     1     142.883 141.750 112.899  1.00  0.00     0.034 C 
BRANCH   5   6
ATOM      6  C   UNL     1     143.465 141.637 114.312  1.00  0.00     0.032 C 
BRANCH   6   7
ATOM      7  C   UNL     1     142.496 142.173 115.335  1.00  0.00    -0.028 C 
ATOM      8  C   UNL     1     141.889 139.898 116.195  1.00  0.00     0.039 C 
ATOM      9  C   UNL     1     141.800 141.407 116.205  1.00  0.00    -0.080 C 
ATOM     10  C   UNL     1     140.899 142.091 117.200  1.00  0.00     0.039 C 
ENDBRANCH   6   7
ENDBRANCH   5   6
ENDBRANCH   3   5
ENDBRANCH   1   2
BRANCH   1  11
ATOM     11  C   UNL     1     139.065 139.222 113.710  1.00  0.00     0.034 C 
BRANCH  11  12
ATOM     12  C   UNL     1     138.173 138.018 113.505  1.00  0.00    -0.077 C 
ATOM     13  C   UNL     1     137.852 137.250 114.572  1.00  0.00    -0.028 C 
ATOM     14  C   UNL     1     137.646 137.720 112.121  1.00  0.00     0.039 C 
BRANCH  13  15
ATOM     15  C   UNL     1     137.023 135.989 114.502  1.00  0.00     0.035 C 
BRANCH  15  16
ATOM     16  C   UNL     1     136.065 135.876 115.695  1.00  0.00     0.079 C 
BRANCH  16  17
ATOM     17  C   UNL     1     136.586 134.917 116.736  1.00  0.00     0.130 C 
ATOM     18  O   UNL     1     136.853 133.769 116.417  1.00  0.00    -0.300 OA
ATOM     19  C   UNL     1     136.785 135.347 118.159  1.00  0.00     0.087 C 
ENDBRANCH  16  17
ENDBRANCH  15  16
ENDBRANCH  13  15
ENDBRANCH  11  12
ENDBRANCH   1  11
TORSDOF 9
ENDMDL
MODEL 4
REMARK VINA RESULT:    -6.475      2.986      8.533
REMARK INTER + INTRA:         -10.909
REMARK INTER:                  -9.771
REMARK INTRA:                  -1.138
REMARK UNBOUND:                -1.026
REMARK SMILES CC(=O)CCC=C(C)CCC=C(C)CCC=C(C)C
REMARK SMILES IDX 10 1 11 2 12 3 13 4 14 5 15 6 16 7 18 8 17 9 19 10 9 11 7 12
REMARK SMILES IDX 6 13 8 14 5 15 4 16 2 17 3 18 1 19
REMARK H PARENT
REMARK Flexibility Score: inf
ROOT
ATOM      1  C   UNL     1     137.496 136.918 114.681  1.00  0.00     0.032 C 
ENDROOT
BRANCH   1   2
ATOM      2  C   UNL     1     136.942 135.520 114.567  1.00  0.00    -0.028 C 
ATOM      3  C   UNL     1     136.469 134.798 115.609  1.00  0.00    -0.077 C 
ATOM      4  C   UNL     1     136.409 135.362 117.008  1.00  0.00     0.039 C 
BRANCH   3   5
ATOM      5  C   UNL     1     135.993 133.383 115.368  1.00  0.00     0.034 C 
BRANCH   5   6
ATOM      6  C   UNL     1     135.059 133.328 114.155  1.00  0.00     0.032 C 
BRANCH   6   7
ATOM      7  C   UNL     1     133.811 134.138 114.402  1.00  0.00    -0.028 C 
ATOM      8  C   UNL     1     133.972 135.358 112.219  1.00  0.00     0.039 C 
ATOM      9  C   UNL     1     133.296 135.034 113.531  1.00  0.00    -0.080 C 
ATOM     10  C   UNL     1     132.016 135.738 113.902  1.00  0.00     0.039 C 
ENDBRANCH   6   7
ENDBRANCH   5   6
ENDBRANCH   3   5
ENDBRANCH   1   2
BRANCH   1  11
ATOM     11  C   UNL     1     137.512 137.604 113.312  1.00  0.00     0.034 C 
BRANCH  11  12
ATOM     12  C   UNL     1     138.500 138.749 113.295  1.00  0.00    -0.077 C 
ATOM     13  C   UNL     1     138.700 139.460 114.428  1.00  0.00    -0.028 C 
ATOM     14  C   UNL     1     139.252 139.052 112.020  1.00  0.00     0.039 C 
BRANCH  13  15
ATOM     15  C   UNL     1     139.608 140.662 114.537  1.00  0.00     0.035 C 
BRANCH  15  16
ATOM     16  C   UNL     1     140.449 140.620 115.820  1.00  0.00     0.079 C 
BRANCH  16  17
ATOM     17  C   UNL     1     140.093 141.748 116.755  1.00  0.00     0.130 C 
ATOM     18  O   UNL     1     139.617 142.777 116.302  1.00  0.00    -0.300 OA
ATOM     19  C   UNL     1     140.310 141.630 118.234  1.00  0.00     0.087 C 
ENDBRANCH  16  17
ENDBRANCH  15  16
ENDBRANCH  13  15
ENDBRANCH  11  12
ENDBRANCH   1  11
TORSDOF 9
ENDMDL
MODEL 5
REMARK VINA RESULT:    -6.472      3.099      8.737
REMARK INTER + INTRA:         -10.904
REMARK INTER:                  -9.708
REMARK INTRA:                  -1.196
REMARK UNBOUND:                -1.026
REMARK SMILES CC(=O)CCC=C(C)CCC=C(C)CCC=C(C)C
REMARK SMILES IDX 10 1 11 2 12 3 13 4 14 5 15 6 16 7 18 8 17 9 19 10 9 11 7 12
REMARK SMILES IDX 6 13 8 14 5 15 4 16 2 17 3 18 1 19
REMARK H PARENT
REMARK Flexibility Score: inf
ROOT
ATOM      1  C   UNL     1     137.351 137.288 114.557  1.00  0.00     0.032 C 
ENDROOT
BRANCH   1   2
ATOM      2  C   UNL     1     137.129 135.798 114.609  1.00  0.00    -0.028 C 
ATOM      3  C   UNL     1     136.568 135.145 115.652  1.00  0.00    -0.077 C 
ATOM      4  C   UNL     1     136.057 135.877 116.870  1.00  0.00     0.039 C 
BRANCH   3   5
ATOM      5  C   UNL     1     136.453 133.638 115.602  1.00  0.00     0.034 C 
BRANCH   5   6
ATOM      6  C   UNL     1     135.468 133.208 114.511  1.00  0.00     0.032 C 
BRANCH   6   7
ATOM      7  C   UNL     1     134.171 133.969 114.630  1.00  0.00    -0.028 C 
ATOM      8  C   UNL     1     134.299 134.881 112.300  1.00  0.00     0.039 C 
ATOM      9  C   UNL     1     133.620 134.703 113.638  1.00  0.00    -0.080 C 
ATOM     10  C   UNL     1     132.295 135.373 113.894  1.00  0.00     0.039 C 
ENDBRANCH   6   7
ENDBRANCH   5   6
ENDBRANCH   3   5
ENDBRANCH   1   2
BRANCH   1  11
ATOM     11  C   UNL     1     137.876 137.707 113.179  1.00  0.00     0.034 C 
BRANCH  11  12
ATOM     12  C   UNL     1     138.691 138.977 113.277  1.00  0.00    -0.077 C 
ATOM     13  C   UNL     1     138.829 139.577 114.482  1.00  0.00    -0.028 C 
ATOM     14  C   UNL     1     139.347 139.526 112.032  1.00  0.00     0.039 C 
BRANCH  13  15
ATOM     15  C   UNL     1     139.563 140.877 114.712  1.00  0.00     0.035 C 
BRANCH  15  16
ATOM     16  C   UNL     1     141.042 140.640 115.044  1.00  0.00     0.079 C 
BRANCH  16  17
ATOM     17  C   UNL     1     141.910 141.771 114.552  1.00  0.00     0.130 C 
ATOM     18  O   UNL     1     142.803 142.199 115.266  1.00  0.00    -0.300 OA
ATOM     19  C   UNL     1     141.699 142.381 113.198  1.00  0.00     0.087 C 
ENDBRANCH  16  17
ENDBRANCH  15  16
ENDBRANCH  13  15
ENDBRANCH  11  12
ENDBRANCH   1  11
TORSDOF 9
ENDMDL
MODEL 6
REMARK VINA RESULT:    -6.467      1.532      2.582
REMARK INTER + INTRA:         -10.896
REMARK INTER:                  -9.704
REMARK INTRA:                  -1.192
REMARK UNBOUND:                -1.026
REMARK SMILES CC(=O)CCC=C(C)CCC=C(C)CCC=C(C)C
REMARK SMILES IDX 10 1 11 2 12 3 13 4 14 5 15 6 16 7 18 8 17 9 19 10 9 11 7 12
REMARK SMILES IDX 6 13 8 14 5 15 4 16 2 17 3 18 1 19
REMARK H PARENT
REMARK Flexibility Score: inf
ROOT
ATOM      1  C   UNL     1     139.200 139.253 114.494  1.00  0.00     0.032 C 
ENDROOT
BRANCH   1   2
ATOM      2  C   UNL     1     139.511 140.729 114.467  1.00  0.00    -0.028 C 
ATOM      3  C   UNL     1     140.050 141.415 115.501  1.00  0.00    -0.077 C 
ATOM      4  C   UNL     1     140.442 140.735 116.792  1.00  0.00     0.039 C 
BRANCH   3   5
ATOM      5  C   UNL     1     140.261 142.906 115.365  1.00  0.00     0.034 C 
BRANCH   5   6
ATOM      6  C   UNL     1     141.255 143.209 114.240  1.00  0.00     0.032 C 
BRANCH   6   7
ATOM      7  C   UNL     1     142.528 142.421 114.423  1.00  0.00    -0.028 C 
ATOM      8  C   UNL     1     142.430 141.413 112.131  1.00  0.00     0.039 C 
ATOM      9  C   UNL     1     143.082 141.631 113.477  1.00  0.00    -0.080 C 
ATOM     10  C   UNL     1     144.382 140.938 113.794  1.00  0.00     0.039 C 
ENDBRANCH   6   7
ENDBRANCH   5   6
ENDBRANCH   3   5
ENDBRANCH   1   2
BRANCH   1  11
ATOM     11  C   UNL     1     138.869 138.747 113.087  1.00  0.00     0.034 C 
BRANCH  11  12
ATOM     12  C   UNL     1     137.856 137.625 113.142  1.00  0.00    -0.077 C 
ATOM     13  C   UNL     1     137.635 136.999 114.321  1.00  0.00    -0.028 C 
ATOM     14  C   UNL     1     137.106 137.250 111.886  1.00  0.00     0.039 C 
BRANCH  13  15
ATOM     15  C   UNL     1     136.700 135.827 114.506  1.00  0.00     0.035 C 
BRANCH  15  16
ATOM     16  C   UNL     1     136.117 135.788 115.925  1.00  0.00     0.079 C 
BRANCH  16  17
ATOM     17  C   UNL     1     134.670 136.212 115.944  1.00  0.00     0.130 C 
ATOM     18  O   UNL     1     134.237 136.835 116.900  1.00  0.00    -0.300 OA
ATOM     19  C   UNL     1     133.749 135.883 114.807  1.00  0.00     0.087 C 
ENDBRANCH  16  17
ENDBRANCH  15  16
ENDBRANCH  13  15
ENDBRANCH  11  12
ENDBRANCH   1  11
TORSDOF 9
ENDMDL
MODEL 7
REMARK VINA RESULT:    -6.440      2.776      8.264
REMARK INTER + INTRA:         -10.854
REMARK INTER:                  -9.471
REMARK INTRA:                  -1.383
REMARK UNBOUND:                -1.026
REMARK SMILES CC(=O)CCC=C(C)CCC=C(C)CCC=C(C)C
REMARK SMILES IDX 10 1 11 2 12 3 13 4 14 5 15 6 16 7 18 8 17 9 19 10 9 11 7 12
REMARK SMILES IDX 6 13 8 14 5 15 4 16 2 17 3 18 1 19
REMARK H PARENT
REMARK Flexibility Score: inf
ROOT
ATOM      1  C   UNL     1     136.838 136.902 112.401  1.00  0.00     0.032 C 
ENDROOT
BRANCH   1   2
ATOM      2  C   UNL     1     135.860 135.775 112.616  1.00  0.00    -0.028 C 
ATOM      3  C   UNL     1     134.517 135.927 112.666  1.00  0.00    -0.077 C 
ATOM      4  C   UNL     1     133.859 137.270 112.458  1.00  0.00     0.039 C 
BRANCH   3   5
ATOM      5  C   UNL     1     133.649 134.722 112.945  1.00  0.00     0.034 C 
BRANCH   5   6
ATOM      6  C   UNL     1     133.019 134.822 114.339  1.00  0.00     0.032 C 
BRANCH   6   7
ATOM      7  C   UNL     1     133.962 134.297 115.392  1.00  0.00    -0.028 C 
ATOM      8  C   UNL     1     134.538 136.580 116.251  1.00  0.00     0.039 C 
ATOM      9  C   UNL     1     134.631 135.072 116.274  1.00  0.00    -0.080 C 
ATOM     10  C   UNL     1     135.508 134.397 117.298  1.00  0.00     0.039 C 
ENDBRANCH   6   7
ENDBRANCH   5   6
ENDBRANCH   3   5
ENDBRANCH   1   2
BRANCH   1  11
ATOM     11  C   UNL     1     137.505 137.296 113.722  1.00  0.00     0.034 C 
BRANCH  11  12
ATOM     12  C   UNL     1     138.393 138.506 113.538  1.00  0.00    -0.077 C 
ATOM     13  C   UNL     1     138.653 139.298 114.603  1.00  0.00    -0.028 C 
ATOM     14  C   UNL     1     138.983 138.783 112.175  1.00  0.00     0.039 C 
BRANCH  13  15
ATOM     15  C   UNL     1     139.471 140.567 114.549  1.00  0.00     0.035 C 
BRANCH  15  16
ATOM     16  C   UNL     1     140.047 140.927 115.924  1.00  0.00     0.079 C 
BRANCH  16  17
ATOM     17  C   UNL     1     141.509 140.570 116.025  1.00  0.00     0.130 C 
ATOM     18  O   UNL     1     141.897 139.881 116.956  1.00  0.00    -0.300 OA
ATOM     19  C   UNL     1     142.498 141.042 115.001  1.00  0.00     0.087 C 
ENDBRANCH  16  17
ENDBRANCH  15  16
ENDBRANCH  13  15
ENDBRANCH  11  12
ENDBRANCH   1  11
TORSDOF 9
ENDMDL
MODEL 8
REMARK VINA RESULT:    -6.364      3.356      8.301
REMARK INTER + INTRA:         -10.739
REMARK INTER:                  -9.234
REMARK INTRA:                  -1.505
REMARK UNBOUND:                -1.026
REMARK SMILES CC(=O)CCC=C(C)CCC=C(C)CCC=C(C)C
REMARK SMILES IDX 10 1 11 2 12 3 13 4 14 5 15 6 16 7 18 8 17 9 19 10 9 11 7 12
REMARK SMILES IDX 6 13 8 14 5 15 4 16 2 17 3 18 1 19
REMARK H PARENT
REMARK Flexibility Score: inf
ROOT
ATOM      1  C   UNL     1     137.939 138.406 113.997  1.00  0.00     0.032 C 
ENDROOT
BRANCH   1   2
ATOM      2  C   UNL     1     137.628 136.931 113.960  1.00  0.00    -0.028 C 
ATOM      3  C   UNL     1     136.391 136.414 113.779  1.00  0.00    -0.077 C 
ATOM      4  C   UNL     1     135.187 137.294 113.544  1.00  0.00     0.039 C 
BRANCH   3   5
ATOM      5  C   UNL     1     136.206 134.914 113.819  1.00  0.00     0.034 C 
BRANCH   5   6
ATOM      6  C   UNL     1     135.283 134.516 114.975  1.00  0.00     0.032 C 
BRANCH   6   7
ATOM      7  C   UNL     1     136.011 134.593 116.293  1.00  0.00    -0.028 C 
ATOM      8  C   UNL     1     134.581 136.458 117.163  1.00  0.00     0.039 C 
ATOM      9  C   UNL     1     135.691 135.441 117.296  1.00  0.00    -0.080 C 
ATOM     10  C   UNL     1     136.487 135.372 118.574  1.00  0.00     0.039 C 
ENDBRANCH   6   7
ENDBRANCH   5   6
ENDBRANCH   3   5
ENDBRANCH   1   2
BRANCH   1  11
ATOM     11  C   UNL     1     139.032 138.752 112.980  1.00  0.00     0.034 C 
BRANCH  11  12
ATOM     12  C   UNL     1     140.316 139.137 113.680  1.00  0.00    -0.077 C 
ATOM     13  C   UNL     1     140.276 139.462 114.992  1.00  0.00    -0.028 C 
ATOM     14  C   UNL     1     141.610 139.125 112.900  1.00  0.00     0.039 C 
BRANCH  13  15
ATOM     15  C   UNL     1     141.469 139.921 115.798  1.00  0.00     0.035 C 
BRANCH  15  16
ATOM     16  C   UNL     1     141.444 141.438 116.028  1.00  0.00     0.079 C 
BRANCH  16  17
ATOM     17  C   UNL     1     142.247 142.171 114.984  1.00  0.00     0.130 C 
ATOM     18  O   UNL     1     143.419 141.877 114.808  1.00  0.00    -0.300 OA
ATOM     19  C   UNL     1     141.633 143.258 114.152  1.00  0.00     0.087 C 
ENDBRANCH  16  17
ENDBRANCH  15  16
ENDBRANCH  13  15
ENDBRANCH  11  12
ENDBRANCH   1  11
TORSDOF 9
ENDMDL
MODEL 9
REMARK VINA RESULT:    -6.352      1.643      2.677
REMARK INTER + INTRA:         -10.720
REMARK INTER:                  -9.204
REMARK INTRA:                  -1.515
REMARK UNBOUND:                -1.026
REMARK SMILES CC(=O)CCC=C(C)CCC=C(C)CCC=C(C)C
REMARK SMILES IDX 10 1 11 2 12 3 13 4 14 5 15 6 16 7 18 8 17 9 19 10 9 11 7 12
REMARK SMILES IDX 6 13 8 14 5 15 4 16 2 17 3 18 1 19
REMARK H PARENT
REMARK Flexibility Score: inf
ROOT
ATOM      1  C   UNL     1     138.443 138.003 114.336  1.00  0.00     0.032 C 
ENDROOT
BRANCH   1   2
ATOM      2  C   UNL     1     138.758 139.477 114.280  1.00  0.00    -0.028 C 
ATOM      3  C   UNL     1     139.959 139.988 113.925  1.00  0.00    -0.077 C 
ATOM      4  C   UNL     1     141.107 139.106 113.497  1.00  0.00     0.039 C 
BRANCH   3   5
ATOM      5  C   UNL     1     140.161 141.486 113.964  1.00  0.00     0.034 C 
BRANCH   5   6
ATOM      6  C   UNL     1     141.207 141.861 115.019  1.00  0.00     0.032 C 
BRANCH   6   7
ATOM      7  C   UNL     1     140.655 141.678 116.410  1.00  0.00    -0.028 C 
ATOM      8  C   UNL     1     142.211 139.791 116.958  1.00  0.00     0.039 C 
ATOM      9  C   UNL     1     141.112 140.771 117.302  1.00  0.00    -0.080 C 
ATOM     10  C   UNL     1     140.486 140.734 118.672  1.00  0.00     0.039 C 
ENDBRANCH   6   7
ENDBRANCH   5   6
ENDBRANCH   3   5
ENDBRANCH   1   2
BRANCH   1  11
ATOM     11  C   UNL     1     137.464 137.618 113.222  1.00  0.00     0.034 C 
BRANCH  11  12
ATOM     12  C   UNL     1     136.101 137.293 113.792  1.00  0.00    -0.077 C 
ATOM     13  C   UNL     1     136.002 136.927 115.090  1.00  0.00    -0.028 C 
ATOM     14  C   UNL     1     134.886 137.409 112.901  1.00  0.00     0.039 C 
BRANCH  13  15
ATOM     15  C   UNL     1     134.717 136.519 115.770  1.00  0.00     0.035 C 
BRANCH  15  16
ATOM     16  C   UNL     1     134.724 135.031 116.145  1.00  0.00     0.079 C 
BRANCH  16  17
ATOM     17  C   UNL     1     134.552 134.152 114.932  1.00  0.00     0.130 C 
ATOM     18  O   UNL     1     133.534 134.241 114.263  1.00  0.00    -0.300 OA
ATOM     19  C   UNL     1     135.609 133.168 114.527  1.00  0.00     0.087 C 
ENDBRANCH  16  17
ENDBRANCH  15  16
ENDBRANCH  13  15
ENDBRANCH  11  12
ENDBRANCH   1  11
TORSDOF 9
ENDMDL
