MODEL 1
REMARK VINA RESULT:    -3.937      0.000      0.000
REMARK INTER + INTRA:         -12.367
REMARK INTER:                  -8.541
REMARK INTRA:                  -3.826
REMARK UNBOUND:                -3.826
REMARK SMILES CCCCCCCCCCCCCCCCCCCCCC(=O)[O-]
REMARK SMILES IDX 12 1 11 2 10 3 9 4 8 5 7 6 6 7 5 8 4 9 3 10 2 11 1 12 13 13
REMARK SMILES IDX 14 14 15 15 16 16 17 17 18 18 19 19 20 20 21 21 22 22 23 23
REMARK SMILES IDX 24 24
REMARK H PARENT
REMARK Flexibility Score: inf
ROOT
ATOM      1  C   UNL     1      99.312  82.151  80.984  1.00  0.00     0.000 C 
ENDROOT
BRANCH   1   2
ATOM      2  C   UNL     1      98.524  82.141  79.663  1.00  0.00     0.000 C 
BRANCH   2   3
ATOM      3  C   UNL     1      97.089  81.611  79.834  1.00  0.00     0.000 C 
BRANCH   3   4
ATOM      4  C   UNL     1      96.029  82.561  79.247  1.00  0.00    -0.000 C 
BRANCH   4   5
ATOM      5  C   UNL     1      96.566  83.594  78.239  1.00  0.00    -0.000 C 
BRANCH   5   6
ATOM      6  C   UNL     1      95.871  84.962  78.357  1.00  0.00    -0.000 C 
BRANCH   6   7
ATOM      7  C   UNL     1      94.530  84.885  79.105  1.00  0.00    -0.000 C 
BRANCH   7   8
ATOM      8  C   UNL     1      93.330  85.224  78.204  1.00  0.00    -0.000 C 
BRANCH   8   9
ATOM      9  C   UNL     1      93.090  84.163  77.119  1.00  0.00    -0.000 C 
BRANCH   9  10
ATOM     10  C   UNL     1      92.493  82.861  77.683  1.00  0.00    -0.000 C 
BRANCH  10  11
ATOM     11  C   UNL     1      91.243  83.110  78.540  1.00  0.00    -0.003 C 
ATOM     12  C   UNL     1      90.040  83.565  77.714  1.00  0.00     0.004 C 
ENDBRANCH  10  11
ENDBRANCH   9  10
ENDBRANCH   8   9
ENDBRANCH   7   8
ENDBRANCH   6   7
ENDBRANCH   5   6
ENDBRANCH   4   5
ENDBRANCH   3   4
ENDBRANCH   2   3
ENDBRANCH   1   2
BRANCH   1  13
ATOM     13  C   UNL     1      99.823  83.553  81.359  1.00  0.00     0.000 C 
BRANCH  13  14
ATOM     14  C   UNL     1      99.441  84.620  80.320  1.00  0.00     0.000 C 
BRANCH  14  15
ATOM     15  C   UNL     1      98.676  85.803  80.940  1.00  0.00     0.000 C 
BRANCH  15  16
ATOM     16  C   UNL     1      98.012  85.437  82.278  1.00  0.00     0.000 C 
BRANCH  16  17
ATOM     17  C   UNL     1      96.525  85.073  82.122  1.00  0.00     0.000 C 
BRANCH  17  18
ATOM     18  C   UNL     1      96.153  83.757  82.830  1.00  0.00     0.000 C 
BRANCH  18  19
ATOM     19  C   UNL     1      94.666  83.372  82.737  1.00  0.00     0.000 C 
BRANCH  19  20
ATOM     20  C   UNL     1      93.723  84.563  82.969  1.00  0.00     0.006 C 
BRANCH  20  21
ATOM     21  C   UNL     1      92.396  84.366  82.230  1.00  0.00     0.053 C 
BRANCH  21  22
ATOM     22  C   UNL     1      91.372  83.756  83.133  1.00  0.00     0.041 C 
ATOM     23  O   UNL     1      90.261  83.382  82.669  1.00  0.00    -0.550 OA
ATOM     24  O   UNL     1      91.627  83.634  84.494  1.00  0.00    -0.550 OA
ENDBRANCH  21  22
ENDBRANCH  20  21
ENDBRANCH  19  20
ENDBRANCH  18  19
ENDBRANCH  17  18
ENDBRANCH  16  17
ENDBRANCH  15  16
ENDBRANCH  14  15
ENDBRANCH  13  14
ENDBRANCH   1  13
TORSDOF 20
ENDMDL
MODEL 2
REMARK VINA RESULT:    -3.878      2.365      5.045
REMARK INTER + INTRA:         -12.237
REMARK INTER:                  -8.237
REMARK INTRA:                  -4.000
REMARK UNBOUND:                -3.826
REMARK SMILES CCCCCCCCCCCCCCCCCCCCCC(=O)[O-]
REMARK SMILES IDX 12 1 11 2 10 3 9 4 8 5 7 6 6 7 5 8 4 9 3 10 2 11 1 12 13 13
REMARK SMILES IDX 14 14 15 15 16 16 17 17 18 18 19 19 20 20 21 21 22 22 23 23
REMARK SMILES IDX 24 24
REMARK H PARENT
REMARK Flexibility Score: inf
ROOT
ATOM      1  C   UNL     1      95.754  83.049  79.137  1.00  0.00     0.000 C 
ENDROOT
BRANCH   1   2
ATOM      2  C   UNL     1      96.554  81.766  79.419  1.00  0.00     0.000 C 
BRANCH   2   3
ATOM      3  C   UNL     1      98.073  81.972  79.280  1.00  0.00     0.000 C 
BRANCH   3   4
ATOM      4  C   UNL     1      98.783  82.120  80.638  1.00  0.00    -0.000 C 
BRANCH   4   5
ATOM      5  C   UNL     1      99.880  83.200  80.685  1.00  0.00    -0.000 C 
BRANCH   5   6
ATOM      6  C   UNL     1      99.392  84.522  81.305  1.00  0.00    -0.000 C 
BRANCH   6   7
ATOM      7  C   UNL     1      98.305  84.312  82.373  1.00  0.00    -0.000 C 
BRANCH   7   8
ATOM      8  C   UNL     1      97.074  85.207  82.147  1.00  0.00    -0.000 C 
BRANCH   8   9
ATOM      9  C   UNL     1      95.886  84.809  83.037  1.00  0.00    -0.000 C 
BRANCH   9  10
ATOM     10  C   UNL     1      95.406  83.369  82.781  1.00  0.00    -0.000 C 
BRANCH  10  11
ATOM     11  C   UNL     1      94.255  82.959  83.710  1.00  0.00    -0.003 C 
ATOM     12  C   UNL     1      93.370  84.140  84.112  1.00  0.00     0.004 C 
ENDBRANCH  10  11
ENDBRANCH   9  10
ENDBRANCH   8   9
ENDBRANCH   7   8
ENDBRANCH   6   7
ENDBRANCH   5   6
ENDBRANCH   4   5
ENDBRANCH   3   4
ENDBRANCH   2   3
ENDBRANCH   1   2
BRANCH   1  13
ATOM     13  C   UNL     1      96.531  84.052  78.267  1.00  0.00     0.000 C 
BRANCH  13  14
ATOM     14  C   UNL     1      96.228  85.514  78.635  1.00  0.00     0.000 C 
BRANCH  14  15
ATOM     15  C   UNL     1      94.723  85.780  78.812  1.00  0.00     0.000 C 
BRANCH  15  16
ATOM     16  C   UNL     1      94.416  86.619  80.064  1.00  0.00     0.000 C 
BRANCH  16  17
ATOM     17  C   UNL     1      93.180  86.114  80.828  1.00  0.00     0.000 C 
BRANCH  17  18
ATOM     18  C   UNL     1      92.780  84.678  80.440  1.00  0.00     0.000 C 
BRANCH  18  19
ATOM     19  C   UNL     1      91.270  84.460  80.239  1.00  0.00     0.000 C 
BRANCH  19  20
ATOM     20  C   UNL     1      90.953  83.465  79.112  1.00  0.00     0.006 C 
BRANCH  20  21
ATOM     21  C   UNL     1      92.220  83.093  78.335  1.00  0.00     0.053 C 
BRANCH  21  22
ATOM     22  C   UNL     1      92.214  83.726  76.979  1.00  0.00     0.041 C 
ATOM     23  O   UNL     1      93.302  83.965  76.389  1.00  0.00    -0.550 OA
ATOM     24  O   UNL     1      91.012  84.087  76.383  1.00  0.00    -0.550 OA
ENDBRANCH  21  22
ENDBRANCH  20  21
ENDBRANCH  19  20
ENDBRANCH  18  19
ENDBRANCH  17  18
ENDBRANCH  16  17
ENDBRANCH  15  16
ENDBRANCH  14  15
ENDBRANCH  13  14
ENDBRANCH   1  13
TORSDOF 20
ENDMDL
MODEL 3
REMARK VINA RESULT:    -3.810      2.341      5.098
REMARK INTER + INTRA:         -12.090
REMARK INTER:                  -8.310
REMARK INTRA:                  -3.781
REMARK UNBOUND:                -3.826
REMARK SMILES CCCCCCCCCCCCCCCCCCCCCC(=O)[O-]
REMARK SMILES IDX 12 1 11 2 10 3 9 4 8 5 7 6 6 7 5 8 4 9 3 10 2 11 1 12 13 13
REMARK SMILES IDX 14 14 15 15 16 16 17 17 18 18 19 19 20 20 21 21 22 22 23 23
REMARK SMILES IDX 24 24
REMARK H PARENT
REMARK Flexibility Score: inf
ROOT
ATOM      1  C   UNL     1     100.854  83.100  80.587  1.00  0.00     0.000 C 
ENDROOT
BRANCH   1   2
ATOM      2  C   UNL     1     101.412  84.525  80.741  1.00  0.00     0.000 C 
BRANCH   2   3
ATOM      3  C   UNL     1     101.062  85.153  82.103  1.00  0.00     0.000 C 
BRANCH   3   4
ATOM      4  C   UNL     1     100.034  86.293  81.988  1.00  0.00    -0.000 C 
BRANCH   4   5
ATOM      5  C   UNL     1      99.764  86.785  80.554  1.00  0.00    -0.000 C 
BRANCH   5   6
ATOM      6  C   UNL     1      98.410  86.304  80.001  1.00  0.00    -0.000 C 
BRANCH   6   7
ATOM      7  C   UNL     1      97.495  85.722  81.092  1.00  0.00    -0.000 C 
BRANCH   7   8
ATOM      8  C   UNL     1      96.126  86.419  81.149  1.00  0.00    -0.000 C 
BRANCH   8   9
ATOM      9  C   UNL     1      95.112  85.657  82.016  1.00  0.00    -0.000 C 
BRANCH   9  10
ATOM     10  C   UNL     1      95.372  84.139  82.039  1.00  0.00    -0.000 C 
BRANCH  10  11
ATOM     11  C   UNL     1      95.191  83.534  83.439  1.00  0.00    -0.003 C 
ATOM     12  C   UNL     1      96.494  83.491  84.238  1.00  0.00     0.004 C 
ENDBRANCH  10  11
ENDBRANCH   9  10
ENDBRANCH   8   9
ENDBRANCH   7   8
ENDBRANCH   6   7
ENDBRANCH   5   6
ENDBRANCH   4   5
ENDBRANCH   3   4
ENDBRANCH   2   3
ENDBRANCH   1   2
BRANCH   1  13
ATOM     13  C   UNL     1     100.041  82.645  81.811  1.00  0.00     0.000 C 
BRANCH  13  14
ATOM     14  C   UNL     1      98.574  82.340  81.468  1.00  0.00     0.000 C 
BRANCH  14  15
ATOM     15  C   UNL     1      98.329  82.240  79.952  1.00  0.00     0.000 C 
BRANCH  15  16
ATOM     16  C   UNL     1      96.987  81.569  79.615  1.00  0.00     0.000 C 
BRANCH  16  17
ATOM     17  C   UNL     1      95.990  82.537  78.954  1.00  0.00     0.000 C 
BRANCH  17  18
ATOM     18  C   UNL     1      96.682  83.669  78.172  1.00  0.00     0.000 C 
BRANCH  18  19
ATOM     19  C   UNL     1      95.772  84.857  77.816  1.00  0.00     0.000 C 
BRANCH  19  20
ATOM     20  C   UNL     1      94.300  84.618  78.189  1.00  0.00     0.006 C 
BRANCH  20  21
ATOM     21  C   UNL     1      93.477  84.230  76.956  1.00  0.00     0.053 C 
BRANCH  21  22
ATOM     22  C   UNL     1      92.354  83.318  77.336  1.00  0.00     0.041 C 
ATOM     23  O   UNL     1      92.593  82.129  77.679  1.00  0.00    -0.550 OA
ATOM     24  O   UNL     1      91.040  83.767  77.276  1.00  0.00    -0.550 OA
ENDBRANCH  21  22
ENDBRANCH  20  21
ENDBRANCH  19  20
ENDBRANCH  18  19
ENDBRANCH  17  18
ENDBRANCH  16  17
ENDBRANCH  15  16
ENDBRANCH  14  15
ENDBRANCH  13  14
ENDBRANCH   1  13
TORSDOF 20
ENDMDL
MODEL 4
REMARK VINA RESULT:    -3.778      3.753      6.271
REMARK INTER + INTRA:         -12.022
REMARK INTER:                  -8.393
REMARK INTRA:                  -3.629
REMARK UNBOUND:                -3.826
REMARK SMILES CCCCCCCCCCCCCCCCCCCCCC(=O)[O-]
REMARK SMILES IDX 12 1 11 2 10 3 9 4 8 5 7 6 6 7 5 8 4 9 3 10 2 11 1 12 13 13
REMARK SMILES IDX 14 14 15 15 16 16 17 17 18 18 19 19 20 20 21 21 22 22 23 23
REMARK SMILES IDX 24 24
REMARK H PARENT
REMARK Flexibility Score: inf
ROOT
ATOM      1  C   UNL     1     100.172  82.413  80.382  1.00  0.00     0.000 C 
ENDROOT
BRANCH   1   2
ATOM      2  C   UNL     1     100.632  83.450  81.420  1.00  0.00     0.000 C 
BRANCH   2   3
ATOM      3  C   UNL     1     101.523  84.546  80.807  1.00  0.00     0.000 C 
BRANCH   3   4
ATOM      4  C   UNL     1     100.859  85.935  80.827  1.00  0.00    -0.000 C 
BRANCH   4   5
ATOM      5  C   UNL     1      99.926  86.227  79.637  1.00  0.00    -0.000 C 
BRANCH   5   6
ATOM      6  C   UNL     1      98.459  85.861  79.923  1.00  0.00    -0.000 C 
BRANCH   6   7
ATOM      7  C   UNL     1      97.834  86.729  81.028  1.00  0.00    -0.000 C 
BRANCH   7   8
ATOM      8  C   UNL     1      97.410  85.907  82.257  1.00  0.00    -0.000 C 
BRANCH   8   9
ATOM      9  C   UNL     1      96.219  84.983  81.964  1.00  0.00    -0.000 C 
BRANCH   9  10
ATOM     10  C   UNL     1      96.369  83.594  82.612  1.00  0.00    -0.000 C 
BRANCH  10  11
ATOM     11  C   UNL     1      96.942  83.669  84.034  1.00  0.00    -0.003 C 
ATOM     12  C   UNL     1      98.231  82.862  84.197  1.00  0.00     0.004 C 
ENDBRANCH  10  11
ENDBRANCH   9  10
ENDBRANCH   8   9
ENDBRANCH   7   8
ENDBRANCH   6   7
ENDBRANCH   5   6
ENDBRANCH   4   5
ENDBRANCH   3   4
ENDBRANCH   2   3
ENDBRANCH   1   2
BRANCH   1  13
ATOM     13  C   UNL     1      98.678  82.070  80.508  1.00  0.00     0.000 C 
BRANCH  13  14
ATOM     14  C   UNL     1      97.928  82.187  79.170  1.00  0.00     0.000 C 
BRANCH  14  15
ATOM     15  C   UNL     1      96.469  81.709  79.266  1.00  0.00     0.000 C 
BRANCH  15  16
ATOM     16  C   UNL     1      95.461  82.832  78.970  1.00  0.00     0.000 C 
BRANCH  16  17
ATOM     17  C   UNL     1      96.083  83.991  78.172  1.00  0.00     0.000 C 
BRANCH  17  18
ATOM     18  C   UNL     1      95.042  85.022  77.701  1.00  0.00     0.000 C 
BRANCH  18  19
ATOM     19  C   UNL     1      94.649  86.072  78.755  1.00  0.00     0.000 C 
BRANCH  19  20
ATOM     20  C   UNL     1      95.182  87.476  78.429  1.00  0.00     0.006 C 
BRANCH  20  21
ATOM     21  C   UNL     1      96.315  87.410  77.401  1.00  0.00     0.053 C 
BRANCH  21  22
ATOM     22  C   UNL     1      96.491  88.732  76.722  1.00  0.00     0.041 C 
ATOM     23  O   UNL     1      97.155  88.810  75.654  1.00  0.00    -0.550 OA
ATOM     24  O   UNL     1      95.956  89.883  77.288  1.00  0.00    -0.550 OA
ENDBRANCH  21  22
ENDBRANCH  20  21
ENDBRANCH  19  20
ENDBRANCH  18  19
ENDBRANCH  17  18
ENDBRANCH  16  17
ENDBRANCH  15  16
ENDBRANCH  14  15
ENDBRANCH  13  14
ENDBRANCH   1  13
TORSDOF 20
ENDMDL
MODEL 5
REMARK VINA RESULT:    -3.744      2.692      5.392
REMARK INTER + INTRA:         -11.947
REMARK INTER:                  -8.124
REMARK INTRA:                  -3.823
REMARK UNBOUND:                -3.826
REMARK SMILES CCCCCCCCCCCCCCCCCCCCCC(=O)[O-]
REMARK SMILES IDX 12 1 11 2 10 3 9 4 8 5 7 6 6 7 5 8 4 9 3 10 2 11 1 12 13 13
REMARK SMILES IDX 14 14 15 15 16 16 17 17 18 18 19 19 20 20 21 21 22 22 23 23
REMARK SMILES IDX 24 24
REMARK H PARENT
REMARK Flexibility Score: inf
ROOT
ATOM      1  C   UNL     1      94.892  84.104  82.029  1.00  0.00     0.000 C 
ENDROOT
BRANCH   1   2
ATOM      2  C   UNL     1      93.447  84.591  81.826  1.00  0.00     0.000 C 
BRANCH   2   3
ATOM      3  C   UNL     1      93.175  85.052  80.383  1.00  0.00     0.000 C 
BRANCH   3   4
ATOM      4  C   UNL     1      91.719  84.811  79.944  1.00  0.00    -0.000 C 
BRANCH   4   5
ATOM      5  C   UNL     1      91.498  83.555  79.081  1.00  0.00    -0.000 C 
BRANCH   5   6
ATOM      6  C   UNL     1      92.776  83.096  78.354  1.00  0.00    -0.000 C 
BRANCH   6   7
ATOM      7  C   UNL     1      92.767  83.448  76.857  1.00  0.00    -0.000 C 
BRANCH   7   8
ATOM      8  C   UNL     1      93.537  84.743  76.549  1.00  0.00    -0.000 C 
BRANCH   8   9
ATOM      9  C   UNL     1      94.940  84.756  77.175  1.00  0.00    -0.000 C 
BRANCH   9  10
ATOM     10  C   UNL     1      95.374  86.160  77.635  1.00  0.00    -0.000 C 
BRANCH  10  11
ATOM     11  C   UNL     1      96.759  86.159  78.300  1.00  0.00    -0.003 C 
ATOM     12  C   UNL     1      96.791  86.960  79.602  1.00  0.00     0.004 C 
ENDBRANCH  10  11
ENDBRANCH   9  10
ENDBRANCH   8   9
ENDBRANCH   7   8
ENDBRANCH   6   7
ENDBRANCH   5   6
ENDBRANCH   4   5
ENDBRANCH   3   4
ENDBRANCH   2   3
ENDBRANCH   1   2
BRANCH   1  13
ATOM     13  C   UNL     1      95.607  83.801  80.701  1.00  0.00     0.000 C 
BRANCH  13  14
ATOM     14  C   UNL     1      95.772  82.293  80.449  1.00  0.00     0.000 C 
BRANCH  14  15
ATOM     15  C   UNL     1      96.479  81.991  79.116  1.00  0.00     0.000 C 
BRANCH  15  16
ATOM     16  C   UNL     1      97.857  82.666  79.014  1.00  0.00     0.000 C 
BRANCH  16  17
ATOM     17  C   UNL     1      98.960  81.878  79.742  1.00  0.00     0.000 C 
BRANCH  17  18
ATOM     18  C   UNL     1      99.889  82.777  80.577  1.00  0.00     0.000 C 
BRANCH  18  19
ATOM     19  C   UNL     1      99.269  84.113  81.019  1.00  0.00     0.000 C 
BRANCH  19  20
ATOM     20  C   UNL     1      99.404  84.368  82.528  1.00  0.00     0.006 C 
BRANCH  20  21
ATOM     21  C   UNL     1      98.261  83.703  83.302  1.00  0.00     0.053 C 
BRANCH  21  22
ATOM     22  C   UNL     1      98.797  82.733  84.307  1.00  0.00     0.041 C 
ATOM     23  O   UNL     1      99.398  81.693  83.925  1.00  0.00    -0.550 OA
ATOM     24  O   UNL     1      98.601  82.956  85.665  1.00  0.00    -0.550 OA
ENDBRANCH  21  22
ENDBRANCH  20  21
ENDBRANCH  19  20
ENDBRANCH  18  19
ENDBRANCH  17  18
ENDBRANCH  16  17
ENDBRANCH  15  16
ENDBRANCH  14  15
ENDBRANCH  13  14
ENDBRANCH   1  13
TORSDOF 20
ENDMDL
MODEL 6
REMARK VINA RESULT:    -3.703      1.638      4.750
REMARK INTER + INTRA:         -11.859
REMARK INTER:                  -8.666
REMARK INTRA:                  -3.194
REMARK UNBOUND:                -3.826
REMARK SMILES CCCCCCCCCCCCCCCCCCCCCC(=O)[O-]
REMARK SMILES IDX 12 1 11 2 10 3 9 4 8 5 7 6 6 7 5 8 4 9 3 10 2 11 1 12 13 13
REMARK SMILES IDX 14 14 15 15 16 16 17 17 18 18 19 19 20 20 21 21 22 22 23 23
REMARK SMILES IDX 24 24
REMARK H PARENT
REMARK Flexibility Score: inf
ROOT
ATOM      1  C   UNL     1      98.672  82.041  81.214  1.00  0.00     0.000 C 
ENDROOT
BRANCH   1   2
ATOM      2  C   UNL     1      99.167  83.395  81.749  1.00  0.00     0.000 C 
BRANCH   2   3
ATOM      3  C   UNL     1     100.577  83.752  81.245  1.00  0.00     0.000 C 
BRANCH   3   4
ATOM      4  C   UNL     1     100.682  85.204  80.744  1.00  0.00    -0.000 C 
BRANCH   4   5
ATOM      5  C   UNL     1      99.462  85.710  79.953  1.00  0.00    -0.000 C 
BRANCH   5   6
ATOM      6  C   UNL     1      98.692  86.822  80.688  1.00  0.00    -0.000 C 
BRANCH   6   7
ATOM      7  C   UNL     1      97.181  86.788  80.403  1.00  0.00    -0.000 C 
BRANCH   7   8
ATOM      8  C   UNL     1      96.453  85.696  81.205  1.00  0.00    -0.000 C 
BRANCH   8   9
ATOM      9  C   UNL     1      95.000  86.075  81.529  1.00  0.00    -0.000 C 
BRANCH   9  10
ATOM     10  C   UNL     1      94.166  84.874  82.014  1.00  0.00    -0.000 C 
BRANCH  10  11
ATOM     11  C   UNL     1      95.041  83.696  82.466  1.00  0.00    -0.003 C 
ATOM     12  C   UNL     1      94.561  83.070  83.776  1.00  0.00     0.004 C 
ENDBRANCH  10  11
ENDBRANCH   9  10
ENDBRANCH   8   9
ENDBRANCH   7   8
ENDBRANCH   6   7
ENDBRANCH   5   6
ENDBRANCH   4   5
ENDBRANCH   3   4
ENDBRANCH   2   3
ENDBRANCH   1   2
BRANCH   1  13
ATOM     13  C   UNL     1      98.386  82.070  79.702  1.00  0.00     0.000 C 
BRANCH  13  14
ATOM     14  C   UNL     1      96.964  81.597  79.359  1.00  0.00     0.000 C 
BRANCH  14  15
ATOM     15  C   UNL     1      96.005  82.765  79.071  1.00  0.00     0.000 C 
BRANCH  15  16
ATOM     16  C   UNL     1      96.635  83.832  78.160  1.00  0.00     0.000 C 
BRANCH  16  17
ATOM     17  C   UNL     1      95.624  84.903  77.714  1.00  0.00     0.000 C 
BRANCH  17  18
ATOM     18  C   UNL     1      94.168  84.526  78.040  1.00  0.00     0.000 C 
BRANCH  18  19
ATOM     19  C   UNL     1      93.295  84.200  76.816  1.00  0.00     0.000 C 
BRANCH  19  20
ATOM     20  C   UNL     1      92.224  83.138  77.109  1.00  0.00     0.006 C 
BRANCH  20  21
ATOM     21  C   UNL     1      90.829  83.767  77.174  1.00  0.00     0.053 C 
BRANCH  21  22
ATOM     22  C   UNL     1      90.215  83.555  78.522  1.00  0.00     0.041 C 
ATOM     23  O   UNL     1      88.996  83.249  78.621  1.00  0.00    -0.550 OA
ATOM     24  O   UNL     1      90.977  83.732  79.671  1.00  0.00    -0.550 OA
ENDBRANCH  21  22
ENDBRANCH  20  21
ENDBRANCH  19  20
ENDBRANCH  18  19
ENDBRANCH  17  18
ENDBRANCH  16  17
ENDBRANCH  15  16
ENDBRANCH  14  15
ENDBRANCH  13  14
ENDBRANCH   1  13
TORSDOF 20
ENDMDL
MODEL 7
REMARK VINA RESULT:    -3.697      2.140      4.879
REMARK INTER + INTRA:         -11.846
REMARK INTER:                  -8.378
REMARK INTRA:                  -3.469
REMARK UNBOUND:                -3.826
REMARK SMILES CCCCCCCCCCCCCCCCCCCCCC(=O)[O-]
REMARK SMILES IDX 12 1 11 2 10 3 9 4 8 5 7 6 6 7 5 8 4 9 3 10 2 11 1 12 13 13
REMARK SMILES IDX 14 14 15 15 16 16 17 17 18 18 19 19 20 20 21 21 22 22 23 23
REMARK SMILES IDX 24 24
REMARK H PARENT
REMARK Flexibility Score: inf
ROOT
ATOM      1  C   UNL     1      97.004  81.564  79.612  1.00  0.00     0.000 C 
ENDROOT
BRANCH   1   2
ATOM      2  C   UNL     1      98.476  81.965  79.422  1.00  0.00     0.000 C 
BRANCH   2   3
ATOM      3  C   UNL     1      99.181  82.280  80.754  1.00  0.00     0.000 C 
BRANCH   3   4
ATOM      4  C   UNL     1      99.466  83.781  80.938  1.00  0.00    -0.000 C 
BRANCH   4   5
ATOM      5  C   UNL     1      98.534  84.505  81.928  1.00  0.00    -0.000 C 
BRANCH   5   6
ATOM      6  C   UNL     1      97.601  83.542  82.684  1.00  0.00    -0.000 C 
BRANCH   6   7
ATOM      7  C   UNL     1      96.391  84.255  83.310  1.00  0.00    -0.000 C 
BRANCH   7   8
ATOM      8  C   UNL     1      96.057  85.580  82.606  1.00  0.00    -0.000 C 
BRANCH   8   9
ATOM      9  C   UNL     1      94.614  85.620  82.079  1.00  0.00    -0.000 C 
BRANCH   9  10
ATOM     10  C   UNL     1      93.946  84.232  82.071  1.00  0.00    -0.000 C 
BRANCH  10  11
ATOM     11  C   UNL     1      92.527  84.261  82.657  1.00  0.00    -0.003 C 
ATOM     12  C   UNL     1      91.639  85.322  82.006  1.00  0.00     0.004 C 
ENDBRANCH  10  11
ENDBRANCH   9  10
ENDBRANCH   8   9
ENDBRANCH   7   8
ENDBRANCH   6   7
ENDBRANCH   5   6
ENDBRANCH   4   5
ENDBRANCH   3   4
ENDBRANCH   2   3
ENDBRANCH   1   2
BRANCH   1  13
ATOM     13  C   UNL     1      96.028  82.681  79.202  1.00  0.00     0.000 C 
BRANCH  13  14
ATOM     14  C   UNL     1      96.699  83.771  78.350  1.00  0.00     0.000 C 
BRANCH  14  15
ATOM     15  C   UNL     1      96.554  85.174  78.964  1.00  0.00     0.000 C 
BRANCH  15  16
ATOM     16  C   UNL     1      96.238  86.249  77.910  1.00  0.00     0.000 C 
BRANCH  16  17
ATOM     17  C   UNL     1      94.733  86.547  77.800  1.00  0.00     0.000 C 
BRANCH  17  18
ATOM     18  C   UNL     1      93.895  85.297  77.475  1.00  0.00     0.000 C 
BRANCH  18  19
ATOM     19  C   UNL     1      92.936  84.853  78.593  1.00  0.00     0.000 C 
BRANCH  19  20
ATOM     20  C   UNL     1      92.246  83.513  78.295  1.00  0.00     0.006 C 
BRANCH  20  21
ATOM     21  C   UNL     1      91.892  83.396  76.809  1.00  0.00     0.053 C 
BRANCH  21  22
ATOM     22  C   UNL     1      90.556  84.011  76.534  1.00  0.00     0.041 C 
ATOM     23  O   UNL     1      90.453  84.954  75.703  1.00  0.00    -0.550 OA
ATOM     24  O   UNL     1      89.431  83.571  77.220  1.00  0.00    -0.550 OA
ENDBRANCH  21  22
ENDBRANCH  20  21
ENDBRANCH  19  20
ENDBRANCH  18  19
ENDBRANCH  17  18
ENDBRANCH  16  17
ENDBRANCH  15  16
ENDBRANCH  14  15
ENDBRANCH  13  14
ENDBRANCH   1  13
TORSDOF 20
ENDMDL
MODEL 8
REMARK VINA RESULT:    -3.659      2.179      6.147
REMARK INTER + INTRA:         -11.763
REMARK INTER:                  -8.227
REMARK INTRA:                  -3.535
REMARK UNBOUND:                -3.826
REMARK SMILES CCCCCCCCCCCCCCCCCCCCCC(=O)[O-]
REMARK SMILES IDX 12 1 11 2 10 3 9 4 8 5 7 6 6 7 5 8 4 9 3 10 2 11 1 12 13 13
REMARK SMILES IDX 14 14 15 15 16 16 17 17 18 18 19 19 20 20 21 21 22 22 23 23
REMARK SMILES IDX 24 24
REMARK H PARENT
REMARK Flexibility Score: inf
ROOT
ATOM      1  C   UNL     1      96.044  84.084  81.747  1.00  0.00     0.000 C 
ENDROOT
BRANCH   1   2
ATOM      2  C   UNL     1      95.606  83.493  80.396  1.00  0.00     0.000 C 
BRANCH   2   3
ATOM      3  C   UNL     1      96.345  82.186  80.054  1.00  0.00     0.000 C 
BRANCH   3   4
ATOM      4  C   UNL     1      97.459  82.387  79.011  1.00  0.00    -0.000 C 
BRANCH   4   5
ATOM      5  C   UNL     1      98.887  82.120  79.523  1.00  0.00    -0.000 C 
BRANCH   5   6
ATOM      6  C   UNL     1      98.955  81.974  81.054  1.00  0.00    -0.000 C 
BRANCH   6   7
ATOM      7  C   UNL     1     100.119  82.764  81.676  1.00  0.00    -0.000 C 
BRANCH   7   8
ATOM      8  C   UNL     1     100.761  83.749  80.684  1.00  0.00    -0.000 C 
BRANCH   8   9
ATOM      9  C   UNL     1     101.564  84.854  81.388  1.00  0.00    -0.000 C 
BRANCH   9  10
ATOM     10  C   UNL     1     100.915  86.243  81.246  1.00  0.00    -0.000 C 
BRANCH  10  11
ATOM     11  C   UNL     1     101.775  87.212  80.422  1.00  0.00    -0.003 C 
ATOM     12  C   UNL     1     101.161  87.536  79.059  1.00  0.00     0.004 C 
ENDBRANCH  10  11
ENDBRANCH   9  10
ENDBRANCH   8   9
ENDBRANCH   7   8
ENDBRANCH   6   7
ENDBRANCH   5   6
ENDBRANCH   4   5
ENDBRANCH   3   4
ENDBRANCH   2   3
ENDBRANCH   1   2
BRANCH   1  13
ATOM     13  C   UNL     1      97.254  85.025  81.617  1.00  0.00     0.000 C 
BRANCH  13  14
ATOM     14  C   UNL     1      96.986  86.210  80.673  1.00  0.00     0.000 C 
BRANCH  14  15
ATOM     15  C   UNL     1      97.808  86.130  79.376  1.00  0.00     0.000 C 
BRANCH  15  16
ATOM     16  C   UNL     1      96.925  86.139  78.117  1.00  0.00     0.000 C 
BRANCH  16  17
ATOM     17  C   UNL     1      95.573  86.837  78.347  1.00  0.00     0.000 C 
BRANCH  17  18
ATOM     18  C   UNL     1      94.369  85.912  78.089  1.00  0.00     0.000 C 
BRANCH  18  19
ATOM     19  C   UNL     1      94.618  84.801  77.055  1.00  0.00     0.000 C 
BRANCH  19  20
ATOM     20  C   UNL     1      93.349  84.003  76.715  1.00  0.00     0.006 C 
BRANCH  20  21
ATOM     21  C   UNL     1      92.815  83.268  77.948  1.00  0.00     0.053 C 
BRANCH  21  22
ATOM     22  C   UNL     1      91.329  83.411  78.048  1.00  0.00     0.041 C 
ATOM     23  O   UNL     1      90.746  83.200  79.145  1.00  0.00    -0.550 OA
ATOM     24  O   UNL     1      90.584  83.740  76.922  1.00  0.00    -0.550 OA
ENDBRANCH  21  22
ENDBRANCH  20  21
ENDBRANCH  19  20
ENDBRANCH  18  19
ENDBRANCH  17  18
ENDBRANCH  16  17
ENDBRANCH  15  16
ENDBRANCH  14  15
ENDBRANCH  13  14
ENDBRANCH   1  13
TORSDOF 20
ENDMDL
MODEL 9
REMARK VINA RESULT:    -3.629      3.600      7.443
REMARK INTER + INTRA:         -11.698
REMARK INTER:                  -8.186
REMARK INTRA:                  -3.511
REMARK UNBOUND:                -3.826
REMARK SMILES CCCCCCCCCCCCCCCCCCCCCC(=O)[O-]
REMARK SMILES IDX 12 1 11 2 10 3 9 4 8 5 7 6 6 7 5 8 4 9 3 10 2 11 1 12 13 13
REMARK SMILES IDX 14 14 15 15 16 16 17 17 18 18 19 19 20 20 21 21 22 22 23 23
REMARK SMILES IDX 24 24
REMARK H PARENT
REMARK Flexibility Score: inf
ROOT
ATOM      1  C   UNL     1      95.378  85.345  80.163  1.00  0.00     0.000 C 
ENDROOT
BRANCH   1   2
ATOM      2  C   UNL     1      96.674  85.222  80.983  1.00  0.00     0.000 C 
BRANCH   2   3
ATOM      3  C   UNL     1      97.509  86.515  80.967  1.00  0.00     0.000 C 
BRANCH   3   4
ATOM      4  C   UNL     1      98.882  86.330  80.296  1.00  0.00    -0.000 C 
BRANCH   4   5
ATOM      5  C   UNL     1      98.949  86.762  78.819  1.00  0.00    -0.000 C 
BRANCH   5   6
ATOM      6  C   UNL     1      99.227  88.266  78.648  1.00  0.00    -0.000 C 
BRANCH   6   7
ATOM      7  C   UNL     1     100.435  88.745  79.470  1.00  0.00    -0.000 C 
BRANCH   7   8
ATOM      8  C   UNL     1     101.777  88.432  78.786  1.00  0.00    -0.000 C 
BRANCH   8   9
ATOM      9  C   UNL     1     102.815  87.857  79.762  1.00  0.00    -0.000 C 
BRANCH   9  10
ATOM     10  C   UNL     1     102.513  86.400  80.161  1.00  0.00    -0.000 C 
BRANCH  10  11
ATOM     11  C   UNL     1     102.681  86.157  81.668  1.00  0.00    -0.003 C 
ATOM     12  C   UNL     1     101.799  87.073  82.517  1.00  0.00     0.004 C 
ENDBRANCH  10  11
ENDBRANCH   9  10
ENDBRANCH   8   9
ENDBRANCH   7   8
ENDBRANCH   6   7
ENDBRANCH   5   6
ENDBRANCH   4   5
ENDBRANCH   3   4
ENDBRANCH   2   3
ENDBRANCH   1   2
BRANCH   1  13
ATOM     13  C   UNL     1      95.634  85.344  78.646  1.00  0.00     0.000 C 
BRANCH  13  14
ATOM     14  C   UNL     1      96.126  83.981  78.129  1.00  0.00     0.000 C 
BRANCH  14  15
ATOM     15  C   UNL     1      95.358  82.802  78.750  1.00  0.00     0.000 C 
BRANCH  15  16
ATOM     16  C   UNL     1      96.293  81.691  79.256  1.00  0.00     0.000 C 
BRANCH  16  17
ATOM     17  C   UNL     1      97.781  82.056  79.110  1.00  0.00     0.000 C 
BRANCH  17  18
ATOM     18  C   UNL     1      98.520  82.111  80.459  1.00  0.00     0.000 C 
BRANCH  18  19
ATOM     19  C   UNL     1     100.030  82.391  80.357  1.00  0.00     0.000 C 
BRANCH  19  20
ATOM     20  C   UNL     1     100.559  83.251  81.514  1.00  0.00     0.006 C 
BRANCH  20  21
ATOM     21  C   UNL     1      99.489  83.440  82.594  1.00  0.00     0.053 C 
BRANCH  21  22
ATOM     22  C   UNL     1      99.763  82.557  83.770  1.00  0.00     0.041 C 
ATOM     23  O   UNL     1     100.366  83.015  84.778  1.00  0.00    -0.550 OA
ATOM     24  O   UNL     1      99.386  81.220  83.742  1.00  0.00    -0.550 OA
ENDBRANCH  21  22
ENDBRANCH  20  21
ENDBRANCH  19  20
ENDBRANCH  18  19
ENDBRANCH  17  18
ENDBRANCH  16  17
ENDBRANCH  15  16
ENDBRANCH  14  15
ENDBRANCH  13  14
ENDBRANCH   1  13
TORSDOF 20
ENDMDL
