MODEL 1
REMARK VINA RESULT:    -3.882      0.000      0.000
REMARK INTER + INTRA:          -4.873
REMARK INTER:                  -4.790
REMARK INTRA:                  -0.084
REMARK UNBOUND:                -0.084
REMARK SMILES CCCCCC(=O)[O-]
REMARK SMILES IDX 4 1 5 2 6 3 7 4 8 5 3 6 2 7 1 8
REMARK H PARENT
REMARK Flexibility Score: inf
ROOT
ATOM      1  C   UNL     1      -3.492  36.215  17.228  1.00  0.00     0.006 C 
ENDROOT
BRANCH   1   2
ATOM      2  C   UNL     1      -3.316  37.100  18.468  1.00  0.00     0.053 C 
BRANCH   2   3
ATOM      3  C   UNL     1      -4.283  36.699  19.537  1.00  0.00     0.041 C 
ATOM      4  O   UNL     1      -4.220  35.551  20.051  1.00  0.00    -0.550 OA
ATOM      5  O   UNL     1      -5.287  37.575  19.930  1.00  0.00    -0.550 OA
ENDBRANCH   2   3
ENDBRANCH   1   2
BRANCH   1   6
ATOM      6  C   UNL     1      -2.433  36.487  16.143  1.00  0.00     0.000 C 
BRANCH   6   7
ATOM      7  C   UNL     1      -2.933  36.318  14.697  1.00  0.00    -0.003 C 
ATOM      8  C   UNL     1      -4.034  37.310  14.325  1.00  0.00     0.004 C 
ENDBRANCH   6   7
ENDBRANCH   1   6
TORSDOF 4
ENDMDL
MODEL 2
REMARK VINA RESULT:    -3.858      0.163      1.155
REMARK INTER + INTRA:          -4.843
REMARK INTER:                  -4.744
REMARK INTRA:                  -0.099
REMARK UNBOUND:                -0.084
REMARK SMILES CCCCCC(=O)[O-]
REMARK SMILES IDX 4 1 5 2 6 3 7 4 8 5 3 6 2 7 1 8
REMARK H PARENT
REMARK Flexibility Score: inf
ROOT
ATOM      1  C   UNL     1      -3.473  36.089  17.254  1.00  0.00     0.006 C 
ENDROOT
BRANCH   1   2
ATOM      2  C   UNL     1      -3.399  37.124  18.384  1.00  0.00     0.053 C 
BRANCH   2   3
ATOM      3  C   UNL     1      -4.316  36.744  19.502  1.00  0.00     0.041 C 
ATOM      4  O   UNL     1      -5.124  37.587  19.973  1.00  0.00    -0.550 OA
ATOM      5  O   UNL     1      -4.245  35.473  20.058  1.00  0.00    -0.550 OA
ENDBRANCH   2   3
ENDBRANCH   1   2
BRANCH   1   6
ATOM      6  C   UNL     1      -2.341  36.246  16.222  1.00  0.00     0.000 C 
BRANCH   6   7
ATOM      7  C   UNL     1      -2.808  36.308  14.757  1.00  0.00    -0.003 C 
ATOM      8  C   UNL     1      -3.945  37.304  14.533  1.00  0.00     0.004 C 
ENDBRANCH   6   7
ENDBRANCH   1   6
TORSDOF 4
ENDMDL
MODEL 3
REMARK VINA RESULT:    -3.659      1.034      1.478
REMARK INTER + INTRA:          -4.598
REMARK INTER:                  -4.511
REMARK INTRA:                  -0.086
REMARK UNBOUND:                -0.084
REMARK SMILES CCCCCC(=O)[O-]
REMARK SMILES IDX 4 1 5 2 6 3 7 4 8 5 3 6 2 7 1 8
REMARK H PARENT
REMARK Flexibility Score: inf
ROOT
ATOM      1  C   UNL     1      -3.586  37.226  18.564  1.00  0.00     0.006 C 
ENDROOT
BRANCH   1   2
ATOM      2  C   UNL     1      -4.307  36.008  19.155  1.00  0.00     0.053 C 
BRANCH   2   3
ATOM      3  C   UNL     1      -5.288  36.438  20.199  1.00  0.00     0.041 C 
ATOM      4  O   UNL     1      -5.941  35.578  20.846  1.00  0.00    -0.550 OA
ATOM      5  O   UNL     1      -5.518  37.789  20.422  1.00  0.00    -0.550 OA
ENDBRANCH   2   3
ENDBRANCH   1   2
BRANCH   1   6
ATOM      6  C   UNL     1      -2.646  36.860  17.400  1.00  0.00     0.000 C 
BRANCH   6   7
ATOM      7  C   UNL     1      -3.239  35.876  16.377  1.00  0.00    -0.003 C 
ATOM      8  C   UNL     1      -3.301  36.449  14.962  1.00  0.00     0.004 C 
ENDBRANCH   6   7
ENDBRANCH   1   6
TORSDOF 4
ENDMDL
MODEL 4
REMARK VINA RESULT:    -3.583      2.757      4.499
REMARK INTER + INTRA:          -4.504
REMARK INTER:                  -4.413
REMARK INTRA:                  -0.091
REMARK UNBOUND:                -0.084
REMARK SMILES CCCCCC(=O)[O-]
REMARK SMILES IDX 4 1 5 2 6 3 7 4 8 5 3 6 2 7 1 8
REMARK H PARENT
REMARK Flexibility Score: inf
ROOT
ATOM      1  C   UNL     1      -3.172  37.167  18.208  1.00  0.00     0.006 C 
ENDROOT
BRANCH   1   2
ATOM      2  C   UNL     1      -3.456  36.125  17.119  1.00  0.00     0.053 C 
BRANCH   2   3
ATOM      3  C   UNL     1      -3.039  36.643  15.780  1.00  0.00     0.041 C 
ATOM      4  O   UNL     1      -1.964  36.250  15.255  1.00  0.00    -0.550 OA
ATOM      5  O   UNL     1      -3.813  37.598  15.132  1.00  0.00    -0.550 OA
ENDBRANCH   2   3
ENDBRANCH   1   2
BRANCH   1   6
ATOM      6  C   UNL     1      -3.728  36.760  19.586  1.00  0.00     0.000 C 
BRANCH   6   7
ATOM      7  C   UNL     1      -4.705  35.571  19.562  1.00  0.00    -0.003 C 
ATOM      8  C   UNL     1      -5.689  35.582  20.731  1.00  0.00     0.004 C 
ENDBRANCH   6   7
ENDBRANCH   1   6
TORSDOF 4
ENDMDL
MODEL 5
REMARK VINA RESULT:    -3.473      2.626      4.515
REMARK INTER + INTRA:          -4.369
REMARK INTER:                  -4.292
REMARK INTRA:                  -0.076
REMARK UNBOUND:                -0.084
REMARK SMILES CCCCCC(=O)[O-]
REMARK SMILES IDX 4 1 5 2 6 3 7 4 8 5 3 6 2 7 1 8
REMARK H PARENT
REMARK Flexibility Score: inf
ROOT
ATOM      1  C   UNL     1      -3.855  36.497  18.778  1.00  0.00     0.006 C 
ENDROOT
BRANCH   1   2
ATOM      2  C   UNL     1      -2.734  37.209  18.009  1.00  0.00     0.053 C 
BRANCH   2   3
ATOM      3  C   UNL     1      -2.734  36.784  16.575  1.00  0.00     0.041 C 
ATOM      4  O   UNL     1      -1.992  35.841  16.194  1.00  0.00    -0.550 OA
ATOM      5  O   UNL     1      -3.516  37.462  15.649  1.00  0.00    -0.550 OA
ENDBRANCH   2   3
ENDBRANCH   1   2
BRANCH   1   6
ATOM      6  C   UNL     1      -4.644  37.445  19.700  1.00  0.00     0.000 C 
BRANCH   6   7
ATOM      7  C   UNL     1      -5.433  36.745  20.821  1.00  0.00    -0.003 C 
ATOM      8  C   UNL     1      -5.843  35.318  20.464  1.00  0.00     0.004 C 
ENDBRANCH   6   7
ENDBRANCH   1   6
TORSDOF 4
ENDMDL
MODEL 6
REMARK VINA RESULT:    -3.344      2.913      5.291
REMARK INTER + INTRA:          -4.209
REMARK INTER:                  -4.113
REMARK INTRA:                  -0.097
REMARK UNBOUND:                -0.084
REMARK SMILES CCCCCC(=O)[O-]
REMARK SMILES IDX 4 1 5 2 6 3 7 4 8 5 3 6 2 7 1 8
REMARK H PARENT
REMARK Flexibility Score: inf
ROOT
ATOM      1  C   UNL     1      -5.031  36.694  19.909  1.00  0.00     0.006 C 
ENDROOT
BRANCH   1   2
ATOM      2  C   UNL     1      -3.501  36.711  20.021  1.00  0.00     0.053 C 
BRANCH   2   3
ATOM      3  C   UNL     1      -2.891  37.237  18.761  1.00  0.00     0.041 C 
ATOM      4  O   UNL     1      -3.503  37.126  17.666  1.00  0.00    -0.550 OA
ATOM      5  O   UNL     1      -1.624  37.807  18.787  1.00  0.00    -0.550 OA
ENDBRANCH   2   3
ENDBRANCH   1   2
BRANCH   1   6
ATOM      6  C   UNL     1      -5.680  35.570  20.738  1.00  0.00     0.000 C 
BRANCH   6   7
ATOM      7  C   UNL     1      -5.991  35.942  22.198  1.00  0.00    -0.003 C 
ATOM      8  C   UNL     1      -5.573  34.861  23.194  1.00  0.00     0.004 C 
ENDBRANCH   6   7
ENDBRANCH   1   6
TORSDOF 4
ENDMDL
MODEL 7
REMARK VINA RESULT:    -2.525      3.208      4.866
REMARK INTER + INTRA:          -3.199
REMARK INTER:                  -3.136
REMARK INTRA:                  -0.063
REMARK UNBOUND:                -0.084
REMARK SMILES CCCCCC(=O)[O-]
REMARK SMILES IDX 4 1 5 2 6 3 7 4 8 5 3 6 2 7 1 8
REMARK H PARENT
REMARK Flexibility Score: inf
ROOT
ATOM      1  C   UNL     1      -5.386  38.003  21.290  1.00  0.00     0.006 C 
ENDROOT
BRANCH   1   2
ATOM      2  C   UNL     1      -5.972  39.414  21.151  1.00  0.00     0.053 C 
BRANCH   2   3
ATOM      3  C   UNL     1      -5.843  40.162  22.440  1.00  0.00     0.041 C 
ATOM      4  O   UNL     1      -6.123  41.388  22.492  1.00  0.00    -0.550 OA
ATOM      5  O   UNL     1      -5.365  39.517  23.574  1.00  0.00    -0.550 OA
ENDBRANCH   2   3
ENDBRANCH   1   2
BRANCH   1   6
ATOM      6  C   UNL     1      -5.262  37.271  19.941  1.00  0.00     0.000 C 
BRANCH   6   7
ATOM      7  C   UNL     1      -3.840  36.793  19.595  1.00  0.00    -0.003 C 
ATOM      8  C   UNL     1      -3.468  37.032  18.133  1.00  0.00     0.004 C 
ENDBRANCH   6   7
ENDBRANCH   1   6
TORSDOF 4
ENDMDL
MODEL 8
REMARK VINA RESULT:    -2.482      2.932      4.328
REMARK INTER + INTRA:          -3.146
REMARK INTER:                  -3.012
REMARK INTRA:                  -0.134
REMARK UNBOUND:                -0.084
REMARK SMILES CCCCCC(=O)[O-]
REMARK SMILES IDX 4 1 5 2 6 3 7 4 8 5 3 6 2 7 1 8
REMARK H PARENT
REMARK Flexibility Score: inf
ROOT
ATOM      1  C   UNL     1      -2.458  36.058  16.962  1.00  0.00     0.006 C 
ENDROOT
BRANCH   1   2
ATOM      2  C   UNL     1      -2.189  36.937  15.733  1.00  0.00     0.053 C 
BRANCH   2   3
ATOM      3  C   UNL     1      -3.387  36.964  14.838  1.00  0.00     0.041 C 
ATOM      4  O   UNL     1      -3.724  35.933  14.199  1.00  0.00    -0.550 OA
ATOM      5  O   UNL     1      -4.103  38.143  14.671  1.00  0.00    -0.550 OA
ENDBRANCH   2   3
ENDBRANCH   1   2
BRANCH   1   6
ATOM      6  C   UNL     1      -3.808  36.367  17.635  1.00  0.00     0.000 C 
BRANCH   6   7
ATOM      7  C   UNL     1      -3.702  37.008  19.030  1.00  0.00    -0.003 C 
ATOM      8  C   UNL     1      -2.269  37.382  19.409  1.00  0.00     0.004 C 
ENDBRANCH   6   7
ENDBRANCH   1   6
TORSDOF 4
ENDMDL
