MODEL 1
REMARK VINA RESULT:    -1.994      0.000      0.000
REMARK INTER + INTRA:          -4.877
REMARK INTER:                  -3.626
REMARK INTRA:                  -1.251
REMARK UNBOUND:                -1.251
REMARK SMILES CCCCCCCCCCCCCC[C@@H](C)C(=O)[O-]
REMARK SMILES IDX 9 1 10 2 11 3 12 4 13 5 14 6 15 7 16 8 17 9 18 10 19 11 8 12
REMARK SMILES IDX 7 13 6 14 5 15 4 16 3 17 2 18 1 19
REMARK H PARENT
REMARK Flexibility Score: inf
ROOT
ATOM      1  C   UNL     1       9.173   5.673   1.051  1.00  0.00     0.000 C 
ENDROOT
BRANCH   1   2
ATOM      2  C   UNL     1      10.071   6.918   1.101  1.00  0.00     0.000 C 
BRANCH   2   3
ATOM      3  C   UNL     1       9.382   8.125   1.758  1.00  0.00     0.000 C 
BRANCH   3   4
ATOM      4  C   UNL     1      10.096   8.680   3.006  1.00  0.00     0.000 C 
BRANCH   4   5
ATOM      5  C   UNL     1       9.139   9.060   4.155  1.00  0.00     0.001 C 
BRANCH   5   6
ATOM      6  C   UNL     1       8.226   7.890   4.566  1.00  0.00     0.009 C 
BRANCH   6   7
ATOM      7  C   UNL     1       6.843   7.941   3.879  1.00  0.00     0.032 C 
ATOM      8  C   UNL     1       6.232   6.544   3.700  1.00  0.00     0.014 C 
BRANCH   7   9
ATOM      9  C   UNL     1       5.905   8.805   4.677  1.00  0.00     0.044 C 
ATOM     10  O   UNL     1       6.207   9.168   5.846  1.00  0.00    -0.550 OA
ATOM     11  O   UNL     1       4.695   9.207   4.127  1.00  0.00    -0.550 OA
ENDBRANCH   7   9
ENDBRANCH   6   7
ENDBRANCH   5   6
ENDBRANCH   4   5
ENDBRANCH   3   4
ENDBRANCH   2   3
ENDBRANCH   1   2
BRANCH   1  12
ATOM     12  C   UNL     1       9.779   4.529   1.875  1.00  0.00     0.000 C 
BRANCH  12  13
ATOM     13  C   UNL     1       9.647   4.746   3.392  1.00  0.00    -0.000 C 
BRANCH  13  14
ATOM     14  C   UNL     1      10.081   3.550   4.265  1.00  0.00    -0.000 C 
BRANCH  14  15
ATOM     15  C   UNL     1      10.125   2.193   3.541  1.00  0.00    -0.000 C 
BRANCH  15  16
ATOM     16  C   UNL     1       9.903   1.002   4.491  1.00  0.00    -0.000 C 
BRANCH  16  17
ATOM     17  C   UNL     1       9.412  -0.259   3.747  1.00  0.00    -0.000 C 
BRANCH  17  18
ATOM     18  C   UNL     1       9.963  -0.392   2.317  1.00  0.00    -0.003 C 
ATOM     19  C   UNL     1       9.882  -1.816   1.772  1.00  0.00     0.004 C 
ENDBRANCH  17  18
ENDBRANCH  16  17
ENDBRANCH  15  16
ENDBRANCH  14  15
ENDBRANCH  13  14
ENDBRANCH  12  13
ENDBRANCH   1  12
TORSDOF 14
ENDMDL
MODEL 2
REMARK VINA RESULT:    -1.813      1.550      2.480
REMARK INTER + INTRA:          -4.547
REMARK INTER:                  -4.801
REMARK INTRA:                   0.255
REMARK UNBOUND:                -1.251
REMARK SMILES CCCCCCCCCCCCCC[C@@H](C)C(=O)[O-]
REMARK SMILES IDX 9 1 10 2 11 3 12 4 13 5 14 6 15 7 16 8 17 9 18 10 19 11 8 12
REMARK SMILES IDX 7 13 6 14 5 15 4 16 3 17 2 18 1 19
REMARK H PARENT
REMARK Flexibility Score: inf
ROOT
ATOM      1  C   UNL     1       9.448   4.773   0.726  1.00  0.00     0.000 C 
ENDROOT
BRANCH   1   2
ATOM      2  C   UNL     1      10.023   5.597   1.887  1.00  0.00     0.000 C 
BRANCH   2   3
ATOM      3  C   UNL     1       9.077   5.668   3.096  1.00  0.00     0.000 C 
BRANCH   3   4
ATOM      4  C   UNL     1       9.771   5.910   4.451  1.00  0.00     0.000 C 
BRANCH   4   5
ATOM      5  C   UNL     1       9.362   7.233   5.133  1.00  0.00     0.001 C 
BRANCH   5   6
ATOM      6  C   UNL     1       7.862   7.272   5.480  1.00  0.00     0.009 C 
BRANCH   6   7
ATOM      7  C   UNL     1       6.981   7.687   4.281  1.00  0.00     0.032 C 
ATOM      8  C   UNL     1       6.177   6.508   3.715  1.00  0.00     0.014 C 
BRANCH   7   9
ATOM      9  C   UNL     1       6.043   8.789   4.692  1.00  0.00     0.044 C 
ATOM     10  O   UNL     1       5.147   9.194   3.903  1.00  0.00    -0.550 OA
ATOM     11  O   UNL     1       6.160   9.368   5.949  1.00  0.00    -0.550 OA
ENDBRANCH   7   9
ENDBRANCH   6   7
ENDBRANCH   5   6
ENDBRANCH   4   5
ENDBRANCH   3   4
ENDBRANCH   2   3
ENDBRANCH   1   2
BRANCH   1  12
ATOM     12  C   UNL     1       9.971   3.331   0.767  1.00  0.00     0.000 C 
BRANCH  12  13
ATOM     13  C   UNL     1      10.124   2.789   2.199  1.00  0.00    -0.000 C 
BRANCH  13  14
ATOM     14  C   UNL     1      10.072   1.252   2.326  1.00  0.00    -0.000 C 
BRANCH  14  15
ATOM     15  C   UNL     1       9.759   0.722   3.737  1.00  0.00    -0.000 C 
BRANCH  15  16
ATOM     16  C   UNL     1       9.568   1.848   4.770  1.00  0.00    -0.000 C 
BRANCH  16  17
ATOM     17  C   UNL     1       9.783   1.358   6.218  1.00  0.00    -0.000 C 
BRANCH  17  18
ATOM     18  C   UNL     1       8.516   0.786   6.876  1.00  0.00    -0.003 C 
ATOM     19  C   UNL     1       7.592   0.079   5.886  1.00  0.00     0.004 C 
ENDBRANCH  17  18
ENDBRANCH  16  17
ENDBRANCH  15  16
ENDBRANCH  14  15
ENDBRANCH  13  14
ENDBRANCH  12  13
ENDBRANCH   1  12
TORSDOF 14
ENDMDL
MODEL 3
REMARK VINA RESULT:    -1.316      3.595      7.122
REMARK INTER + INTRA:          -3.644
REMARK INTER:                  -3.910
REMARK INTRA:                   0.266
REMARK UNBOUND:                -1.251
REMARK SMILES CCCCCCCCCCCCCC[C@@H](C)C(=O)[O-]
REMARK SMILES IDX 9 1 10 2 11 3 12 4 13 5 14 6 15 7 16 8 17 9 18 10 19 11 8 12
REMARK SMILES IDX 7 13 6 14 5 15 4 16 3 17 2 18 1 19
REMARK H PARENT
REMARK Flexibility Score: inf
ROOT
ATOM      1  C   UNL     1       8.777   5.675   0.891  1.00  0.00     0.000 C 
ENDROOT
BRANCH   1   2
ATOM      2  C   UNL     1       8.923   4.191   0.526  1.00  0.00     0.000 C 
BRANCH   2   3
ATOM      3  C   UNL     1      10.124   3.522   1.215  1.00  0.00     0.000 C 
BRANCH   3   4
ATOM      4  C   UNL     1      10.122   3.609   2.753  1.00  0.00     0.000 C 
BRANCH   4   5
ATOM      5  C   UNL     1      10.110   2.235   3.455  1.00  0.00     0.001 C 
BRANCH   5   6
ATOM      6  C   UNL     1       9.789   2.349   4.957  1.00  0.00     0.009 C 
BRANCH   6   7
ATOM      7  C   UNL     1       9.549   0.975   5.623  1.00  0.00     0.032 C 
ATOM      8  C   UNL     1       8.942   1.109   7.027  1.00  0.00     0.014 C 
BRANCH   7   9
ATOM      9  C   UNL     1       8.647   0.137   4.759  1.00  0.00     0.044 C 
ATOM     10  O   UNL     1       7.491  -0.174   5.154  1.00  0.00    -0.550 OA
ATOM     11  O   UNL     1       9.086  -0.301   3.517  1.00  0.00    -0.550 OA
ENDBRANCH   7   9
ENDBRANCH   6   7
ENDBRANCH   5   6
ENDBRANCH   4   5
ENDBRANCH   3   4
ENDBRANCH   2   3
ENDBRANCH   1   2
BRANCH   1  12
ATOM     12  C   UNL     1       7.385   5.960   1.471  1.00  0.00     0.000 C 
BRANCH  12  13
ATOM     13  C   UNL     1       7.430   6.445   2.930  1.00  0.00    -0.000 C 
BRANCH  13  14
ATOM     14  C   UNL     1       8.575   5.857   3.780  1.00  0.00    -0.000 C 
BRANCH  14  15
ATOM     15  C   UNL     1       8.675   6.405   5.215  1.00  0.00    -0.000 C 
BRANCH  15  16
ATOM     16  C   UNL     1       7.549   7.399   5.554  1.00  0.00    -0.000 C 
BRANCH  16  17
ATOM     17  C   UNL     1       7.769   8.780   4.898  1.00  0.00    -0.000 C 
BRANCH  17  18
ATOM     18  C   UNL     1       6.476   9.593   4.713  1.00  0.00    -0.003 C 
ATOM     19  C   UNL     1       5.267   8.727   4.363  1.00  0.00     0.004 C 
ENDBRANCH  17  18
ENDBRANCH  16  17
ENDBRANCH  15  16
ENDBRANCH  14  15
ENDBRANCH  13  14
ENDBRANCH  12  13
ENDBRANCH   1  12
TORSDOF 14
ENDMDL
MODEL 4
REMARK VINA RESULT:    -1.305      3.280      7.023
REMARK INTER + INTRA:          -3.624
REMARK INTER:                  -2.986
REMARK INTRA:                  -0.637
REMARK UNBOUND:                -1.251
REMARK SMILES CCCCCCCCCCCCCC[C@@H](C)C(=O)[O-]
REMARK SMILES IDX 9 1 10 2 11 3 12 4 13 5 14 6 15 7 16 8 17 9 18 10 19 11 8 12
REMARK SMILES IDX 7 13 6 14 5 15 4 16 3 17 2 18 1 19
REMARK H PARENT
REMARK Flexibility Score: inf
ROOT
ATOM      1  C   UNL     1       8.563   5.971   1.362  1.00  0.00     0.000 C 
ENDROOT
BRANCH   1   2
ATOM      2  C   UNL     1       9.003   4.953   0.298  1.00  0.00     0.000 C 
BRANCH   2   3
ATOM      3  C   UNL     1      10.091   3.993   0.805  1.00  0.00     0.000 C 
BRANCH   3   4
ATOM      4  C   UNL     1      10.013   3.656   2.306  1.00  0.00     0.000 C 
BRANCH   4   5
ATOM      5  C   UNL     1      10.117   2.147   2.613  1.00  0.00     0.001 C 
BRANCH   5   6
ATOM      6  C   UNL     1       9.944   1.843   4.113  1.00  0.00     0.009 C 
BRANCH   6   7
ATOM      7  C   UNL     1       8.740   0.918   4.400  1.00  0.00     0.032 C 
ATOM      8  C   UNL     1       8.829  -0.407   3.628  1.00  0.00     0.014 C 
BRANCH   7   9
ATOM      9  C   UNL     1       8.648   0.638   5.875  1.00  0.00     0.044 C 
ATOM     10  O   UNL     1       9.670   0.717   6.607  1.00  0.00    -0.550 OA
ATOM     11  O   UNL     1       7.428   0.289   6.440  1.00  0.00    -0.550 OA
ENDBRANCH   7   9
ENDBRANCH   6   7
ENDBRANCH   5   6
ENDBRANCH   4   5
ENDBRANCH   3   4
ENDBRANCH   2   3
ENDBRANCH   1   2
BRANCH   1  12
ATOM     12  C   UNL     1       7.263   5.522   2.042  1.00  0.00     0.000 C 
BRANCH  12  13
ATOM     13  C   UNL     1       6.981   6.274   3.355  1.00  0.00    -0.000 C 
BRANCH  13  14
ATOM     14  C   UNL     1       8.054   6.102   4.451  1.00  0.00    -0.000 C 
BRANCH  14  15
ATOM     15  C   UNL     1       8.252   7.321   5.370  1.00  0.00    -0.000 C 
BRANCH  15  16
ATOM     16  C   UNL     1       7.507   8.572   4.872  1.00  0.00    -0.000 C 
BRANCH  16  17
ATOM     17  C   UNL     1       8.448   9.783   4.693  1.00  0.00    -0.000 C 
BRANCH  17  18
ATOM     18  C   UNL     1       9.917   9.399   4.448  1.00  0.00    -0.003 C 
ATOM     19  C   UNL     1      10.108   8.510   3.220  1.00  0.00     0.004 C 
ENDBRANCH  17  18
ENDBRANCH  16  17
ENDBRANCH  15  16
ENDBRANCH  14  15
ENDBRANCH  13  14
ENDBRANCH  12  13
ENDBRANCH   1  12
TORSDOF 14
ENDMDL
MODEL 5
REMARK VINA RESULT:    -1.249      2.112      3.457
REMARK INTER + INTRA:          -3.522
REMARK INTER:                  -3.000
REMARK INTRA:                  -0.522
REMARK UNBOUND:                -1.251
REMARK SMILES CCCCCCCCCCCCCC[C@@H](C)C(=O)[O-]
REMARK SMILES IDX 9 1 10 2 11 3 12 4 13 5 14 6 15 7 16 8 17 9 18 10 19 11 8 12
REMARK SMILES IDX 7 13 6 14 5 15 4 16 3 17 2 18 1 19
REMARK H PARENT
REMARK Flexibility Score: inf
ROOT
ATOM      1  C   UNL     1       6.362   5.658   1.544  1.00  0.00     0.000 C 
ENDROOT
BRANCH   1   2
ATOM      2  C   UNL     1       6.677   5.709   3.047  1.00  0.00     0.000 C 
BRANCH   2   3
ATOM      3  C   UNL     1       5.884   6.800   3.786  1.00  0.00     0.000 C 
BRANCH   3   4
ATOM      4  C   UNL     1       6.612   8.152   3.920  1.00  0.00     0.000 C 
BRANCH   4   5
ATOM      5  C   UNL     1       7.362   8.326   5.258  1.00  0.00     0.001 C 
BRANCH   5   6
ATOM      6  C   UNL     1       8.173   7.073   5.640  1.00  0.00     0.009 C 
BRANCH   6   7
ATOM      7  C   UNL     1       9.650   7.160   5.196  1.00  0.00     0.032 C 
ATOM      8  C   UNL     1      10.076   5.947   4.356  1.00  0.00     0.014 C 
BRANCH   7   9
ATOM      9  C   UNL     1       9.877   8.423   4.411  1.00  0.00     0.044 C 
ATOM     10  O   UNL     1      10.031   9.525   5.002  1.00  0.00    -0.550 OA
ATOM     11  O   UNL     1       9.916   8.379   3.023  1.00  0.00    -0.550 OA
ENDBRANCH   7   9
ENDBRANCH   6   7
ENDBRANCH   5   6
ENDBRANCH   4   5
ENDBRANCH   3   4
ENDBRANCH   2   3
ENDBRANCH   1   2
BRANCH   1  12
ATOM     12  C   UNL     1       7.404   6.447   0.741  1.00  0.00     0.000 C 
BRANCH  12  13
ATOM     13  C   UNL     1       8.833   5.905   0.915  1.00  0.00    -0.000 C 
BRANCH  13  14
ATOM     14  C   UNL     1       8.945   4.367   0.988  1.00  0.00    -0.000 C 
BRANCH  14  15
ATOM     15  C   UNL     1      10.082   3.835   1.879  1.00  0.00    -0.000 C 
BRANCH  15  16
ATOM     16  C   UNL     1       9.884   2.364   2.286  1.00  0.00    -0.000 C 
BRANCH  16  17
ATOM     17  C   UNL     1      10.125   2.134   3.793  1.00  0.00    -0.000 C 
BRANCH  17  18
ATOM     18  C   UNL     1       9.693   0.742   4.287  1.00  0.00    -0.003 C 
ATOM     19  C   UNL     1       9.013   0.774   5.654  1.00  0.00     0.004 C 
ENDBRANCH  17  18
ENDBRANCH  16  17
ENDBRANCH  15  16
ENDBRANCH  14  15
ENDBRANCH  13  14
ENDBRANCH  12  13
ENDBRANCH   1  12
TORSDOF 14
ENDMDL
MODEL 6
REMARK VINA RESULT:    -0.007      1.670      2.852
REMARK INTER + INTRA:          -1.263
REMARK INTER:                  -0.267
REMARK INTRA:                  -0.996
REMARK UNBOUND:                -1.251
REMARK SMILES CCCCCCCCCCCCCC[C@@H](C)C(=O)[O-]
REMARK SMILES IDX 9 1 10 2 11 3 12 4 13 5 14 6 15 7 16 8 17 9 18 10 19 11 8 12
REMARK SMILES IDX 7 13 6 14 5 15 4 16 3 17 2 18 1 19
REMARK H PARENT
REMARK Flexibility Score: inf
ROOT
ATOM      1  C   UNL     1       8.515   6.246   0.772  1.00  0.00     0.000 C 
ENDROOT
BRANCH   1   2
ATOM      2  C   UNL     1       7.117   5.641   0.961  1.00  0.00     0.000 C 
BRANCH   2   3
ATOM      3  C   UNL     1       6.266   6.411   1.985  1.00  0.00     0.000 C 
BRANCH   3   4
ATOM      4  C   UNL     1       6.092   5.707   3.345  1.00  0.00     0.000 C 
BRANCH   4   5
ATOM      5  C   UNL     1       6.470   6.588   4.555  1.00  0.00     0.001 C 
BRANCH   5   6
ATOM      6  C   UNL     1       7.879   7.194   4.419  1.00  0.00     0.009 C 
BRANCH   6   7
ATOM      7  C   UNL     1       7.983   8.608   5.033  1.00  0.00     0.032 C 
ATOM      8  C   UNL     1       9.050   9.465   4.336  1.00  0.00     0.014 C 
BRANCH   7   9
ATOM      9  C   UNL     1       6.649   9.299   4.956  1.00  0.00     0.044 C 
ATOM     10  O   UNL     1       6.007   9.570   6.007  1.00  0.00    -0.550 OA
ATOM     11  O   UNL     1       6.115   9.643   3.721  1.00  0.00    -0.550 OA
ENDBRANCH   7   9
ENDBRANCH   6   7
ENDBRANCH   5   6
ENDBRANCH   4   5
ENDBRANCH   3   4
ENDBRANCH   2   3
ENDBRANCH   1   2
BRANCH   1  12
ATOM     12  C   UNL     1       9.561   5.146   0.551  1.00  0.00     0.000 C 
BRANCH  12  13
ATOM     13  C   UNL     1       9.066   3.752   0.976  1.00  0.00    -0.000 C 
BRANCH  13  14
ATOM     14  C   UNL     1      10.117   2.873   1.686  1.00  0.00    -0.000 C 
BRANCH  14  15
ATOM     15  C   UNL     1      10.025   2.853   3.222  1.00  0.00    -0.000 C 
BRANCH  15  16
ATOM     16  C   UNL     1       9.372   1.569   3.765  1.00  0.00    -0.000 C 
BRANCH  16  17
ATOM     17  C   UNL     1       9.959   1.142   5.128  1.00  0.00    -0.000 C 
BRANCH  17  18
ATOM     18  C   UNL     1       8.936   1.153   6.276  1.00  0.00    -0.003 C 
ATOM     19  C   UNL     1       7.821   0.125   6.097  1.00  0.00     0.004 C 
ENDBRANCH  17  18
ENDBRANCH  16  17
ENDBRANCH  15  16
ENDBRANCH  14  15
ENDBRANCH  13  14
ENDBRANCH  12  13
ENDBRANCH   1  12
TORSDOF 14
ENDMDL
