MODEL 1
REMARK VINA RESULT:    -4.775      0.000      0.000
REMARK INTER + INTRA:          -5.220
REMARK INTER:                  -5.193
REMARK INTRA:                  -0.027
REMARK UNBOUND:                -0.027
REMARK SMILES O=C([O-])c1ccc(O)cc1
REMARK SMILES IDX 4 1 5 2 10 3 6 4 9 5 7 6 2 7 1 8 3 9 8 10
REMARK H PARENT 8 11
REMARK Flexibility Score: inf
ROOT
ATOM      1  C   UNL     1     -13.807 -48.701  -3.217  1.00  0.00    -0.003 A 
ATOM      2  C   UNL     1     -12.804 -47.728  -3.373  1.00  0.00     0.014 A 
ATOM      3  C   UNL     1     -14.504 -49.151  -4.354  1.00  0.00     0.014 A 
ATOM      4  C   UNL     1     -12.504 -47.216  -4.639  1.00  0.00     0.047 A 
ATOM      5  C   UNL     1     -14.200 -48.637  -5.618  1.00  0.00     0.047 A 
ATOM      6  C   UNL     1     -13.200 -47.669  -5.764  1.00  0.00     0.115 A 
ENDROOT
BRANCH   1   7
ATOM      7  C   UNL     1     -14.130 -49.246  -1.880  1.00  0.00     0.071 C 
ATOM      8  O   UNL     1     -13.610 -50.323  -1.484  1.00  0.00    -0.545 OA
ATOM      9  O   UNL     1     -15.012 -48.576  -1.040  1.00  0.00    -0.545 OA
ENDBRANCH   1   7
BRANCH   6  10
ATOM     10  O   UNL     1     -12.890 -47.150  -7.019  1.00  0.00    -0.508 OA
ATOM     11  H   UNL     1     -11.930 -47.034  -7.322  1.00  0.00     0.293 HD
ENDBRANCH   6  10
TORSDOF 2
ENDMDL
MODEL 2
REMARK VINA RESULT:    -4.539      1.911      4.410
REMARK INTER + INTRA:          -4.964
REMARK INTER:                  -4.937
REMARK INTRA:                  -0.027
REMARK UNBOUND:                -0.027
REMARK SMILES O=C([O-])c1ccc(O)cc1
REMARK SMILES IDX 4 1 5 2 10 3 6 4 9 5 7 6 2 7 1 8 3 9 8 10
REMARK H PARENT 8 11
REMARK Flexibility Score: inf
ROOT
ATOM      1  C   UNL     1     -14.235 -48.622  -3.214  1.00  0.00    -0.003 A 
ATOM      2  C   UNL     1     -15.107 -47.579  -2.855  1.00  0.00     0.014 A 
ATOM      3  C   UNL     1     -13.592 -49.354  -2.199  1.00  0.00     0.014 A 
ATOM      4  C   UNL     1     -15.330 -47.273  -1.509  1.00  0.00     0.047 A 
ATOM      5  C   UNL     1     -13.819 -49.046  -0.853  1.00  0.00     0.047 A 
ATOM      6  C   UNL     1     -14.688 -48.005  -0.506  1.00  0.00     0.115 A 
ENDROOT
BRANCH   1   7
ATOM      7  C   UNL     1     -13.994 -48.949  -4.637  1.00  0.00     0.071 C 
ATOM      8  O   UNL     1     -14.770 -49.723  -5.257  1.00  0.00    -0.545 OA
ATOM      9  O   UNL     1     -12.906 -48.407  -5.310  1.00  0.00    -0.545 OA
ENDBRANCH   1   7
BRANCH   6  10
ATOM     10  O   UNL     1     -14.921 -47.690   0.831  1.00  0.00    -0.508 OA
ATOM     11  H   UNL     1     -14.632 -46.801   1.224  1.00  0.00     0.293 HD
ENDBRANCH   6  10
TORSDOF 2
ENDMDL
MODEL 3
REMARK VINA RESULT:    -4.473      1.307      4.403
REMARK INTER + INTRA:          -4.892
REMARK INTER:                  -4.861
REMARK INTRA:                  -0.030
REMARK UNBOUND:                -0.027
REMARK SMILES O=C([O-])c1ccc(O)cc1
REMARK SMILES IDX 4 1 5 2 10 3 6 4 9 5 7 6 2 7 1 8 3 9 8 10
REMARK H PARENT 8 11
REMARK Flexibility Score: inf
ROOT
ATOM      1  C   UNL     1     -13.528 -48.124  -4.098  1.00  0.00    -0.003 A 
ATOM      2  C   UNL     1     -13.935 -49.310  -3.460  1.00  0.00     0.014 A 
ATOM      3  C   UNL     1     -13.023 -47.069  -3.317  1.00  0.00     0.014 A 
ATOM      4  C   UNL     1     -13.840 -49.436  -2.071  1.00  0.00     0.047 A 
ATOM      5  C   UNL     1     -12.929 -47.199  -1.928  1.00  0.00     0.047 A 
ATOM      6  C   UNL     1     -13.338 -48.382  -1.302  1.00  0.00     0.115 A 
ENDROOT
BRANCH   1   7
ATOM      7  C   UNL     1     -13.627 -47.985  -5.568  1.00  0.00     0.071 C 
ATOM      8  O   UNL     1     -14.700 -48.261  -6.167  1.00  0.00    -0.545 OA
ATOM      9  O   UNL     1     -12.535 -47.548  -6.310  1.00  0.00    -0.545 OA
ENDBRANCH   1   7
BRANCH   6  10
ATOM     10  O   UNL     1     -13.248 -48.522   0.081  1.00  0.00    -0.508 OA
ATOM     11  H   UNL     1     -12.358 -48.469   0.562  1.00  0.00     0.293 HD
ENDBRANCH   6  10
TORSDOF 2
ENDMDL
MODEL 4
REMARK VINA RESULT:    -4.373      6.432      6.730
REMARK INTER + INTRA:          -4.783
REMARK INTER:                  -4.751
REMARK INTRA:                  -0.032
REMARK UNBOUND:                -0.027
REMARK SMILES O=C([O-])c1ccc(O)cc1
REMARK SMILES IDX 4 1 5 2 10 3 6 4 9 5 7 6 2 7 1 8 3 9 8 10
REMARK H PARENT 8 11
REMARK Flexibility Score: inf
ROOT
ATOM      1  C   UNL     1     -18.412 -44.285  -0.983  1.00  0.00    -0.003 A 
ATOM      2  C   UNL     1     -17.893 -43.019  -1.309  1.00  0.00     0.014 A 
ATOM      3  C   UNL     1     -18.606 -45.227  -2.011  1.00  0.00     0.014 A 
ATOM      4  C   UNL     1     -17.575 -42.702  -2.633  1.00  0.00     0.047 A 
ATOM      5  C   UNL     1     -18.286 -44.906  -3.334  1.00  0.00     0.047 A 
ATOM      6  C   UNL     1     -17.770 -43.643  -3.648  1.00  0.00     0.115 A 
ENDROOT
BRANCH   1   7
ATOM      7  C   UNL     1     -18.752 -44.626   0.416  1.00  0.00     0.071 C 
ATOM      8  O   UNL     1     -19.798 -45.275   0.681  1.00  0.00    -0.545 OA
ATOM      9  O   UNL     1     -17.920 -44.233   1.459  1.00  0.00    -0.545 OA
ENDBRANCH   1   7
BRANCH   6  10
ATOM     10  O   UNL     1     -17.447 -43.314  -4.962  1.00  0.00    -0.508 OA
ATOM     11  H   UNL     1     -17.048 -42.414  -5.200  1.00  0.00     0.293 HD
ENDBRANCH   6  10
TORSDOF 2
ENDMDL
MODEL 5
REMARK VINA RESULT:    -4.349     14.502     15.547
REMARK INTER + INTRA:          -4.757
REMARK INTER:                  -4.728
REMARK INTRA:                  -0.029
REMARK UNBOUND:                -0.027
REMARK SMILES O=C([O-])c1ccc(O)cc1
REMARK SMILES IDX 4 1 5 2 10 3 6 4 9 5 7 6 2 7 1 8 3 9 8 10
REMARK H PARENT 8 11
REMARK Flexibility Score: inf
ROOT
ATOM      1  C   UNL     1     -18.217 -35.370   1.152  1.00  0.00    -0.003 A 
ATOM      2  C   UNL     1     -18.795 -36.619   1.442  1.00  0.00     0.014 A 
ATOM      3  C   UNL     1     -18.241 -34.363   2.134  1.00  0.00     0.014 A 
ATOM      4  C   UNL     1     -19.385 -36.854   2.688  1.00  0.00     0.047 A 
ATOM      5  C   UNL     1     -18.832 -34.602   3.379  1.00  0.00     0.047 A 
ATOM      6  C   UNL     1     -19.405 -35.849   3.658  1.00  0.00     0.115 A 
ENDROOT
BRANCH   1   7
ATOM      7  C   UNL     1     -17.592 -35.114  -0.165  1.00  0.00     0.071 C 
ATOM      8  O   UNL     1     -16.667 -35.856  -0.590  1.00  0.00    -0.545 OA
ATOM      9  O   UNL     1     -18.018 -34.051  -0.953  1.00  0.00    -0.545 OA
ENDBRANCH   1   7
BRANCH   6  10
ATOM     10  O   UNL     1     -19.995 -36.097   4.895  1.00  0.00    -0.508 OA
ATOM     11  H   UNL     1     -20.868 -35.657   5.163  1.00  0.00     0.293 HD
ENDBRANCH   6  10
TORSDOF 2
ENDMDL
MODEL 6
REMARK VINA RESULT:    -4.246      4.517      6.660
REMARK INTER + INTRA:          -4.645
REMARK INTER:                  -4.618
REMARK INTRA:                  -0.027
REMARK UNBOUND:                -0.027
REMARK SMILES O=C([O-])c1ccc(O)cc1
REMARK SMILES IDX 4 1 5 2 10 3 6 4 9 5 7 6 2 7 1 8 3 9 8 10
REMARK H PARENT 8 11
REMARK Flexibility Score: inf
ROOT
ATOM      1  C   UNL     1      -9.792 -44.495  -3.487  1.00  0.00    -0.003 A 
ATOM      2  C   UNL     1      -9.584 -43.655  -2.378  1.00  0.00     0.014 A 
ATOM      3  C   UNL     1     -10.784 -45.490  -3.413  1.00  0.00     0.014 A 
ATOM      4  C   UNL     1     -10.353 -43.807  -1.220  1.00  0.00     0.047 A 
ATOM      5  C   UNL     1     -11.551 -45.638  -2.253  1.00  0.00     0.047 A 
ATOM      6  C   UNL     1     -11.337 -44.798  -1.154  1.00  0.00     0.115 A 
ENDROOT
BRANCH   1   7
ATOM      7  C   UNL     1      -8.981 -44.340  -4.715  1.00  0.00     0.071 C 
ATOM      8  O   UNL     1      -8.023 -45.122  -4.954  1.00  0.00    -0.545 OA
ATOM      9  O   UNL     1      -9.265 -43.326  -5.624  1.00  0.00    -0.545 OA
ENDBRANCH   1   7
BRANCH   6  10
ATOM     10  O   UNL     1     -12.096 -44.937   0.006  1.00  0.00    -0.508 OA
ATOM     11  H   UNL     1     -12.866 -45.593   0.058  1.00  0.00     0.293 HD
ENDBRANCH   6  10
TORSDOF 2
ENDMDL
MODEL 7
REMARK VINA RESULT:    -4.222      5.340      5.855
REMARK INTER + INTRA:          -4.619
REMARK INTER:                  -4.590
REMARK INTRA:                  -0.028
REMARK UNBOUND:                -0.027
REMARK SMILES O=C([O-])c1ccc(O)cc1
REMARK SMILES IDX 4 1 5 2 10 3 6 4 9 5 7 6 2 7 1 8 3 9 8 10
REMARK H PARENT 8 11
REMARK Flexibility Score: inf
ROOT
ATOM      1  C   UNL     1     -10.518 -44.193  -2.357  1.00  0.00    -0.003 A 
ATOM      2  C   UNL     1      -9.522 -44.986  -2.954  1.00  0.00     0.014 A 
ATOM      3  C   UNL     1     -10.930 -43.013  -3.004  1.00  0.00     0.014 A 
ATOM      4  C   UNL     1      -8.949 -44.607  -4.172  1.00  0.00     0.047 A 
ATOM      5  C   UNL     1     -10.356 -42.638  -4.223  1.00  0.00     0.047 A 
ATOM      6  C   UNL     1      -9.364 -43.433  -4.809  1.00  0.00     0.115 A 
ENDROOT
BRANCH   1   7
ATOM      7  C   UNL     1     -11.127 -44.588  -1.068  1.00  0.00     0.071 C 
ATOM      8  O   UNL     1     -10.975 -43.874  -0.041  1.00  0.00    -0.545 OA
ATOM      9  O   UNL     1     -11.875 -45.756  -0.970  1.00  0.00    -0.545 OA
ENDBRANCH   1   7
BRANCH   6  10
ATOM     10  O   UNL     1      -8.786 -43.068  -6.023  1.00  0.00    -0.508 OA
ATOM     11  H   UNL     1      -8.567 -42.102  -6.235  1.00  0.00     0.293 HD
ENDBRANCH   6  10
TORSDOF 2
ENDMDL
MODEL 8
REMARK VINA RESULT:    -4.158      2.097      4.592
REMARK INTER + INTRA:          -4.550
REMARK INTER:                  -4.520
REMARK INTRA:                  -0.029
REMARK UNBOUND:                -0.027
REMARK SMILES O=C([O-])c1ccc(O)cc1
REMARK SMILES IDX 4 1 5 2 10 3 6 4 9 5 7 6 2 7 1 8 3 9 8 10
REMARK H PARENT 8 11
REMARK Flexibility Score: inf
ROOT
ATOM      1  C   UNL     1     -12.367 -46.863  -3.178  1.00  0.00    -0.003 A 
ATOM      2  C   UNL     1     -12.728 -48.118  -3.702  1.00  0.00     0.014 A 
ATOM      3  C   UNL     1     -12.870 -46.479  -1.921  1.00  0.00     0.014 A 
ATOM      4  C   UNL     1     -13.574 -48.969  -2.985  1.00  0.00     0.047 A 
ATOM      5  C   UNL     1     -13.715 -47.334  -1.206  1.00  0.00     0.047 A 
ATOM      6  C   UNL     1     -14.069 -48.580  -1.736  1.00  0.00     0.115 A 
ENDROOT
BRANCH   1   7
ATOM      7  C   UNL     1     -11.474 -45.957  -3.933  1.00  0.00     0.071 C 
ATOM      8  O   UNL     1     -11.773 -45.586  -5.099  1.00  0.00    -0.545 OA
ATOM      9  O   UNL     1     -10.288 -45.503  -3.366  1.00  0.00    -0.545 OA
ENDBRANCH   1   7
BRANCH   6  10
ATOM     10  O   UNL     1     -14.910 -49.439  -1.032  1.00  0.00    -0.508 OA
ATOM     11  H   UNL     1     -15.871 -49.191  -0.830  1.00  0.00     0.293 HD
ENDBRANCH   6  10
TORSDOF 2
ENDMDL
MODEL 9
REMARK VINA RESULT:    -4.145      2.564      3.036
REMARK INTER + INTRA:          -4.535
REMARK INTER:                  -4.507
REMARK INTRA:                  -0.029
REMARK UNBOUND:                -0.027
REMARK SMILES O=C([O-])c1ccc(O)cc1
REMARK SMILES IDX 4 1 5 2 10 3 6 4 9 5 7 6 2 7 1 8 3 9 8 10
REMARK H PARENT 8 11
REMARK Flexibility Score: inf
ROOT
ATOM      1  C   UNL     1     -15.510 -46.906  -2.970  1.00  0.00    -0.003 A 
ATOM      2  C   UNL     1     -15.082 -46.369  -4.197  1.00  0.00     0.014 A 
ATOM      3  C   UNL     1     -15.171 -48.233  -2.651  1.00  0.00     0.014 A 
ATOM      4  C   UNL     1     -14.330 -47.144  -5.086  1.00  0.00     0.047 A 
ATOM      5  C   UNL     1     -14.418 -49.005  -3.542  1.00  0.00     0.047 A 
ATOM      6  C   UNL     1     -13.996 -48.462  -4.761  1.00  0.00     0.115 A 
ENDROOT
BRANCH   1   7
ATOM      7  C   UNL     1     -16.307 -46.091  -2.026  1.00  0.00     0.071 C 
ATOM      8  O   UNL     1     -15.859 -45.815  -0.882  1.00  0.00    -0.545 OA
ATOM      9  O   UNL     1     -17.564 -45.619  -2.389  1.00  0.00    -0.545 OA
ENDBRANCH   1   7
BRANCH   6  10
ATOM     10  O   UNL     1     -13.246 -49.222  -5.656  1.00  0.00    -0.508 OA
ATOM     11  H   UNL     1     -12.560 -49.894  -5.333  1.00  0.00     0.293 HD
ENDBRANCH   6  10
TORSDOF 2
ENDMDL
