MODEL 1
REMARK VINA RESULT:    14.032      0.000      0.000
REMARK INTER + INTRA:          30.041
REMARK INTER:                  30.438
REMARK INTRA:                  -0.398
REMARK UNBOUND:                -0.398
REMARK SMILES CCCCCCCCCCCCCCCCCCCCCC(=O)[O-]
REMARK SMILES IDX 12 1 11 2 10 3 9 4 8 5 7 6 6 7 5 8 4 9 3 10 2 11 1 12 13 13
REMARK SMILES IDX 14 14 15 15 16 16 17 17 18 18 19 19 20 20 21 21 22 22 23 23
REMARK SMILES IDX 24 24
REMARK H PARENT
REMARK Flexibility Score: inf
ROOT
ATOM      1  C   UNL     1      -4.248 -10.396  21.090  1.00  0.00     0.000 C 
ENDROOT
BRANCH   1   2
ATOM      2  C   UNL     1      -3.185 -10.158  19.999  1.00  0.00     0.000 C 
BRANCH   2   3
ATOM      3  C   UNL     1      -2.770  -8.683  19.836  1.00  0.00     0.000 C 
BRANCH   3   4
ATOM      4  C   UNL     1      -1.285  -8.449  20.159  1.00  0.00    -0.000 C 
BRANCH   4   5
ATOM      5  C   UNL     1      -1.059  -7.909  21.582  1.00  0.00    -0.000 C 
BRANCH   5   6
ATOM      6  C   UNL     1      -1.598  -6.488  21.829  1.00  0.00    -0.000 C 
BRANCH   6   7
ATOM      7  C   UNL     1      -1.340  -5.991  23.259  1.00  0.00    -0.000 C 
BRANCH   7   8
ATOM      8  C   UNL     1      -2.656  -5.823  24.027  1.00  0.00    -0.000 C 
BRANCH   8   9
ATOM      9  C   UNL     1      -2.591  -4.616  24.975  1.00  0.00    -0.000 C 
BRANCH   9  10
ATOM     10  C   UNL     1      -3.875  -4.435  25.805  1.00  0.00    -0.000 C 
BRANCH  10  11
ATOM     11  C   UNL     1      -4.908  -5.567  25.653  1.00  0.00    -0.003 C 
ATOM     12  C   UNL     1      -5.610  -5.557  24.296  1.00  0.00     0.004 C 
ENDBRANCH  10  11
ENDBRANCH   9  10
ENDBRANCH   8   9
ENDBRANCH   7   8
ENDBRANCH   6   7
ENDBRANCH   5   6
ENDBRANCH   4   5
ENDBRANCH   3   4
ENDBRANCH   2   3
ENDBRANCH   1   2
BRANCH   1  13
ATOM     13  C   UNL     1      -4.833 -11.825  21.104  1.00  0.00     0.000 C 
BRANCH  13  14
ATOM     14  C   UNL     1      -4.763 -12.535  19.732  1.00  0.00     0.000 C 
BRANCH  14  15
ATOM     15  C   UNL     1      -3.714 -13.657  19.672  1.00  0.00     0.000 C 
BRANCH  15  16
ATOM     16  C   UNL     1      -4.092 -14.873  20.531  1.00  0.00     0.000 C 
BRANCH  16  17
ATOM     17  C   UNL     1      -3.277 -16.129  20.183  1.00  0.00     0.000 C 
BRANCH  17  18
ATOM     18  C   UNL     1      -3.204 -16.416  18.668  1.00  0.00     0.000 C 
BRANCH  18  19
ATOM     19  C   UNL     1      -4.057 -17.631  18.264  1.00  0.00     0.000 C 
BRANCH  19  20
ATOM     20  C   UNL     1      -3.933 -17.987  16.772  1.00  0.00     0.006 C 
BRANCH  20  21
ATOM     21  C   UNL     1      -4.667 -19.279  16.374  1.00  0.00     0.053 C 
BRANCH  21  22
ATOM     22  C   UNL     1      -6.050 -19.021  15.858  1.00  0.00     0.041 C 
ATOM     23  O   UNL     1      -6.732 -19.958  15.366  1.00  0.00    -0.550 OA
ATOM     24  O   UNL     1      -6.600 -17.749  15.952  1.00  0.00    -0.550 OA
ENDBRANCH  21  22
ENDBRANCH  20  21
ENDBRANCH  19  20
ENDBRANCH  18  19
ENDBRANCH  17  18
ENDBRANCH  16  17
ENDBRANCH  15  16
ENDBRANCH  14  15
ENDBRANCH  13  14
ENDBRANCH   1  13
TORSDOF 20
ENDMDL
MODEL 2
REMARK VINA RESULT:    14.800      7.348      9.034
REMARK INTER + INTRA:          31.707
REMARK INTER:                  33.083
REMARK INTRA:                  -1.376
REMARK UNBOUND:                -0.398
REMARK SMILES CCCCCCCCCCCCCCCCCCCCCC(=O)[O-]
REMARK SMILES IDX 12 1 11 2 10 3 9 4 8 5 7 6 6 7 5 8 4 9 3 10 2 11 1 12 13 13
REMARK SMILES IDX 14 14 15 15 16 16 17 17 18 18 19 19 20 20 21 21 22 22 23 23
REMARK SMILES IDX 24 24
REMARK H PARENT
REMARK Flexibility Score: inf
ROOT
ATOM      1  C   UNL     1      -3.102  -7.802  18.285  1.00  0.00     0.000 C 
ENDROOT
BRANCH   1   2
ATOM      2  C   UNL     1      -3.608  -8.197  19.687  1.00  0.00     0.000 C 
BRANCH   2   3
ATOM      3  C   UNL     1      -2.531  -8.836  20.587  1.00  0.00     0.000 C 
BRANCH   3   4
ATOM      4  C   UNL     1      -1.103  -8.476  20.144  1.00  0.00    -0.000 C 
BRANCH   4   5
ATOM      5  C   UNL     1      -0.349  -7.630  21.185  1.00  0.00    -0.000 C 
BRANCH   5   6
ATOM      6  C   UNL     1      -1.069  -7.472  22.536  1.00  0.00    -0.000 C 
BRANCH   6   7
ATOM      7  C   UNL     1      -1.596  -6.050  22.771  1.00  0.00    -0.000 C 
BRANCH   7   8
ATOM      8  C   UNL     1      -2.036  -5.861  24.228  1.00  0.00    -0.000 C 
BRANCH   8   9
ATOM      9  C   UNL     1      -2.924  -4.617  24.378  1.00  0.00    -0.000 C 
BRANCH   9  10
ATOM     10  C   UNL     1      -3.502  -4.461  25.797  1.00  0.00    -0.000 C 
BRANCH  10  11
ATOM     11  C   UNL     1      -4.678  -5.400  26.123  1.00  0.00    -0.003 C 
ATOM     12  C   UNL     1      -5.888  -5.181  25.216  1.00  0.00     0.004 C 
ENDBRANCH  10  11
ENDBRANCH   9  10
ENDBRANCH   8   9
ENDBRANCH   7   8
ENDBRANCH   6   7
ENDBRANCH   5   6
ENDBRANCH   4   5
ENDBRANCH   3   4
ENDBRANCH   2   3
ENDBRANCH   1   2
BRANCH   1  13
ATOM     13  C   UNL     1      -3.329  -6.318  17.925  1.00  0.00     0.000 C 
BRANCH  13  14
ATOM     14  C   UNL     1      -2.228  -5.726  17.017  1.00  0.00     0.000 C 
BRANCH  14  15
ATOM     15  C   UNL     1      -1.253  -6.779  16.465  1.00  0.00     0.000 C 
BRANCH  15  16
ATOM     16  C   UNL     1      -0.760  -6.450  15.048  1.00  0.00     0.000 C 
BRANCH  16  17
ATOM     17  C   UNL     1       0.487  -7.255  14.646  1.00  0.00     0.000 C 
BRANCH  17  18
ATOM     18  C   UNL     1       0.186  -8.411  13.668  1.00  0.00     0.000 C 
BRANCH  18  19
ATOM     19  C   UNL     1       1.389  -8.742  12.770  1.00  0.00     0.000 C 
BRANCH  19  20
ATOM     20  C   UNL     1       2.343  -7.550  12.574  1.00  0.00     0.006 C 
BRANCH  20  21
ATOM     21  C   UNL     1       2.148  -6.804  11.242  1.00  0.00     0.053 C 
BRANCH  21  22
ATOM     22  C   UNL     1       2.515  -5.355  11.332  1.00  0.00     0.041 C 
ATOM     23  O   UNL     1       1.955  -4.508  10.588  1.00  0.00    -0.550 OA
ATOM     24  O   UNL     1       3.456  -4.933  12.264  1.00  0.00    -0.550 OA
ENDBRANCH  21  22
ENDBRANCH  20  21
ENDBRANCH  19  20
ENDBRANCH  18  19
ENDBRANCH  17  18
ENDBRANCH  16  17
ENDBRANCH  15  16
ENDBRANCH  14  15
ENDBRANCH  13  14
ENDBRANCH   1  13
TORSDOF 20
ENDMDL
MODEL 3
REMARK VINA RESULT:    14.840     13.069     15.935
REMARK INTER + INTRA:          31.794
REMARK INTER:                  31.498
REMARK INTRA:                   0.296
REMARK UNBOUND:                -0.398
REMARK SMILES CCCCCCCCCCCCCCCCCCCCCC(=O)[O-]
REMARK SMILES IDX 12 1 11 2 10 3 9 4 8 5 7 6 6 7 5 8 4 9 3 10 2 11 1 12 13 13
REMARK SMILES IDX 14 14 15 15 16 16 17 17 18 18 19 19 20 20 21 21 22 22 23 23
REMARK SMILES IDX 24 24
REMARK H PARENT
REMARK Flexibility Score: inf
ROOT
ATOM      1  C   UNL     1      -1.765 -14.862   5.950  1.00  0.00     0.000 C 
ENDROOT
BRANCH   1   2
ATOM      2  C   UNL     1      -1.202 -13.507   6.425  1.00  0.00     0.000 C 
BRANCH   2   3
ATOM      3  C   UNL     1      -0.300 -13.604   7.671  1.00  0.00     0.000 C 
BRANCH   3   4
ATOM      4  C   UNL     1      -0.842 -14.592   8.717  1.00  0.00    -0.000 C 
BRANCH   4   5
ATOM      5  C   UNL     1      -0.000 -14.623  10.004  1.00  0.00    -0.000 C 
BRANCH   5   6
ATOM      6  C   UNL     1       1.402 -15.238   9.847  1.00  0.00    -0.000 C 
BRANCH   6   7
ATOM      7  C   UNL     1       2.179 -14.659   8.656  1.00  0.00    -0.000 C 
BRANCH   7   8
ATOM      8  C   UNL     1       2.794 -15.777   7.806  1.00  0.00    -0.000 C 
BRANCH   8   9
ATOM      9  C   UNL     1       1.745 -16.839   7.450  1.00  0.00    -0.000 C 
BRANCH   9  10
ATOM     10  C   UNL     1       2.137 -17.682   6.222  1.00  0.00    -0.000 C 
BRANCH  10  11
ATOM     11  C   UNL     1       1.497 -19.082   6.168  1.00  0.00    -0.003 C 
ATOM     12  C   UNL     1       2.525 -20.205   6.041  1.00  0.00     0.004 C 
ENDBRANCH  10  11
ENDBRANCH   9  10
ENDBRANCH   8   9
ENDBRANCH   7   8
ENDBRANCH   6   7
ENDBRANCH   5   6
ENDBRANCH   4   5
ENDBRANCH   3   4
ENDBRANCH   2   3
ENDBRANCH   1   2
BRANCH   1  13
ATOM     13  C   UNL     1      -3.066 -15.291   6.662  1.00  0.00     0.000 C 
BRANCH  13  14
ATOM     14  C   UNL     1      -3.144 -16.809   6.946  1.00  0.00     0.000 C 
BRANCH  14  15
ATOM     15  C   UNL     1      -4.579 -17.359   6.966  1.00  0.00     0.000 C 
BRANCH  15  16
ATOM     16  C   UNL     1      -5.593 -16.399   6.324  1.00  0.00     0.000 C 
BRANCH  16  17
ATOM     17  C   UNL     1      -6.773 -16.068   7.252  1.00  0.00     0.000 C 
BRANCH  17  18
ATOM     18  C   UNL     1      -7.001 -14.553   7.442  1.00  0.00     0.000 C 
BRANCH  18  19
ATOM     19  C   UNL     1      -6.741 -13.759   6.151  1.00  0.00     0.000 C 
BRANCH  19  20
ATOM     20  C   UNL     1      -5.879 -12.503   6.377  1.00  0.00     0.006 C 
BRANCH  20  21
ATOM     21  C   UNL     1      -4.383 -12.800   6.581  1.00  0.00     0.053 C 
BRANCH  21  22
ATOM     22  C   UNL     1      -3.839 -12.187   7.835  1.00  0.00     0.041 C 
ATOM     23  O   UNL     1      -3.502 -12.914   8.806  1.00  0.00    -0.550 OA
ATOM     24  O   UNL     1      -3.673 -10.810   7.920  1.00  0.00    -0.550 OA
ENDBRANCH  21  22
ENDBRANCH  20  21
ENDBRANCH  19  20
ENDBRANCH  18  19
ENDBRANCH  17  18
ENDBRANCH  16  17
ENDBRANCH  15  16
ENDBRANCH  14  15
ENDBRANCH  13  14
ENDBRANCH   1  13
TORSDOF 20
ENDMDL
MODEL 4
REMARK VINA RESULT:    14.852      4.741     12.485
REMARK INTER + INTRA:          31.820
REMARK INTER:                  32.705
REMARK INTRA:                  -0.885
REMARK UNBOUND:                -0.398
REMARK SMILES CCCCCCCCCCCCCCCCCCCCCC(=O)[O-]
REMARK SMILES IDX 12 1 11 2 10 3 9 4 8 5 7 6 6 7 5 8 4 9 3 10 2 11 1 12 13 13
REMARK SMILES IDX 14 14 15 15 16 16 17 17 18 18 19 19 20 20 21 21 22 22 23 23
REMARK SMILES IDX 24 24
REMARK H PARENT
REMARK Flexibility Score: inf
ROOT
ATOM      1  C   UNL     1      -4.615 -11.319  20.216  1.00  0.00     0.000 C 
ENDROOT
BRANCH   1   2
ATOM      2  C   UNL     1      -4.471 -12.709  20.866  1.00  0.00     0.000 C 
BRANCH   2   3
ATOM      3  C   UNL     1      -4.514 -13.880  19.865  1.00  0.00     0.000 C 
BRANCH   3   4
ATOM      4  C   UNL     1      -3.209 -14.693  19.852  1.00  0.00    -0.000 C 
BRANCH   4   5
ATOM      5  C   UNL     1      -3.448 -16.211  19.940  1.00  0.00    -0.000 C 
BRANCH   5   6
ATOM      6  C   UNL     1      -4.188 -16.821  18.737  1.00  0.00    -0.000 C 
BRANCH   6   7
ATOM      7  C   UNL     1      -3.524 -18.102  18.212  1.00  0.00    -0.000 C 
BRANCH   7   8
ATOM      8  C   UNL     1      -3.997 -18.423  16.790  1.00  0.00    -0.000 C 
BRANCH   8   9
ATOM      9  C   UNL     1      -5.453 -17.981  16.581  1.00  0.00    -0.000 C 
BRANCH   9  10
ATOM     10  C   UNL     1      -6.212 -18.871  15.579  1.00  0.00    -0.000 C 
BRANCH  10  11
ATOM     11  C   UNL     1      -6.060 -20.385  15.814  1.00  0.00    -0.003 C 
ATOM     12  C   UNL     1      -5.683 -21.152  14.547  1.00  0.00     0.004 C 
ENDBRANCH  10  11
ENDBRANCH   9  10
ENDBRANCH   8   9
ENDBRANCH   7   8
ENDBRANCH   6   7
ENDBRANCH   5   6
ENDBRANCH   4   5
ENDBRANCH   3   4
ENDBRANCH   2   3
ENDBRANCH   1   2
BRANCH   1  13
ATOM     13  C   UNL     1      -3.272 -10.631  19.887  1.00  0.00     0.000 C 
BRANCH  13  14
ATOM     14  C   UNL     1      -3.295  -9.099  20.092  1.00  0.00     0.000 C 
BRANCH  14  15
ATOM     15  C   UNL     1      -1.984  -8.405  19.691  1.00  0.00     0.000 C 
BRANCH  15  16
ATOM     16  C   UNL     1      -1.146  -7.970  20.903  1.00  0.00     0.000 C 
BRANCH  16  17
ATOM     17  C   UNL     1      -1.908  -7.030  21.851  1.00  0.00     0.000 C 
BRANCH  17  18
ATOM     18  C   UNL     1      -0.984  -6.125  22.695  1.00  0.00     0.000 C 
BRANCH  18  19
ATOM     19  C   UNL     1      -1.589  -5.797  24.070  1.00  0.00     0.000 C 
BRANCH  19  20
ATOM     20  C   UNL     1      -2.960  -5.103  23.976  1.00  0.00     0.006 C 
BRANCH  20  21
ATOM     21  C   UNL     1      -3.725  -5.045  25.311  1.00  0.00     0.053 C 
BRANCH  21  22
ATOM     22  C   UNL     1      -5.207  -5.170  25.132  1.00  0.00     0.041 C 
ATOM     23  O   UNL     1      -5.951  -5.400  26.122  1.00  0.00    -0.550 OA
ATOM     24  O   UNL     1      -5.772  -5.001  23.874  1.00  0.00    -0.550 OA
ENDBRANCH  21  22
ENDBRANCH  20  21
ENDBRANCH  19  20
ENDBRANCH  18  19
ENDBRANCH  17  18
ENDBRANCH  16  17
ENDBRANCH  15  16
ENDBRANCH  14  15
ENDBRANCH  13  14
ENDBRANCH   1  13
TORSDOF 20
ENDMDL
MODEL 5
REMARK VINA RESULT:    15.061      4.512     11.677
REMARK INTER + INTRA:          32.273
REMARK INTER:                  33.018
REMARK INTRA:                  -0.745
REMARK UNBOUND:                -0.398
REMARK SMILES CCCCCCCCCCCCCCCCCCCCCC(=O)[O-]
REMARK SMILES IDX 12 1 11 2 10 3 9 4 8 5 7 6 6 7 5 8 4 9 3 10 2 11 1 12 13 13
REMARK SMILES IDX 14 14 15 15 16 16 17 17 18 18 19 19 20 20 21 21 22 22 23 23
REMARK SMILES IDX 24 24
REMARK H PARENT
REMARK Flexibility Score: inf
ROOT
ATOM      1  C   UNL     1      -3.984  -9.664  20.152  1.00  0.00     0.000 C 
ENDROOT
BRANCH   1   2
ATOM      2  C   UNL     1      -3.408 -10.945  20.787  1.00  0.00     0.000 C 
BRANCH   2   3
ATOM      3  C   UNL     1      -4.479 -11.927  21.303  1.00  0.00     0.000 C 
BRANCH   3   4
ATOM      4  C   UNL     1      -5.237 -12.627  20.162  1.00  0.00    -0.000 C 
BRANCH   4   5
ATOM      5  C   UNL     1      -4.299 -13.218  19.095  1.00  0.00    -0.000 C 
BRANCH   5   6
ATOM      6  C   UNL     1      -3.208 -14.157  19.640  1.00  0.00    -0.000 C 
BRANCH   6   7
ATOM      7  C   UNL     1      -3.770 -15.275  20.530  1.00  0.00    -0.000 C 
BRANCH   7   8
ATOM      8  C   UNL     1      -4.456 -16.356  19.686  1.00  0.00    -0.000 C 
BRANCH   8   9
ATOM      9  C   UNL     1      -3.565 -16.788  18.513  1.00  0.00    -0.000 C 
BRANCH   9  10
ATOM     10  C   UNL     1      -3.954 -18.162  17.938  1.00  0.00    -0.000 C 
BRANCH  10  11
ATOM     11  C   UNL     1      -4.230 -18.174  16.423  1.00  0.00    -0.003 C 
ATOM     12  C   UNL     1      -5.654 -18.610  16.079  1.00  0.00     0.004 C 
ENDBRANCH  10  11
ENDBRANCH   9  10
ENDBRANCH   8   9
ENDBRANCH   7   8
ENDBRANCH   6   7
ENDBRANCH   5   6
ENDBRANCH   4   5
ENDBRANCH   3   4
ENDBRANCH   2   3
ENDBRANCH   1   2
BRANCH   1  13
ATOM     13  C   UNL     1      -3.042  -8.443  20.224  1.00  0.00     0.000 C 
BRANCH  13  14
ATOM     14  C   UNL     1      -1.644  -8.704  19.617  1.00  0.00     0.000 C 
BRANCH  14  15
ATOM     15  C   UNL     1      -0.486  -8.262  20.527  1.00  0.00     0.000 C 
BRANCH  15  16
ATOM     16  C   UNL     1      -0.932  -7.999  21.973  1.00  0.00     0.000 C 
BRANCH  16  17
ATOM     17  C   UNL     1      -1.148  -6.506  22.270  1.00  0.00     0.000 C 
BRANCH  17  18
ATOM     18  C   UNL     1      -1.982  -6.245  23.543  1.00  0.00     0.000 C 
BRANCH  18  19
ATOM     19  C   UNL     1      -1.746  -4.838  24.116  1.00  0.00     0.000 C 
BRANCH  19  20
ATOM     20  C   UNL     1      -2.527  -4.575  25.416  1.00  0.00     0.006 C 
BRANCH  20  21
ATOM     21  C   UNL     1      -3.970  -4.088  25.191  1.00  0.00     0.053 C 
BRANCH  21  22
ATOM     22  C   UNL     1      -4.965  -5.208  25.198  1.00  0.00     0.041 C 
ATOM     23  O   UNL     1      -5.843  -5.276  26.098  1.00  0.00    -0.550 OA
ATOM     24  O   UNL     1      -4.943  -6.163  24.188  1.00  0.00    -0.550 OA
ENDBRANCH  21  22
ENDBRANCH  20  21
ENDBRANCH  19  20
ENDBRANCH  18  19
ENDBRANCH  17  18
ENDBRANCH  16  17
ENDBRANCH  15  16
ENDBRANCH  14  15
ENDBRANCH  13  14
ENDBRANCH   1  13
TORSDOF 20
ENDMDL
MODEL 6
REMARK VINA RESULT:    15.301     10.531     15.372
REMARK INTER + INTRA:          32.793
REMARK INTER:                  32.329
REMARK INTRA:                   0.464
REMARK UNBOUND:                -0.398
REMARK SMILES CCCCCCCCCCCCCCCCCCCCCC(=O)[O-]
REMARK SMILES IDX 12 1 11 2 10 3 9 4 8 5 7 6 6 7 5 8 4 9 3 10 2 11 1 12 13 13
REMARK SMILES IDX 14 14 15 15 16 16 17 17 18 18 19 19 20 20 21 21 22 22 23 23
REMARK SMILES IDX 24 24
REMARK H PARENT
REMARK Flexibility Score: inf
ROOT
ATOM      1  C   UNL     1      -6.553 -14.775   7.363  1.00  0.00     0.000 C 
ENDROOT
BRANCH   1   2
ATOM      2  C   UNL     1      -6.568 -16.287   7.061  1.00  0.00     0.000 C 
BRANCH   2   3
ATOM      3  C   UNL     1      -5.205 -16.854   6.619  1.00  0.00     0.000 C 
BRANCH   3   4
ATOM      4  C   UNL     1      -4.034 -15.927   6.984  1.00  0.00    -0.000 C 
BRANCH   4   5
ATOM      5  C   UNL     1      -2.694 -16.391   6.386  1.00  0.00    -0.000 C 
BRANCH   5   6
ATOM      6  C   UNL     1      -1.761 -15.255   5.928  1.00  0.00    -0.000 C 
BRANCH   6   7
ATOM      7  C   UNL     1      -2.119 -13.899   6.552  1.00  0.00    -0.000 C 
BRANCH   7   8
ATOM      8  C   UNL     1      -1.934 -13.928   8.073  1.00  0.00    -0.000 C 
BRANCH   8   9
ATOM      9  C   UNL     1      -0.731 -14.797   8.466  1.00  0.00    -0.000 C 
BRANCH   9  10
ATOM     10  C   UNL     1       0.618 -14.166   8.078  1.00  0.00    -0.000 C 
BRANCH  10  11
ATOM     11  C   UNL     1       1.511 -13.767   9.267  1.00  0.00    -0.003 C 
ATOM     12  C   UNL     1       1.624 -14.865  10.324  1.00  0.00     0.004 C 
ENDBRANCH  10  11
ENDBRANCH   9  10
ENDBRANCH   8   9
ENDBRANCH   7   8
ENDBRANCH   6   7
ENDBRANCH   5   6
ENDBRANCH   4   5
ENDBRANCH   3   4
ENDBRANCH   2   3
ENDBRANCH   1   2
BRANCH   1  13
ATOM     13  C   UNL     1      -6.854 -13.882   6.139  1.00  0.00     0.000 C 
BRANCH  13  14
ATOM     14  C   UNL     1      -6.053 -12.560   6.126  1.00  0.00     0.000 C 
BRANCH  14  15
ATOM     15  C   UNL     1      -4.697 -12.654   6.844  1.00  0.00     0.000 C 
BRANCH  15  16
ATOM     16  C   UNL     1      -4.175 -11.287   7.311  1.00  0.00     0.000 C 
BRANCH  16  17
ATOM     17  C   UNL     1      -3.436 -11.358   8.658  1.00  0.00     0.000 C 
BRANCH  17  18
ATOM     18  C   UNL     1      -3.121  -9.972   9.261  1.00  0.00     0.000 C 
BRANCH  18  19
ATOM     19  C   UNL     1      -4.187  -9.522  10.275  1.00  0.00     0.000 C 
BRANCH  19  20
ATOM     20  C   UNL     1      -3.727  -8.344  11.152  1.00  0.00     0.006 C 
BRANCH  20  21
ATOM     21  C   UNL     1      -4.555  -8.159  12.436  1.00  0.00     0.053 C 
BRANCH  21  22
ATOM     22  C   UNL     1      -5.575  -7.069  12.312  1.00  0.00     0.041 C 
ATOM     23  O   UNL     1      -5.231  -5.912  11.953  1.00  0.00    -0.550 OA
ATOM     24  O   UNL     1      -6.915  -7.339  12.564  1.00  0.00    -0.550 OA
ENDBRANCH  21  22
ENDBRANCH  20  21
ENDBRANCH  19  20
ENDBRANCH  18  19
ENDBRANCH  17  18
ENDBRANCH  16  17
ENDBRANCH  15  16
ENDBRANCH  14  15
ENDBRANCH  13  14
ENDBRANCH   1  13
TORSDOF 20
ENDMDL
