MODEL 1
REMARK VINA RESULT:    -5.156      0.000      0.000
REMARK INTER + INTRA:          -5.156
REMARK INTER:                  -5.156
REMARK INTRA:                   0.000
REMARK UNBOUND:                 0.000
REMARK SMILES O=c1ccc2ccccc2o1
REMARK SMILES IDX 7 1 8 2 9 3 10 4 5 5 6 6 4 7 3 8 2 9 1 10 11 11
REMARK H PARENT
REMARK Flexibility Score: inf
ROOT
ATOM      1  C   UNL     1      28.309 -34.157  23.014  1.00  0.00     0.001 A 
ATOM      2  C   UNL     1      28.486 -34.244  21.629  1.00  0.00     0.004 A 
ATOM      3  C   UNL     1      29.121 -33.208  20.934  1.00  0.00     0.048 A 
ATOM      4  C   UNL     1      29.582 -32.081  21.624  1.00  0.00     0.138 A 
ATOM      5  C   UNL     1      29.402 -31.994  23.023  1.00  0.00     0.018 A 
ATOM      6  C   UNL     1      28.765 -33.035  23.714  1.00  0.00     0.012 A 
ATOM      7  C   UNL     1      29.873 -30.855  23.686  1.00  0.00     0.019 A 
ATOM      8  C   UNL     1      30.499 -29.848  22.953  1.00  0.00     0.094 A 
ATOM      9  C   UNL     1      30.641 -30.002  21.570  1.00  0.00     0.336 A 
ATOM     10  O   UNL     1      31.204 -29.104  20.892  1.00  0.00    -0.246 OA
ATOM     11  O   UNL     1      30.185 -31.096  20.963  1.00  0.00    -0.423 OA
ENDROOT
TORSDOF 0
ENDMDL
MODEL 2
REMARK VINA RESULT:    -5.076     22.335     23.690
REMARK INTER + INTRA:          -5.076
REMARK INTER:                  -5.076
REMARK INTRA:                   0.000
REMARK UNBOUND:                 0.000
REMARK SMILES O=c1ccc2ccccc2o1
REMARK SMILES IDX 7 1 8 2 9 3 10 4 5 5 6 6 4 7 3 8 2 9 1 10 11 11
REMARK H PARENT
REMARK Flexibility Score: inf
ROOT
ATOM      1  C   UNL     1      20.710 -16.216  40.558  1.00  0.00     0.001 A 
ATOM      2  C   UNL     1      19.384 -16.474  40.193  1.00  0.00     0.004 A 
ATOM      3  C   UNL     1      19.039 -17.701  39.616  1.00  0.00     0.048 A 
ATOM      4  C   UNL     1      20.020 -18.675  39.401  1.00  0.00     0.138 A 
ATOM      5  C   UNL     1      21.359 -18.414  39.769  1.00  0.00     0.018 A 
ATOM      6  C   UNL     1      21.700 -17.183  40.347  1.00  0.00     0.012 A 
ATOM      7  C   UNL     1      22.318 -19.407  39.542  1.00  0.00     0.019 A 
ATOM      8  C   UNL     1      21.928 -20.614  38.964  1.00  0.00     0.094 A 
ATOM      9  C   UNL     1      20.584 -20.803  38.625  1.00  0.00     0.336 A 
ATOM     10  O   UNL     1      20.213 -21.886  38.103  1.00  0.00    -0.246 OA
ATOM     11  O   UNL     1      19.691 -19.842  38.852  1.00  0.00    -0.423 OA
ENDROOT
TORSDOF 0
ENDMDL
MODEL 3
REMARK VINA RESULT:    -5.010     16.987     18.341
REMARK INTER + INTRA:          -5.010
REMARK INTER:                  -5.010
REMARK INTRA:                   0.000
REMARK UNBOUND:                 0.000
REMARK SMILES O=c1ccc2ccccc2o1
REMARK SMILES IDX 7 1 8 2 9 3 10 4 5 5 6 6 4 7 3 8 2 9 1 10 11 11
REMARK H PARENT
REMARK Flexibility Score: inf
ROOT
ATOM      1  C   UNL     1      27.332 -24.651  38.955  1.00  0.00     0.001 A 
ATOM      2  C   UNL     1      27.613 -25.316  37.756  1.00  0.00     0.004 A 
ATOM      3  C   UNL     1      27.336 -26.681  37.627  1.00  0.00     0.048 A 
ATOM      4  C   UNL     1      26.778 -27.387  38.699  1.00  0.00     0.138 A 
ATOM      5  C   UNL     1      26.495 -26.715  39.910  1.00  0.00     0.018 A 
ATOM      6  C   UNL     1      26.774 -25.347  40.033  1.00  0.00     0.012 A 
ATOM      7  C   UNL     1      25.938 -27.447  40.964  1.00  0.00     0.019 A 
ATOM      8  C   UNL     1      25.680 -28.807  40.791  1.00  0.00     0.094 A 
ATOM      9  C   UNL     1      25.986 -29.405  39.564  1.00  0.00     0.336 A 
ATOM     10  O   UNL     1      25.759 -30.631  39.389  1.00  0.00    -0.246 OA
ATOM     11  O   UNL     1      26.516 -28.687  38.577  1.00  0.00    -0.423 OA
ENDROOT
TORSDOF 0
ENDMDL
MODEL 4
REMARK VINA RESULT:    -4.875     15.620     17.006
REMARK INTER + INTRA:          -4.875
REMARK INTER:                  -4.875
REMARK INTRA:                   0.000
REMARK UNBOUND:                 0.000
REMARK SMILES O=c1ccc2ccccc2o1
REMARK SMILES IDX 7 1 8 2 9 3 10 4 5 5 6 6 4 7 3 8 2 9 1 10 11 11
REMARK H PARENT
REMARK Flexibility Score: inf
ROOT
ATOM      1  C   UNL     1      26.771 -25.315  40.095  1.00  0.00     0.001 A 
ATOM      2  C   UNL     1      27.289 -24.617  38.999  1.00  0.00     0.004 A 
ATOM      3  C   UNL     1      27.573 -25.290  37.806  1.00  0.00     0.048 A 
ATOM      4  C   UNL     1      27.339 -26.666  37.705  1.00  0.00     0.138 A 
ATOM      5  C   UNL     1      26.815 -27.371  38.812  1.00  0.00     0.018 A 
ATOM      6  C   UNL     1      26.533 -26.691  40.006  1.00  0.00     0.012 A 
ATOM      7  C   UNL     1      26.592 -28.746  38.682  1.00  0.00     0.019 A 
ATOM      8  C   UNL     1      26.890 -29.375  37.474  1.00  0.00     0.094 A 
ATOM      9  C   UNL     1      27.405 -28.614  36.420  1.00  0.00     0.336 A 
ATOM     10  O   UNL     1      27.679 -29.164  35.322  1.00  0.00    -0.246 OA
ATOM     11  O   UNL     1      27.609 -27.306  36.570  1.00  0.00    -0.423 OA
ENDROOT
TORSDOF 0
ENDMDL
MODEL 5
REMARK VINA RESULT:    -4.834     22.022     23.407
REMARK INTER + INTRA:          -4.834
REMARK INTER:                  -4.834
REMARK INTRA:                   0.000
REMARK UNBOUND:                 0.000
REMARK SMILES O=c1ccc2ccccc2o1
REMARK SMILES IDX 7 1 8 2 9 3 10 4 5 5 6 6 4 7 3 8 2 9 1 10 11 11
REMARK H PARENT
REMARK Flexibility Score: inf
ROOT
ATOM      1  C   UNL     1      19.683 -16.489  40.043  1.00  0.00     0.001 A 
ATOM      2  C   UNL     1      21.001 -16.437  40.512  1.00  0.00     0.004 A 
ATOM      3  C   UNL     1      21.871 -17.508  40.284  1.00  0.00     0.048 A 
ATOM      4  C   UNL     1      21.427 -18.636  39.586  1.00  0.00     0.138 A 
ATOM      5  C   UNL     1      20.096 -18.688  39.112  1.00  0.00     0.018 A 
ATOM      6  C   UNL     1      19.228 -17.612  39.344  1.00  0.00     0.012 A 
ATOM      7  C   UNL     1      19.680 -19.829  38.418  1.00  0.00     0.019 A 
ATOM      8  C   UNL     1      20.582 -20.873  38.215  1.00  0.00     0.094 A 
ATOM      9  C   UNL     1      21.884 -20.752  38.712  1.00  0.00     0.336 A 
ATOM     10  O   UNL     1      22.712 -21.683  38.538  1.00  0.00    -0.246 OA
ATOM     11  O   UNL     1      22.255 -19.655  39.370  1.00  0.00    -0.423 OA
ENDROOT
TORSDOF 0
ENDMDL
MODEL 6
REMARK VINA RESULT:    -4.768     16.516     17.947
REMARK INTER + INTRA:          -4.768
REMARK INTER:                  -4.768
REMARK INTRA:                   0.000
REMARK UNBOUND:                 0.000
REMARK SMILES O=c1ccc2ccccc2o1
REMARK SMILES IDX 7 1 8 2 9 3 10 4 5 5 6 6 4 7 3 8 2 9 1 10 11 11
REMARK H PARENT
REMARK Flexibility Score: inf
ROOT
ATOM      1  C   UNL     1      27.397 -24.792  38.661  1.00  0.00     0.001 A 
ATOM      2  C   UNL     1      26.938 -25.025  39.962  1.00  0.00     0.004 A 
ATOM      3  C   UNL     1      26.529 -26.307  40.344  1.00  0.00     0.048 A 
ATOM      4  C   UNL     1      26.577 -27.361  39.425  1.00  0.00     0.138 A 
ATOM      5  C   UNL     1      27.041 -27.126  38.111  1.00  0.00     0.018 A 
ATOM      6  C   UNL     1      27.450 -25.839  37.734  1.00  0.00     0.012 A 
ATOM      7  C   UNL     1      27.079 -28.199  37.215  1.00  0.00     0.019 A 
ATOM      8  C   UNL     1      26.660 -29.459  37.640  1.00  0.00     0.094 A 
ATOM      9  C   UNL     1      26.213 -29.619  38.956  1.00  0.00     0.336 A 
ATOM     10  O   UNL     1      25.832 -30.749  39.358  1.00  0.00    -0.246 OA
ATOM     11  O   UNL     1      26.187 -28.581  39.789  1.00  0.00    -0.423 OA
ENDROOT
TORSDOF 0
ENDMDL
MODEL 7
REMARK VINA RESULT:    -4.749     16.135     17.242
REMARK INTER + INTRA:          -4.749
REMARK INTER:                  -4.749
REMARK INTRA:                   0.000
REMARK UNBOUND:                 0.000
REMARK SMILES O=c1ccc2ccccc2o1
REMARK SMILES IDX 7 1 8 2 9 3 10 4 5 5 6 6 4 7 3 8 2 9 1 10 11 11
REMARK H PARENT
REMARK Flexibility Score: inf
ROOT
ATOM      1  C   UNL     1      26.914 -29.507  37.646  1.00  0.00     0.001 A 
ATOM      2  C   UNL     1      27.441 -28.798  36.561  1.00  0.00     0.004 A 
ATOM      3  C   UNL     1      27.593 -27.409  36.636  1.00  0.00     0.048 A 
ATOM      4  C   UNL     1      27.217 -26.725  37.797  1.00  0.00     0.138 A 
ATOM      5  C   UNL     1      26.685 -27.442  38.892  1.00  0.00     0.018 A 
ATOM      6  C   UNL     1      26.535 -28.833  38.812  1.00  0.00     0.012 A 
ATOM      7  C   UNL     1      26.318 -26.730  40.039  1.00  0.00     0.019 A 
ATOM      8  C   UNL     1      26.487 -25.346  40.069  1.00  0.00     0.094 A 
ATOM      9  C   UNL     1      27.020 -24.703  38.947  1.00  0.00     0.336 A 
ATOM     10  O   UNL     1      27.180 -23.455  38.955  1.00  0.00    -0.246 OA
ATOM     11  O   UNL     1      27.361 -25.403  37.867  1.00  0.00    -0.423 OA
ENDROOT
TORSDOF 0
ENDMDL
MODEL 8
REMARK VINA RESULT:    -4.692     16.810     17.919
REMARK INTER + INTRA:          -4.692
REMARK INTER:                  -4.692
REMARK INTRA:                   0.000
REMARK UNBOUND:                 0.000
REMARK SMILES O=c1ccc2ccccc2o1
REMARK SMILES IDX 7 1 8 2 9 3 10 4 5 5 6 6 4 7 3 8 2 9 1 10 11 11
REMARK H PARENT
REMARK Flexibility Score: inf
ROOT
ATOM      1  C   UNL     1      26.141 -29.613  38.281  1.00  0.00     0.001 A 
ATOM      2  C   UNL     1      25.907 -29.517  39.657  1.00  0.00     0.004 A 
ATOM      3  C   UNL     1      26.162 -28.319  40.333  1.00  0.00     0.048 A 
ATOM      4  C   UNL     1      26.655 -27.212  39.634  1.00  0.00     0.138 A 
ATOM      5  C   UNL     1      26.892 -27.309  38.244  1.00  0.00     0.018 A 
ATOM      6  C   UNL     1      26.634 -28.512  37.572  1.00  0.00     0.012 A 
ATOM      7  C   UNL     1      27.384 -26.185  37.571  1.00  0.00     0.019 A 
ATOM      8  C   UNL     1      27.625 -25.012  38.286  1.00  0.00     0.094 A 
ATOM      9  C   UNL     1      27.367 -24.989  39.660  1.00  0.00     0.336 A 
ATOM     10  O   UNL     1      27.577 -23.939  40.322  1.00  0.00    -0.246 OA
ATOM     11  O   UNL     1      26.898 -26.072  40.277  1.00  0.00    -0.423 OA
ENDROOT
TORSDOF 0
ENDMDL
MODEL 9
REMARK VINA RESULT:    -4.685      8.151      8.367
REMARK INTER + INTRA:          -4.685
REMARK INTER:                  -4.685
REMARK INTRA:                   0.000
REMARK UNBOUND:                 0.000
REMARK SMILES O=c1ccc2ccccc2o1
REMARK SMILES IDX 7 1 8 2 9 3 10 4 5 5 6 6 4 7 3 8 2 9 1 10 11 11
REMARK H PARENT
REMARK Flexibility Score: inf
ROOT
ATOM      1  C   UNL     1      26.971 -28.636  29.707  1.00  0.00     0.001 A 
ATOM      2  C   UNL     1      25.637 -28.349  29.402  1.00  0.00     0.004 A 
ATOM      3  C   UNL     1      25.327 -27.337  28.487  1.00  0.00     0.048 A 
ATOM      4  C   UNL     1      26.352 -26.608  27.874  1.00  0.00     0.138 A 
ATOM      5  C   UNL     1      27.700 -26.898  28.184  1.00  0.00     0.018 A 
ATOM      6  C   UNL     1      28.005 -27.914  29.101  1.00  0.00     0.012 A 
ATOM      7  C   UNL     1      28.704 -26.153  27.556  1.00  0.00     0.019 A 
ATOM      8  C   UNL     1      28.348 -25.153  26.651  1.00  0.00     0.094 A 
ATOM      9  C   UNL     1      26.993 -24.921  26.394  1.00  0.00     0.336 A 
ATOM     10  O   UNL     1      26.653 -24.023  25.580  1.00  0.00    -0.246 OA
ATOM     11  O   UNL     1      26.057 -25.644  27.005  1.00  0.00    -0.423 OA
ENDROOT
TORSDOF 0
ENDMDL
