MODEL 1
REMARK VINA RESULT:    -4.628      0.000      0.000
REMARK INTER + INTRA:          -4.919
REMARK INTER:                  -4.899
REMARK INTRA:                  -0.020
REMARK UNBOUND:                -0.020
REMARK SMILES O=C([O-])c1cccnc1
REMARK SMILES IDX 4 1 5 2 9 3 6 4 8 5 7 6 2 7 1 8 3 9
REMARK H PARENT
REMARK Flexibility Score: inf
ROOT
ATOM      1  C   UNL     1      37.319  42.481  49.243  1.00  0.00     0.016 A 
ATOM      2  C   UNL     1      37.407  42.239  47.863  1.00  0.00     0.013 A 
ATOM      3  C   UNL     1      36.115  42.994  49.756  1.00  0.00     0.120 A 
ATOM      4  C   UNL     1      36.317  42.507  47.033  1.00  0.00     0.021 A 
ATOM      5  N   UNL     1      35.067  43.247  48.925  1.00  0.00    -0.264 NA
ATOM      6  C   UNL     1      35.143  43.017  47.589  1.00  0.00     0.111 A 
ENDROOT
BRANCH   1   7
ATOM      7  C   UNL     1      38.467  42.200  50.132  1.00  0.00     0.073 C 
ATOM      8  O   UNL     1      39.126  41.134  50.010  1.00  0.00    -0.545 OA
ATOM      9  O   UNL     1      38.834  43.111  51.116  1.00  0.00    -0.545 OA
ENDBRANCH   1   7
TORSDOF 1
ENDMDL
MODEL 2
REMARK VINA RESULT:    -4.603      2.838      3.639
REMARK INTER + INTRA:          -4.892
REMARK INTER:                  -4.874
REMARK INTRA:                  -0.019
REMARK UNBOUND:                -0.020
REMARK SMILES O=C([O-])c1cccnc1
REMARK SMILES IDX 4 1 5 2 9 3 6 4 8 5 7 6 2 7 1 8 3 9
REMARK H PARENT
REMARK Flexibility Score: inf
ROOT
ATOM      1  C   UNL     1      36.462  42.686  48.352  1.00  0.00     0.016 A 
ATOM      2  C   UNL     1      37.749  42.132  48.266  1.00  0.00     0.013 A 
ATOM      3  C   UNL     1      35.954  43.001  49.625  1.00  0.00     0.120 A 
ATOM      4  C   UNL     1      38.494  41.904  49.424  1.00  0.00     0.021 A 
ATOM      5  N   UNL     1      36.701  42.769  50.739  1.00  0.00    -0.264 NA
ATOM      6  C   UNL     1      37.947  42.233  50.665  1.00  0.00     0.111 A 
ENDROOT
BRANCH   1   7
ATOM      7  C   UNL     1      35.663  42.932  47.132  1.00  0.00     0.073 C 
ATOM      8  O   UNL     1      34.480  42.506  47.044  1.00  0.00    -0.545 OA
ATOM      9  O   UNL     1      36.207  43.636  46.065  1.00  0.00    -0.545 OA
ENDBRANCH   1   7
TORSDOF 1
ENDMDL
MODEL 3
REMARK VINA RESULT:    -4.570      4.079      4.986
REMARK INTER + INTRA:          -4.858
REMARK INTER:                  -4.839
REMARK INTRA:                  -0.018
REMARK UNBOUND:                -0.020
REMARK SMILES O=C([O-])c1cccnc1
REMARK SMILES IDX 4 1 5 2 9 3 6 4 8 5 7 6 2 7 1 8 3 9
REMARK H PARENT
REMARK Flexibility Score: inf
ROOT
ATOM      1  C   UNL     1      34.253  44.312  45.832  1.00  0.00     0.016 A 
ATOM      2  C   UNL     1      34.574  44.809  44.559  1.00  0.00     0.013 A 
ATOM      3  C   UNL     1      32.927  43.915  46.080  1.00  0.00     0.120 A 
ATOM      4  C   UNL     1      33.590  44.903  43.574  1.00  0.00     0.021 A 
ATOM      5  N   UNL     1      31.986  44.017  45.101  1.00  0.00    -0.264 NA
ATOM      6  C   UNL     1      32.288  44.498  43.867  1.00  0.00     0.111 A 
ENDROOT
BRANCH   1   7
ATOM      7  C   UNL     1      35.288  44.208  46.884  1.00  0.00     0.073 C 
ATOM      8  O   UNL     1      36.350  43.563  46.677  1.00  0.00    -0.545 OA
ATOM      9  O   UNL     1      35.101  44.821  48.117  1.00  0.00    -0.545 OA
ENDBRANCH   1   7
TORSDOF 1
ENDMDL
MODEL 4
REMARK VINA RESULT:    -4.449      3.580      4.296
REMARK INTER + INTRA:          -4.729
REMARK INTER:                  -4.708
REMARK INTRA:                  -0.021
REMARK UNBOUND:                -0.020
REMARK SMILES O=C([O-])c1cccnc1
REMARK SMILES IDX 4 1 5 2 9 3 6 4 8 5 7 6 2 7 1 8 3 9
REMARK H PARENT
REMARK Flexibility Score: inf
ROOT
ATOM      1  C   UNL     1      35.489  43.584  47.181  1.00  0.00     0.016 A 
ATOM      2  C   UNL     1      36.617  42.790  46.921  1.00  0.00     0.013 A 
ATOM      3  C   UNL     1      35.149  43.844  48.521  1.00  0.00     0.120 A 
ATOM      4  C   UNL     1      37.372  42.276  47.977  1.00  0.00     0.021 A 
ATOM      5  N   UNL     1      35.902  43.331  49.531  1.00  0.00    -0.264 NA
ATOM      6  C   UNL     1      36.994  42.561  49.289  1.00  0.00     0.111 A 
ENDROOT
BRANCH   1   7
ATOM      7  C   UNL     1      34.681  44.134  46.070  1.00  0.00     0.073 C 
ATOM      8  O   UNL     1      35.238  44.562  45.024  1.00  0.00    -0.545 OA
ATOM      9  O   UNL     1      33.296  44.185  46.166  1.00  0.00    -0.545 OA
ENDBRANCH   1   7
TORSDOF 1
ENDMDL
MODEL 5
REMARK VINA RESULT:    -4.449      5.452      6.485
REMARK INTER + INTRA:          -4.729
REMARK INTER:                  -4.709
REMARK INTRA:                  -0.020
REMARK UNBOUND:                -0.020
REMARK SMILES O=C([O-])c1cccnc1
REMARK SMILES IDX 4 1 5 2 9 3 6 4 8 5 7 6 2 7 1 8 3 9
REMARK H PARENT
REMARK Flexibility Score: inf
ROOT
ATOM      1  C   UNL     1      33.754  44.506  44.948  1.00  0.00     0.016 A 
ATOM      2  C   UNL     1      35.148  44.574  45.103  1.00  0.00     0.013 A 
ATOM      3  C   UNL     1      32.974  44.152  46.063  1.00  0.00     0.120 A 
ATOM      4  C   UNL     1      35.731  44.294  46.339  1.00  0.00     0.021 A 
ATOM      5  N   UNL     1      33.568  43.884  47.258  1.00  0.00    -0.264 NA
ATOM      6  C   UNL     1      34.916  43.947  47.417  1.00  0.00     0.111 A 
ENDROOT
BRANCH   1   7
ATOM      7  C   UNL     1      33.125  44.800  43.642  1.00  0.00     0.073 C 
ATOM      8  O   UNL     1      33.516  45.777  42.948  1.00  0.00    -0.545 OA
ATOM      9  O   UNL     1      32.093  44.002  43.162  1.00  0.00    -0.545 OA
ENDBRANCH   1   7
TORSDOF 1
ENDMDL
MODEL 6
REMARK VINA RESULT:    -4.325      4.621      5.647
REMARK INTER + INTRA:          -4.598
REMARK INTER:                  -4.581
REMARK INTRA:                  -0.017
REMARK UNBOUND:                -0.020
REMARK SMILES O=C([O-])c1cccnc1
REMARK SMILES IDX 4 1 5 2 9 3 6 4 8 5 7 6 2 7 1 8 3 9
REMARK H PARENT
REMARK Flexibility Score: inf
ROOT
ATOM      1  C   UNL     1      33.589  43.829  46.448  1.00  0.00     0.016 A 
ATOM      2  C   UNL     1      34.512  44.486  45.617  1.00  0.00     0.013 A 
ATOM      3  C   UNL     1      34.068  42.846  47.332  1.00  0.00     0.120 A 
ATOM      4  C   UNL     1      35.867  44.159  45.679  1.00  0.00     0.021 A 
ATOM      5  N   UNL     1      35.394  42.547  47.372  1.00  0.00    -0.264 NA
ATOM      6  C   UNL     1      36.294  43.176  46.572  1.00  0.00     0.111 A 
ENDROOT
BRANCH   1   7
ATOM      7  C   UNL     1      32.150  44.167  46.391  1.00  0.00     0.073 C 
ATOM      8  O   UNL     1      31.597  44.774  47.347  1.00  0.00    -0.545 OA
ATOM      9  O   UNL     1      31.389  43.819  45.282  1.00  0.00    -0.545 OA
ENDBRANCH   1   7
TORSDOF 1
ENDMDL
MODEL 7
REMARK VINA RESULT:    -4.213      2.628      3.592
REMARK INTER + INTRA:          -4.479
REMARK INTER:                  -4.458
REMARK INTRA:                  -0.021
REMARK UNBOUND:                -0.020
REMARK SMILES O=C([O-])c1cccnc1
REMARK SMILES IDX 4 1 5 2 9 3 6 4 8 5 7 6 2 7 1 8 3 9
REMARK H PARENT
REMARK Flexibility Score: inf
ROOT
ATOM      1  C   UNL     1      35.330  43.438  47.128  1.00  0.00     0.016 A 
ATOM      2  C   UNL     1      33.929  43.404  47.217  1.00  0.00     0.013 A 
ATOM      3  C   UNL     1      35.914  44.015  45.986  1.00  0.00     0.120 A 
ATOM      4  C   UNL     1      33.149  43.934  46.188  1.00  0.00     0.021 A 
ATOM      5  N   UNL     1      35.130  44.524  44.998  1.00  0.00    -0.264 NA
ATOM      6  C   UNL     1      33.774  44.495  45.075  1.00  0.00     0.111 A 
ENDROOT
BRANCH   1   7
ATOM      7  C   UNL     1      36.168  42.879  48.212  1.00  0.00     0.073 C 
ATOM      8  O   UNL     1      35.812  42.986  49.416  1.00  0.00    -0.545 OA
ATOM      9  O   UNL     1      37.360  42.230  47.916  1.00  0.00    -0.545 OA
ENDBRANCH   1   7
TORSDOF 1
ENDMDL
MODEL 8
REMARK VINA RESULT:    -4.165      3.166      4.089
REMARK INTER + INTRA:          -4.429
REMARK INTER:                  -4.411
REMARK INTRA:                  -0.018
REMARK UNBOUND:                -0.020
REMARK SMILES O=C([O-])c1cccnc1
REMARK SMILES IDX 4 1 5 2 9 3 6 4 8 5 7 6 2 7 1 8 3 9
REMARK H PARENT
REMARK Flexibility Score: inf
ROOT
ATOM      1  C   UNL     1      35.591  42.955  48.544  1.00  0.00     0.016 A 
ATOM      2  C   UNL     1      35.789  43.012  49.933  1.00  0.00     0.013 A 
ATOM      3  C   UNL     1      36.667  42.552  47.732  1.00  0.00     0.120 A 
ATOM      4  C   UNL     1      37.029  42.676  50.479  1.00  0.00     0.021 A 
ATOM      5  N   UNL     1      37.865  42.230  48.290  1.00  0.00    -0.264 NA
ATOM      6  C   UNL     1      38.065  42.282  49.633  1.00  0.00     0.111 A 
ENDROOT
BRANCH   1   7
ATOM      7  C   UNL     1      34.283  43.310  47.953  1.00  0.00     0.073 C 
ATOM      8  O   UNL     1      33.663  42.487  47.229  1.00  0.00    -0.545 OA
ATOM      9  O   UNL     1      33.719  44.558  48.190  1.00  0.00    -0.545 OA
ENDBRANCH   1   7
TORSDOF 1
ENDMDL
MODEL 9
REMARK VINA RESULT:    -4.062      3.598      4.526
REMARK INTER + INTRA:          -4.320
REMARK INTER:                  -4.303
REMARK INTRA:                  -0.017
REMARK UNBOUND:                -0.020
REMARK SMILES O=C([O-])c1cccnc1
REMARK SMILES IDX 4 1 5 2 9 3 6 4 8 5 7 6 2 7 1 8 3 9
REMARK H PARENT
REMARK Flexibility Score: inf
ROOT
ATOM      1  C   UNL     1      35.104  44.184  48.139  1.00  0.00     0.016 A 
ATOM      2  C   UNL     1      34.770  45.283  48.946  1.00  0.00     0.013 A 
ATOM      3  C   UNL     1      35.802  43.112  48.725  1.00  0.00     0.120 A 
ATOM      4  C   UNL     1      35.129  45.299  50.294  1.00  0.00     0.021 A 
ATOM      5  N   UNL     1      36.140  43.153  50.042  1.00  0.00    -0.264 NA
ATOM      6  C   UNL     1      35.821  44.213  50.830  1.00  0.00     0.111 A 
ENDROOT
BRANCH   1   7
ATOM      7  C   UNL     1      34.729  44.156  46.708  1.00  0.00     0.073 C 
ATOM      8  O   UNL     1      35.616  44.153  45.814  1.00  0.00    -0.545 OA
ATOM      9  O   UNL     1      33.392  44.134  46.332  1.00  0.00    -0.545 OA
ENDBRANCH   1   7
TORSDOF 1
ENDMDL
