MODEL 1
REMARK VINA RESULT:    25.776      0.000      0.000
REMARK INTER + INTRA:          30.634
REMARK INTER:                  31.050
REMARK INTRA:                  -0.417
REMARK UNBOUND:                -0.417
REMARK SMILES O=c1c(O)c(-c2ccc(O)cc2O)oc2cc(O)cc(O)c12
REMARK SMILES IDX 5 1 3 2 2 3 1 4 22 5 20 6 19 7 17 8 16 9 15 10 14 11 6 12
REMARK SMILES IDX 8 13 7 14 9 15 11 16 12 17 10 18 13 20 4 22 21 24 18 26
REMARK H PARENT 10 19 13 21 4 23 21 25 18 27
REMARK Flexibility Score: inf
ROOT
ATOM      1  C   UNL     1      -5.964  -7.250  16.402  1.00  0.00     0.184 A 
ATOM      2  C   UNL     1      -5.587  -8.143  17.418  1.00  0.00     0.208 A 
ATOM      3  C   UNL     1      -5.980  -9.488  17.324  1.00  0.00     0.238 A 
ATOM      4  O   UNL     1      -5.591 -10.295  18.208  1.00  0.00    -0.285 OA
ATOM      5  C   UNL     1      -6.760  -9.918  16.223  1.00  0.00     0.111 A 
ATOM      6  C   UNL     1      -7.248 -11.248  16.046  1.00  0.00     0.134 A 
ATOM      7  C   UNL     1      -7.903 -11.590  14.856  1.00  0.00     0.093 A 
ATOM      8  C   UNL     1      -8.146 -10.636  13.868  1.00  0.00     0.123 A 
ATOM      9  C   UNL     1      -7.726  -9.320  14.057  1.00  0.00     0.094 A 
ATOM     10  C   UNL     1      -7.037  -8.956  15.217  1.00  0.00     0.146 A 
ATOM     11  O   UNL     1      -6.645  -7.695  15.353  1.00  0.00    -0.451 OA
ENDROOT
BRANCH   1  12
ATOM     12  C   UNL     1      -5.605  -5.814  16.451  1.00  0.00     0.063 A 
ATOM     13  C   UNL     1      -3.969  -4.037  16.147  1.00  0.00     0.047 A 
ATOM     14  C   UNL     1      -4.318  -5.387  16.075  1.00  0.00     0.020 A 
ATOM     15  C   UNL     1      -4.893  -3.094  16.604  1.00  0.00     0.119 A 
ATOM     16  C   UNL     1      -6.174  -3.509  16.994  1.00  0.00     0.093 A 
ATOM     17  C   UNL     1      -6.533  -4.863  16.922  1.00  0.00     0.130 A 
BRANCH  15  18
ATOM     18  O   UNL     1      -4.531  -1.750  16.671  1.00  0.00    -0.508 OA
ATOM     19  H   UNL     1      -4.087  -1.282  15.890  1.00  0.00     0.293 HD
ENDBRANCH  15  18
BRANCH  17  20
ATOM     20  O   UNL     1      -7.813  -5.262  17.307  1.00  0.00    -0.507 OA
ATOM     21  H   UNL     1      -8.621  -5.101  16.716  1.00  0.00     0.293 HD
ENDBRANCH  17  20
ENDBRANCH   1  12
BRANCH   2  22
ATOM     22  O   UNL     1      -4.804  -7.698  18.487  1.00  0.00    -0.502 OA
ATOM     23  H   UNL     1      -5.143  -7.688  19.442  1.00  0.00     0.293 HD
ENDBRANCH   2  22
BRANCH   6  24
ATOM     24  O   UNL     1      -7.140 -12.254  17.010  1.00  0.00    -0.507 OA
ATOM     25  H   UNL     1      -7.675 -12.292  17.864  1.00  0.00     0.293 HD
ENDBRANCH   6  24
BRANCH   8  26
ATOM     26  O   UNL     1      -8.814 -11.008  12.704  1.00  0.00    -0.508 OA
ATOM     27  H   UNL     1      -9.545 -10.432  12.305  1.00  0.00     0.293 HD
ENDBRANCH   8  26
TORSDOF 6
ENDMDL
MODEL 2
REMARK VINA RESULT:    26.566      1.196      2.817
REMARK INTER + INTRA:          31.585
REMARK INTER:                  31.913
REMARK INTRA:                  -0.328
REMARK UNBOUND:                -0.417
REMARK SMILES O=c1c(O)c(-c2ccc(O)cc2O)oc2cc(O)cc(O)c12
REMARK SMILES IDX 5 1 3 2 2 3 1 4 22 5 20 6 19 7 17 8 16 9 15 10 14 11 6 12
REMARK SMILES IDX 8 13 7 14 9 15 11 16 12 17 10 18 13 20 4 22 21 24 18 26
REMARK H PARENT 10 19 13 21 4 23 21 25 18 27
REMARK Flexibility Score: inf
ROOT
ATOM      1  C   UNL     1      -6.290  -7.319  15.804  1.00  0.00     0.184 A 
ATOM      2  C   UNL     1      -7.171  -7.522  14.729  1.00  0.00     0.208 A 
ATOM      3  C   UNL     1      -7.610  -8.825  14.443  1.00  0.00     0.238 A 
ATOM      4  O   UNL     1      -8.443  -8.992  13.515  1.00  0.00    -0.285 OA
ATOM      5  C   UNL     1      -7.148  -9.911  15.226  1.00  0.00     0.111 A 
ATOM      6  C   UNL     1      -7.496 -11.277  15.002  1.00  0.00     0.134 A 
ATOM      7  C   UNL     1      -7.081 -12.253  15.916  1.00  0.00     0.093 A 
ATOM      8  C   UNL     1      -6.278 -11.923  17.008  1.00  0.00     0.123 A 
ATOM      9  C   UNL     1      -5.883 -10.600  17.203  1.00  0.00     0.094 A 
ATOM     10  C   UNL     1      -6.311  -9.597  16.329  1.00  0.00     0.146 A 
ATOM     11  O   UNL     1      -5.922  -8.349  16.556  1.00  0.00    -0.451 OA
ENDROOT
BRANCH   1  12
ATOM     12  C   UNL     1      -5.768  -5.975  16.144  1.00  0.00     0.063 A 
ATOM     13  C   UNL     1      -3.916  -4.402  16.272  1.00  0.00     0.047 A 
ATOM     14  C   UNL     1      -4.415  -5.660  15.927  1.00  0.00     0.020 A 
ATOM     15  C   UNL     1      -4.754  -3.445  16.848  1.00  0.00     0.119 A 
ATOM     16  C   UNL     1      -6.101  -3.752  17.081  1.00  0.00     0.093 A 
ATOM     17  C   UNL     1      -6.611  -5.012  16.735  1.00  0.00     0.130 A 
BRANCH  15  18
ATOM     18  O   UNL     1      -4.241  -2.195  17.188  1.00  0.00    -0.508 OA
ATOM     19  H   UNL     1      -4.662  -1.339  16.847  1.00  0.00     0.293 HD
ENDBRANCH  15  18
BRANCH  17  20
ATOM     20  O   UNL     1      -7.956  -5.303  16.966  1.00  0.00    -0.507 OA
ATOM     21  H   UNL     1      -8.677  -5.056  16.297  1.00  0.00     0.293 HD
ENDBRANCH  17  20
ENDBRANCH   1  12
BRANCH   2  22
ATOM     22  O   UNL     1      -7.624  -6.433  13.979  1.00  0.00    -0.502 OA
ATOM     23  H   UNL     1      -7.744  -6.476  12.974  1.00  0.00     0.293 HD
ENDBRANCH   2  22
BRANCH   6  24
ATOM     24  O   UNL     1      -8.217 -11.727  13.894  1.00  0.00    -0.507 OA
ATOM     25  H   UNL     1      -8.597 -12.656  13.793  1.00  0.00     0.293 HD
ENDBRANCH   6  24
BRANCH   8  26
ATOM     26  O   UNL     1      -5.871 -12.923  17.888  1.00  0.00    -0.508 OA
ATOM     27  H   UNL     1      -6.479 -13.261  18.624  1.00  0.00     0.293 HD
ENDBRANCH   8  26
TORSDOF 6
ENDMDL
MODEL 3
REMARK VINA RESULT:    26.795      1.546      3.237
REMARK INTER + INTRA:          31.860
REMARK INTER:                  32.281
REMARK INTRA:                  -0.421
REMARK UNBOUND:                -0.417
REMARK SMILES O=c1c(O)c(-c2ccc(O)cc2O)oc2cc(O)cc(O)c12
REMARK SMILES IDX 5 1 3 2 2 3 1 4 22 5 20 6 19 7 17 8 16 9 15 10 14 11 6 12
REMARK SMILES IDX 8 13 7 14 9 15 11 16 12 17 10 18 13 20 4 22 21 24 18 26
REMARK H PARENT 10 19 13 21 4 23 21 25 18 27
REMARK Flexibility Score: inf
ROOT
ATOM      1  C   UNL     1      -6.524  -7.616  15.815  1.00  0.00     0.184 A 
ATOM      2  C   UNL     1      -7.266  -7.892  14.656  1.00  0.00     0.208 A 
ATOM      3  C   UNL     1      -7.517  -9.230  14.310  1.00  0.00     0.238 A 
ATOM      4  O   UNL     1      -8.231  -9.470  13.301  1.00  0.00    -0.285 OA
ATOM      5  C   UNL     1      -7.006 -10.274  15.118  1.00  0.00     0.111 A 
ATOM      6  C   UNL     1      -7.165 -11.665  14.841  1.00  0.00     0.134 A 
ATOM      7  C   UNL     1      -6.725 -12.610  15.777  1.00  0.00     0.093 A 
ATOM      8  C   UNL     1      -6.076 -12.216  16.947  1.00  0.00     0.123 A 
ATOM      9  C   UNL     1      -5.863 -10.861  17.200  1.00  0.00     0.094 A 
ATOM     10  C   UNL     1      -6.322  -9.893  16.302  1.00  0.00     0.146 A 
ATOM     11  O   UNL     1      -6.109  -8.614  16.585  1.00  0.00    -0.451 OA
ENDROOT
BRANCH   1  12
ATOM     12  C   UNL     1      -6.201  -6.229  16.225  1.00  0.00     0.063 A 
ATOM     13  C   UNL     1      -6.907  -4.070  17.099  1.00  0.00     0.047 A 
ATOM     14  C   UNL     1      -7.204  -5.386  16.738  1.00  0.00     0.020 A 
ATOM     15  C   UNL     1      -5.612  -3.572  16.944  1.00  0.00     0.119 A 
ATOM     16  C   UNL     1      -4.608  -4.398  16.421  1.00  0.00     0.093 A 
ATOM     17  C   UNL     1      -4.897  -5.721  16.059  1.00  0.00     0.130 A 
BRANCH  15  18
ATOM     18  O   UNL     1      -5.332  -2.256  17.308  1.00  0.00    -0.508 OA
ATOM     19  H   UNL     1      -4.641  -2.038  18.016  1.00  0.00     0.293 HD
ENDBRANCH  15  18
BRANCH  17  20
ATOM     20  O   UNL     1      -3.887  -6.536  15.545  1.00  0.00    -0.507 OA
ATOM     21  H   UNL     1      -3.809  -7.514  15.803  1.00  0.00     0.293 HD
ENDBRANCH  17  20
ENDBRANCH   1  12
BRANCH   2  22
ATOM     22  O   UNL     1      -7.772  -6.844  13.881  1.00  0.00    -0.502 OA
ATOM     23  H   UNL     1      -8.756  -6.603  13.869  1.00  0.00     0.293 HD
ENDBRANCH   2  22
BRANCH   6  24
ATOM     24  O   UNL     1      -7.717 -12.168  13.660  1.00  0.00    -0.507 OA
ATOM     25  H   UNL     1      -7.762 -11.666  12.786  1.00  0.00     0.293 HD
ENDBRANCH   6  24
BRANCH   8  26
ATOM     26  O   UNL     1      -5.640 -13.184  17.849  1.00  0.00    -0.508 OA
ATOM     27  H   UNL     1      -4.780 -13.071  18.373  1.00  0.00     0.293 HD
ENDBRANCH   8  26
TORSDOF 6
ENDMDL
