MODEL 1
REMARK VINA RESULT:    -4.783      0.000      0.000
REMARK INTER + INTRA:          -6.863
REMARK INTER:                  -6.461
REMARK INTRA:                  -0.402
REMARK UNBOUND:                -0.402
REMARK SMILES CCCCCCC=CC(=O)[O-]
REMARK SMILES IDX 5 1 6 2 7 3 8 4 9 5 10 6 11 7 4 8 3 9 2 10 1 11
REMARK H PARENT
REMARK Flexibility Score: inf
ROOT
ATOM      1  C   UNL     1      14.612  16.847  27.754  1.00  0.00     0.004 C 
ENDROOT
BRANCH   1   2
ATOM      2  C   UNL     1      13.567  15.745  27.995  1.00  0.00     0.027 C 
BRANCH   2   3
ATOM      3  C   UNL     1      13.722  15.094  29.341  1.00  0.00    -0.025 C 
ATOM      4  C   UNL     1      14.767  14.309  29.623  1.00  0.00     0.020 C 
BRANCH   4   5
ATOM      5  C   UNL     1      14.933  13.654  30.931  1.00  0.00     0.064 C 
ATOM      6  O   UNL     1      14.388  14.122  31.966  1.00  0.00    -0.545 OA
ATOM      7  O   UNL     1      15.703  12.503  31.025  1.00  0.00    -0.545 OA
ENDBRANCH   4   5
ENDBRANCH   2   3
ENDBRANCH   1   2
BRANCH   1   8
ATOM      8  C   UNL     1      14.882  17.070  26.257  1.00  0.00     0.000 C 
BRANCH   8   9
ATOM      9  C   UNL     1      13.700  16.640  25.373  1.00  0.00    -0.000 C 
BRANCH   9  10
ATOM     10  C   UNL     1      12.856  17.830  24.894  1.00  0.00    -0.003 C 
ATOM     11  C   UNL     1      11.487  17.838  25.568  1.00  0.00     0.004 C 
ENDBRANCH   9  10
ENDBRANCH   8   9
ENDBRANCH   1   8
TORSDOF 6
ENDMDL
MODEL 2
REMARK VINA RESULT:    -4.764      1.141      1.941
REMARK INTER + INTRA:          -6.837
REMARK INTER:                  -6.579
REMARK INTRA:                  -0.257
REMARK UNBOUND:                -0.402
REMARK SMILES CCCCCCC=CC(=O)[O-]
REMARK SMILES IDX 5 1 6 2 7 3 8 4 9 5 10 6 11 7 4 8 3 9 2 10 1 11
REMARK H PARENT
REMARK Flexibility Score: inf
ROOT
ATOM      1  C   UNL     1      13.407  17.241  27.617  1.00  0.00     0.004 C 
ENDROOT
BRANCH   1   2
ATOM      2  C   UNL     1      14.923  17.012  27.734  1.00  0.00     0.027 C 
BRANCH   2   3
ATOM      3  C   UNL     1      15.260  15.841  28.614  1.00  0.00    -0.025 C 
ATOM      4  C   UNL     1      14.306  15.092  29.178  1.00  0.00     0.020 C 
BRANCH   4   5
ATOM      5  C   UNL     1      14.614  13.947  30.050  1.00  0.00     0.064 C 
ATOM      6  O   UNL     1      14.978  12.841  29.567  1.00  0.00    -0.545 OA
ATOM      7  O   UNL     1      14.500  14.087  31.427  1.00  0.00    -0.545 OA
ENDBRANCH   4   5
ENDBRANCH   2   3
ENDBRANCH   1   2
BRANCH   1   8
ATOM      8  C   UNL     1      12.977  17.539  26.171  1.00  0.00     0.000 C 
BRANCH   8   9
ATOM      9  C   UNL     1      11.526  18.038  26.077  1.00  0.00    -0.000 C 
BRANCH   9  10
ATOM     10  C   UNL     1      10.869  17.696  24.732  1.00  0.00    -0.003 C 
ATOM     11  C   UNL     1      11.709  16.690  23.951  1.00  0.00     0.004 C 
ENDBRANCH   9  10
ENDBRANCH   8   9
ENDBRANCH   1   8
TORSDOF 6
ENDMDL
MODEL 3
REMARK VINA RESULT:    -4.731      3.753      6.110
REMARK INTER + INTRA:          -6.792
REMARK INTER:                  -6.513
REMARK INTRA:                  -0.279
REMARK UNBOUND:                -0.402
REMARK SMILES CCCCCCC=CC(=O)[O-]
REMARK SMILES IDX 5 1 6 2 7 3 8 4 9 5 10 6 11 7 4 8 3 9 2 10 1 11
REMARK H PARENT
REMARK Flexibility Score: inf
ROOT
ATOM      1  C   UNL     1      14.736  15.529  28.083  1.00  0.00     0.004 C 
ENDROOT
BRANCH   1   2
ATOM      2  C   UNL     1      14.339  17.014  28.073  1.00  0.00     0.027 C 
BRANCH   2   3
ATOM      3  C   UNL     1      13.204  17.297  27.129  1.00  0.00    -0.025 C 
ATOM      4  C   UNL     1      12.853  16.427  26.176  1.00  0.00     0.020 C 
BRANCH   4   5
ATOM      5  C   UNL     1      11.751  16.689  25.236  1.00  0.00     0.064 C 
ATOM      6  O   UNL     1      11.595  15.983  24.203  1.00  0.00    -0.545 OA
ATOM      7  O   UNL     1      10.870  17.732  25.490  1.00  0.00    -0.545 OA
ENDBRANCH   4   5
ENDBRANCH   2   3
ENDBRANCH   1   2
BRANCH   1   8
ATOM      8  C   UNL     1      14.201  14.796  29.326  1.00  0.00     0.000 C 
BRANCH   8   9
ATOM      9  C   UNL     1      14.921  13.462  29.581  1.00  0.00    -0.000 C 
BRANCH   9  10
ATOM     10  C   UNL     1      15.214  13.223  31.069  1.00  0.00    -0.003 C 
ATOM     11  C   UNL     1      14.384  14.154  31.948  1.00  0.00     0.004 C 
ENDBRANCH   9  10
ENDBRANCH   8   9
ENDBRANCH   1   8
TORSDOF 6
ENDMDL
MODEL 4
REMARK VINA RESULT:    -4.496      1.422      2.769
REMARK INTER + INTRA:          -6.475
REMARK INTER:                  -6.135
REMARK INTRA:                  -0.340
REMARK UNBOUND:                -0.402
REMARK SMILES CCCCCCC=CC(=O)[O-]
REMARK SMILES IDX 5 1 6 2 7 3 8 4 9 5 10 6 11 7 4 8 3 9 2 10 1 11
REMARK H PARENT
REMARK Flexibility Score: inf
ROOT
ATOM      1  C   UNL     1      14.576  16.842  27.766  1.00  0.00     0.004 C 
ENDROOT
BRANCH   1   2
ATOM      2  C   UNL     1      13.580  15.695  27.998  1.00  0.00     0.027 C 
BRANCH   2   3
ATOM      3  C   UNL     1      13.729  15.073  29.358  1.00  0.00    -0.025 C 
ATOM      4  C   UNL     1      14.778  14.301  29.664  1.00  0.00     0.020 C 
BRANCH   4   5
ATOM      5  C   UNL     1      14.939  13.676  30.986  1.00  0.00     0.064 C 
ATOM      6  O   UNL     1      14.376  14.156  32.006  1.00  0.00    -0.545 OA
ATOM      7  O   UNL     1      15.726  12.538  31.112  1.00  0.00    -0.545 OA
ENDBRANCH   4   5
ENDBRANCH   2   3
ENDBRANCH   1   2
BRANCH   1   8
ATOM      8  C   UNL     1      14.764  17.150  26.271  1.00  0.00     0.000 C 
BRANCH   8   9
ATOM      9  C   UNL     1      16.235  17.403  25.901  1.00  0.00    -0.000 C 
BRANCH   9  10
ATOM     10  C   UNL     1      17.213  16.789  26.912  1.00  0.00    -0.003 C 
ATOM     11  C   UNL     1      18.638  16.790  26.366  1.00  0.00     0.004 C 
ENDBRANCH   9  10
ENDBRANCH   8   9
ENDBRANCH   1   8
TORSDOF 6
ENDMDL
MODEL 5
REMARK VINA RESULT:    -4.387      3.177      5.686
REMARK INTER + INTRA:          -6.328
REMARK INTER:                  -6.042
REMARK INTRA:                  -0.286
REMARK UNBOUND:                -0.402
REMARK SMILES CCCCCCC=CC(=O)[O-]
REMARK SMILES IDX 5 1 6 2 7 3 8 4 9 5 10 6 11 7 4 8 3 9 2 10 1 11
REMARK H PARENT
REMARK Flexibility Score: inf
ROOT
ATOM      1  C   UNL     1      13.179  15.459  29.159  1.00  0.00     0.004 C 
ENDROOT
BRANCH   1   2
ATOM      2  C   UNL     1      13.328  16.484  28.023  1.00  0.00     0.027 C 
BRANCH   2   3
ATOM      3  C   UNL     1      14.759  16.890  27.802  1.00  0.00    -0.025 C 
ATOM      4  C   UNL     1      15.356  16.730  26.616  1.00  0.00     0.020 C 
BRANCH   4   5
ATOM      5  C   UNL     1      16.758  17.113  26.381  1.00  0.00     0.064 C 
ATOM      6  O   UNL     1      17.686  16.658  27.100  1.00  0.00    -0.545 OA
ATOM      7  O   UNL     1      17.061  17.993  25.349  1.00  0.00    -0.545 OA
ENDBRANCH   4   5
ENDBRANCH   2   3
ENDBRANCH   1   2
BRANCH   1   8
ATOM      8  C   UNL     1      14.532  14.856  29.575  1.00  0.00     0.000 C 
BRANCH   8   9
ATOM      9  C   UNL     1      14.506  14.272  30.997  1.00  0.00    -0.000 C 
BRANCH   9  10
ATOM     10  C   UNL     1      15.275  12.948  31.106  1.00  0.00    -0.003 C 
ATOM     11  C   UNL     1      15.270  12.200  29.776  1.00  0.00     0.004 C 
ENDBRANCH   9  10
ENDBRANCH   8   9
ENDBRANCH   1   8
TORSDOF 6
ENDMDL
MODEL 6
REMARK VINA RESULT:    -4.000      3.457      6.089
REMARK INTER + INTRA:          -5.805
REMARK INTER:                  -5.522
REMARK INTRA:                  -0.283
REMARK UNBOUND:                -0.402
REMARK SMILES CCCCCCC=CC(=O)[O-]
REMARK SMILES IDX 5 1 6 2 7 3 8 4 9 5 10 6 11 7 4 8 3 9 2 10 1 11
REMARK H PARENT
REMARK Flexibility Score: inf
ROOT
ATOM      1  C   UNL     1      13.657  15.024  29.537  1.00  0.00     0.004 C 
ENDROOT
BRANCH   1   2
ATOM      2  C   UNL     1      14.913  15.604  28.867  1.00  0.00     0.027 C 
BRANCH   2   3
ATOM      3  C   UNL     1      14.614  16.234  27.536  1.00  0.00    -0.025 C 
ATOM      4  C   UNL     1      13.446  16.037  26.915  1.00  0.00     0.020 C 
BRANCH   4   5
ATOM      5  C   UNL     1      13.136  16.637  25.607  1.00  0.00     0.064 C 
ATOM      6  O   UNL     1      13.327  16.001  24.537  1.00  0.00    -0.545 OA
ATOM      7  O   UNL     1      12.627  17.928  25.553  1.00  0.00    -0.545 OA
ENDBRANCH   4   5
ENDBRANCH   2   3
ENDBRANCH   1   2
BRANCH   1   8
ATOM      8  C   UNL     1      13.910  14.637  31.004  1.00  0.00     0.000 C 
BRANCH   8   9
ATOM      9  C   UNL     1      15.292  13.999  31.217  1.00  0.00    -0.000 C 
BRANCH   9  10
ATOM     10  C   UNL     1      15.260  12.468  31.104  1.00  0.00    -0.003 C 
ATOM     11  C   UNL     1      15.318  12.024  29.645  1.00  0.00     0.004 C 
ENDBRANCH   9  10
ENDBRANCH   8   9
ENDBRANCH   1   8
TORSDOF 6
ENDMDL
MODEL 7
REMARK VINA RESULT:    -3.994      4.177      5.386
REMARK INTER + INTRA:          -5.796
REMARK INTER:                  -5.212
REMARK INTRA:                  -0.584
REMARK UNBOUND:                -0.402
REMARK SMILES CCCCCCC=CC(=O)[O-]
REMARK SMILES IDX 5 1 6 2 7 3 8 4 9 5 10 6 11 7 4 8 3 9 2 10 1 11
REMARK H PARENT
REMARK Flexibility Score: inf
ROOT
ATOM      1  C   UNL     1      14.456  15.763  28.451  1.00  0.00     0.004 C 
ENDROOT
BRANCH   1   2
ATOM      2  C   UNL     1      13.016  15.524  27.967  1.00  0.00     0.027 C 
BRANCH   2   3
ATOM      3  C   UNL     1      12.617  16.470  26.868  1.00  0.00    -0.025 C 
ATOM      4  C   UNL     1      12.126  16.025  25.706  1.00  0.00     0.020 C 
BRANCH   4   5
ATOM      5  C   UNL     1      11.737  16.934  24.615  1.00  0.00     0.064 C 
ATOM      6  O   UNL     1      12.397  16.984  23.543  1.00  0.00    -0.545 OA
ATOM      7  O   UNL     1      10.624  17.750  24.771  1.00  0.00    -0.545 OA
ENDBRANCH   4   5
ENDBRANCH   2   3
ENDBRANCH   1   2
BRANCH   1   8
ATOM      8  C   UNL     1      15.109  16.966  27.749  1.00  0.00     0.000 C 
BRANCH   8   9
ATOM      9  C   UNL     1      16.481  16.624  27.146  1.00  0.00    -0.000 C 
BRANCH   9  10
ATOM     10  C   UNL     1      16.786  17.431  25.876  1.00  0.00    -0.003 C 
ATOM     11  C   UNL     1      15.507  17.751  25.108  1.00  0.00     0.004 C 
ENDBRANCH   9  10
ENDBRANCH   8   9
ENDBRANCH   1   8
TORSDOF 6
ENDMDL
MODEL 8
REMARK VINA RESULT:    -3.921      3.963      4.773
REMARK INTER + INTRA:          -5.697
REMARK INTER:                  -5.427
REMARK INTRA:                  -0.270
REMARK UNBOUND:                -0.402
REMARK SMILES CCCCCCC=CC(=O)[O-]
REMARK SMILES IDX 5 1 6 2 7 3 8 4 9 5 10 6 11 7 4 8 3 9 2 10 1 11
REMARK H PARENT
REMARK Flexibility Score: inf
ROOT
ATOM      1  C   UNL     1      13.864  16.217  27.009  1.00  0.00     0.004 C 
ENDROOT
BRANCH   1   2
ATOM      2  C   UNL     1      15.198  16.575  27.684  1.00  0.00     0.027 C 
BRANCH   2   3
ATOM      3  C   UNL     1      16.249  16.988  26.692  1.00  0.00    -0.025 C 
ATOM      4  C   UNL     1      17.544  16.720  26.892  1.00  0.00     0.020 C 
BRANCH   4   5
ATOM      5  C   UNL     1      18.589  17.124  25.938  1.00  0.00     0.064 C 
ATOM      6  O   UNL     1      19.811  16.999  26.220  1.00  0.00    -0.545 OA
ATOM      7  O   UNL     1      18.222  17.652  24.707  1.00  0.00    -0.545 OA
ENDBRANCH   4   5
ENDBRANCH   2   3
ENDBRANCH   1   2
BRANCH   1   8
ATOM      8  C   UNL     1      13.429  17.281  25.987  1.00  0.00     0.000 C 
BRANCH   8   9
ATOM      9  C   UNL     1      12.018  17.824  26.265  1.00  0.00    -0.000 C 
BRANCH   9  10
ATOM     10  C   UNL     1      11.125  17.817  25.015  1.00  0.00    -0.003 C 
ATOM     11  C   UNL     1      11.573  16.744  24.028  1.00  0.00     0.004 C 
ENDBRANCH   9  10
ENDBRANCH   8   9
ENDBRANCH   1   8
TORSDOF 6
ENDMDL
MODEL 9
REMARK VINA RESULT:    -3.799      4.340      6.519
REMARK INTER + INTRA:          -5.534
REMARK INTER:                  -5.252
REMARK INTRA:                  -0.282
REMARK UNBOUND:                -0.402
REMARK SMILES CCCCCCC=CC(=O)[O-]
REMARK SMILES IDX 5 1 6 2 7 3 8 4 9 5 10 6 11 7 4 8 3 9 2 10 1 11
REMARK H PARENT
REMARK Flexibility Score: inf
ROOT
ATOM      1  C   UNL     1      15.658  16.987  26.565  1.00  0.00     0.004 C 
ENDROOT
BRANCH   1   2
ATOM      2  C   UNL     1      15.227  17.790  25.327  1.00  0.00     0.027 C 
BRANCH   2   3
ATOM      3  C   UNL     1      13.801  17.519  24.937  1.00  0.00    -0.025 C 
ATOM      4  C   UNL     1      13.235  18.125  23.887  1.00  0.00     0.020 C 
BRANCH   4   5
ATOM      5  C   UNL     1      11.838  17.880  23.493  1.00  0.00     0.064 C 
ATOM      6  O   UNL     1      11.512  17.778  22.281  1.00  0.00    -0.545 OA
ATOM      7  O   UNL     1      10.863  17.762  24.475  1.00  0.00    -0.545 OA
ENDBRANCH   4   5
ENDBRANCH   2   3
ENDBRANCH   1   2
BRANCH   1   8
ATOM      8  C   UNL     1      14.549  16.041  27.055  1.00  0.00     0.000 C 
BRANCH   8   9
ATOM      9  C   UNL     1      14.175  16.282  28.527  1.00  0.00    -0.000 C 
BRANCH   9  10
ATOM     10  C   UNL     1      13.749  14.995  29.247  1.00  0.00    -0.003 C 
ATOM     11  C   UNL     1      14.831  14.525  30.216  1.00  0.00     0.004 C 
ENDBRANCH   9  10
ENDBRANCH   8   9
ENDBRANCH   1   8
TORSDOF 6
ENDMDL
