MODEL 1
REMARK VINA RESULT:    -3.684      0.000      0.000
REMARK INTER + INTRA:          -4.066
REMARK INTER:                  -3.899
REMARK INTRA:                  -0.166
REMARK UNBOUND:                -0.166
REMARK SMILES CC(C)[C@H]1CC[C@H](C)CC1=O
REMARK SMILES IDX 8 1 7 2 6 3 5 4 4 5 10 6 11 7 9 8 2 9 1 10 3 11
REMARK H PARENT
REMARK Flexibility Score: inf
ROOT
ATOM      1  C   UNL     1       5.720   4.378   5.777  1.00  0.00     0.008 C 
ATOM      2  C   UNL     1       6.830   3.389   6.144  1.00  0.00    -0.007 C 
ATOM      3  C   UNL     1       6.227   2.057   6.637  1.00  0.00     0.004 C 
ATOM      4  C   UNL     1       7.337   1.076   7.041  1.00  0.00     0.012 C 
ATOM      5  C   UNL     1       8.283   0.773   5.857  1.00  0.00     0.058 C 
ATOM      6  C   UNL     1       8.772   2.081   5.252  1.00  0.00     0.136 C 
ATOM      7  O   UNL     1       9.936   2.241   4.919  1.00  0.00    -0.299 OA
ATOM      8  C   UNL     1       7.762   3.154   4.942  1.00  0.00     0.079 C 
ENDROOT
BRANCH   5   9
ATOM      9  C   UNL     1       9.391  -0.254   6.255  1.00  0.00    -0.007 C 
ATOM     10  C   UNL     1       9.292  -0.663   7.734  1.00  0.00     0.008 C 
ATOM     11  C   UNL     1       9.456  -1.500   5.353  1.00  0.00     0.008 C 
ENDBRANCH   5   9
TORSDOF 1
ENDMDL
MODEL 2
REMARK VINA RESULT:    -3.658     11.963     12.815
REMARK INTER + INTRA:          -4.038
REMARK INTER:                  -3.891
REMARK INTRA:                  -0.147
REMARK UNBOUND:                -0.166
REMARK SMILES CC(C)[C@H]1CC[C@H](C)CC1=O
REMARK SMILES IDX 8 1 7 2 6 3 5 4 4 5 10 6 11 7 9 8 2 9 1 10 3 11
REMARK H PARENT
REMARK Flexibility Score: inf
ROOT
ATOM      1  C   UNL     1       1.784   9.942  -1.947  1.00  0.00     0.008 C 
ATOM      2  C   UNL     1       1.081   8.998  -0.967  1.00  0.00    -0.007 C 
ATOM      3  C   UNL     1       0.630   9.763   0.294  1.00  0.00     0.004 C 
ATOM      4  C   UNL     1      -0.042   8.812   1.295  1.00  0.00     0.012 C 
ATOM      5  C   UNL     1      -1.278   8.120   0.677  1.00  0.00     0.058 C 
ATOM      6  C   UNL     1      -0.892   7.486  -0.651  1.00  0.00     0.136 C 
ATOM      7  O   UNL     1      -1.281   6.373  -0.970  1.00  0.00    -0.299 OA
ATOM      8  C   UNL     1      -0.117   8.309  -1.646  1.00  0.00     0.079 C 
ENDROOT
BRANCH   5   9
ATOM      9  C   UNL     1      -1.985   7.180   1.705  1.00  0.00    -0.007 C 
ATOM     10  C   UNL     1      -1.549   7.477   3.149  1.00  0.00     0.008 C 
ATOM     11  C   UNL     1      -3.521   7.161   1.597  1.00  0.00     0.008 C 
ENDBRANCH   5   9
TORSDOF 1
ENDMDL
MODEL 3
REMARK VINA RESULT:    -3.527     12.311     13.905
REMARK INTER + INTRA:          -3.899
REMARK INTER:                  -3.730
REMARK INTRA:                  -0.169
REMARK UNBOUND:                -0.166
REMARK SMILES CC(C)[C@H]1CC[C@H](C)CC1=O
REMARK SMILES IDX 8 1 7 2 6 3 5 4 4 5 10 6 11 7 9 8 2 9 1 10 3 11
REMARK H PARENT
REMARK Flexibility Score: inf
ROOT
ATOM      1  C   UNL     1       4.200  -8.599  -5.410  1.00  0.00     0.008 C 
ATOM      2  C   UNL     1       4.373  -7.101  -5.139  1.00  0.00    -0.007 C 
ATOM      3  C   UNL     1       5.710  -6.831  -4.420  1.00  0.00     0.004 C 
ATOM      4  C   UNL     1       5.870  -5.335  -4.114  1.00  0.00     0.012 C 
ATOM      5  C   UNL     1       5.832  -4.486  -5.404  1.00  0.00     0.058 C 
ATOM      6  C   UNL     1       4.594  -4.847  -6.212  1.00  0.00     0.136 C 
ATOM      7  O   UNL     1       3.907  -3.995  -6.753  1.00  0.00    -0.299 OA
ATOM      8  C   UNL     1       4.289  -6.302  -6.453  1.00  0.00     0.079 C 
ENDROOT
BRANCH   5   9
ATOM      9  C   UNL     1       6.031  -2.967  -5.100  1.00  0.00    -0.007 C 
ATOM     10  C   UNL     1       5.904  -2.660  -3.598  1.00  0.00     0.008 C 
ATOM     11  C   UNL     1       7.334  -2.371  -5.664  1.00  0.00     0.008 C 
ENDBRANCH   5   9
TORSDOF 1
ENDMDL
MODEL 4
REMARK VINA RESULT:    -3.510     13.957     15.294
REMARK INTER + INTRA:          -3.882
REMARK INTER:                  -3.743
REMARK INTRA:                  -0.139
REMARK UNBOUND:                -0.166
REMARK SMILES CC(C)[C@H]1CC[C@H](C)CC1=O
REMARK SMILES IDX 8 1 7 2 6 3 5 4 4 5 10 6 11 7 9 8 2 9 1 10 3 11
REMARK H PARENT
REMARK Flexibility Score: inf
ROOT
ATOM      1  C   UNL     1       1.317  -7.986  -7.973  1.00  0.00     0.008 C 
ATOM      2  C   UNL     1       2.132  -7.084  -7.042  1.00  0.00    -0.007 C 
ATOM      3  C   UNL     1       3.332  -7.855  -6.454  1.00  0.00     0.004 C 
ATOM      4  C   UNL     1       4.130  -6.964  -5.491  1.00  0.00     0.012 C 
ATOM      5  C   UNL     1       4.665  -5.700  -6.200  1.00  0.00     0.058 C 
ATOM      6  C   UNL     1       3.521  -5.002  -6.920  1.00  0.00     0.136 C 
ATOM      7  O   UNL     1       3.390  -3.788  -6.896  1.00  0.00    -0.299 OA
ATOM      8  C   UNL     1       2.606  -5.824  -7.789  1.00  0.00     0.079 C 
ENDROOT
BRANCH   5   9
ATOM      9  C   UNL     1       5.509  -4.811  -5.232  1.00  0.00    -0.007 C 
ATOM     10  C   UNL     1       5.976  -5.593  -3.993  1.00  0.00     0.008 C 
ATOM     11  C   UNL     1       6.698  -4.096  -5.899  1.00  0.00     0.008 C 
ENDBRANCH   5   9
TORSDOF 1
ENDMDL
MODEL 5
REMARK VINA RESULT:    -3.487     15.256     16.678
REMARK INTER + INTRA:          -3.857
REMARK INTER:                  -3.695
REMARK INTRA:                  -0.163
REMARK UNBOUND:                -0.166
REMARK SMILES CC(C)[C@H]1CC[C@H](C)CC1=O
REMARK SMILES IDX 8 1 7 2 6 3 5 4 4 5 10 6 11 7 9 8 2 9 1 10 3 11
REMARK H PARENT
REMARK Flexibility Score: inf
ROOT
ATOM      1  C   UNL     1       3.373  -9.241  -5.480  1.00  0.00     0.008 C 
ATOM      2  C   UNL     1       3.246  -8.069  -6.458  1.00  0.00    -0.007 C 
ATOM      3  C   UNL     1       1.773  -7.854  -6.859  1.00  0.00     0.004 C 
ATOM      4  C   UNL     1       1.647  -6.704  -7.868  1.00  0.00     0.012 C 
ATOM      5  C   UNL     1       2.190  -5.379  -7.288  1.00  0.00     0.058 C 
ATOM      6  C   UNL     1       3.593  -5.603  -6.742  1.00  0.00     0.136 C 
ATOM      7  O   UNL     1       4.492  -4.799  -6.928  1.00  0.00    -0.299 OA
ATOM      8  C   UNL     1       3.837  -6.787  -5.843  1.00  0.00     0.079 C 
ENDROOT
BRANCH   5   9
ATOM      9  C   UNL     1       2.029  -4.199  -8.299  1.00  0.00    -0.007 C 
ATOM     10  C   UNL     1       1.202  -4.605  -9.529  1.00  0.00     0.008 C 
ATOM     11  C   UNL     1       1.475  -2.903  -7.679  1.00  0.00     0.008 C 
ENDBRANCH   5   9
TORSDOF 1
ENDMDL
MODEL 6
REMARK VINA RESULT:    -3.485      1.663      4.679
REMARK INTER + INTRA:          -3.855
REMARK INTER:                  -3.688
REMARK INTRA:                  -0.167
REMARK UNBOUND:                -0.166
REMARK SMILES CC(C)[C@H]1CC[C@H](C)CC1=O
REMARK SMILES IDX 8 1 7 2 6 3 5 4 4 5 10 6 11 7 9 8 2 9 1 10 3 11
REMARK H PARENT
REMARK Flexibility Score: inf
ROOT
ATOM      1  C   UNL     1       9.445  -0.979   6.779  1.00  0.00     0.008 C 
ATOM      2  C   UNL     1       8.997   0.481   6.658  1.00  0.00    -0.007 C 
ATOM      3  C   UNL     1       8.508   0.781   5.227  1.00  0.00     0.004 C 
ATOM      4  C   UNL     1       8.093   2.253   5.092  1.00  0.00     0.012 C 
ATOM      5  C   UNL     1       6.959   2.614   6.078  1.00  0.00     0.058 C 
ATOM      6  C   UNL     1       7.355   2.184   7.483  1.00  0.00     0.136 C 
ATOM      7  O   UNL     1       7.150   2.895   8.455  1.00  0.00    -0.299 OA
ATOM      8  C   UNL     1       7.895   0.794   7.688  1.00  0.00     0.079 C 
ENDROOT
BRANCH   5   9
ATOM      9  C   UNL     1       6.509   4.101   5.918  1.00  0.00    -0.007 C 
ATOM     10  C   UNL     1       7.335   4.840   4.852  1.00  0.00     0.008 C 
ATOM     11  C   UNL     1       5.003   4.285   5.657  1.00  0.00     0.008 C 
ENDBRANCH   5   9
TORSDOF 1
ENDMDL
MODEL 7
REMARK VINA RESULT:    -3.421      1.228      4.215
REMARK INTER + INTRA:          -3.787
REMARK INTER:                  -3.632
REMARK INTRA:                  -0.156
REMARK UNBOUND:                -0.166
REMARK SMILES CC(C)[C@H]1CC[C@H](C)CC1=O
REMARK SMILES IDX 8 1 7 2 6 3 5 4 4 5 10 6 11 7 9 8 2 9 1 10 3 11
REMARK H PARENT
REMARK Flexibility Score: inf
ROOT
ATOM      1  C   UNL     1      10.020  -1.421   7.383  1.00  0.00     0.008 C 
ATOM      2  C   UNL     1       8.949  -0.476   6.830  1.00  0.00    -0.007 C 
ATOM      3  C   UNL     1       8.479   0.508   7.920  1.00  0.00     0.004 C 
ATOM      4  C   UNL     1       7.379   1.433   7.380  1.00  0.00     0.012 C 
ATOM      5  C   UNL     1       7.873   2.251   6.166  1.00  0.00     0.058 C 
ATOM      6  C   UNL     1       8.484   1.312   5.137  1.00  0.00     0.136 C 
ATOM      7  O   UNL     1       8.269   1.438   3.942  1.00  0.00    -0.299 OA
ATOM      8  C   UNL     1       9.482   0.284   5.601  1.00  0.00     0.079 C 
ENDROOT
BRANCH   5   9
ATOM      9  C   UNL     1       6.767   3.220   5.637  1.00  0.00    -0.007 C 
ATOM     10  C   UNL     1       5.610   3.373   6.638  1.00  0.00     0.008 C 
ATOM     11  C   UNL     1       7.288   4.600   5.199  1.00  0.00     0.008 C 
ENDBRANCH   5   9
TORSDOF 1
ENDMDL
MODEL 8
REMARK VINA RESULT:    -3.419     11.999     13.781
REMARK INTER + INTRA:          -3.785
REMARK INTER:                  -3.629
REMARK INTRA:                  -0.156
REMARK UNBOUND:                -0.166
REMARK SMILES CC(C)[C@H]1CC[C@H](C)CC1=O
REMARK SMILES IDX 8 1 7 2 6 3 5 4 4 5 10 6 11 7 9 8 2 9 1 10 3 11
REMARK H PARENT
REMARK Flexibility Score: inf
ROOT
ATOM      1  C   UNL     1       3.999  -8.994  -5.246  1.00  0.00     0.008 C 
ATOM      2  C   UNL     1       4.868  -7.735  -5.319  1.00  0.00    -0.007 C 
ATOM      3  C   UNL     1       4.037  -6.531  -5.807  1.00  0.00     0.004 C 
ATOM      4  C   UNL     1       4.914  -5.275  -5.916  1.00  0.00     0.012 C 
ATOM      5  C   UNL     1       5.550  -4.908  -4.557  1.00  0.00     0.058 C 
ATOM      6  C   UNL     1       6.249  -6.130  -3.978  1.00  0.00     0.136 C 
ATOM      7  O   UNL     1       7.346  -6.054  -3.448  1.00  0.00    -0.299 OA
ATOM      8  C   UNL     1       5.505  -7.439  -3.949  1.00  0.00     0.079 C 
ENDROOT
BRANCH   5   9
ATOM      9  C   UNL     1       6.414  -3.610  -4.657  1.00  0.00    -0.007 C 
ATOM     10  C   UNL     1       6.150  -2.844  -5.964  1.00  0.00     0.008 C 
ATOM     11  C   UNL     1       6.290  -2.669  -3.445  1.00  0.00     0.008 C 
ENDBRANCH   5   9
TORSDOF 1
ENDMDL
MODEL 9
REMARK VINA RESULT:    -3.351     12.961     14.420
REMARK INTER + INTRA:          -3.713
REMARK INTER:                  -3.546
REMARK INTRA:                  -0.167
REMARK UNBOUND:                -0.166
REMARK SMILES CC(C)[C@H]1CC[C@H](C)CC1=O
REMARK SMILES IDX 8 1 7 2 6 3 5 4 4 5 10 6 11 7 9 8 2 9 1 10 3 11
REMARK H PARENT
REMARK Flexibility Score: inf
ROOT
ATOM      1  C   UNL     1       2.164  -7.448  -7.198  1.00  0.00     0.008 C 
ATOM      2  C   UNL     1       3.473  -6.725  -6.863  1.00  0.00    -0.007 C 
ATOM      3  C   UNL     1       3.264  -5.197  -6.865  1.00  0.00     0.004 C 
ATOM      4  C   UNL     1       4.582  -4.469  -6.566  1.00  0.00     0.012 C 
ATOM      5  C   UNL     1       5.157  -4.879  -5.191  1.00  0.00     0.058 C 
ATOM      6  C   UNL     1       5.228  -6.397  -5.105  1.00  0.00     0.136 C 
ATOM      7  O   UNL     1       6.194  -6.970  -4.626  1.00  0.00    -0.299 OA
ATOM      8  C   UNL     1       4.018  -7.200  -5.503  1.00  0.00     0.079 C 
ENDROOT
BRANCH   5   9
ATOM      9  C   UNL     1       6.478  -4.112  -4.868  1.00  0.00    -0.007 C 
ATOM     10  C   UNL     1       6.931  -3.227  -6.040  1.00  0.00     0.008 C 
ATOM     11  C   UNL     1       6.438  -3.299  -3.561  1.00  0.00     0.008 C 
ENDBRANCH   5   9
TORSDOF 1
ENDMDL
