MODEL 1
REMARK VINA RESULT:    -4.911      0.000      0.000
REMARK INTER + INTRA:         -15.769
REMARK INTER:                 -11.228
REMARK INTRA:                  -4.541
REMARK UNBOUND:                -4.541
REMARK SMILES CCCCCCCCCCCCCCCCCCCCCCCC(=O)[O-]
REMARK SMILES IDX 13 1 14 2 15 3 16 4 17 5 18 6 19 7 20 8 21 9 22 10 23 11
REMARK SMILES IDX 24 12 25 13 26 14 12 15 11 16 10 17 9 18 8 19 7 20 6 21 5 22
REMARK SMILES IDX 4 23 3 24 2 25 1 26
REMARK H PARENT
REMARK Flexibility Score: inf
ROOT
ATOM      1  C   UNL     1      20.270  53.525  15.029  1.00  0.00     0.000 C 
ENDROOT
BRANCH   1   2
ATOM      2  C   UNL     1      19.572  52.325  15.688  1.00  0.00     0.000 C 
BRANCH   2   3
ATOM      3  C   UNL     1      19.353  52.517  17.199  1.00  0.00     0.000 C 
BRANCH   3   4
ATOM      4  C   UNL     1      20.060  53.775  17.736  1.00  0.00     0.000 C 
BRANCH   4   5
ATOM      5  C   UNL     1      19.095  54.730  18.463  1.00  0.00     0.000 C 
BRANCH   5   6
ATOM      6  C   UNL     1      19.100  56.146  17.848  1.00  0.00     0.000 C 
BRANCH   6   7
ATOM      7  C   UNL     1      20.506  56.708  17.584  1.00  0.00     0.000 C 
BRANCH   7   8
ATOM      8  C   UNL     1      20.752  57.041  16.106  1.00  0.00     0.000 C 
BRANCH   8   9
ATOM      9  C   UNL     1      22.093  56.473  15.627  1.00  0.00     0.000 C 
BRANCH   9  10
ATOM     10  C   UNL     1      23.013  56.158  16.812  1.00  0.00     0.006 C 
BRANCH  10  11
ATOM     11  C   UNL     1      23.635  54.765  16.675  1.00  0.00     0.053 C 
BRANCH  11  12
ATOM     12  C   UNL     1      25.129  54.850  16.715  1.00  0.00     0.041 C 
ATOM     13  O   UNL     1      25.824  53.800  16.687  1.00  0.00    -0.550 OA
ATOM     14  O   UNL     1      25.756  56.089  16.736  1.00  0.00    -0.550 OA
ENDBRANCH  11  12
ENDBRANCH  10  11
ENDBRANCH   9  10
ENDBRANCH   8   9
ENDBRANCH   7   8
ENDBRANCH   6   7
ENDBRANCH   5   6
ENDBRANCH   4   5
ENDBRANCH   3   4
ENDBRANCH   2   3
ENDBRANCH   1   2
BRANCH   1  15
ATOM     15  C   UNL     1      19.479  54.093  13.837  1.00  0.00     0.000 C 
BRANCH  15  16
ATOM     16  C   UNL     1      18.545  55.244  14.250  1.00  0.00     0.000 C 
BRANCH  16  17
ATOM     17  C   UNL     1      17.191  55.187  13.519  1.00  0.00     0.000 C 
BRANCH  17  18
ATOM     18  C   UNL     1      16.089  54.529  14.362  1.00  0.00    -0.000 C 
BRANCH  18  19
ATOM     19  C   UNL     1      16.479  54.384  15.845  1.00  0.00    -0.000 C 
BRANCH  19  20
ATOM     20  C   UNL     1      15.534  53.427  16.602  1.00  0.00    -0.000 C 
BRANCH  20  21
ATOM     21  C   UNL     1      14.639  54.131  17.638  1.00  0.00    -0.000 C 
BRANCH  21  22
ATOM     22  C   UNL     1      15.441  54.891  18.707  1.00  0.00    -0.000 C 
BRANCH  22  23
ATOM     23  C   UNL     1      15.235  56.412  18.621  1.00  0.00    -0.000 C 
BRANCH  23  24
ATOM     24  C   UNL     1      14.105  56.793  17.650  1.00  0.00    -0.000 C 
BRANCH  24  25
ATOM     25  C   UNL     1      14.560  57.802  16.584  1.00  0.00    -0.003 C 
ATOM     26  C   UNL     1      16.066  57.747  16.323  1.00  0.00     0.004 C 
ENDBRANCH  24  25
ENDBRANCH  23  24
ENDBRANCH  22  23
ENDBRANCH  21  22
ENDBRANCH  20  21
ENDBRANCH  19  20
ENDBRANCH  18  19
ENDBRANCH  17  18
ENDBRANCH  16  17
ENDBRANCH  15  16
ENDBRANCH   1  15
TORSDOF 22
ENDMDL
MODEL 2
REMARK VINA RESULT:    -4.681      3.548      7.980
REMARK INTER + INTRA:         -15.243
REMARK INTER:                 -11.592
REMARK INTRA:                  -3.650
REMARK UNBOUND:                -4.541
REMARK SMILES CCCCCCCCCCCCCCCCCCCCCCCC(=O)[O-]
REMARK SMILES IDX 13 1 14 2 15 3 16 4 17 5 18 6 19 7 20 8 21 9 22 10 23 11
REMARK SMILES IDX 24 12 25 13 26 14 12 15 11 16 10 17 9 18 8 19 7 20 6 21 5 22
REMARK SMILES IDX 4 23 3 24 2 25 1 26
REMARK H PARENT
REMARK Flexibility Score: inf
ROOT
ATOM      1  C   UNL     1      17.497  55.412  15.288  1.00  0.00     0.000 C 
ENDROOT
BRANCH   1   2
ATOM      2  C   UNL     1      18.258  55.150  13.979  1.00  0.00     0.000 C 
BRANCH   2   3
ATOM      3  C   UNL     1      19.298  54.023  14.106  1.00  0.00     0.000 C 
BRANCH   3   4
ATOM      4  C   UNL     1      19.044  53.133  15.336  1.00  0.00     0.000 C 
BRANCH   4   5
ATOM      5  C   UNL     1      20.344  52.749  16.067  1.00  0.00     0.000 C 
BRANCH   5   6
ATOM      6  C   UNL     1      20.381  53.287  17.514  1.00  0.00     0.000 C 
BRANCH   6   7
ATOM      7  C   UNL     1      19.510  52.491  18.498  1.00  0.00     0.000 C 
BRANCH   7   8
ATOM      8  C   UNL     1      18.336  53.307  19.057  1.00  0.00     0.000 C 
BRANCH   8   9
ATOM      9  C   UNL     1      17.008  52.863  18.432  1.00  0.00     0.000 C 
BRANCH   9  10
ATOM     10  C   UNL     1      15.816  53.458  19.191  1.00  0.00     0.006 C 
BRANCH  10  11
ATOM     11  C   UNL     1      15.956  54.976  19.338  1.00  0.00     0.053 C 
BRANCH  11  12
ATOM     12  C   UNL     1      14.886  55.680  18.561  1.00  0.00     0.041 C 
ATOM     13  O   UNL     1      14.553  55.262  17.421  1.00  0.00    -0.550 OA
ATOM     14  O   UNL     1      14.226  56.770  19.115  1.00  0.00    -0.550 OA
ENDBRANCH  11  12
ENDBRANCH  10  11
ENDBRANCH   9  10
ENDBRANCH   8   9
ENDBRANCH   7   8
ENDBRANCH   6   7
ENDBRANCH   5   6
ENDBRANCH   4   5
ENDBRANCH   3   4
ENDBRANCH   2   3
ENDBRANCH   1   2
BRANCH   1  15
ATOM     15  C   UNL     1      17.918  56.727  15.970  1.00  0.00     0.000 C 
BRANCH  15  16
ATOM     16  C   UNL     1      18.557  56.491  17.349  1.00  0.00     0.000 C 
BRANCH  16  17
ATOM     17  C   UNL     1      20.029  56.944  17.394  1.00  0.00     0.000 C 
BRANCH  17  18
ATOM     18  C   UNL     1      20.636  57.127  15.995  1.00  0.00    -0.000 C 
BRANCH  18  19
ATOM     19  C   UNL     1      21.797  56.155  15.718  1.00  0.00    -0.000 C 
BRANCH  19  20
ATOM     20  C   UNL     1      22.760  56.044  16.919  1.00  0.00    -0.000 C 
BRANCH  20  21
ATOM     21  C   UNL     1      23.994  55.165  16.645  1.00  0.00    -0.000 C 
BRANCH  21  22
ATOM     22  C   UNL     1      25.317  55.945  16.723  1.00  0.00    -0.000 C 
BRANCH  22  23
ATOM     23  C   UNL     1      26.543  55.017  16.737  1.00  0.00    -0.000 C 
BRANCH  23  24
ATOM     24  C   UNL     1      27.461  55.282  17.941  1.00  0.00    -0.000 C 
BRANCH  24  25
ATOM     25  C   UNL     1      27.082  54.439  19.169  1.00  0.00    -0.003 C 
ATOM     26  C   UNL     1      26.676  55.294  20.370  1.00  0.00     0.004 C 
ENDBRANCH  24  25
ENDBRANCH  23  24
ENDBRANCH  22  23
ENDBRANCH  21  22
ENDBRANCH  20  21
ENDBRANCH  19  20
ENDBRANCH  18  19
ENDBRANCH  17  18
ENDBRANCH  16  17
ENDBRANCH  15  16
ENDBRANCH   1  15
TORSDOF 22
ENDMDL
MODEL 3
REMARK VINA RESULT:    -4.549      1.442      3.126
REMARK INTER + INTRA:         -14.940
REMARK INTER:                 -11.040
REMARK INTRA:                  -3.900
REMARK UNBOUND:                -4.541
REMARK SMILES CCCCCCCCCCCCCCCCCCCCCCCC(=O)[O-]
REMARK SMILES IDX 13 1 14 2 15 3 16 4 17 5 18 6 19 7 20 8 21 9 22 10 23 11
REMARK SMILES IDX 24 12 25 13 26 14 12 15 11 16 10 17 9 18 8 19 7 20 6 21 5 22
REMARK SMILES IDX 4 23 3 24 2 25 1 26
REMARK H PARENT
REMARK Flexibility Score: inf
ROOT
ATOM      1  C   UNL     1      16.739  55.675  14.406  1.00  0.00     0.000 C 
ENDROOT
BRANCH   1   2
ATOM      2  C   UNL     1      17.708  54.904  13.496  1.00  0.00     0.000 C 
BRANCH   2   3
ATOM      3  C   UNL     1      19.137  54.840  14.062  1.00  0.00     0.000 C 
BRANCH   3   4
ATOM      4  C   UNL     1      19.563  53.402  14.409  1.00  0.00     0.000 C 
BRANCH   4   5
ATOM      5  C   UNL     1      19.286  53.042  15.881  1.00  0.00     0.000 C 
BRANCH   5   6
ATOM      6  C   UNL     1      20.558  53.126  16.753  1.00  0.00     0.000 C 
BRANCH   6   7
ATOM      7  C   UNL     1      21.754  53.788  16.051  1.00  0.00     0.000 C 
BRANCH   7   8
ATOM      8  C   UNL     1      22.290  55.013  16.805  1.00  0.00     0.000 C 
BRANCH   8   9
ATOM      9  C   UNL     1      22.520  56.192  15.851  1.00  0.00     0.000 C 
BRANCH   9  10
ATOM     10  C   UNL     1      23.999  56.592  15.818  1.00  0.00     0.006 C 
BRANCH  10  11
ATOM     11  C   UNL     1      24.738  56.082  17.059  1.00  0.00     0.053 C 
BRANCH  11  12
ATOM     12  C   UNL     1      25.996  55.371  16.667  1.00  0.00     0.041 C 
ATOM     13  O   UNL     1      25.965  54.147  16.369  1.00  0.00    -0.550 OA
ATOM     14  O   UNL     1      27.195  56.069  16.586  1.00  0.00    -0.550 OA
ENDBRANCH  11  12
ENDBRANCH  10  11
ENDBRANCH   9  10
ENDBRANCH   8   9
ENDBRANCH   7   8
ENDBRANCH   6   7
ENDBRANCH   5   6
ENDBRANCH   4   5
ENDBRANCH   3   4
ENDBRANCH   2   3
ENDBRANCH   1   2
BRANCH   1  15
ATOM     15  C   UNL     1      15.474  54.868  14.750  1.00  0.00     0.000 C 
BRANCH  15  16
ATOM     16  C   UNL     1      15.791  53.606  15.571  1.00  0.00     0.000 C 
BRANCH  16  17
ATOM     17  C   UNL     1      14.519  52.924  16.106  1.00  0.00     0.000 C 
BRANCH  17  18
ATOM     18  C   UNL     1      14.799  52.001  17.301  1.00  0.00    -0.000 C 
BRANCH  18  19
ATOM     19  C   UNL     1      16.252  52.099  17.802  1.00  0.00    -0.000 C 
BRANCH  19  20
ATOM     20  C   UNL     1      16.324  52.455  19.303  1.00  0.00    -0.000 C 
BRANCH  20  21
ATOM     21  C   UNL     1      16.845  53.877  19.577  1.00  0.00    -0.000 C 
BRANCH  21  22
ATOM     22  C   UNL     1      15.838  54.972  19.188  1.00  0.00    -0.000 C 
BRANCH  22  23
ATOM     23  C   UNL     1      16.435  55.993  18.206  1.00  0.00    -0.000 C 
BRANCH  23  24
ATOM     24  C   UNL     1      17.917  55.714  17.904  1.00  0.00    -0.000 C 
BRANCH  24  25
ATOM     25  C   UNL     1      18.621  56.913  17.249  1.00  0.00    -0.003 C 
ATOM     26  C   UNL     1      19.806  57.423  18.070  1.00  0.00     0.004 C 
ENDBRANCH  24  25
ENDBRANCH  23  24
ENDBRANCH  22  23
ENDBRANCH  21  22
ENDBRANCH  20  21
ENDBRANCH  19  20
ENDBRANCH  18  19
ENDBRANCH  17  18
ENDBRANCH  16  17
ENDBRANCH  15  16
ENDBRANCH   1  15
TORSDOF 22
ENDMDL
MODEL 4
REMARK VINA RESULT:    -4.535      3.094      7.582
REMARK INTER + INTRA:         -14.909
REMARK INTER:                 -11.695
REMARK INTRA:                  -3.214
REMARK UNBOUND:                -4.541
REMARK SMILES CCCCCCCCCCCCCCCCCCCCCCCC(=O)[O-]
REMARK SMILES IDX 13 1 14 2 15 3 16 4 17 5 18 6 19 7 20 8 21 9 22 10 23 11
REMARK SMILES IDX 24 12 25 13 26 14 12 15 11 16 10 17 9 18 8 19 7 20 6 21 5 22
REMARK SMILES IDX 4 23 3 24 2 25 1 26
REMARK H PARENT
REMARK Flexibility Score: inf
ROOT
ATOM      1  C   UNL     1      19.769  53.773  13.792  1.00  0.00     0.000 C 
ENDROOT
BRANCH   1   2
ATOM      2  C   UNL     1      18.722  54.870  14.042  1.00  0.00     0.000 C 
BRANCH   2   3
ATOM      3  C   UNL     1      17.695  54.988  12.902  1.00  0.00     0.000 C 
BRANCH   3   4
ATOM      4  C   UNL     1      16.245  54.951  13.417  1.00  0.00     0.000 C 
BRANCH   4   5
ATOM      5  C   UNL     1      16.164  54.856  14.952  1.00  0.00     0.000 C 
BRANCH   5   6
ATOM      6  C   UNL     1      14.710  54.919  15.466  1.00  0.00     0.000 C 
BRANCH   6   7
ATOM      7  C   UNL     1      14.248  53.645  16.192  1.00  0.00     0.000 C 
BRANCH   7   8
ATOM      8  C   UNL     1      15.368  52.609  16.357  1.00  0.00     0.000 C 
BRANCH   8   9
ATOM      9  C   UNL     1      15.436  52.093  17.800  1.00  0.00     0.000 C 
BRANCH   9  10
ATOM     10  C   UNL     1      14.917  53.146  18.785  1.00  0.00     0.006 C 
BRANCH  10  11
ATOM     11  C   UNL     1      16.056  54.032  19.299  1.00  0.00     0.053 C 
BRANCH  11  12
ATOM     12  C   UNL     1      15.767  55.475  19.023  1.00  0.00     0.041 C 
ATOM     13  O   UNL     1      16.709  56.272  18.769  1.00  0.00    -0.550 OA
ATOM     14  O   UNL     1      14.455  55.930  19.000  1.00  0.00    -0.550 OA
ENDBRANCH  11  12
ENDBRANCH  10  11
ENDBRANCH   9  10
ENDBRANCH   8   9
ENDBRANCH   7   8
ENDBRANCH   6   7
ENDBRANCH   5   6
ENDBRANCH   4   5
ENDBRANCH   3   4
ENDBRANCH   2   3
ENDBRANCH   1   2
BRANCH   1  15
ATOM     15  C   UNL     1      20.159  53.018  15.075  1.00  0.00     0.000 C 
BRANCH  15  16
ATOM     16  C   UNL     1      18.944  52.721  15.971  1.00  0.00     0.000 C 
BRANCH  16  17
ATOM     17  C   UNL     1      19.156  53.201  17.418  1.00  0.00     0.000 C 
BRANCH  17  18
ATOM     18  C   UNL     1      20.333  54.179  17.552  1.00  0.00    -0.000 C 
BRANCH  18  19
ATOM     19  C   UNL     1      19.886  55.653  17.555  1.00  0.00    -0.000 C 
BRANCH  19  20
ATOM     20  C   UNL     1      21.020  56.603  17.112  1.00  0.00    -0.000 C 
BRANCH  20  21
ATOM     21  C   UNL     1      22.024  55.959  16.139  1.00  0.00    -0.000 C 
BRANCH  21  22
ATOM     22  C   UNL     1      23.448  55.878  16.712  1.00  0.00    -0.000 C 
BRANCH  22  23
ATOM     23  C   UNL     1      24.444  56.749  15.928  1.00  0.00    -0.000 C 
BRANCH  23  24
ATOM     24  C   UNL     1      25.884  56.219  16.026  1.00  0.00    -0.000 C 
BRANCH  24  25
ATOM     25  C   UNL     1      25.939  54.727  16.390  1.00  0.00    -0.003 C 
ATOM     26  C   UNL     1      26.446  54.485  17.813  1.00  0.00     0.004 C 
ENDBRANCH  24  25
ENDBRANCH  23  24
ENDBRANCH  22  23
ENDBRANCH  21  22
ENDBRANCH  20  21
ENDBRANCH  19  20
ENDBRANCH  18  19
ENDBRANCH  17  18
ENDBRANCH  16  17
ENDBRANCH  15  16
ENDBRANCH   1  15
TORSDOF 22
ENDMDL
MODEL 5
REMARK VINA RESULT:    -4.461      3.695      8.678
REMARK INTER + INTRA:         -14.740
REMARK INTER:                 -11.929
REMARK INTRA:                  -2.811
REMARK UNBOUND:                -4.541
REMARK SMILES CCCCCCCCCCCCCCCCCCCCCCCC(=O)[O-]
REMARK SMILES IDX 13 1 14 2 15 3 16 4 17 5 18 6 19 7 20 8 21 9 22 10 23 11
REMARK SMILES IDX 24 12 25 13 26 14 12 15 11 16 10 17 9 18 8 19 7 20 6 21 5 22
REMARK SMILES IDX 4 23 3 24 2 25 1 26
REMARK H PARENT
REMARK Flexibility Score: inf
ROOT
ATOM      1  C   UNL     1      19.013  56.053  17.746  1.00  0.00     0.000 C 
ENDROOT
BRANCH   1   2
ATOM      2  C   UNL     1      19.401  54.780  18.514  1.00  0.00     0.000 C 
BRANCH   2   3
ATOM      3  C   UNL     1      19.233  53.501  17.676  1.00  0.00     0.000 C 
BRANCH   3   4
ATOM      4  C   UNL     1      20.570  53.002  17.099  1.00  0.00     0.000 C 
BRANCH   4   5
ATOM      5  C   UNL     1      20.593  53.015  15.559  1.00  0.00     0.000 C 
BRANCH   5   6
ATOM      6  C   UNL     1      19.211  53.349  14.957  1.00  0.00     0.000 C 
BRANCH   6   7
ATOM      7  C   UNL     1      19.278  54.125  13.632  1.00  0.00     0.000 C 
BRANCH   7   8
ATOM      8  C   UNL     1      18.024  54.969  13.366  1.00  0.00     0.000 C 
BRANCH   8   9
ATOM      9  C   UNL     1      17.377  55.427  14.680  1.00  0.00     0.000 C 
BRANCH   9  10
ATOM     10  C   UNL     1      16.137  54.586  15.004  1.00  0.00     0.006 C 
BRANCH  10  11
ATOM     11  C   UNL     1      14.968  55.473  15.444  1.00  0.00     0.053 C 
BRANCH  11  12
ATOM     12  C   UNL     1      14.990  55.677  16.927  1.00  0.00     0.041 C 
ATOM     13  O   UNL     1      15.584  56.672  17.420  1.00  0.00    -0.550 OA
ATOM     14  O   UNL     1      14.318  54.793  17.762  1.00  0.00    -0.550 OA
ENDBRANCH  11  12
ENDBRANCH  10  11
ENDBRANCH   9  10
ENDBRANCH   8   9
ENDBRANCH   7   8
ENDBRANCH   6   7
ENDBRANCH   5   6
ENDBRANCH   4   5
ENDBRANCH   3   4
ENDBRANCH   2   3
ENDBRANCH   1   2
BRANCH   1  15
ATOM     15  C   UNL     1      20.202  57.007  17.533  1.00  0.00     0.000 C 
BRANCH  15  16
ATOM     16  C   UNL     1      20.613  57.106  16.053  1.00  0.00     0.000 C 
BRANCH  16  17
ATOM     17  C   UNL     1      21.848  56.244  15.733  1.00  0.00     0.000 C 
BRANCH  17  18
ATOM     18  C   UNL     1      22.775  56.063  16.945  1.00  0.00    -0.000 C 
BRANCH  18  19
ATOM     19  C   UNL     1      24.266  56.123  16.570  1.00  0.00    -0.000 C 
BRANCH  19  20
ATOM     20  C   UNL     1      24.937  54.734  16.631  1.00  0.00    -0.000 C 
BRANCH  20  21
ATOM     21  C   UNL     1      26.440  54.756  16.301  1.00  0.00    -0.000 C 
BRANCH  21  22
ATOM     22  C   UNL     1      27.228  55.759  17.159  1.00  0.00    -0.000 C 
BRANCH  22  23
ATOM     23  C   UNL     1      27.592  55.189  18.539  1.00  0.00    -0.000 C 
BRANCH  23  24
ATOM     24  C   UNL     1      28.662  56.031  19.254  1.00  0.00    -0.000 C 
BRANCH  24  25
ATOM     25  C   UNL     1      29.434  56.945  18.289  1.00  0.00    -0.003 C 
ATOM     26  C   UNL     1      29.982  58.198  18.973  1.00  0.00     0.004 C 
ENDBRANCH  24  25
ENDBRANCH  23  24
ENDBRANCH  22  23
ENDBRANCH  21  22
ENDBRANCH  20  21
ENDBRANCH  19  20
ENDBRANCH  18  19
ENDBRANCH  17  18
ENDBRANCH  16  17
ENDBRANCH  15  16
ENDBRANCH   1  15
TORSDOF 22
ENDMDL
MODEL 6
REMARK VINA RESULT:    -4.348      2.077      3.739
REMARK INTER + INTRA:         -14.481
REMARK INTER:                 -11.496
REMARK INTRA:                  -2.985
REMARK UNBOUND:                -4.541
REMARK SMILES CCCCCCCCCCCCCCCCCCCCCCCC(=O)[O-]
REMARK SMILES IDX 13 1 14 2 15 3 16 4 17 5 18 6 19 7 20 8 21 9 22 10 23 11
REMARK SMILES IDX 24 12 25 13 26 14 12 15 11 16 10 17 9 18 8 19 7 20 6 21 5 22
REMARK SMILES IDX 4 23 3 24 2 25 1 26
REMARK H PARENT
REMARK Flexibility Score: inf
ROOT
ATOM      1  C   UNL     1      19.157  54.129  13.633  1.00  0.00     0.000 C 
ENDROOT
BRANCH   1   2
ATOM      2  C   UNL     1      20.170  53.821  14.748  1.00  0.00     0.000 C 
BRANCH   2   3
ATOM      3  C   UNL     1      20.967  55.060  15.190  1.00  0.00     0.000 C 
BRANCH   3   4
ATOM      4  C   UNL     1      21.995  54.730  16.288  1.00  0.00     0.000 C 
BRANCH   4   5
ATOM      5  C   UNL     1      22.689  55.987  16.845  1.00  0.00     0.000 C 
BRANCH   5   6
ATOM      6  C   UNL     1      23.847  56.465  15.942  1.00  0.00     0.000 C 
BRANCH   6   7
ATOM      7  C   UNL     1      25.243  56.235  16.543  1.00  0.00     0.000 C 
BRANCH   7   8
ATOM      8  C   UNL     1      25.782  54.821  16.286  1.00  0.00     0.000 C 
BRANCH   8   9
ATOM      9  C   UNL     1      26.257  54.165  17.589  1.00  0.00     0.000 C 
BRANCH   9  10
ATOM     10  C   UNL     1      26.480  55.214  18.684  1.00  0.00     0.006 C 
BRANCH  10  11
ATOM     11  C   UNL     1      27.264  54.627  19.861  1.00  0.00     0.053 C 
BRANCH  11  12
ATOM     12  C   UNL     1      28.737  54.721  19.612  1.00  0.00     0.041 C 
ATOM     13  O   UNL     1      29.217  55.729  19.030  1.00  0.00    -0.550 OA
ATOM     14  O   UNL     1      29.585  53.717  20.062  1.00  0.00    -0.550 OA
ENDBRANCH  11  12
ENDBRANCH  10  11
ENDBRANCH   9  10
ENDBRANCH   8   9
ENDBRANCH   7   8
ENDBRANCH   6   7
ENDBRANCH   5   6
ENDBRANCH   4   5
ENDBRANCH   3   4
ENDBRANCH   2   3
ENDBRANCH   1   2
BRANCH   1  15
ATOM     15  C   UNL     1      18.163  55.238  14.021  1.00  0.00     0.000 C 
BRANCH  15  16
ATOM     16  C   UNL     1      16.708  54.860  13.691  1.00  0.00     0.000 C 
BRANCH  16  17
ATOM     17  C   UNL     1      15.874  54.592  14.958  1.00  0.00     0.000 C 
BRANCH  17  18
ATOM     18  C   UNL     1      14.707  55.577  15.119  1.00  0.00    -0.000 C 
BRANCH  18  19
ATOM     19  C   UNL     1      14.067  55.521  16.518  1.00  0.00    -0.000 C 
BRANCH  19  20
ATOM     20  C   UNL     1      14.658  56.583  17.469  1.00  0.00    -0.000 C 
BRANCH  20  21
ATOM     21  C   UNL     1      15.135  56.013  18.816  1.00  0.00    -0.000 C 
BRANCH  21  22
ATOM     22  C   UNL     1      15.489  54.518  18.744  1.00  0.00    -0.000 C 
BRANCH  22  23
ATOM     23  C   UNL     1      16.963  54.250  19.088  1.00  0.00    -0.000 C 
BRANCH  23  24
ATOM     24  C   UNL     1      17.884  54.405  17.866  1.00  0.00    -0.000 C 
BRANCH  24  25
ATOM     25  C   UNL     1      18.855  55.589  18.006  1.00  0.00    -0.003 C 
ATOM     26  C   UNL     1      18.385  56.830  17.246  1.00  0.00     0.004 C 
ENDBRANCH  24  25
ENDBRANCH  23  24
ENDBRANCH  22  23
ENDBRANCH  21  22
ENDBRANCH  20  21
ENDBRANCH  19  20
ENDBRANCH  18  19
ENDBRANCH  17  18
ENDBRANCH  16  17
ENDBRANCH  15  16
ENDBRANCH   1  15
TORSDOF 22
ENDMDL
MODEL 7
REMARK VINA RESULT:    -4.341      2.525      7.555
REMARK INTER + INTRA:         -14.464
REMARK INTER:                 -11.818
REMARK INTRA:                  -2.646
REMARK UNBOUND:                -4.541
REMARK SMILES CCCCCCCCCCCCCCCCCCCCCCCC(=O)[O-]
REMARK SMILES IDX 13 1 14 2 15 3 16 4 17 5 18 6 19 7 20 8 21 9 22 10 23 11
REMARK SMILES IDX 24 12 25 13 26 14 12 15 11 16 10 17 9 18 8 19 7 20 6 21 5 22
REMARK SMILES IDX 4 23 3 24 2 25 1 26
REMARK H PARENT
REMARK Flexibility Score: inf
ROOT
ATOM      1  C   UNL     1      18.794  55.039  13.984  1.00  0.00     0.000 C 
ENDROOT
BRANCH   1   2
ATOM      2  C   UNL     1      17.767  54.898  12.849  1.00  0.00     0.000 C 
BRANCH   2   3
ATOM      3  C   UNL     1      16.315  54.875  13.357  1.00  0.00     0.000 C 
BRANCH   3   4
ATOM      4  C   UNL     1      16.233  54.681  14.882  1.00  0.00     0.000 C 
BRANCH   4   5
ATOM      5  C   UNL     1      14.782  54.599  15.392  1.00  0.00     0.000 C 
BRANCH   5   6
ATOM      6  C   UNL     1      14.643  53.663  16.612  1.00  0.00     0.000 C 
BRANCH   6   7
ATOM      7  C   UNL     1      15.947  52.951  17.005  1.00  0.00     0.000 C 
BRANCH   7   8
ATOM      8  C   UNL     1      16.523  53.447  18.339  1.00  0.00     0.000 C 
BRANCH   8   9
ATOM      9  C   UNL     1      15.763  54.679  18.845  1.00  0.00     0.000 C 
BRANCH   9  10
ATOM     10  C   UNL     1      16.644  55.932  18.788  1.00  0.00     0.006 C 
BRANCH  10  11
ATOM     11  C   UNL     1      17.964  55.646  18.065  1.00  0.00     0.053 C 
BRANCH  11  12
ATOM     12  C   UNL     1      18.441  56.866  17.339  1.00  0.00     0.041 C 
ATOM     13  O   UNL     1      19.549  57.386  17.636  1.00  0.00    -0.550 OA
ATOM     14  O   UNL     1      17.685  57.401  16.305  1.00  0.00    -0.550 OA
ENDBRANCH  11  12
ENDBRANCH  10  11
ENDBRANCH   9  10
ENDBRANCH   8   9
ENDBRANCH   7   8
ENDBRANCH   6   7
ENDBRANCH   5   6
ENDBRANCH   4   5
ENDBRANCH   3   4
ENDBRANCH   2   3
ENDBRANCH   1   2
BRANCH   1  15
ATOM     15  C   UNL     1      19.821  53.892  14.004  1.00  0.00     0.000 C 
BRANCH  15  16
ATOM     16  C   UNL     1      19.858  53.166  15.360  1.00  0.00     0.000 C 
BRANCH  16  17
ATOM     17  C   UNL     1      21.227  53.295  16.053  1.00  0.00     0.000 C 
BRANCH  17  18
ATOM     18  C   UNL     1      21.380  54.617  16.821  1.00  0.00    -0.000 C 
BRANCH  18  19
ATOM     19  C   UNL     1      22.293  55.625  16.097  1.00  0.00    -0.000 C 
BRANCH  19  20
ATOM     20  C   UNL     1      23.527  56.001  16.945  1.00  0.00    -0.000 C 
BRANCH  20  21
ATOM     21  C   UNL     1      24.740  56.448  16.109  1.00  0.00    -0.000 C 
BRANCH  21  22
ATOM     22  C   UNL     1      25.862  55.397  16.071  1.00  0.00    -0.000 C 
BRANCH  22  23
ATOM     23  C   UNL     1      25.573  54.199  16.989  1.00  0.00    -0.000 C 
BRANCH  23  24
ATOM     24  C   UNL     1      26.598  54.078  18.129  1.00  0.00    -0.000 C 
BRANCH  24  25
ATOM     25  C   UNL     1      26.552  55.274  19.092  1.00  0.00    -0.003 C 
ATOM     26  C   UNL     1      26.955  54.899  20.519  1.00  0.00     0.004 C 
ENDBRANCH  24  25
ENDBRANCH  23  24
ENDBRANCH  22  23
ENDBRANCH  21  22
ENDBRANCH  20  21
ENDBRANCH  19  20
ENDBRANCH  18  19
ENDBRANCH  17  18
ENDBRANCH  16  17
ENDBRANCH  15  16
ENDBRANCH   1  15
TORSDOF 22
ENDMDL
MODEL 8
REMARK VINA RESULT:    -4.324      4.138      9.196
REMARK INTER + INTRA:         -14.425
REMARK INTER:                 -11.940
REMARK INTRA:                  -2.485
REMARK UNBOUND:                -4.541
REMARK SMILES CCCCCCCCCCCCCCCCCCCCCCCC(=O)[O-]
REMARK SMILES IDX 13 1 14 2 15 3 16 4 17 5 18 6 19 7 20 8 21 9 22 10 23 11
REMARK SMILES IDX 24 12 25 13 26 14 12 15 11 16 10 17 9 18 8 19 7 20 6 21 5 22
REMARK SMILES IDX 4 23 3 24 2 25 1 26
REMARK H PARENT
REMARK Flexibility Score: inf
ROOT
ATOM      1  C   UNL     1      22.387  55.628  16.116  1.00  0.00     0.000 C 
ENDROOT
BRANCH   1   2
ATOM      2  C   UNL     1      22.265  54.132  16.448  1.00  0.00     0.000 C 
BRANCH   2   3
ATOM      3  C   UNL     1      20.840  53.728  16.866  1.00  0.00     0.000 C 
BRANCH   3   4
ATOM      4  C   UNL     1      20.309  52.537  16.048  1.00  0.00     0.000 C 
BRANCH   4   5
ATOM      5  C   UNL     1      19.106  52.916  15.163  1.00  0.00     0.000 C 
BRANCH   5   6
ATOM      6  C   UNL     1      19.508  53.847  13.998  1.00  0.00     0.000 C 
BRANCH   6   7
ATOM      7  C   UNL     1      18.388  54.795  13.542  1.00  0.00     0.000 C 
BRANCH   7   8
ATOM      8  C   UNL     1      17.770  55.595  14.696  1.00  0.00     0.000 C 
BRANCH   8   9
ATOM      9  C   UNL     1      18.823  56.473  15.385  1.00  0.00     0.000 C 
BRANCH   9  10
ATOM     10  C   UNL     1      18.315  56.980  16.739  1.00  0.00     0.006 C 
BRANCH  10  11
ATOM     11  C   UNL     1      18.003  55.816  17.684  1.00  0.00     0.053 C 
BRANCH  11  12
ATOM     12  C   UNL     1      16.602  55.920  18.203  1.00  0.00     0.041 C 
ATOM     13  O   UNL     1      16.275  55.328  19.265  1.00  0.00    -0.550 OA
ATOM     14  O   UNL     1      15.670  56.706  17.538  1.00  0.00    -0.550 OA
ENDBRANCH  11  12
ENDBRANCH  10  11
ENDBRANCH   9  10
ENDBRANCH   8   9
ENDBRANCH   7   8
ENDBRANCH   6   7
ENDBRANCH   5   6
ENDBRANCH   4   5
ENDBRANCH   3   4
ENDBRANCH   2   3
ENDBRANCH   1   2
BRANCH   1  15
ATOM     15  C   UNL     1      23.578  56.300  16.823  1.00  0.00     0.000 C 
BRANCH  15  16
ATOM     16  C   UNL     1      24.703  56.675  15.842  1.00  0.00     0.000 C 
BRANCH  16  17
ATOM     17  C   UNL     1      26.066  56.104  16.274  1.00  0.00     0.000 C 
BRANCH  17  18
ATOM     18  C   UNL     1      26.075  54.569  16.333  1.00  0.00    -0.000 C 
BRANCH  18  19
ATOM     19  C   UNL     1      26.248  54.028  17.764  1.00  0.00    -0.000 C 
BRANCH  19  20
ATOM     20  C   UNL     1      26.742  55.118  18.740  1.00  0.00    -0.000 C 
BRANCH  20  21
ATOM     21  C   UNL     1      27.240  54.564  20.086  1.00  0.00    -0.000 C 
BRANCH  21  22
ATOM     22  C   UNL     1      28.646  55.065  20.459  1.00  0.00    -0.000 C 
BRANCH  22  23
ATOM     23  C   UNL     1      29.204  56.058  19.427  1.00  0.00    -0.000 C 
BRANCH  23  24
ATOM     24  C   UNL     1      29.977  57.211  20.088  1.00  0.00    -0.000 C 
BRANCH  24  25
ATOM     25  C   UNL     1      30.019  58.473  19.211  1.00  0.00    -0.003 C 
ATOM     26  C   UNL     1      30.014  59.763  20.031  1.00  0.00     0.004 C 
ENDBRANCH  24  25
ENDBRANCH  23  24
ENDBRANCH  22  23
ENDBRANCH  21  22
ENDBRANCH  20  21
ENDBRANCH  19  20
ENDBRANCH  18  19
ENDBRANCH  17  18
ENDBRANCH  16  17
ENDBRANCH  15  16
ENDBRANCH   1  15
TORSDOF 22
ENDMDL
MODEL 9
REMARK VINA RESULT:    -4.315      2.860      6.948
REMARK INTER + INTRA:         -14.405
REMARK INTER:                 -11.906
REMARK INTRA:                  -2.498
REMARK UNBOUND:                -4.541
REMARK SMILES CCCCCCCCCCCCCCCCCCCCCCCC(=O)[O-]
REMARK SMILES IDX 13 1 14 2 15 3 16 4 17 5 18 6 19 7 20 8 21 9 22 10 23 11
REMARK SMILES IDX 24 12 25 13 26 14 12 15 11 16 10 17 9 18 8 19 7 20 6 21 5 22
REMARK SMILES IDX 4 23 3 24 2 25 1 26
REMARK H PARENT
REMARK Flexibility Score: inf
ROOT
ATOM      1  C   UNL     1      19.744  53.750  13.792  1.00  0.00     0.000 C 
ENDROOT
BRANCH   1   2
ATOM      2  C   UNL     1      18.650  54.802  14.031  1.00  0.00     0.000 C 
BRANCH   2   3
ATOM      3  C   UNL     1      17.700  54.959  12.831  1.00  0.00     0.000 C 
BRANCH   3   4
ATOM      4  C   UNL     1      16.220  54.879  13.245  1.00  0.00     0.000 C 
BRANCH   4   5
ATOM      5  C   UNL     1      16.032  54.866  14.773  1.00  0.00     0.000 C 
BRANCH   5   6
ATOM      6  C   UNL     1      14.584  55.204  15.188  1.00  0.00     0.000 C 
BRANCH   6   7
ATOM      7  C   UNL     1      14.458  56.480  16.034  1.00  0.00     0.000 C 
BRANCH   7   8
ATOM      8  C   UNL     1      15.814  57.124  16.355  1.00  0.00     0.000 C 
BRANCH   8   9
ATOM      9  C   UNL     1      16.559  56.333  17.438  1.00  0.00     0.000 C 
BRANCH   9  10
ATOM     10  C   UNL     1      15.751  56.288  18.740  1.00  0.00     0.006 C 
BRANCH  10  11
ATOM     11  C   UNL     1      14.973  54.974  18.862  1.00  0.00     0.053 C 
BRANCH  11  12
ATOM     12  C   UNL     1      15.906  53.804  18.830  1.00  0.00     0.041 C 
ATOM     13  O   UNL     1      15.818  52.949  17.909  1.00  0.00    -0.550 OA
ATOM     14  O   UNL     1      16.903  53.682  19.790  1.00  0.00    -0.550 OA
ENDBRANCH  11  12
ENDBRANCH  10  11
ENDBRANCH   9  10
ENDBRANCH   8   9
ENDBRANCH   7   8
ENDBRANCH   6   7
ENDBRANCH   5   6
ENDBRANCH   4   5
ENDBRANCH   3   4
ENDBRANCH   2   3
ENDBRANCH   1   2
BRANCH   1  15
ATOM     15  C   UNL     1      20.119  52.978  15.071  1.00  0.00     0.000 C 
BRANCH  15  16
ATOM     16  C   UNL     1      18.895  52.684  15.955  1.00  0.00     0.000 C 
BRANCH  16  17
ATOM     17  C   UNL     1      19.278  52.486  17.433  1.00  0.00     0.000 C 
BRANCH  17  18
ATOM     18  C   UNL     1      19.984  53.712  18.032  1.00  0.00    -0.000 C 
BRANCH  18  19
ATOM     19  C   UNL     1      19.401  55.043  17.524  1.00  0.00    -0.000 C 
BRANCH  19  20
ATOM     20  C   UNL     1      20.253  56.254  17.961  1.00  0.00    -0.000 C 
BRANCH  20  21
ATOM     21  C   UNL     1      20.965  56.963  16.795  1.00  0.00    -0.000 C 
BRANCH  21  22
ATOM     22  C   UNL     1      21.755  55.997  15.897  1.00  0.00    -0.000 C 
BRANCH  22  23
ATOM     23  C   UNL     1      23.038  55.487  16.573  1.00  0.00    -0.000 C 
BRANCH  23  24
ATOM     24  C   UNL     1      24.239  56.412  16.316  1.00  0.00    -0.000 C 
BRANCH  24  25
ATOM     25  C   UNL     1      25.582  55.737  16.636  1.00  0.00    -0.003 C 
ATOM     26  C   UNL     1      25.467  54.216  16.745  1.00  0.00     0.004 C 
ENDBRANCH  24  25
ENDBRANCH  23  24
ENDBRANCH  22  23
ENDBRANCH  21  22
ENDBRANCH  20  21
ENDBRANCH  19  20
ENDBRANCH  18  19
ENDBRANCH  17  18
ENDBRANCH  16  17
ENDBRANCH  15  16
ENDBRANCH   1  15
TORSDOF 22
ENDMDL
