MODEL 1
REMARK VINA RESULT:    -4.022      0.000      0.000
REMARK INTER + INTRA:          -7.535
REMARK INTER:                  -6.373
REMARK INTRA:                  -1.163
REMARK UNBOUND:                -1.163
REMARK SMILES CCCCCCCCCCCC=O
REMARK SMILES IDX 7 1 6 2 5 3 4 4 3 5 2 6 1 7 8 8 9 9 10 10 11 11 12 12 13 13
REMARK H PARENT
REMARK Flexibility Score: inf
ROOT
ATOM      1  C   UNL     1     115.563 116.764 117.747  1.00  0.00     0.000 C 
ENDROOT
BRANCH   1   2
ATOM      2  C   UNL     1     114.609 115.602 117.422  1.00  0.00     0.000 C 
BRANCH   2   3
ATOM      3  C   UNL     1     114.710 114.498 118.486  1.00  0.00    -0.000 C 
BRANCH   3   4
ATOM      4  C   UNL     1     116.086 114.461 119.173  1.00  0.00    -0.000 C 
BRANCH   4   5
ATOM      5  C   UNL     1     117.002 113.368 118.604  1.00  0.00    -0.000 C 
BRANCH   5   6
ATOM      6  C   UNL     1     118.096 113.976 117.719  1.00  0.00    -0.003 C 
ATOM      7  C   UNL     1     118.878 115.051 118.468  1.00  0.00     0.004 C 
ENDBRANCH   5   6
ENDBRANCH   4   5
ENDBRANCH   3   4
ENDBRANCH   2   3
ENDBRANCH   1   2
BRANCH   1   8
ATOM      8  C   UNL     1     116.405 117.197 116.535  1.00  0.00     0.000 C 
BRANCH   8   9
ATOM      9  C   UNL     1     116.244 116.249 115.334  1.00  0.00     0.000 C 
BRANCH   9  10
ATOM     10  C   UNL     1     117.003 116.741 114.090  1.00  0.00     0.008 C 
BRANCH  10  11
ATOM     11  C   UNL     1     116.152 116.677 112.813  1.00  0.00     0.072 C 
BRANCH  11  12
ATOM     12  C   UNL     1     116.890 115.970 111.716  1.00  0.00     0.224 C 
ATOM     13  O   UNL     1     117.976 115.455 111.931  1.00  0.00    -0.303 OA
ENDBRANCH  11  12
ENDBRANCH  10  11
ENDBRANCH   9  10
ENDBRANCH   8   9
ENDBRANCH   1   8
TORSDOF 10
ENDMDL
MODEL 2
REMARK VINA RESULT:    -4.012      1.205      2.604
REMARK INTER + INTRA:          -7.520
REMARK INTER:                  -6.527
REMARK INTRA:                  -0.993
REMARK UNBOUND:                -1.163
REMARK SMILES CCCCCCCCCCCC=O
REMARK SMILES IDX 7 1 6 2 5 3 4 4 3 5 2 6 1 7 8 8 9 9 10 10 11 11 12 12 13 13
REMARK H PARENT
REMARK Flexibility Score: inf
ROOT
ATOM      1  C   UNL     1     117.194 116.126 117.879  1.00  0.00     0.000 C 
ENDROOT
BRANCH   1   2
ATOM      2  C   UNL     1     117.790 114.714 117.766  1.00  0.00     0.000 C 
BRANCH   2   3
ATOM      3  C   UNL     1     116.872 113.677 118.432  1.00  0.00    -0.000 C 
BRANCH   3   4
ATOM      4  C   UNL     1     115.634 114.315 119.083  1.00  0.00    -0.000 C 
BRANCH   4   5
ATOM      5  C   UNL     1     114.317 113.737 118.542  1.00  0.00    -0.000 C 
BRANCH   5   6
ATOM      6  C   UNL     1     113.567 114.777 117.702  1.00  0.00    -0.003 C 
ATOM      7  C   UNL     1     113.476 116.114 118.431  1.00  0.00     0.004 C 
ENDBRANCH   5   6
ENDBRANCH   4   5
ENDBRANCH   3   4
ENDBRANCH   2   3
ENDBRANCH   1   2
BRANCH   1   8
ATOM      8  C   UNL     1     117.353 116.944 116.587  1.00  0.00     0.000 C 
BRANCH   8   9
ATOM      9  C   UNL     1     116.306 116.576 115.522  1.00  0.00     0.000 C 
BRANCH   9  10
ATOM     10  C   UNL     1     116.930 116.354 114.134  1.00  0.00     0.008 C 
BRANCH  10  11
ATOM     11  C   UNL     1     116.023 116.834 112.992  1.00  0.00     0.072 C 
BRANCH  11  12
ATOM     12  C   UNL     1     116.068 115.878 111.838  1.00  0.00     0.224 C 
ATOM     13  O   UNL     1     115.268 114.959 111.764  1.00  0.00    -0.303 OA
ENDBRANCH  11  12
ENDBRANCH  10  11
ENDBRANCH   9  10
ENDBRANCH   8   9
ENDBRANCH   1   8
TORSDOF 10
ENDMDL
MODEL 3
REMARK VINA RESULT:    -4.007      1.360      2.351
REMARK INTER + INTRA:          -7.512
REMARK INTER:                  -6.436
REMARK INTRA:                  -1.076
REMARK UNBOUND:                -1.163
REMARK SMILES CCCCCCCCCCCC=O
REMARK SMILES IDX 7 1 6 2 5 3 4 4 3 5 2 6 1 7 8 8 9 9 10 10 11 11 12 12 13 13
REMARK H PARENT
REMARK Flexibility Score: inf
ROOT
ATOM      1  C   UNL     1     116.590 117.037 117.486  1.00  0.00     0.000 C 
ENDROOT
BRANCH   1   2
ATOM      2  C   UNL     1     118.008 117.577 117.241  1.00  0.00     0.000 C 
BRANCH   2   3
ATOM      3  C   UNL     1     119.008 116.954 118.226  1.00  0.00    -0.000 C 
BRANCH   3   4
ATOM      4  C   UNL     1     118.477 115.665 118.875  1.00  0.00    -0.000 C 
BRANCH   4   5
ATOM      5  C   UNL     1     119.243 114.414 118.419  1.00  0.00    -0.000 C 
BRANCH   5   6
ATOM      6  C   UNL     1     118.280 113.341 117.899  1.00  0.00    -0.003 C 
ATOM      7  C   UNL     1     116.891 113.503 118.509  1.00  0.00     0.004 C 
ENDBRANCH   5   6
ENDBRANCH   4   5
ENDBRANCH   3   4
ENDBRANCH   2   3
ENDBRANCH   1   2
BRANCH   1   8
ATOM      8  C   UNL     1     115.975 116.392 116.233  1.00  0.00     0.000 C 
BRANCH   8   9
ATOM      9  C   UNL     1     116.964 116.322 115.057  1.00  0.00     0.000 C 
BRANCH   9  10
ATOM     10  C   UNL     1     116.394 116.938 113.769  1.00  0.00     0.008 C 
BRANCH  10  11
ATOM     11  C   UNL     1     117.225 116.589 112.526  1.00  0.00     0.072 C 
BRANCH  11  12
ATOM     12  C   UNL     1     116.602 115.456 111.769  1.00  0.00     0.224 C 
ATOM     13  O   UNL     1     115.392 115.294 111.781  1.00  0.00    -0.303 OA
ENDBRANCH  11  12
ENDBRANCH  10  11
ENDBRANCH   9  10
ENDBRANCH   8   9
ENDBRANCH   1   8
TORSDOF 10
ENDMDL
MODEL 4
REMARK VINA RESULT:    -3.987      2.987      4.065
REMARK INTER + INTRA:          -7.481
REMARK INTER:                  -6.951
REMARK INTRA:                  -0.530
REMARK UNBOUND:                -1.163
REMARK SMILES CCCCCCCCCCCC=O
REMARK SMILES IDX 7 1 6 2 5 3 4 4 3 5 2 6 1 7 8 8 9 9 10 10 11 11 12 12 13 13
REMARK H PARENT
REMARK Flexibility Score: inf
ROOT
ATOM      1  C   UNL     1     116.255 117.385 116.821  1.00  0.00     0.000 C 
ENDROOT
BRANCH   1   2
ATOM      2  C   UNL     1     117.149 117.821 117.993  1.00  0.00     0.000 C 
BRANCH   2   3
ATOM      3  C   UNL     1     118.613 117.430 117.739  1.00  0.00    -0.000 C 
BRANCH   3   4
ATOM      4  C   UNL     1     119.576 118.621 117.873  1.00  0.00    -0.000 C 
BRANCH   4   5
ATOM      5  C   UNL     1     119.131 119.625 118.947  1.00  0.00    -0.000 C 
BRANCH   5   6
ATOM      6  C   UNL     1     120.048 120.853 118.962  1.00  0.00    -0.003 C 
ATOM      7  C   UNL     1     120.496 121.225 117.552  1.00  0.00     0.004 C 
ENDBRANCH   5   6
ENDBRANCH   4   5
ENDBRANCH   3   4
ENDBRANCH   2   3
ENDBRANCH   1   2
BRANCH   1   8
ATOM      8  C   UNL     1     116.977 116.448 115.839  1.00  0.00     0.000 C 
BRANCH   8   9
ATOM      9  C   UNL     1     116.244 116.324 114.492  1.00  0.00     0.000 C 
BRANCH   9  10
ATOM     10  C   UNL     1     116.996 117.019 113.346  1.00  0.00     0.008 C 
BRANCH  10  11
ATOM     11  C   UNL     1     116.212 117.002 112.026  1.00  0.00     0.072 C 
BRANCH  11  12
ATOM     12  C   UNL     1     115.744 115.615 111.702  1.00  0.00     0.224 C 
ATOM     13  O   UNL     1     116.536 114.766 111.325  1.00  0.00    -0.303 OA
ENDBRANCH  11  12
ENDBRANCH  10  11
ENDBRANCH   9  10
ENDBRANCH   8   9
ENDBRANCH   1   8
TORSDOF 10
ENDMDL
MODEL 5
REMARK VINA RESULT:    -3.941      2.947      6.045
REMARK INTER + INTRA:          -7.407
REMARK INTER:                  -6.939
REMARK INTRA:                  -0.468
REMARK UNBOUND:                -1.163
REMARK SMILES CCCCCCCCCCCC=O
REMARK SMILES IDX 7 1 6 2 5 3 4 4 3 5 2 6 1 7 8 8 9 9 10 10 11 11 12 12 13 13
REMARK H PARENT
REMARK Flexibility Score: inf
ROOT
ATOM      1  C   UNL     1     117.797 116.083 117.600  1.00  0.00     0.000 C 
ENDROOT
BRANCH   1   2
ATOM      2  C   UNL     1     116.833 117.067 116.918  1.00  0.00     0.000 C 
BRANCH   2   3
ATOM      3  C   UNL     1     116.153 116.414 115.705  1.00  0.00    -0.000 C 
BRANCH   3   4
ATOM      4  C   UNL     1     116.961 116.587 114.408  1.00  0.00    -0.000 C 
BRANCH   4   5
ATOM      5  C   UNL     1     116.188 116.129 113.162  1.00  0.00    -0.000 C 
BRANCH   5   6
ATOM      6  C   UNL     1     116.059 117.270 112.147  1.00  0.00    -0.003 C 
ATOM      7  C   UNL     1     117.427 117.827 111.765  1.00  0.00     0.004 C 
ENDBRANCH   5   6
ENDBRANCH   4   5
ENDBRANCH   3   4
ENDBRANCH   2   3
ENDBRANCH   1   2
BRANCH   1   8
ATOM      8  C   UNL     1     117.146 114.721 117.895  1.00  0.00     0.000 C 
BRANCH   8   9
ATOM      9  C   UNL     1     118.136 113.551 117.761  1.00  0.00     0.000 C 
BRANCH   9  10
ATOM     10  C   UNL     1     119.524 113.886 118.332  1.00  0.00     0.008 C 
BRANCH  10  11
ATOM     11  C   UNL     1     120.618 112.935 117.825  1.00  0.00     0.072 C 
BRANCH  11  12
ATOM     12  C   UNL     1     121.554 112.559 118.934  1.00  0.00     0.224 C 
ATOM     13  O   UNL     1     122.508 111.828 118.719  1.00  0.00    -0.303 OA
ENDBRANCH  11  12
ENDBRANCH  10  11
ENDBRANCH   9  10
ENDBRANCH   8   9
ENDBRANCH   1   8
TORSDOF 10
ENDMDL
MODEL 6
REMARK VINA RESULT:    -3.922      2.232      3.729
REMARK INTER + INTRA:          -7.378
REMARK INTER:                  -6.418
REMARK INTRA:                  -0.960
REMARK UNBOUND:                -1.163
REMARK SMILES CCCCCCCCCCCC=O
REMARK SMILES IDX 7 1 6 2 5 3 4 4 3 5 2 6 1 7 8 8 9 9 10 10 11 11 12 12 13 13
REMARK H PARENT
REMARK Flexibility Score: inf
ROOT
ATOM      1  C   UNL     1     117.110 115.383 117.175  1.00  0.00     0.000 C 
ENDROOT
BRANCH   1   2
ATOM      2  C   UNL     1     117.499 116.060 118.499  1.00  0.00     0.000 C 
BRANCH   2   3
ATOM      3  C   UNL     1     118.707 116.988 118.305  1.00  0.00    -0.000 C 
BRANCH   3   4
ATOM      4  C   UNL     1     118.319 118.476 118.319  1.00  0.00    -0.000 C 
BRANCH   4   5
ATOM      5  C   UNL     1     117.086 118.758 119.190  1.00  0.00    -0.000 C 
BRANCH   5   6
ATOM      6  C   UNL     1     116.253 119.906 118.606  1.00  0.00    -0.003 C 
ATOM      7  C   UNL     1     115.131 119.378 117.719  1.00  0.00     0.004 C 
ENDBRANCH   5   6
ENDBRANCH   4   5
ENDBRANCH   3   4
ENDBRANCH   2   3
ENDBRANCH   1   2
BRANCH   1   8
ATOM      8  C   UNL     1     116.098 116.207 116.361  1.00  0.00     0.000 C 
BRANCH   8   9
ATOM      9  C   UNL     1     116.751 116.943 115.178  1.00  0.00     0.000 C 
BRANCH   9  10
ATOM     10  C   UNL     1     116.463 116.264 113.830  1.00  0.00     0.008 C 
BRANCH  10  11
ATOM     11  C   UNL     1     117.066 117.026 112.641  1.00  0.00     0.072 C 
BRANCH  11  12
ATOM     12  C   UNL     1     116.045 117.223 111.561  1.00  0.00     0.224 C 
ATOM     13  O   UNL     1     115.042 117.886 111.770  1.00  0.00    -0.303 OA
ENDBRANCH  11  12
ENDBRANCH  10  11
ENDBRANCH   9  10
ENDBRANCH   8   9
ENDBRANCH   1   8
TORSDOF 10
ENDMDL
MODEL 7
REMARK VINA RESULT:    -3.909      1.960      3.206
REMARK INTER + INTRA:          -7.357
REMARK INTER:                  -6.809
REMARK INTRA:                  -0.548
REMARK UNBOUND:                -1.163
REMARK SMILES CCCCCCCCCCCC=O
REMARK SMILES IDX 7 1 6 2 5 3 4 4 3 5 2 6 1 7 8 8 9 9 10 10 11 11 12 12 13 13
REMARK H PARENT
REMARK Flexibility Score: inf
ROOT
ATOM      1  C   UNL     1     116.190 116.669 116.263  1.00  0.00     0.000 C 
ENDROOT
BRANCH   1   2
ATOM      2  C   UNL     1     116.786 115.527 117.102  1.00  0.00     0.000 C 
BRANCH   2   3
ATOM      3  C   UNL     1     115.772 115.025 118.141  1.00  0.00    -0.000 C 
BRANCH   3   4
ATOM      4  C   UNL     1     114.366 115.611 117.929  1.00  0.00    -0.000 C 
BRANCH   4   5
ATOM      5  C   UNL     1     113.251 114.648 118.362  1.00  0.00    -0.000 C 
BRANCH   5   6
ATOM      6  C   UNL     1     113.778 113.212 118.466  1.00  0.00    -0.003 C 
ATOM      7  C   UNL     1     112.892 112.242 117.688  1.00  0.00     0.004 C 
ENDBRANCH   5   6
ENDBRANCH   4   5
ENDBRANCH   3   4
ENDBRANCH   2   3
ENDBRANCH   1   2
BRANCH   1   8
ATOM      8  C   UNL     1     117.008 116.963 114.995  1.00  0.00     0.000 C 
BRANCH   8   9
ATOM      9  C   UNL     1     116.506 116.177 113.771  1.00  0.00     0.000 C 
BRANCH   9  10
ATOM     10  C   UNL     1     117.244 116.563 112.479  1.00  0.00     0.008 C 
BRANCH  10  11
ATOM     11  C   UNL     1     116.551 117.702 111.717  1.00  0.00     0.072 C 
BRANCH  11  12
ATOM     12  C   UNL     1     115.061 117.545 111.763  1.00  0.00     0.224 C 
ATOM     13  O   UNL     1     114.331 118.507 111.588  1.00  0.00    -0.303 OA
ENDBRANCH  11  12
ENDBRANCH  10  11
ENDBRANCH   9  10
ENDBRANCH   8   9
ENDBRANCH   1   8
TORSDOF 10
ENDMDL
MODEL 8
REMARK VINA RESULT:    -3.887      1.613      2.837
REMARK INTER + INTRA:          -7.322
REMARK INTER:                  -6.226
REMARK INTRA:                  -1.095
REMARK UNBOUND:                -1.163
REMARK SMILES CCCCCCCCCCCC=O
REMARK SMILES IDX 7 1 6 2 5 3 4 4 3 5 2 6 1 7 8 8 9 9 10 10 11 11 12 12 13 13
REMARK H PARENT
REMARK Flexibility Score: inf
ROOT
ATOM      1  C   UNL     1     116.733 117.570 117.855  1.00  0.00     0.000 C 
ENDROOT
BRANCH   1   2
ATOM      2  C   UNL     1     115.772 118.724 117.529  1.00  0.00     0.000 C 
BRANCH   2   3
ATOM      3  C   UNL     1     114.467 118.592 118.328  1.00  0.00    -0.000 C 
BRANCH   3   4
ATOM      4  C   UNL     1     114.418 117.309 119.175  1.00  0.00    -0.000 C 
BRANCH   4   5
ATOM      5  C   UNL     1     113.273 116.371 118.764  1.00  0.00    -0.000 C 
BRANCH   5   6
ATOM      6  C   UNL     1     113.751 115.343 117.732  1.00  0.00    -0.003 C 
ATOM      7  C   UNL     1     114.791 114.402 118.331  1.00  0.00     0.004 C 
ENDBRANCH   5   6
ENDBRANCH   4   5
ENDBRANCH   3   4
ENDBRANCH   2   3
ENDBRANCH   1   2
BRANCH   1   8
ATOM      8  C   UNL     1     117.216 116.825 116.600  1.00  0.00     0.000 C 
BRANCH   8   9
ATOM      9  C   UNL     1     116.244 116.971 115.416  1.00  0.00     0.000 C 
BRANCH   9  10
ATOM     10  C   UNL     1     116.792 116.345 114.123  1.00  0.00     0.008 C 
BRANCH  10  11
ATOM     11  C   UNL     1     116.445 117.166 112.873  1.00  0.00     0.072 C 
BRANCH  11  12
ATOM     12  C   UNL     1     117.340 116.798 111.728  1.00  0.00     0.224 C 
ATOM     13  O   UNL     1     118.005 115.775 111.765  1.00  0.00    -0.303 OA
ENDBRANCH  11  12
ENDBRANCH  10  11
ENDBRANCH   9  10
ENDBRANCH   8   9
ENDBRANCH   1   8
TORSDOF 10
ENDMDL
MODEL 9
REMARK VINA RESULT:    -3.843      1.566      3.082
REMARK INTER + INTRA:          -7.252
REMARK INTER:                  -6.343
REMARK INTRA:                  -0.908
REMARK UNBOUND:                -1.163
REMARK SMILES CCCCCCCCCCCC=O
REMARK SMILES IDX 7 1 6 2 5 3 4 4 3 5 2 6 1 7 8 8 9 9 10 10 11 11 12 12 13 13
REMARK H PARENT
REMARK Flexibility Score: inf
ROOT
ATOM      1  C   UNL     1     116.896 115.976 117.212  1.00  0.00     0.000 C 
ENDROOT
BRANCH   1   2
ATOM      2  C   UNL     1     115.847 115.295 118.106  1.00  0.00     0.000 C 
BRANCH   2   3
ATOM      3  C   UNL     1     114.430 115.531 117.563  1.00  0.00    -0.000 C 
BRANCH   3   4
ATOM      4  C   UNL     1     113.488 116.146 118.613  1.00  0.00    -0.000 C 
BRANCH   4   5
ATOM      5  C   UNL     1     114.089 117.384 119.295  1.00  0.00    -0.000 C 
BRANCH   5   6
ATOM      6  C   UNL     1     113.742 118.660 118.519  1.00  0.00    -0.003 C 
ATOM      7  C   UNL     1     114.955 119.576 118.392  1.00  0.00     0.004 C 
ENDBRANCH   5   6
ENDBRANCH   4   5
ENDBRANCH   3   4
ENDBRANCH   2   3
ENDBRANCH   1   2
BRANCH   1   8
ATOM      8  C   UNL     1     116.270 116.932 116.183  1.00  0.00     0.000 C 
BRANCH   8   9
ATOM      9  C   UNL     1     117.007 116.913 114.833  1.00  0.00     0.000 C 
BRANCH   9  10
ATOM     10  C   UNL     1     116.206 116.193 113.735  1.00  0.00     0.008 C 
BRANCH  10  11
ATOM     11  C   UNL     1     116.445 116.789 112.340  1.00  0.00     0.072 C 
BRANCH  11  12
ATOM     12  C   UNL     1     117.336 115.901 111.526  1.00  0.00     0.224 C 
ATOM     13  O   UNL     1     118.503 116.204 111.331  1.00  0.00    -0.303 OA
ENDBRANCH  11  12
ENDBRANCH  10  11
ENDBRANCH   9  10
ENDBRANCH   8   9
ENDBRANCH   1   8
TORSDOF 10
ENDMDL
