MODEL 1
REMARK VINA RESULT:    -3.586      0.000      0.000
REMARK INTER + INTRA:          -4.342
REMARK INTER:                  -4.320
REMARK INTRA:                  -0.023
REMARK UNBOUND:                -0.023
REMARK SMILES CC[C@@H](C)[C@@H]([NH3+])C(=O)[O-]
REMARK SMILES IDX 3 1 4 2 5 3 6 4 7 8 8 9 9 10 2 11 1 12
REMARK H PARENT 6 5 6 6 6 7
REMARK Flexibility Score: inf
ROOT
ATOM      1  C   UNL     1    -138.296  40.466  87.944  1.00  0.00     0.050 C 
ATOM      2  C   UNL     1    -136.875  39.875  88.027  1.00  0.00     0.014 C 
ENDROOT
BRANCH   1   3
ATOM      3  C   UNL     1    -138.683  41.208  89.263  1.00  0.00     0.230 C 
BRANCH   3   4
ATOM      4  N   UNL     1    -137.998  42.504  89.384  1.00  0.00    -0.350 N 
ATOM      5  H   UNL     1    -136.963  42.364  89.445  1.00  0.00     0.345 HD
ATOM      6  H   UNL     1    -138.294  42.986  90.264  1.00  0.00     0.345 HD
ATOM      7  H   UNL     1    -138.220  43.118  88.567  1.00  0.00     0.345 HD
ENDBRANCH   3   4
BRANCH   3   8
ATOM      8  C   UNL     1    -140.174  41.426  89.331  1.00  0.00     0.099 C 
ATOM      9  O   UNL     1    -140.683  42.476  88.858  1.00  0.00    -0.544 OA
ATOM     10  O   UNL     1    -140.995  40.474  89.924  1.00  0.00    -0.544 OA
ENDBRANCH   3   8
ENDBRANCH   1   3
BRANCH   1  11
ATOM     11  C   UNL     1    -138.456  41.331  86.666  1.00  0.00     0.006 C 
ATOM     12  C   UNL     1    -139.086  40.599  85.478  1.00  0.00     0.004 C 
ENDBRANCH   1  11
TORSDOF 4
ENDMDL
MODEL 2
REMARK VINA RESULT:    -3.377     20.644     21.619
REMARK INTER + INTRA:          -4.091
REMARK INTER:                  -3.960
REMARK INTRA:                  -0.130
REMARK UNBOUND:                -0.023
REMARK SMILES CC[C@@H](C)[C@@H]([NH3+])C(=O)[O-]
REMARK SMILES IDX 3 1 4 2 5 3 6 4 7 8 8 9 9 10 2 11 1 12
REMARK H PARENT 6 5 6 6 6 7
REMARK Flexibility Score: inf
ROOT
ATOM      1  C   UNL     1    -151.219  41.102  70.575  1.00  0.00     0.050 C 
ATOM      2  C   UNL     1    -150.511  39.876  69.966  1.00  0.00     0.014 C 
ENDROOT
BRANCH   1   3
ATOM      3  C   UNL     1    -152.673  40.753  71.029  1.00  0.00     0.230 C 
BRANCH   3   4
ATOM      4  N   UNL     1    -152.682  39.875  72.209  1.00  0.00    -0.350 N 
ATOM      5  H   UNL     1    -151.755  39.902  72.690  1.00  0.00     0.345 HD
ATOM      6  H   UNL     1    -152.848  38.884  71.918  1.00  0.00     0.345 HD
ATOM      7  H   UNL     1    -153.432  40.164  72.878  1.00  0.00     0.345 HD
ENDBRANCH   3   4
BRANCH   3   8
ATOM      8  C   UNL     1    -153.448  42.010  71.338  1.00  0.00     0.099 C 
ATOM      9  O   UNL     1    -153.826  42.248  72.515  1.00  0.00    -0.544 OA
ATOM     10  O   UNL     1    -153.757  42.908  70.324  1.00  0.00    -0.544 OA
ENDBRANCH   3   8
ENDBRANCH   1   3
BRANCH   1  11
ATOM     11  C   UNL     1    -150.348  41.740  71.689  1.00  0.00     0.006 C 
ATOM     12  C   UNL     1    -149.764  43.110  71.333  1.00  0.00     0.004 C 
ENDBRANCH   1  11
TORSDOF 4
ENDMDL
MODEL 3
REMARK VINA RESULT:    -3.336      1.936      2.241
REMARK INTER + INTRA:          -4.041
REMARK INTER:                  -3.956
REMARK INTRA:                  -0.085
REMARK UNBOUND:                -0.023
REMARK SMILES CC[C@@H](C)[C@@H]([NH3+])C(=O)[O-]
REMARK SMILES IDX 3 1 4 2 5 3 6 4 7 8 8 9 9 10 2 11 1 12
REMARK H PARENT 6 5 6 6 6 7
REMARK Flexibility Score: inf
ROOT
ATOM      1  C   UNL     1    -138.976  40.636  86.337  1.00  0.00     0.050 C 
ATOM      2  C   UNL     1    -137.436  40.664  86.366  1.00  0.00     0.014 C 
ENDROOT
BRANCH   1   3
ATOM      3  C   UNL     1    -139.585  41.496  87.489  1.00  0.00     0.230 C 
BRANCH   3   4
ATOM      4  N   UNL     1    -141.037  41.301  87.611  1.00  0.00    -0.350 N 
ATOM      5  H   UNL     1    -141.530  42.223  87.616  1.00  0.00     0.345 HD
ATOM      6  H   UNL     1    -141.262  40.828  88.516  1.00  0.00     0.345 HD
ATOM      7  H   UNL     1    -141.399  40.716  86.822  1.00  0.00     0.345 HD
ENDBRANCH   3   4
BRANCH   3   8
ATOM      8  C   UNL     1    -138.926  41.162  88.805  1.00  0.00     0.099 C 
ATOM      9  O   UNL     1    -138.279  42.042  89.431  1.00  0.00    -0.544 OA
ATOM     10  O   UNL     1    -139.024  39.879  89.330  1.00  0.00    -0.544 OA
ENDBRANCH   3   8
ENDBRANCH   1   3
BRANCH   1  11
ATOM     11  C   UNL     1    -139.504  41.009  84.926  1.00  0.00     0.006 C 
ATOM     12  C   UNL     1    -140.324  39.912  84.242  1.00  0.00     0.004 C 
ENDBRANCH   1  11
TORSDOF 4
ENDMDL
MODEL 4
REMARK VINA RESULT:    -3.299      2.048      2.368
REMARK INTER + INTRA:          -3.996
REMARK INTER:                  -3.978
REMARK INTRA:                  -0.018
REMARK UNBOUND:                -0.023
REMARK SMILES CC[C@@H](C)[C@@H]([NH3+])C(=O)[O-]
REMARK SMILES IDX 3 1 4 2 5 3 6 4 7 8 8 9 9 10 2 11 1 12
REMARK H PARENT 6 5 6 6 6 7
REMARK Flexibility Score: inf
ROOT
ATOM      1  C   UNL     1    -138.240  40.643  87.620  1.00  0.00     0.050 C 
ATOM      2  C   UNL     1    -136.916  40.200  88.272  1.00  0.00     0.014 C 
ENDROOT
BRANCH   1   3
ATOM      3  C   UNL     1    -138.797  41.942  88.286  1.00  0.00     0.230 C 
BRANCH   3   4
ATOM      4  N   UNL     1    -138.234  42.154  89.628  1.00  0.00    -0.350 N 
ATOM      5  H   UNL     1    -137.639  43.013  89.642  1.00  0.00     0.345 HD
ATOM      6  H   UNL     1    -137.618  41.350  89.891  1.00  0.00     0.345 HD
ATOM      7  H   UNL     1    -138.996  42.245  90.339  1.00  0.00     0.345 HD
ENDBRANCH   3   4
BRANCH   3   8
ATOM      8  C   UNL     1    -138.502  43.147  87.427  1.00  0.00     0.099 C 
ATOM      9  O   UNL     1    -137.357  43.669  87.440  1.00  0.00    -0.544 OA
ATOM     10  O   UNL     1    -139.496  43.693  86.623  1.00  0.00    -0.544 OA
ENDBRANCH   3   8
ENDBRANCH   1   3
BRANCH   1  11
ATOM     11  C   UNL     1    -138.086  40.742  86.080  1.00  0.00     0.006 C 
ATOM     12  C   UNL     1    -139.287  40.219  85.285  1.00  0.00     0.004 C 
ENDBRANCH   1  11
TORSDOF 4
ENDMDL
MODEL 5
REMARK VINA RESULT:    -3.247      1.063      1.538
REMARK INTER + INTRA:          -3.933
REMARK INTER:                  -3.853
REMARK INTRA:                  -0.081
REMARK UNBOUND:                -0.023
REMARK SMILES CC[C@@H](C)[C@@H]([NH3+])C(=O)[O-]
REMARK SMILES IDX 3 1 4 2 5 3 6 4 7 8 8 9 9 10 2 11 1 12
REMARK H PARENT 6 5 6 6 6 7
REMARK Flexibility Score: inf
ROOT
ATOM      1  C   UNL     1    -138.742  41.817  87.170  1.00  0.00     0.050 C 
ATOM      2  C   UNL     1    -138.741  40.565  86.272  1.00  0.00     0.014 C 
ENDROOT
BRANCH   1   3
ATOM      3  C   UNL     1    -138.720  41.434  88.684  1.00  0.00     0.230 C 
BRANCH   3   4
ATOM      4  N   UNL     1    -137.907  42.371  89.474  1.00  0.00    -0.350 N 
ATOM      5  H   UNL     1    -137.969  43.334  89.073  1.00  0.00     0.345 HD
ATOM      6  H   UNL     1    -136.900  42.089  89.441  1.00  0.00     0.345 HD
ATOM      7  H   UNL     1    -138.224  42.386  90.471  1.00  0.00     0.345 HD
ENDBRANCH   3   4
BRANCH   3   8
ATOM      8  C   UNL     1    -140.121  41.398  89.243  1.00  0.00     0.099 C 
ATOM      9  O   UNL     1    -140.932  42.326  88.982  1.00  0.00    -0.544 OA
ATOM     10  O   UNL     1    -140.523  40.345  90.056  1.00  0.00    -0.544 OA
ENDBRANCH   3   8
ENDBRANCH   1   3
BRANCH   1  11
ATOM     11  C   UNL     1    -137.611  42.793  86.751  1.00  0.00     0.006 C 
ATOM     12  C   UNL     1    -137.051  42.551  85.346  1.00  0.00     0.004 C 
ENDBRANCH   1  11
TORSDOF 4
ENDMDL
MODEL 6
REMARK VINA RESULT:    -3.151      2.352      3.215
REMARK INTER + INTRA:          -3.819
REMARK INTER:                  -3.686
REMARK INTRA:                  -0.133
REMARK UNBOUND:                -0.023
REMARK SMILES CC[C@@H](C)[C@@H]([NH3+])C(=O)[O-]
REMARK SMILES IDX 3 1 4 2 5 3 6 4 7 8 8 9 9 10 2 11 1 12
REMARK H PARENT 6 5 6 6 6 7
REMARK Flexibility Score: inf
ROOT
ATOM      1  C   UNL     1    -140.799  42.650  88.021  1.00  0.00     0.050 C 
ATOM      2  C   UNL     1    -141.704  43.871  88.276  1.00  0.00     0.014 C 
ENDROOT
BRANCH   1   3
ATOM      3  C   UNL     1    -140.460  41.904  89.351  1.00  0.00     0.230 C 
BRANCH   3   4
ATOM      4  N   UNL     1    -141.465  40.881  89.676  1.00  0.00    -0.350 N 
ATOM      5  H   UNL     1    -142.254  41.303  90.217  1.00  0.00     0.345 HD
ATOM      6  H   UNL     1    -141.041  40.140  90.280  1.00  0.00     0.345 HD
ATOM      7  H   UNL     1    -141.838  40.438  88.805  1.00  0.00     0.345 HD
ENDBRANCH   3   4
BRANCH   3   8
ATOM      8  C   UNL     1    -139.101  41.255  89.264  1.00  0.00     0.099 C 
ATOM      9  O   UNL     1    -138.078  41.954  89.037  1.00  0.00    -0.544 OA
ATOM     10  O   UNL     1    -138.970  39.881  89.424  1.00  0.00    -0.544 OA
ENDBRANCH   3   8
ENDBRANCH   1   3
BRANCH   1  11
ATOM     11  C   UNL     1    -141.408  41.737  86.924  1.00  0.00     0.006 C 
ATOM     12  C   UNL     1    -140.409  41.260  85.866  1.00  0.00     0.004 C 
ENDBRANCH   1  11
TORSDOF 4
ENDMDL
MODEL 7
REMARK VINA RESULT:    -3.148      4.314      5.621
REMARK INTER + INTRA:          -3.815
REMARK INTER:                  -3.725
REMARK INTRA:                  -0.090
REMARK UNBOUND:                -0.023
REMARK SMILES CC[C@@H](C)[C@@H]([NH3+])C(=O)[O-]
REMARK SMILES IDX 3 1 4 2 5 3 6 4 7 8 8 9 9 10 2 11 1 12
REMARK H PARENT 6 5 6 6 6 7
REMARK Flexibility Score: inf
ROOT
ATOM      1  C   UNL     1    -139.601  41.556  84.487  1.00  0.00     0.050 C 
ATOM      2  C   UNL     1    -138.373  42.435  84.179  1.00  0.00     0.014 C 
ENDROOT
BRANCH   1   3
ATOM      3  C   UNL     1    -140.448  41.289  83.203  1.00  0.00     0.230 C 
BRANCH   3   4
ATOM      4  N   UNL     1    -141.468  40.252  83.426  1.00  0.00    -0.350 N 
ATOM      5  H   UNL     1    -141.978  40.047  82.537  1.00  0.00     0.345 HD
ATOM      6  H   UNL     1    -142.178  40.589  84.116  1.00  0.00     0.345 HD
ATOM      7  H   UNL     1    -141.030  39.375  83.788  1.00  0.00     0.345 HD
ENDBRANCH   3   4
BRANCH   3   8
ATOM      8  C   UNL     1    -141.122  42.557  82.739  1.00  0.00     0.099 C 
ATOM      9  O   UNL     1    -141.091  42.883  81.524  1.00  0.00    -0.544 OA
ATOM     10  O   UNL     1    -141.774  43.378  83.653  1.00  0.00    -0.544 OA
ENDBRANCH   3   8
ENDBRANCH   1   3
BRANCH   1  11
ATOM     11  C   UNL     1    -139.176  40.268  85.240  1.00  0.00     0.006 C 
ATOM     12  C   UNL     1    -138.240  40.504  86.429  1.00  0.00     0.004 C 
ENDBRANCH   1  11
TORSDOF 4
ENDMDL
MODEL 8
REMARK VINA RESULT:    -3.133      2.411      3.137
REMARK INTER + INTRA:          -3.797
REMARK INTER:                  -3.826
REMARK INTRA:                   0.029
REMARK UNBOUND:                -0.023
REMARK SMILES CC[C@@H](C)[C@@H]([NH3+])C(=O)[O-]
REMARK SMILES IDX 3 1 4 2 5 3 6 4 7 8 8 9 9 10 2 11 1 12
REMARK H PARENT 6 5 6 6 6 7
REMARK Flexibility Score: inf
ROOT
ATOM      1  C   UNL     1    -139.851  42.166  87.816  1.00  0.00     0.050 C 
ATOM      2  C   UNL     1    -140.627  41.517  88.979  1.00  0.00     0.014 C 
ENDROOT
BRANCH   1   3
ATOM      3  C   UNL     1    -138.314  42.180  88.093  1.00  0.00     0.230 C 
BRANCH   3   4
ATOM      4  N   UNL     1    -138.014  42.501  89.497  1.00  0.00    -0.350 N 
ATOM      5  H   UNL     1    -137.997  41.630  90.074  1.00  0.00     0.345 HD
ATOM      6  H   UNL     1    -138.761  43.117  89.892  1.00  0.00     0.345 HD
ATOM      7  H   UNL     1    -137.093  42.991  89.575  1.00  0.00     0.345 HD
ENDBRANCH   3   4
BRANCH   3   8
ATOM      8  C   UNL     1    -137.700  40.846  87.747  1.00  0.00     0.099 C 
ATOM      9  O   UNL     1    -137.797  39.877  88.545  1.00  0.00    -0.544 OA
ATOM     10  O   UNL     1    -137.017  40.680  86.548  1.00  0.00    -0.544 OA
ENDBRANCH   3   8
ENDBRANCH   1   3
BRANCH   1  11
ATOM     11  C   UNL     1    -140.241  41.510  86.465  1.00  0.00     0.006 C 
ATOM     12  C   UNL     1    -141.675  41.794  86.010  1.00  0.00     0.004 C 
ENDBRANCH   1  11
TORSDOF 4
ENDMDL
