MODEL 1
REMARK VINA RESULT:    -5.652      0.000      0.000
REMARK INTER + INTRA:          -5.817
REMARK INTER:                  -5.817
REMARK INTRA:                   0.000
REMARK UNBOUND:                 0.000
REMARK SMILES Nc1ncnc2nc[nH]c12
REMARK SMILES IDX 8 1 7 2 6 3 5 4 4 5 3 6 2 7 10 8 9 9 1 11
REMARK H PARENT 9 10 1 12 1 13
REMARK Flexibility Score: inf
ROOT
ATOM      1  C   UNL     1      20.196  24.929  25.412  1.00  0.00     0.199 A 
ATOM      2  N   UNL     1      19.817  23.653  25.694  1.00  0.00    -0.217 NA
ATOM      3  C   UNL     1      20.448  23.417  26.856  1.00  0.00     0.182 A 
ATOM      4  N   UNL     1      20.408  22.275  27.581  1.00  0.00    -0.215 NA
ATOM      5  C   UNL     1      21.122  22.222  28.746  1.00  0.00     0.226 A 
ATOM      6  N   UNL     1      21.856  23.304  29.161  1.00  0.00    -0.217 NA
ATOM      7  C   UNL     1      21.899  24.459  28.431  1.00  0.00     0.152 A 
ATOM      8  C   UNL     1      21.167  24.496  27.247  1.00  0.00     0.127 A 
ATOM      9  N   UNL     1      21.021  25.472  26.343  1.00  0.00    -0.340 N 
ATOM     10  H   UNL     1      21.439  26.429  26.342  1.00  0.00     0.168 HD
ENDROOT
BRANCH   7  11
ATOM     11  N   UNL     1      22.670  25.573  28.882  1.00  0.00    -0.382 N 
ATOM     12  H   UNL     1      22.191  26.431  29.234  1.00  0.00     0.158 HD
ATOM     13  H   UNL     1      23.714  25.553  28.869  1.00  0.00     0.158 HD
ENDBRANCH   7  11
TORSDOF 1
ENDMDL
MODEL 2
REMARK VINA RESULT:    -5.567      0.939      2.989
REMARK INTER + INTRA:          -5.730
REMARK INTER:                  -5.730
REMARK INTRA:                   0.000
REMARK UNBOUND:                 0.000
REMARK SMILES Nc1ncnc2nc[nH]c12
REMARK SMILES IDX 8 1 7 2 6 3 5 4 4 5 3 6 2 7 10 8 9 9 1 11
REMARK H PARENT 9 10 1 12 1 13
REMARK Flexibility Score: inf
ROOT
ATOM      1  C   UNL     1      21.921  24.055  29.286  1.00  0.00     0.199 A 
ATOM      2  N   UNL     1      21.217  22.935  28.968  1.00  0.00    -0.217 NA
ATOM      3  C   UNL     1      20.729  23.239  27.754  1.00  0.00     0.182 A 
ATOM      4  N   UNL     1      19.946  22.453  26.977  1.00  0.00    -0.215 NA
ATOM      5  C   UNL     1      19.546  22.939  25.763  1.00  0.00     0.226 A 
ATOM      6  N   UNL     1      19.933  24.189  25.351  1.00  0.00    -0.217 NA
ATOM      7  C   UNL     1      20.723  24.983  26.134  1.00  0.00     0.152 A 
ATOM      8  C   UNL     1      21.122  24.475  27.366  1.00  0.00     0.127 A 
ATOM      9  N   UNL     1      21.883  25.014  28.327  1.00  0.00    -0.340 N 
ATOM     10  H   UNL     1      22.344  25.951  28.346  1.00  0.00     0.168 HD
ENDROOT
BRANCH   7  11
ATOM     11  N   UNL     1      21.114  26.282  25.685  1.00  0.00    -0.382 N 
ATOM     12  H   UNL     1      21.485  26.409  24.717  1.00  0.00     0.158 HD
ATOM     13  H   UNL     1      21.039  27.117  26.305  1.00  0.00     0.158 HD
ENDBRANCH   7  11
TORSDOF 1
ENDMDL
MODEL 3
REMARK VINA RESULT:    -5.113      0.919      3.893
REMARK INTER + INTRA:          -5.262
REMARK INTER:                  -5.262
REMARK INTRA:                   0.000
REMARK UNBOUND:                 0.000
REMARK SMILES Nc1ncnc2nc[nH]c12
REMARK SMILES IDX 8 1 7 2 6 3 5 4 4 5 3 6 2 7 10 8 9 9 1 11
REMARK H PARENT 9 10 1 12 1 13
REMARK Flexibility Score: inf
ROOT
ATOM      1  C   UNL     1      21.604  22.485  29.004  1.00  0.00     0.199 A 
ATOM      2  N   UNL     1      22.072  23.718  28.669  1.00  0.00    -0.217 NA
ATOM      3  C   UNL     1      21.367  23.999  27.560  1.00  0.00     0.182 A 
ATOM      4  N   UNL     1      21.449  25.126  26.814  1.00  0.00    -0.215 NA
ATOM      5  C   UNL     1      20.646  25.232  25.712  1.00  0.00     0.226 A 
ATOM      6  N   UNL     1      19.784  24.219  25.380  1.00  0.00    -0.217 NA
ATOM      7  C   UNL     1      19.699  23.080  26.131  1.00  0.00     0.152 A 
ATOM      8  C   UNL     1      20.523  22.988  27.250  1.00  0.00     0.127 A 
ATOM      9  N   UNL     1      20.657  22.011  28.156  1.00  0.00    -0.340 N 
ATOM     10  H   UNL     1      20.156  21.096  28.208  1.00  0.00     0.168 HD
ENDROOT
BRANCH   7  11
ATOM     11  N   UNL     1      18.794  22.037  25.766  1.00  0.00    -0.382 N 
ATOM     12  H   UNL     1      18.862  21.103  26.227  1.00  0.00     0.158 HD
ATOM     13  H   UNL     1      18.057  22.185  25.043  1.00  0.00     0.158 HD
ENDBRANCH   7  11
TORSDOF 1
ENDMDL
MODEL 4
REMARK VINA RESULT:    -5.092      1.118      1.822
REMARK INTER + INTRA:          -5.241
REMARK INTER:                  -5.241
REMARK INTRA:                   0.000
REMARK UNBOUND:                 0.000
REMARK SMILES Nc1ncnc2nc[nH]c12
REMARK SMILES IDX 8 1 7 2 6 3 5 4 4 5 3 6 2 7 10 8 9 9 1 11
REMARK H PARENT 9 10 1 12 1 13
REMARK Flexibility Score: inf
ROOT
ATOM      1  C   UNL     1      19.169  23.002  25.804  1.00  0.00     0.199 A 
ATOM      2  N   UNL     1      19.454  22.370  26.975  1.00  0.00    -0.217 NA
ATOM      3  C   UNL     1      20.452  23.121  27.469  1.00  0.00     0.182 A 
ATOM      4  N   UNL     1      21.110  22.924  28.636  1.00  0.00    -0.215 NA
ATOM      5  C   UNL     1      22.105  23.800  28.974  1.00  0.00     0.226 A 
ATOM      6  N   UNL     1      22.420  24.847  28.145  1.00  0.00    -0.217 NA
ATOM      7  C   UNL     1      21.758  25.047  26.966  1.00  0.00     0.152 A 
ATOM      8  C   UNL     1      20.748  24.147  26.638  1.00  0.00     0.127 A 
ATOM      9  N   UNL     1      19.943  24.092  25.569  1.00  0.00    -0.340 N 
ATOM     10  H   UNL     1      19.909  24.731  24.744  1.00  0.00     0.168 HD
ENDROOT
BRANCH   7  11
ATOM     11  N   UNL     1      22.103  26.144  26.119  1.00  0.00    -0.382 N 
ATOM     12  H   UNL     1      21.487  26.986  26.079  1.00  0.00     0.158 HD
ATOM     13  H   UNL     1      22.964  26.127  25.530  1.00  0.00     0.158 HD
ENDBRANCH   7  11
TORSDOF 1
ENDMDL
MODEL 5
REMARK VINA RESULT:    -4.925      1.227      2.805
REMARK INTER + INTRA:          -5.069
REMARK INTER:                  -5.069
REMARK INTRA:                   0.000
REMARK UNBOUND:                 0.000
REMARK SMILES Nc1ncnc2nc[nH]c12
REMARK SMILES IDX 8 1 7 2 6 3 5 4 4 5 3 6 2 7 10 8 9 9 1 11
REMARK H PARENT 9 10 1 12 1 13
REMARK Flexibility Score: inf
ROOT
ATOM      1  C   UNL     1      20.446  26.036  25.085  1.00  0.00     0.199 A 
ATOM      2  N   UNL     1      21.367  26.022  26.086  1.00  0.00    -0.217 NA
ATOM      3  C   UNL     1      21.153  24.824  26.655  1.00  0.00     0.182 A 
ATOM      4  N   UNL     1      21.815  24.303  27.715  1.00  0.00    -0.215 NA
ATOM      5  C   UNL     1      21.453  23.060  28.155  1.00  0.00     0.226 A 
ATOM      6  N   UNL     1      20.446  22.367  27.532  1.00  0.00    -0.217 NA
ATOM      7  C   UNL     1      19.777  22.891  26.462  1.00  0.00     0.152 A 
ATOM      8  C   UNL     1      20.157  24.157  26.026  1.00  0.00     0.127 A 
ATOM      9  N   UNL     1      19.691  24.910  25.022  1.00  0.00    -0.340 N 
ATOM     10  H   UNL     1      18.927  24.693  24.344  1.00  0.00     0.168 HD
ENDROOT
BRANCH   7  11
ATOM     11  N   UNL     1      18.732  22.152  25.828  1.00  0.00    -0.382 N 
ATOM     12  H   UNL     1      17.994  22.652  25.286  1.00  0.00     0.158 HD
ATOM     13  H   UNL     1      18.685  21.111  25.893  1.00  0.00     0.158 HD
ENDBRANCH   7  11
TORSDOF 1
ENDMDL
MODEL 6
REMARK VINA RESULT:    -4.866      1.557      3.107
REMARK INTER + INTRA:          -5.008
REMARK INTER:                  -5.008
REMARK INTRA:                   0.000
REMARK UNBOUND:                 0.000
REMARK SMILES Nc1ncnc2nc[nH]c12
REMARK SMILES IDX 8 1 7 2 6 3 5 4 4 5 3 6 2 7 10 8 9 9 1 11
REMARK H PARENT 9 10 1 12 1 13
REMARK Flexibility Score: inf
ROOT
ATOM      1  C   UNL     1      24.577  24.538  28.189  1.00  0.00     0.199 A 
ATOM      2  N   UNL     1      24.022  23.378  28.632  1.00  0.00    -0.217 NA
ATOM      3  C   UNL     1      22.781  23.441  28.120  1.00  0.00     0.182 A 
ATOM      4  N   UNL     1      21.800  22.519  28.264  1.00  0.00    -0.215 NA
ATOM      5  C   UNL     1      20.594  22.761  27.665  1.00  0.00     0.226 A 
ATOM      6  N   UNL     1      20.395  23.908  26.939  1.00  0.00    -0.217 NA
ATOM      7  C   UNL     1      21.384  24.839  26.793  1.00  0.00     0.152 A 
ATOM      8  C   UNL     1      22.605  24.579  27.408  1.00  0.00     0.127 A 
ATOM      9  N   UNL     1      23.736  25.294  27.438  1.00  0.00    -0.340 N 
ATOM     10  H   UNL     1      23.937  26.217  26.993  1.00  0.00     0.168 HD
ENDROOT
BRANCH   7  11
ATOM     11  N   UNL     1      21.155  26.026  26.033  1.00  0.00    -0.382 N 
ATOM     12  H   UNL     1      21.519  26.943  26.375  1.00  0.00     0.158 HD
ATOM     13  H   UNL     1      20.626  26.003  25.134  1.00  0.00     0.158 HD
ENDBRANCH   7  11
TORSDOF 1
ENDMDL
MODEL 7
REMARK VINA RESULT:    -4.687     10.033     11.495
REMARK INTER + INTRA:          -4.824
REMARK INTER:                  -4.824
REMARK INTRA:                   0.000
REMARK UNBOUND:                 0.000
REMARK SMILES Nc1ncnc2nc[nH]c12
REMARK SMILES IDX 8 1 7 2 6 3 5 4 4 5 3 6 2 7 10 8 9 9 1 11
REMARK H PARENT 9 10 1 12 1 13
REMARK Flexibility Score: inf
ROOT
ATOM      1  C   UNL     1      18.740  31.453  38.108  1.00  0.00     0.199 A 
ATOM      2  N   UNL     1      19.904  30.891  38.534  1.00  0.00    -0.217 NA
ATOM      3  C   UNL     1      20.047  29.856  37.690  1.00  0.00     0.182 A 
ATOM      4  N   UNL     1      21.059  28.956  37.679  1.00  0.00    -0.215 NA
ATOM      5  C   UNL     1      21.031  27.964  36.738  1.00  0.00     0.226 A 
ATOM      6  N   UNL     1      20.002  27.891  35.834  1.00  0.00    -0.217 NA
ATOM      7  C   UNL     1      18.979  28.797  35.844  1.00  0.00     0.152 A 
ATOM      8  C   UNL     1      19.022  29.801  36.808  1.00  0.00     0.127 A 
ATOM      9  N   UNL     1      18.177  30.809  37.055  1.00  0.00    -0.340 N 
ATOM     10  H   UNL     1      17.289  31.053  36.560  1.00  0.00     0.168 HD
ENDROOT
BRANCH   7  11
ATOM     11  N   UNL     1      17.917  28.702  34.893  1.00  0.00    -0.382 N 
ATOM     12  H   UNL     1      17.410  29.563  34.591  1.00  0.00     0.158 HD
ATOM     13  H   UNL     1      17.631  27.785  34.487  1.00  0.00     0.158 HD
ENDBRANCH   7  11
TORSDOF 1
ENDMDL
MODEL 8
REMARK VINA RESULT:    -4.658     10.048     11.624
REMARK INTER + INTRA:          -4.794
REMARK INTER:                  -4.794
REMARK INTRA:                   0.000
REMARK UNBOUND:                 0.000
REMARK SMILES Nc1ncnc2nc[nH]c12
REMARK SMILES IDX 8 1 7 2 6 3 5 4 4 5 3 6 2 7 10 8 9 9 1 11
REMARK H PARENT 9 10 1 12 1 13
REMARK Flexibility Score: inf
ROOT
ATOM      1  C   UNL     1      22.487  28.325  38.564  1.00  0.00     0.199 A 
ATOM      2  N   UNL     1      22.089  27.594  37.487  1.00  0.00    -0.217 NA
ATOM      3  C   UNL     1      20.979  28.242  37.097  1.00  0.00     0.182 A 
ATOM      4  N   UNL     1      20.181  27.921  36.052  1.00  0.00    -0.215 NA
ATOM      5  C   UNL     1      19.087  28.705  35.809  1.00  0.00     0.226 A 
ATOM      6  N   UNL     1      18.814  29.786  36.608  1.00  0.00    -0.217 NA
ATOM      7  C   UNL     1      19.618  30.112  37.664  1.00  0.00     0.152 A 
ATOM      8  C   UNL     1      20.728  29.304  37.898  1.00  0.00     0.127 A 
ATOM      9  N   UNL     1      21.676  29.377  38.840  1.00  0.00    -0.340 N 
ATOM     10  H   UNL     1      21.778  30.074  39.611  1.00  0.00     0.168 HD
ENDROOT
BRANCH   7  11
ATOM     11  N   UNL     1      19.315  31.242  38.484  1.00  0.00    -0.382 N 
ATOM     12  H   UNL     1      18.328  31.437  38.759  1.00  0.00     0.158 HD
ATOM     13  H   UNL     1      20.064  31.887  38.819  1.00  0.00     0.158 HD
ENDBRANCH   7  11
TORSDOF 1
ENDMDL
MODEL 9
REMARK VINA RESULT:    -4.457     10.433     12.019
REMARK INTER + INTRA:          -4.587
REMARK INTER:                  -4.587
REMARK INTRA:                   0.000
REMARK UNBOUND:                 0.000
REMARK SMILES Nc1ncnc2nc[nH]c12
REMARK SMILES IDX 8 1 7 2 6 3 5 4 4 5 3 6 2 7 10 8 9 9 1 11
REMARK H PARENT 9 10 1 12 1 13
REMARK Flexibility Score: inf
ROOT
ATOM      1  C   UNL     1      21.360  28.872  37.658  1.00  0.00     0.199 A 
ATOM      2  N   UNL     1      20.941  29.875  38.476  1.00  0.00    -0.217 NA
ATOM      3  C   UNL     1      19.764  30.218  37.927  1.00  0.00     0.182 A 
ATOM      4  N   UNL     1      18.920  31.184  38.361  1.00  0.00    -0.215 NA
ATOM      5  C   UNL     1      17.760  31.389  37.667  1.00  0.00     0.226 A 
ATOM      6  N   UNL     1      17.467  30.630  36.562  1.00  0.00    -0.217 NA
ATOM      7  C   UNL     1      18.317  29.655  36.122  1.00  0.00     0.152 A 
ATOM      8  C   UNL     1      19.494  29.459  36.840  1.00  0.00     0.127 A 
ATOM      9  N   UNL     1      20.497  28.593  36.649  1.00  0.00    -0.340 N 
ATOM     10  H   UNL     1      20.602  27.870  35.903  1.00  0.00     0.168 HD
ENDROOT
BRANCH   7  11
ATOM     11  N   UNL     1      17.991  28.876  34.970  1.00  0.00    -0.382 N 
ATOM     12  H   UNL     1      17.062  28.990  34.509  1.00  0.00     0.158 HD
ATOM     13  H   UNL     1      18.666  28.188  34.570  1.00  0.00     0.158 HD
ENDBRANCH   7  11
TORSDOF 1
ENDMDL
