MODEL 1
REMARK VINA RESULT:    -3.661      0.000      0.000
REMARK INTER + INTRA:          -4.695
REMARK INTER:                  -4.517
REMARK INTRA:                  -0.178
REMARK UNBOUND:                -0.178
REMARK SMILES C=CC[C@@H](C)C(=O)CC
REMARK SMILES IDX 4 1 5 2 6 3 7 4 8 5 9 6 3 7 2 8 1 9
REMARK H PARENT
REMARK Flexibility Score: inf
ROOT
ATOM      1  C   UNL     1     141.769 155.120 202.455  1.00  0.00     0.057 C 
ATOM      2  C   UNL     1     141.996 156.247 201.441  1.00  0.00     0.016 C 
ENDROOT
BRANCH   1   3
ATOM      3  C   UNL     1     142.450 153.854 201.976  1.00  0.00     0.135 C 
ATOM      4  O   UNL     1     143.232 153.270 202.714  1.00  0.00    -0.299 OA
BRANCH   3   5
ATOM      5  C   UNL     1     142.198 153.308 200.595  1.00  0.00     0.072 C 
ATOM      6  C   UNL     1     141.571 151.919 200.661  1.00  0.00     0.012 C 
ENDBRANCH   3   5
ENDBRANCH   1   3
BRANCH   1   7
ATOM      7  C   UNL     1     142.276 155.538 203.849  1.00  0.00     0.038 C 
BRANCH   7   8
ATOM      8  C   UNL     1     142.557 157.016 203.910  1.00  0.00    -0.034 C 
ATOM      9  C   UNL     1     142.977 157.609 205.032  1.00  0.00     0.004 C 
ENDBRANCH   7   8
ENDBRANCH   1   7
TORSDOF 4
ENDMDL
MODEL 2
REMARK VINA RESULT:    -3.508     10.611     11.791
REMARK INTER + INTRA:          -4.506
REMARK INTER:                  -4.060
REMARK INTRA:                  -0.446
REMARK UNBOUND:                -0.178
REMARK SMILES C=CC[C@@H](C)C(=O)CC
REMARK SMILES IDX 4 1 5 2 6 3 7 4 8 5 9 6 3 7 2 8 1 9
REMARK H PARENT
REMARK Flexibility Score: inf
ROOT
ATOM      1  C   UNL     1     152.318 161.201 202.013  1.00  0.00     0.057 C 
ATOM      2  C   UNL     1     152.107 162.557 202.695  1.00  0.00     0.016 C 
ENDROOT
BRANCH   1   3
ATOM      3  C   UNL     1     151.327 160.193 202.558  1.00  0.00     0.135 C 
ATOM      4  O   UNL     1     150.128 160.434 202.510  1.00  0.00    -0.299 OA
BRANCH   3   5
ATOM      5  C   UNL     1     151.791 158.903 203.183  1.00  0.00     0.072 C 
ATOM      6  C   UNL     1     152.341 157.951 202.126  1.00  0.00     0.012 C 
ENDBRANCH   3   5
ENDBRANCH   1   3
BRANCH   1   7
ATOM      7  C   UNL     1     152.193 161.341 200.483  1.00  0.00     0.038 C 
BRANCH   7   8
ATOM      8  C   UNL     1     153.347 160.679 199.776  1.00  0.00    -0.034 C 
ATOM      9  C   UNL     1     154.575 160.651 200.303  1.00  0.00     0.004 C 
ENDBRANCH   7   8
ENDBRANCH   1   7
TORSDOF 4
ENDMDL
MODEL 3
REMARK VINA RESULT:    -3.473     10.705     11.933
REMARK INTER + INTRA:          -4.462
REMARK INTER:                  -3.979
REMARK INTRA:                  -0.484
REMARK UNBOUND:                -0.178
REMARK SMILES C=CC[C@@H](C)C(=O)CC
REMARK SMILES IDX 4 1 5 2 6 3 7 4 8 5 9 6 3 7 2 8 1 9
REMARK H PARENT
REMARK Flexibility Score: inf
ROOT
ATOM      1  C   UNL     1     152.776 160.554 200.799  1.00  0.00     0.057 C 
ATOM      2  C   UNL     1     154.287 160.738 200.973  1.00  0.00     0.016 C 
ENDROOT
BRANCH   1   3
ATOM      3  C   UNL     1     152.044 161.171 201.974  1.00  0.00     0.135 C 
ATOM      4  O   UNL     1     152.333 162.302 202.342  1.00  0.00    -0.299 OA
BRANCH   3   5
ATOM      5  C   UNL     1     150.978 160.408 202.717  1.00  0.00     0.072 C 
ATOM      6  C   UNL     1     151.417 158.971 202.979  1.00  0.00     0.012 C 
ENDBRANCH   3   5
ENDBRANCH   1   3
BRANCH   1   7
ATOM      7  C   UNL     1     152.308 161.163 199.463  1.00  0.00     0.038 C 
BRANCH   7   8
ATOM      8  C   UNL     1     151.076 160.467 198.946  1.00  0.00    -0.034 C 
ATOM      9  C   UNL     1     150.935 159.140 199.011  1.00  0.00     0.004 C 
ENDBRANCH   7   8
ENDBRANCH   1   7
TORSDOF 4
ENDMDL
MODEL 4
REMARK VINA RESULT:    -3.357     10.976     12.119
REMARK INTER + INTRA:          -4.320
REMARK INTER:                  -3.812
REMARK INTRA:                  -0.507
REMARK UNBOUND:                -0.178
REMARK SMILES C=CC[C@@H](C)C(=O)CC
REMARK SMILES IDX 4 1 5 2 6 3 7 4 8 5 9 6 3 7 2 8 1 9
REMARK H PARENT
REMARK Flexibility Score: inf
ROOT
ATOM      1  C   UNL     1     151.955 161.430 201.091  1.00  0.00     0.057 C 
ATOM      2  C   UNL     1     152.307 162.132 202.407  1.00  0.00     0.016 C 
ENDROOT
BRANCH   1   3
ATOM      3  C   UNL     1     153.220 160.939 200.416  1.00  0.00     0.135 C 
ATOM      4  O   UNL     1     153.240 160.788 199.202  1.00  0.00    -0.299 OA
BRANCH   3   5
ATOM      5  C   UNL     1     154.453 160.611 201.216  1.00  0.00     0.072 C 
ATOM      6  C   UNL     1     154.792 159.127 201.115  1.00  0.00     0.012 C 
ENDBRANCH   3   5
ENDBRANCH   1   3
BRANCH   1   7
ATOM      7  C   UNL     1     150.968 160.274 201.344  1.00  0.00     0.038 C 
BRANCH   7   8
ATOM      8  C   UNL     1     151.122 159.715 202.734  1.00  0.00    -0.034 C 
ATOM      9  C   UNL     1     151.615 158.492 202.953  1.00  0.00     0.004 C 
ENDBRANCH   7   8
ENDBRANCH   1   7
TORSDOF 4
ENDMDL
MODEL 5
REMARK VINA RESULT:    -3.345     11.347     12.496
REMARK INTER + INTRA:          -4.305
REMARK INTER:                  -3.834
REMARK INTRA:                  -0.471
REMARK UNBOUND:                -0.178
REMARK SMILES C=CC[C@@H](C)C(=O)CC
REMARK SMILES IDX 4 1 5 2 6 3 7 4 8 5 9 6 3 7 2 8 1 9
REMARK H PARENT
REMARK Flexibility Score: inf
ROOT
ATOM      1  C   UNL     1     152.414 161.262 201.193  1.00  0.00     0.057 C 
ATOM      2  C   UNL     1     152.227 162.192 202.397  1.00  0.00     0.016 C 
ENDROOT
BRANCH   1   3
ATOM      3  C   UNL     1     153.424 160.183 201.529  1.00  0.00     0.135 C 
ATOM      4  O   UNL     1     153.057 159.169 202.108  1.00  0.00    -0.299 OA
BRANCH   3   5
ATOM      5  C   UNL     1     154.881 160.344 201.181  1.00  0.00     0.072 C 
ATOM      6  C   UNL     1     155.052 160.775 199.728  1.00  0.00     0.012 C 
ENDBRANCH   3   5
ENDBRANCH   1   3
BRANCH   1   7
ATOM      7  C   UNL     1     151.064 160.656 200.764  1.00  0.00     0.038 C 
BRANCH   7   8
ATOM      8  C   UNL     1     151.078 160.258 199.312  1.00  0.00    -0.034 C 
ATOM      9  C   UNL     1     151.583 161.057 198.367  1.00  0.00     0.004 C 
ENDBRANCH   7   8
ENDBRANCH   1   7
TORSDOF 4
ENDMDL
MODEL 6
REMARK VINA RESULT:    -3.213     10.989     12.078
REMARK INTER + INTRA:          -4.143
REMARK INTER:                  -3.643
REMARK INTRA:                  -0.499
REMARK UNBOUND:                -0.178
REMARK SMILES C=CC[C@@H](C)C(=O)CC
REMARK SMILES IDX 4 1 5 2 6 3 7 4 8 5 9 6 3 7 2 8 1 9
REMARK H PARENT
REMARK Flexibility Score: inf
ROOT
ATOM      1  C   UNL     1     152.313 161.247 200.354  1.00  0.00     0.057 C 
ATOM      2  C   UNL     1     151.274 160.462 199.546  1.00  0.00     0.016 C 
ENDROOT
BRANCH   1   3
ATOM      3  C   UNL     1     151.869 161.349 201.800  1.00  0.00     0.135 C 
ATOM      4  O   UNL     1     152.342 162.218 202.519  1.00  0.00    -0.299 OA
BRANCH   3   5
ATOM      5  C   UNL     1     150.868 160.382 202.378  1.00  0.00     0.072 C 
ATOM      6  C   UNL     1     151.570 159.219 203.072  1.00  0.00     0.012 C 
ENDBRANCH   3   5
ENDBRANCH   1   3
BRANCH   1   7
ATOM      7  C   UNL     1     153.700 160.586 200.238  1.00  0.00     0.038 C 
BRANCH   7   8
ATOM      8  C   UNL     1     153.586 159.143 199.819  1.00  0.00    -0.034 C 
ATOM      9  C   UNL     1     154.134 158.156 200.534  1.00  0.00     0.004 C 
ENDBRANCH   7   8
ENDBRANCH   1   7
TORSDOF 4
ENDMDL
MODEL 7
REMARK VINA RESULT:    -3.199     10.295     10.980
REMARK INTER + INTRA:          -4.125
REMARK INTER:                  -3.634
REMARK INTRA:                  -0.491
REMARK UNBOUND:                -0.178
REMARK SMILES C=CC[C@@H](C)C(=O)CC
REMARK SMILES IDX 4 1 5 2 6 3 7 4 8 5 9 6 3 7 2 8 1 9
REMARK H PARENT
REMARK Flexibility Score: inf
ROOT
ATOM      1  C   UNL     1     151.260 161.092 201.618  1.00  0.00     0.057 C 
ATOM      2  C   UNL     1     152.386 161.892 202.281  1.00  0.00     0.016 C 
ENDROOT
BRANCH   1   3
ATOM      3  C   UNL     1     151.731 160.550 200.283  1.00  0.00     0.135 C 
ATOM      4  O   UNL     1     152.880 160.758 199.917  1.00  0.00    -0.299 OA
BRANCH   3   5
ATOM      5  C   UNL     1     150.804 159.776 199.384  1.00  0.00     0.072 C 
ATOM      6  C   UNL     1     151.358 158.385 199.094  1.00  0.00     0.012 C 
ENDBRANCH   3   5
ENDBRANCH   1   3
BRANCH   1   7
ATOM      7  C   UNL     1     150.782 159.960 202.547  1.00  0.00     0.038 C 
BRANCH   7   8
ATOM      8  C   UNL     1     151.918 159.046 202.926  1.00  0.00    -0.034 C 
ATOM      9  C   UNL     1     151.835 157.720 202.782  1.00  0.00     0.004 C 
ENDBRANCH   7   8
ENDBRANCH   1   7
TORSDOF 4
ENDMDL
MODEL 8
REMARK VINA RESULT:    -3.190     10.374     11.282
REMARK INTER + INTRA:          -4.114
REMARK INTER:                  -3.748
REMARK INTRA:                  -0.365
REMARK UNBOUND:                -0.178
REMARK SMILES C=CC[C@@H](C)C(=O)CC
REMARK SMILES IDX 4 1 5 2 6 3 7 4 8 5 9 6 3 7 2 8 1 9
REMARK H PARENT
REMARK Flexibility Score: inf
ROOT
ATOM      1  C   UNL     1     152.173 160.887 201.362  1.00  0.00     0.057 C 
ATOM      2  C   UNL     1     152.185 162.047 202.364  1.00  0.00     0.016 C 
ENDROOT
BRANCH   1   3
ATOM      3  C   UNL     1     152.701 159.631 202.025  1.00  0.00     0.135 C 
ATOM      4  O   UNL     1     153.829 159.235 201.762  1.00  0.00    -0.299 OA
BRANCH   3   5
ATOM      5  C   UNL     1     151.854 158.842 202.989  1.00  0.00     0.072 C 
ATOM      6  C   UNL     1     151.855 157.359 202.631  1.00  0.00     0.012 C 
ENDBRANCH   3   5
ENDBRANCH   1   3
BRANCH   1   7
ATOM      7  C   UNL     1     150.754 160.672 200.801  1.00  0.00     0.038 C 
BRANCH   7   8
ATOM      8  C   UNL     1     150.791 160.303 199.342  1.00  0.00    -0.034 C 
ATOM      9  C   UNL     1     150.865 159.031 198.938  1.00  0.00     0.004 C 
ENDBRANCH   7   8
ENDBRANCH   1   7
TORSDOF 4
ENDMDL
MODEL 9
REMARK VINA RESULT:    -3.168     10.580     11.517
REMARK INTER + INTRA:          -4.087
REMARK INTER:                  -3.620
REMARK INTRA:                  -0.467
REMARK UNBOUND:                -0.178
REMARK SMILES C=CC[C@@H](C)C(=O)CC
REMARK SMILES IDX 4 1 5 2 6 3 7 4 8 5 9 6 3 7 2 8 1 9
REMARK H PARENT
REMARK Flexibility Score: inf
ROOT
ATOM      1  C   UNL     1     153.134 161.000 200.549  1.00  0.00     0.057 C 
ATOM      2  C   UNL     1     154.189 160.152 201.267  1.00  0.00     0.016 C 
ENDROOT
BRANCH   1   3
ATOM      3  C   UNL     1     152.372 160.142 199.559  1.00  0.00     0.135 C 
ATOM      4  O   UNL     1     152.625 158.948 199.471  1.00  0.00    -0.299 OA
BRANCH   3   5
ATOM      5  C   UNL     1     151.320 160.737 198.660  1.00  0.00     0.072 C 
ATOM      6  C   UNL     1     149.981 160.028 198.842  1.00  0.00     0.012 C 
ENDBRANCH   3   5
ENDBRANCH   1   3
BRANCH   1   7
ATOM      7  C   UNL     1     152.185 161.659 201.569  1.00  0.00     0.038 C 
BRANCH   7   8
ATOM      8  C   UNL     1     151.627 160.644 202.532  1.00  0.00    -0.034 C 
ATOM      9  C   UNL     1     150.332 160.314 202.537  1.00  0.00     0.004 C 
ENDBRANCH   7   8
ENDBRANCH   1   7
TORSDOF 4
ENDMDL
