MODEL 1
REMARK VINA RESULT:    19.223      0.000      0.000
REMARK INTER + INTRA:          47.397
REMARK INTER:                  48.442
REMARK INTRA:                  -1.044
REMARK UNBOUND:                -1.044
REMARK SMILES CCCCCCCCCCCCCCCCCCCCCCCCCCCC(=O)[O-]
REMARK SMILES IDX 15 1 16 2 17 3 18 4 19 5 20 6 21 7 22 8 23 9 24 10 25 11
REMARK SMILES IDX 26 12 27 13 28 14 29 15 30 16 14 17 13 18 12 19 11 20 10 21
REMARK SMILES IDX 9 22 8 23 7 24 6 25 5 26 4 27 3 28 2 29 1 30
REMARK H PARENT
REMARK Flexibility Score: inf
ROOT
ATOM      1  C   UNL     1      -2.291  -9.489  10.908  1.00  0.00     0.000 C 
ENDROOT
BRANCH   1   2
ATOM      2  C   UNL     1      -2.704  -9.406  12.387  1.00  0.00     0.000 C 
BRANCH   2   3
ATOM      3  C   UNL     1      -1.555  -8.900  13.285  1.00  0.00     0.000 C 
BRANCH   3   4
ATOM      4  C   UNL     1      -2.025  -7.992  14.438  1.00  0.00     0.000 C 
BRANCH   4   5
ATOM      5  C   UNL     1      -0.974  -6.986  14.940  1.00  0.00     0.000 C 
BRANCH   5   6
ATOM      6  C   UNL     1      -1.080  -6.631  16.437  1.00  0.00     0.000 C 
BRANCH   6   7
ATOM      7  C   UNL     1      -2.344  -7.195  17.122  1.00  0.00     0.000 C 
BRANCH   7   8
ATOM      8  C   UNL     1      -2.684  -6.448  18.424  1.00  0.00     0.000 C 
BRANCH   8   9
ATOM      9  C   UNL     1      -3.156  -7.394  19.541  1.00  0.00     0.000 C 
BRANCH   9  10
ATOM     10  C   UNL     1      -2.098  -8.452  19.905  1.00  0.00     0.000 C 
BRANCH  10  11
ATOM     11  C   UNL     1      -1.393  -8.148  21.236  1.00  0.00     0.000 C 
BRANCH  11  12
ATOM     12  C   UNL     1      -1.508  -6.666  21.639  1.00  0.00     0.006 C 
BRANCH  12  13
ATOM     13  C   UNL     1      -1.110  -6.433  23.103  1.00  0.00     0.053 C 
BRANCH  13  14
ATOM     14  C   UNL     1      -2.072  -5.521  23.801  1.00  0.00     0.041 C 
ATOM     15  O   UNL     1      -1.730  -4.347  24.101  1.00  0.00    -0.550 OA
ATOM     16  O   UNL     1      -3.340  -5.976  24.141  1.00  0.00    -0.550 OA
ENDBRANCH  13  14
ENDBRANCH  12  13
ENDBRANCH  11  12
ENDBRANCH  10  11
ENDBRANCH   9  10
ENDBRANCH   8   9
ENDBRANCH   7   8
ENDBRANCH   6   7
ENDBRANCH   5   6
ENDBRANCH   4   5
ENDBRANCH   3   4
ENDBRANCH   2   3
ENDBRANCH   1   2
BRANCH   1  17
ATOM     17  C   UNL     1      -3.475  -9.797   9.977  1.00  0.00     0.000 C 
BRANCH  17  18
ATOM     18  C   UNL     1      -3.046 -10.583   8.724  1.00  0.00     0.000 C 
BRANCH  18  19
ATOM     19  C   UNL     1      -3.864 -11.871   8.537  1.00  0.00     0.000 C 
BRANCH  19  20
ATOM     20  C   UNL     1      -4.089 -12.212   7.053  1.00  0.00     0.000 C 
BRANCH  20  21
ATOM     21  C   UNL     1      -5.588 -12.317   6.700  1.00  0.00     0.000 C 
BRANCH  21  22
ATOM     22  C   UNL     1      -5.995 -13.684   6.125  1.00  0.00    -0.000 C 
BRANCH  22  23
ATOM     23  C   UNL     1      -6.255 -14.736   7.216  1.00  0.00    -0.000 C 
BRANCH  23  24
ATOM     24  C   UNL     1      -5.882 -16.163   6.774  1.00  0.00    -0.000 C 
BRANCH  24  25
ATOM     25  C   UNL     1      -4.499 -16.662   7.244  1.00  0.00    -0.000 C 
BRANCH  25  26
ATOM     26  C   UNL     1      -3.300 -16.150   6.426  1.00  0.00    -0.000 C 
BRANCH  26  27
ATOM     27  C   UNL     1      -2.764 -14.801   6.931  1.00  0.00    -0.000 C 
BRANCH  27  28
ATOM     28  C   UNL     1      -1.802 -14.951   8.122  1.00  0.00    -0.000 C 
BRANCH  28  29
ATOM     29  C   UNL     1      -0.935 -13.701   8.379  1.00  0.00    -0.003 C 
ATOM     30  C   UNL     1       0.557 -13.981   8.195  1.00  0.00     0.004 C 
ENDBRANCH  28  29
ENDBRANCH  27  28
ENDBRANCH  26  27
ENDBRANCH  25  26
ENDBRANCH  24  25
ENDBRANCH  23  24
ENDBRANCH  22  23
ENDBRANCH  21  22
ENDBRANCH  20  21
ENDBRANCH  19  20
ENDBRANCH  18  19
ENDBRANCH  17  18
ENDBRANCH   1  17
TORSDOF 26
ENDMDL
MODEL 2
REMARK VINA RESULT:    19.455      1.516      3.110
REMARK INTER + INTRA:          47.981
REMARK INTER:                  49.583
REMARK INTRA:                  -1.602
REMARK UNBOUND:                -1.044
REMARK SMILES CCCCCCCCCCCCCCCCCCCCCCCCCCCC(=O)[O-]
REMARK SMILES IDX 15 1 16 2 17 3 18 4 19 5 20 6 21 7 22 8 23 9 24 10 25 11
REMARK SMILES IDX 26 12 27 13 28 14 29 15 30 16 14 17 13 18 12 19 11 20 10 21
REMARK SMILES IDX 9 22 8 23 7 24 6 25 5 26 4 27 3 28 2 29 1 30
REMARK H PARENT
REMARK Flexibility Score: inf
ROOT
ATOM      1  C   UNL     1      -3.375 -11.309   8.779  1.00  0.00     0.000 C 
ENDROOT
BRANCH   1   2
ATOM      2  C   UNL     1      -3.332  -9.797   9.058  1.00  0.00     0.000 C 
BRANCH   2   3
ATOM      3  C   UNL     1      -3.151  -9.487  10.560  1.00  0.00     0.000 C 
BRANCH   3   4
ATOM      4  C   UNL     1      -4.242  -8.564  11.136  1.00  0.00     0.000 C 
BRANCH   4   5
ATOM      5  C   UNL     1      -3.992  -8.085  12.577  1.00  0.00     0.000 C 
BRANCH   5   6
ATOM      6  C   UNL     1      -3.069  -8.994  13.411  1.00  0.00     0.000 C 
BRANCH   6   7
ATOM      7  C   UNL     1      -2.851  -8.501  14.858  1.00  0.00     0.000 C 
BRANCH   7   8
ATOM      8  C   UNL     1      -2.471  -7.011  14.915  1.00  0.00     0.000 C 
BRANCH   8   9
ATOM      9  C   UNL     1      -2.028  -6.568  16.319  1.00  0.00     0.000 C 
BRANCH   9  10
ATOM     10  C   UNL     1      -3.062  -6.921  17.403  1.00  0.00     0.000 C 
BRANCH  10  11
ATOM     11  C   UNL     1      -2.507  -6.755  18.827  1.00  0.00     0.000 C 
BRANCH  11  12
ATOM     12  C   UNL     1      -2.652  -8.036  19.668  1.00  0.00     0.006 C 
BRANCH  12  13
ATOM     13  C   UNL     1      -1.295  -8.686  19.969  1.00  0.00     0.053 C 
BRANCH  13  14
ATOM     14  C   UNL     1      -0.761  -8.268  21.305  1.00  0.00     0.041 C 
ATOM     15  O   UNL     1      -0.023  -9.045  21.965  1.00  0.00    -0.550 OA
ATOM     16  O   UNL     1      -1.099  -7.027  21.830  1.00  0.00    -0.550 OA
ENDBRANCH  13  14
ENDBRANCH  12  13
ENDBRANCH  11  12
ENDBRANCH  10  11
ENDBRANCH   9  10
ENDBRANCH   8   9
ENDBRANCH   7   8
ENDBRANCH   6   7
ENDBRANCH   5   6
ENDBRANCH   4   5
ENDBRANCH   3   4
ENDBRANCH   2   3
ENDBRANCH   1   2
BRANCH   1  17
ATOM     17  C   UNL     1      -3.758 -11.634   7.327  1.00  0.00     0.000 C 
BRANCH  17  18
ATOM     18  C   UNL     1      -4.704 -12.846   7.227  1.00  0.00     0.000 C 
BRANCH  18  19
ATOM     19  C   UNL     1      -5.875 -12.593   6.265  1.00  0.00     0.000 C 
BRANCH  19  20
ATOM     20  C   UNL     1      -6.814 -13.807   6.152  1.00  0.00     0.000 C 
BRANCH  20  21
ATOM     21  C   UNL     1      -6.768 -14.698   7.413  1.00  0.00     0.000 C 
BRANCH  21  22
ATOM     22  C   UNL     1      -6.532 -16.187   7.109  1.00  0.00    -0.000 C 
BRANCH  22  23
ATOM     23  C   UNL     1      -5.214 -16.441   6.360  1.00  0.00    -0.000 C 
BRANCH  23  24
ATOM     24  C   UNL     1      -4.019 -16.664   7.306  1.00  0.00    -0.000 C 
BRANCH  24  25
ATOM     25  C   UNL     1      -2.646 -16.231   6.751  1.00  0.00    -0.000 C 
BRANCH  25  26
ATOM     26  C   UNL     1      -2.544 -14.760   6.312  1.00  0.00    -0.000 C 
BRANCH  26  27
ATOM     27  C   UNL     1      -1.192 -14.122   6.669  1.00  0.00    -0.000 C 
BRANCH  27  28
ATOM     28  C   UNL     1      -1.100 -13.711   8.148  1.00  0.00    -0.000 C 
BRANCH  28  29
ATOM     29  C   UNL     1       0.346 -13.639   8.683  1.00  0.00    -0.003 C 
ATOM     30  C   UNL     1       1.107 -14.949   8.476  1.00  0.00     0.004 C 
ENDBRANCH  28  29
ENDBRANCH  27  28
ENDBRANCH  26  27
ENDBRANCH  25  26
ENDBRANCH  24  25
ENDBRANCH  23  24
ENDBRANCH  22  23
ENDBRANCH  21  22
ENDBRANCH  20  21
ENDBRANCH  19  20
ENDBRANCH  18  19
ENDBRANCH  17  18
ENDBRANCH   1  17
TORSDOF 26
ENDMDL
MODEL 3
REMARK VINA RESULT:    19.611      1.837      4.247
REMARK INTER + INTRA:          48.376
REMARK INTER:                  47.958
REMARK INTRA:                   0.418
REMARK UNBOUND:                -1.044
REMARK SMILES CCCCCCCCCCCCCCCCCCCCCCCCCCCC(=O)[O-]
REMARK SMILES IDX 15 1 16 2 17 3 18 4 19 5 20 6 21 7 22 8 23 9 24 10 25 11
REMARK SMILES IDX 26 12 27 13 28 14 29 15 30 16 14 17 13 18 12 19 11 20 10 21
REMARK SMILES IDX 9 22 8 23 7 24 6 25 5 26 4 27 3 28 2 29 1 30
REMARK H PARENT
REMARK Flexibility Score: inf
ROOT
ATOM      1  C   UNL     1       0.271  -8.443  14.075  1.00  0.00     0.000 C 
ENDROOT
BRANCH   1   2
ATOM      2  C   UNL     1       0.365  -6.929  14.330  1.00  0.00     0.000 C 
BRANCH   2   3
ATOM      3  C   UNL     1      -0.262  -6.526  15.682  1.00  0.00     0.000 C 
BRANCH   3   4
ATOM      4  C   UNL     1      -1.751  -6.904  15.809  1.00  0.00     0.000 C 
BRANCH   4   5
ATOM      5  C   UNL     1      -2.577  -5.986  16.729  1.00  0.00     0.000 C 
BRANCH   5   6
ATOM      6  C   UNL     1      -2.406  -6.257  18.236  1.00  0.00     0.000 C 
BRANCH   6   7
ATOM      7  C   UNL     1      -3.347  -7.353  18.783  1.00  0.00     0.000 C 
BRANCH   7   8
ATOM      8  C   UNL     1      -2.898  -7.876  20.158  1.00  0.00     0.000 C 
BRANCH   8   9
ATOM      9  C   UNL     1      -1.371  -7.827  20.338  1.00  0.00     0.000 C 
BRANCH   9  10
ATOM     10  C   UNL     1      -0.951  -7.821  21.819  1.00  0.00     0.000 C 
BRANCH  10  11
ATOM     11  C   UNL     1      -1.732  -6.790  22.650  1.00  0.00     0.000 C 
BRANCH  11  12
ATOM     12  C   UNL     1      -0.995  -5.443  22.760  1.00  0.00     0.006 C 
BRANCH  12  13
ATOM     13  C   UNL     1      -1.766  -4.432  23.620  1.00  0.00     0.053 C 
BRANCH  13  14
ATOM     14  C   UNL     1      -2.825  -5.096  24.444  1.00  0.00     0.041 C 
ATOM     15  O   UNL     1      -3.097  -6.313  24.268  1.00  0.00    -0.550 OA
ATOM     16  O   UNL     1      -3.528  -4.365  25.393  1.00  0.00    -0.550 OA
ENDBRANCH  13  14
ENDBRANCH  12  13
ENDBRANCH  11  12
ENDBRANCH  10  11
ENDBRANCH   9  10
ENDBRANCH   8   9
ENDBRANCH   7   8
ENDBRANCH   6   7
ENDBRANCH   5   6
ENDBRANCH   4   5
ENDBRANCH   3   4
ENDBRANCH   2   3
ENDBRANCH   1   2
BRANCH   1  17
ATOM     17  C   UNL     1       1.116  -8.896  12.873  1.00  0.00     0.000 C 
BRANCH  17  18
ATOM     18  C   UNL     1       0.415  -9.987  12.043  1.00  0.00     0.000 C 
BRANCH  18  19
ATOM     19  C   UNL     1       1.339 -11.180  11.750  1.00  0.00     0.000 C 
BRANCH  19  20
ATOM     20  C   UNL     1       1.557 -11.398  10.243  1.00  0.00     0.000 C 
BRANCH  20  21
ATOM     21  C   UNL     1       0.470 -12.300   9.621  1.00  0.00     0.000 C 
BRANCH  21  22
ATOM     22  C   UNL     1       0.998 -13.662   9.139  1.00  0.00    -0.000 C 
BRANCH  22  23
ATOM     23  C   UNL     1       0.028 -14.374   8.182  1.00  0.00    -0.000 C 
BRANCH  23  24
ATOM     24  C   UNL     1      -1.100 -13.455   7.678  1.00  0.00    -0.000 C 
BRANCH  24  25
ATOM     25  C   UNL     1      -2.095 -14.106   6.695  1.00  0.00    -0.000 C 
BRANCH  25  26
ATOM     26  C   UNL     1      -2.910 -15.283   7.261  1.00  0.00    -0.000 C 
BRANCH  26  27
ATOM     27  C   UNL     1      -4.336 -15.352   6.694  1.00  0.00    -0.000 C 
BRANCH  27  28
ATOM     28  C   UNL     1      -5.210 -14.166   7.137  1.00  0.00    -0.000 C 
BRANCH  28  29
ATOM     29  C   UNL     1      -6.479 -13.977   6.279  1.00  0.00    -0.003 C 
ATOM     30  C   UNL     1      -6.749 -12.507   5.959  1.00  0.00     0.004 C 
ENDBRANCH  28  29
ENDBRANCH  27  28
ENDBRANCH  26  27
ENDBRANCH  25  26
ENDBRANCH  24  25
ENDBRANCH  23  24
ENDBRANCH  22  23
ENDBRANCH  21  22
ENDBRANCH  20  21
ENDBRANCH  19  20
ENDBRANCH  18  19
ENDBRANCH  17  18
ENDBRANCH   1  17
TORSDOF 26
ENDMDL
MODEL 4
REMARK VINA RESULT:    19.641      4.709     13.624
REMARK INTER + INTRA:          48.450
REMARK INTER:                  49.602
REMARK INTRA:                  -1.152
REMARK UNBOUND:                -1.044
REMARK SMILES CCCCCCCCCCCCCCCCCCCCCCCCCCCC(=O)[O-]
REMARK SMILES IDX 15 1 16 2 17 3 18 4 19 5 20 6 21 7 22 8 23 9 24 10 25 11
REMARK SMILES IDX 26 12 27 13 28 14 29 15 30 16 14 17 13 18 12 19 11 20 10 21
REMARK SMILES IDX 9 22 8 23 7 24 6 25 5 26 4 27 3 28 2 29 1 30
REMARK H PARENT
REMARK Flexibility Score: inf
ROOT
ATOM      1  C   UNL     1      -4.052  -9.563  10.430  1.00  0.00     0.000 C 
ENDROOT
BRANCH   1   2
ATOM      2  C   UNL     1      -3.025 -10.221   9.492  1.00  0.00     0.000 C 
BRANCH   2   3
ATOM      3  C   UNL     1      -3.642 -10.605   8.130  1.00  0.00     0.000 C 
BRANCH   3   4
ATOM      4  C   UNL     1      -4.045 -12.089   8.030  1.00  0.00     0.000 C 
BRANCH   4   5
ATOM      5  C   UNL     1      -4.484 -12.549   6.629  1.00  0.00     0.000 C 
BRANCH   5   6
ATOM      6  C   UNL     1      -5.993 -12.410   6.345  1.00  0.00     0.000 C 
BRANCH   6   7
ATOM      7  C   UNL     1      -6.734 -13.761   6.246  1.00  0.00     0.000 C 
BRANCH   7   8
ATOM      8  C   UNL     1      -6.341 -14.727   7.377  1.00  0.00     0.000 C 
BRANCH   8   9
ATOM      9  C   UNL     1      -6.233 -16.184   6.898  1.00  0.00     0.000 C 
BRANCH   9  10
ATOM     10  C   UNL     1      -4.793 -16.577   6.523  1.00  0.00     0.000 C 
BRANCH  10  11
ATOM     11  C   UNL     1      -3.742 -15.676   7.191  1.00  0.00     0.000 C 
BRANCH  11  12
ATOM     12  C   UNL     1      -2.442 -15.579   6.371  1.00  0.00     0.006 C 
BRANCH  12  13
ATOM     13  C   UNL     1      -1.766 -14.209   6.520  1.00  0.00     0.053 C 
BRANCH  13  14
ATOM     14  C   UNL     1      -1.042 -14.086   7.825  1.00  0.00     0.041 C 
ATOM     15  O   UNL     1       0.147 -13.672   7.855  1.00  0.00    -0.550 OA
ATOM     16  O   UNL     1      -1.674 -14.450   9.008  1.00  0.00    -0.550 OA
ENDBRANCH  13  14
ENDBRANCH  12  13
ENDBRANCH  11  12
ENDBRANCH  10  11
ENDBRANCH   9  10
ENDBRANCH   8   9
ENDBRANCH   7   8
ENDBRANCH   6   7
ENDBRANCH   5   6
ENDBRANCH   4   5
ENDBRANCH   3   4
ENDBRANCH   2   3
ENDBRANCH   1   2
BRANCH   1  17
ATOM     17  C   UNL     1      -3.397  -8.657  11.485  1.00  0.00     0.000 C 
BRANCH  17  18
ATOM     18  C   UNL     1      -4.407  -8.157  12.535  1.00  0.00     0.000 C 
BRANCH  18  19
ATOM     19  C   UNL     1      -3.868  -8.286  13.969  1.00  0.00     0.000 C 
BRANCH  19  20
ATOM     20  C   UNL     1      -2.362  -7.986  14.060  1.00  0.00     0.000 C 
BRANCH  20  21
ATOM     21  C   UNL     1      -2.004  -7.177  15.325  1.00  0.00     0.000 C 
BRANCH  21  22
ATOM     22  C   UNL     1      -2.928  -7.461  16.522  1.00  0.00    -0.000 C 
BRANCH  22  23
ATOM     23  C   UNL     1      -3.060  -6.260  17.472  1.00  0.00    -0.000 C 
BRANCH  23  24
ATOM     24  C   UNL     1      -2.336  -6.473  18.813  1.00  0.00    -0.000 C 
BRANCH  24  25
ATOM     25  C   UNL     1      -2.632  -7.811  19.521  1.00  0.00    -0.000 C 
BRANCH  25  26
ATOM     26  C   UNL     1      -1.396  -8.642  19.909  1.00  0.00    -0.000 C 
BRANCH  26  27
ATOM     27  C   UNL     1      -0.646  -8.070  21.122  1.00  0.00    -0.000 C 
BRANCH  27  28
ATOM     28  C   UNL     1      -1.594  -7.552  22.217  1.00  0.00    -0.000 C 
BRANCH  28  29
ATOM     29  C   UNL     1      -1.350  -6.078  22.602  1.00  0.00    -0.003 C 
ATOM     30  C   UNL     1      -2.065  -5.690  23.897  1.00  0.00     0.004 C 
ENDBRANCH  28  29
ENDBRANCH  27  28
ENDBRANCH  26  27
ENDBRANCH  25  26
ENDBRANCH  24  25
ENDBRANCH  23  24
ENDBRANCH  22  23
ENDBRANCH  21  22
ENDBRANCH  20  21
ENDBRANCH  19  20
ENDBRANCH  18  19
ENDBRANCH  17  18
ENDBRANCH   1  17
TORSDOF 26
ENDMDL
MODEL 5
REMARK VINA RESULT:    19.986      4.864     13.958
REMARK INTER + INTRA:          49.319
REMARK INTER:                  50.586
REMARK INTRA:                  -1.268
REMARK UNBOUND:                -1.044
REMARK SMILES CCCCCCCCCCCCCCCCCCCCCCCCCCCC(=O)[O-]
REMARK SMILES IDX 15 1 16 2 17 3 18 4 19 5 20 6 21 7 22 8 23 9 24 10 25 11
REMARK SMILES IDX 26 12 27 13 28 14 29 15 30 16 14 17 13 18 12 19 11 20 10 21
REMARK SMILES IDX 9 22 8 23 7 24 6 25 5 26 4 27 3 28 2 29 1 30
REMARK H PARENT
REMARK Flexibility Score: inf
ROOT
ATOM      1  C   UNL     1      -3.877  -6.977  12.944  1.00  0.00     0.000 C 
ENDROOT
BRANCH   1   2
ATOM      2  C   UNL     1      -5.016  -7.562  12.092  1.00  0.00     0.000 C 
BRANCH   2   3
ATOM      3  C   UNL     1      -4.611  -8.884  11.405  1.00  0.00     0.000 C 
BRANCH   3   4
ATOM      4  C   UNL     1      -3.364  -8.756  10.507  1.00  0.00     0.000 C 
BRANCH   4   5
ATOM      5  C   UNL     1      -2.984 -10.035   9.741  1.00  0.00     0.000 C 
BRANCH   5   6
ATOM      6  C   UNL     1      -3.825 -10.309   8.479  1.00  0.00     0.000 C 
BRANCH   6   7
ATOM      7  C   UNL     1      -3.437 -11.610   7.742  1.00  0.00     0.000 C 
BRANCH   7   8
ATOM      8  C   UNL     1      -4.580 -12.640   7.739  1.00  0.00     0.000 C 
BRANCH   8   9
ATOM      9  C   UNL     1      -4.507 -13.599   6.538  1.00  0.00     0.000 C 
BRANCH   9  10
ATOM     10  C   UNL     1      -3.654 -14.846   6.830  1.00  0.00     0.000 C 
BRANCH  10  11
ATOM     11  C   UNL     1      -2.308 -14.830   6.087  1.00  0.00     0.000 C 
BRANCH  11  12
ATOM     12  C   UNL     1      -1.308 -13.835   6.704  1.00  0.00     0.006 C 
BRANCH  12  13
ATOM     13  C   UNL     1      -1.006 -14.156   8.174  1.00  0.00     0.053 C 
BRANCH  13  14
ATOM     14  C   UNL     1       0.462 -14.100   8.465  1.00  0.00     0.041 C 
ATOM     15  O   UNL     1       1.078 -13.003   8.418  1.00  0.00    -0.550 OA
ATOM     16  O   UNL     1       1.155 -15.265   8.767  1.00  0.00    -0.550 OA
ENDBRANCH  13  14
ENDBRANCH  12  13
ENDBRANCH  11  12
ENDBRANCH  10  11
ENDBRANCH   9  10
ENDBRANCH   8   9
ENDBRANCH   7   8
ENDBRANCH   6   7
ENDBRANCH   5   6
ENDBRANCH   4   5
ENDBRANCH   3   4
ENDBRANCH   2   3
ENDBRANCH   1   2
BRANCH   1  17
ATOM     17  C   UNL     1      -3.788  -7.620  14.338  1.00  0.00     0.000 C 
BRANCH  17  18
ATOM     18  C   UNL     1      -2.343  -7.995  14.718  1.00  0.00     0.000 C 
BRANCH  18  19
ATOM     19  C   UNL     1      -1.667  -6.915  15.577  1.00  0.00     0.000 C 
BRANCH  19  20
ATOM     20  C   UNL     1      -2.675  -6.132  16.436  1.00  0.00     0.000 C 
BRANCH  20  21
ATOM     21  C   UNL     1      -2.464  -6.371  17.946  1.00  0.00     0.000 C 
BRANCH  21  22
ATOM     22  C   UNL     1      -2.916  -7.763  18.421  1.00  0.00    -0.000 C 
BRANCH  22  23
ATOM     23  C   UNL     1      -2.747  -7.960  19.936  1.00  0.00    -0.000 C 
BRANCH  23  24
ATOM     24  C   UNL     1      -1.329  -8.414  20.328  1.00  0.00    -0.000 C 
BRANCH  24  25
ATOM     25  C   UNL     1      -0.677  -7.626  21.484  1.00  0.00    -0.000 C 
BRANCH  25  26
ATOM     26  C   UNL     1      -1.638  -7.162  22.592  1.00  0.00    -0.000 C 
BRANCH  26  27
ATOM     27  C   UNL     1      -1.664  -5.635  22.763  1.00  0.00    -0.000 C 
BRANCH  27  28
ATOM     28  C   UNL     1      -1.605  -5.199  24.236  1.00  0.00    -0.000 C 
BRANCH  28  29
ATOM     29  C   UNL     1      -2.986  -4.873  24.842  1.00  0.00    -0.003 C 
ATOM     30  C   UNL     1      -4.088  -5.783  24.298  1.00  0.00     0.004 C 
ENDBRANCH  28  29
ENDBRANCH  27  28
ENDBRANCH  26  27
ENDBRANCH  25  26
ENDBRANCH  24  25
ENDBRANCH  23  24
ENDBRANCH  22  23
ENDBRANCH  21  22
ENDBRANCH  20  21
ENDBRANCH  19  20
ENDBRANCH  18  19
ENDBRANCH  17  18
ENDBRANCH   1  17
TORSDOF 26
ENDMDL
MODEL 6
REMARK VINA RESULT:    20.114      1.609      2.405
REMARK INTER + INTRA:          49.642
REMARK INTER:                  51.573
REMARK INTRA:                  -1.931
REMARK UNBOUND:                -1.044
REMARK SMILES CCCCCCCCCCCCCCCCCCCCCCCCCCCC(=O)[O-]
REMARK SMILES IDX 15 1 16 2 17 3 18 4 19 5 20 6 21 7 22 8 23 9 24 10 25 11
REMARK SMILES IDX 26 12 27 13 28 14 29 15 30 16 14 17 13 18 12 19 11 20 10 21
REMARK SMILES IDX 9 22 8 23 7 24 6 25 5 26 4 27 3 28 2 29 1 30
REMARK H PARENT
REMARK Flexibility Score: inf
ROOT
ATOM      1  C   UNL     1      -4.018  -9.574   9.740  1.00  0.00     0.000 C 
ENDROOT
BRANCH   1   2
ATOM      2  C   UNL     1      -3.450  -8.779  10.928  1.00  0.00     0.000 C 
BRANCH   2   3
ATOM      3  C   UNL     1      -4.562  -8.244  11.855  1.00  0.00     0.000 C 
BRANCH   3   4
ATOM      4  C   UNL     1      -4.032  -7.636  13.169  1.00  0.00     0.000 C 
BRANCH   4   5
ATOM      5  C   UNL     1      -3.187  -8.591  14.030  1.00  0.00     0.000 C 
BRANCH   5   6
ATOM      6  C   UNL     1      -1.879  -7.986  14.576  1.00  0.00     0.000 C 
BRANCH   6   7
ATOM      7  C   UNL     1      -2.049  -6.573  15.175  1.00  0.00     0.000 C 
BRANCH   7   8
ATOM      8  C   UNL     1      -1.490  -6.474  16.605  1.00  0.00     0.000 C 
BRANCH   8   9
ATOM      9  C   UNL     1      -2.582  -6.180  17.647  1.00  0.00     0.000 C 
BRANCH   9  10
ATOM     10  C   UNL     1      -3.506  -7.387  17.890  1.00  0.00     0.000 C 
BRANCH  10  11
ATOM     11  C   UNL     1      -4.106  -7.396  19.305  1.00  0.00     0.000 C 
BRANCH  11  12
ATOM     12  C   UNL     1      -3.391  -8.386  20.242  1.00  0.00     0.006 C 
BRANCH  12  13
ATOM     13  C   UNL     1      -1.937  -8.635  19.817  1.00  0.00     0.053 C 
BRANCH  13  14
ATOM     14  C   UNL     1      -0.966  -8.178  20.863  1.00  0.00     0.041 C 
ATOM     15  O   UNL     1      -1.294  -7.283  21.685  1.00  0.00    -0.550 OA
ATOM     16  O   UNL     1       0.309  -8.727  20.915  1.00  0.00    -0.550 OA
ENDBRANCH  13  14
ENDBRANCH  12  13
ENDBRANCH  11  12
ENDBRANCH  10  11
ENDBRANCH   9  10
ENDBRANCH   8   9
ENDBRANCH   7   8
ENDBRANCH   6   7
ENDBRANCH   5   6
ENDBRANCH   4   5
ENDBRANCH   3   4
ENDBRANCH   2   3
ENDBRANCH   1   2
BRANCH   1  17
ATOM     17  C   UNL     1      -3.056 -10.665   9.243  1.00  0.00     0.000 C 
BRANCH  17  18
ATOM     18  C   UNL     1      -3.382 -11.125   7.809  1.00  0.00     0.000 C 
BRANCH  18  19
ATOM     19  C   UNL     1      -4.268 -12.381   7.786  1.00  0.00     0.000 C 
BRANCH  19  20
ATOM     20  C   UNL     1      -4.691 -12.774   6.360  1.00  0.00     0.000 C 
BRANCH  20  21
ATOM     21  C   UNL     1      -6.213 -12.628   6.143  1.00  0.00     0.000 C 
BRANCH  21  22
ATOM     22  C   UNL     1      -6.952 -13.971   6.022  1.00  0.00    -0.000 C 
BRANCH  22  23
ATOM     23  C   UNL     1      -6.943 -14.778   7.330  1.00  0.00    -0.000 C 
BRANCH  23  24
ATOM     24  C   UNL     1      -6.313 -16.173   7.171  1.00  0.00    -0.000 C 
BRANCH  24  25
ATOM     25  C   UNL     1      -5.042 -16.231   6.299  1.00  0.00    -0.000 C 
BRANCH  25  26
ATOM     26  C   UNL     1      -3.770 -16.716   7.015  1.00  0.00    -0.000 C 
BRANCH  26  27
ATOM     27  C   UNL     1      -2.633 -15.683   6.984  1.00  0.00    -0.000 C 
BRANCH  27  28
ATOM     28  C   UNL     1      -2.246 -15.181   8.385  1.00  0.00    -0.000 C 
BRANCH  28  29
ATOM     29  C   UNL     1      -1.452 -13.858   8.372  1.00  0.00    -0.003 C 
ATOM     30  C   UNL     1      -0.599 -13.705   7.112  1.00  0.00     0.004 C 
ENDBRANCH  28  29
ENDBRANCH  27  28
ENDBRANCH  26  27
ENDBRANCH  25  26
ENDBRANCH  24  25
ENDBRANCH  23  24
ENDBRANCH  22  23
ENDBRANCH  21  22
ENDBRANCH  20  21
ENDBRANCH  19  20
ENDBRANCH  18  19
ENDBRANCH  17  18
ENDBRANCH   1  17
TORSDOF 26
ENDMDL
MODEL 7
REMARK VINA RESULT:    20.342      1.951      4.433
REMARK INTER + INTRA:          50.216
REMARK INTER:                  51.284
REMARK INTRA:                  -1.068
REMARK UNBOUND:                -1.044
REMARK SMILES CCCCCCCCCCCCCCCCCCCCCCCCCCCC(=O)[O-]
REMARK SMILES IDX 15 1 16 2 17 3 18 4 19 5 20 6 21 7 22 8 23 9 24 10 25 11
REMARK SMILES IDX 26 12 27 13 28 14 29 15 30 16 14 17 13 18 12 19 11 20 10 21
REMARK SMILES IDX 9 22 8 23 7 24 6 25 5 26 4 27 3 28 2 29 1 30
REMARK H PARENT
REMARK Flexibility Score: inf
ROOT
ATOM      1  C   UNL     1      -4.149 -12.836   7.943  1.00  0.00     0.000 C 
ENDROOT
BRANCH   1   2
ATOM      2  C   UNL     1      -3.161 -11.797   8.501  1.00  0.00     0.000 C 
BRANCH   2   3
ATOM      3  C   UNL     1      -3.821 -10.416   8.705  1.00  0.00     0.000 C 
BRANCH   3   4
ATOM      4  C   UNL     1      -3.229  -9.616   9.883  1.00  0.00     0.000 C 
BRANCH   4   5
ATOM      5  C   UNL     1      -4.267  -9.042  10.863  1.00  0.00     0.000 C 
BRANCH   5   6
ATOM      6  C   UNL     1      -3.695  -8.082  11.924  1.00  0.00     0.000 C 
BRANCH   6   7
ATOM      7  C   UNL     1      -3.734  -8.647  13.361  1.00  0.00     0.000 C 
BRANCH   7   8
ATOM      8  C   UNL     1      -2.448  -8.335  14.145  1.00  0.00     0.000 C 
BRANCH   8   9
ATOM      9  C   UNL     1      -2.558  -7.042  14.970  1.00  0.00     0.000 C 
BRANCH   9  10
ATOM     10  C   UNL     1      -1.406  -6.886  15.979  1.00  0.00     0.000 C 
BRANCH  10  11
ATOM     11  C   UNL     1      -1.891  -6.425  17.363  1.00  0.00     0.000 C 
BRANCH  11  12
ATOM     12  C   UNL     1      -3.127  -7.206  17.844  1.00  0.00     0.006 C 
BRANCH  12  13
ATOM     13  C   UNL     1      -3.188  -7.306  19.375  1.00  0.00     0.053 C 
BRANCH  13  14
ATOM     14  C   UNL     1      -2.255  -8.353  19.900  1.00  0.00     0.041 C 
ATOM     15  O   UNL     1      -2.562  -9.571  19.828  1.00  0.00    -0.550 OA
ATOM     16  O   UNL     1      -1.054  -7.980  20.490  1.00  0.00    -0.550 OA
ENDBRANCH  13  14
ENDBRANCH  12  13
ENDBRANCH  11  12
ENDBRANCH  10  11
ENDBRANCH   9  10
ENDBRANCH   8   9
ENDBRANCH   7   8
ENDBRANCH   6   7
ENDBRANCH   5   6
ENDBRANCH   4   5
ENDBRANCH   3   4
ENDBRANCH   2   3
ENDBRANCH   1   2
BRANCH   1  17
ATOM     17  C   UNL     1      -4.534 -12.564   6.481  1.00  0.00     0.000 C 
BRANCH  17  18
ATOM     18  C   UNL     1      -5.748 -13.397   6.030  1.00  0.00     0.000 C 
BRANCH  18  19
ATOM     19  C   UNL     1      -6.489 -14.036   7.215  1.00  0.00     0.000 C 
BRANCH  19  20
ATOM     20  C   UNL     1      -6.599 -15.565   7.082  1.00  0.00     0.000 C 
BRANCH  20  21
ATOM     21  C   UNL     1      -5.363 -16.181   6.391  1.00  0.00     0.000 C 
BRANCH  21  22
ATOM     22  C   UNL     1      -4.278 -16.654   7.373  1.00  0.00    -0.000 C 
BRANCH  22  23
ATOM     23  C   UNL     1      -2.880 -16.709   6.736  1.00  0.00    -0.000 C 
BRANCH  23  24
ATOM     24  C   UNL     1      -2.282 -15.314   6.479  1.00  0.00    -0.000 C 
BRANCH  24  25
ATOM     25  C   UNL     1      -1.742 -14.584   7.727  1.00  0.00    -0.000 C 
BRANCH  25  26
ATOM     26  C   UNL     1      -0.755 -13.437   7.446  1.00  0.00    -0.000 C 
BRANCH  26  27
ATOM     27  C   UNL     1       0.574 -13.593   8.200  1.00  0.00    -0.000 C 
BRANCH  27  28
ATOM     28  C   UNL     1       0.714 -14.964   8.883  1.00  0.00    -0.000 C 
BRANCH  28  29
ATOM     29  C   UNL     1       1.998 -15.108   9.728  1.00  0.00    -0.003 C 
ATOM     30  C   UNL     1       1.706 -15.118  11.229  1.00  0.00     0.004 C 
ENDBRANCH  28  29
ENDBRANCH  27  28
ENDBRANCH  26  27
ENDBRANCH  25  26
ENDBRANCH  24  25
ENDBRANCH  23  24
ENDBRANCH  22  23
ENDBRANCH  21  22
ENDBRANCH  20  21
ENDBRANCH  19  20
ENDBRANCH  18  19
ENDBRANCH  17  18
ENDBRANCH   1  17
TORSDOF 26
ENDMDL
MODEL 8
REMARK VINA RESULT:    20.402      4.859     12.737
REMARK INTER + INTRA:          50.367
REMARK INTER:                  51.368
REMARK INTRA:                  -1.001
REMARK UNBOUND:                -1.044
REMARK SMILES CCCCCCCCCCCCCCCCCCCCCCCCCCCC(=O)[O-]
REMARK SMILES IDX 15 1 16 2 17 3 18 4 19 5 20 6 21 7 22 8 23 9 24 10 25 11
REMARK SMILES IDX 26 12 27 13 28 14 29 15 30 16 14 17 13 18 12 19 11 20 10 21
REMARK SMILES IDX 9 22 8 23 7 24 6 25 5 26 4 27 3 28 2 29 1 30
REMARK H PARENT
REMARK Flexibility Score: inf
ROOT
ATOM      1  C   UNL     1      -3.140 -11.174   8.857  1.00  0.00     0.000 C 
ENDROOT
BRANCH   1   2
ATOM      2  C   UNL     1      -4.108 -11.235   7.662  1.00  0.00     0.000 C 
BRANCH   2   3
ATOM      3  C   UNL     1      -4.618 -12.668   7.398  1.00  0.00     0.000 C 
BRANCH   3   4
ATOM      4  C   UNL     1      -5.473 -12.793   6.121  1.00  0.00     0.000 C 
BRANCH   4   5
ATOM      5  C   UNL     1      -6.679 -13.742   6.239  1.00  0.00     0.000 C 
BRANCH   5   6
ATOM      6  C   UNL     1      -6.528 -14.853   7.297  1.00  0.00     0.000 C 
BRANCH   6   7
ATOM      7  C   UNL     1      -5.804 -16.114   6.776  1.00  0.00     0.000 C 
BRANCH   7   8
ATOM      8  C   UNL     1      -4.416 -16.295   7.415  1.00  0.00     0.000 C 
BRANCH   8   9
ATOM      9  C   UNL     1      -3.271 -15.946   6.449  1.00  0.00     0.000 C 
BRANCH   9  10
ATOM     10  C   UNL     1      -2.771 -14.501   6.624  1.00  0.00     0.000 C 
BRANCH  10  11
ATOM     11  C   UNL     1      -1.245 -14.419   6.786  1.00  0.00     0.000 C 
BRANCH  11  12
ATOM     12  C   UNL     1      -0.827 -13.921   8.181  1.00  0.00     0.006 C 
BRANCH  12  13
ATOM     13  C   UNL     1       0.687 -13.682   8.280  1.00  0.00     0.053 C 
BRANCH  13  14
ATOM     14  C   UNL     1       1.361 -14.729   9.114  1.00  0.00     0.041 C 
ATOM     15  O   UNL     1       2.293 -15.423   8.630  1.00  0.00    -0.550 OA
ATOM     16  O   UNL     1       0.944 -14.951  10.420  1.00  0.00    -0.550 OA
ENDBRANCH  13  14
ENDBRANCH  12  13
ENDBRANCH  11  12
ENDBRANCH  10  11
ENDBRANCH   9  10
ENDBRANCH   8   9
ENDBRANCH   7   8
ENDBRANCH   6   7
ENDBRANCH   5   6
ENDBRANCH   4   5
ENDBRANCH   3   4
ENDBRANCH   2   3
ENDBRANCH   1   2
BRANCH   1  17
ATOM     17  C   UNL     1      -3.061  -9.775   9.486  1.00  0.00     0.000 C 
BRANCH  17  18
ATOM     18  C   UNL     1      -4.269  -9.471  10.392  1.00  0.00     0.000 C 
BRANCH  18  19
ATOM     19  C   UNL     1      -4.009  -8.283  11.332  1.00  0.00     0.000 C 
BRANCH  19  20
ATOM     20  C   UNL     1      -5.312  -7.639  11.839  1.00  0.00     0.000 C 
BRANCH  20  21
ATOM     21  C   UNL     1      -5.049  -6.355  12.654  1.00  0.00     0.000 C 
BRANCH  21  22
ATOM     22  C   UNL     1      -3.559  -6.097  12.937  1.00  0.00    -0.000 C 
BRANCH  22  23
ATOM     23  C   UNL     1      -3.284  -5.747  14.409  1.00  0.00    -0.000 C 
BRANCH  23  24
ATOM     24  C   UNL     1      -2.220  -6.654  15.053  1.00  0.00    -0.000 C 
BRANCH  24  25
ATOM     25  C   UNL     1      -1.776  -6.247  16.474  1.00  0.00    -0.000 C 
BRANCH  25  26
ATOM     26  C   UNL     1      -2.915  -5.891  17.446  1.00  0.00    -0.000 C 
BRANCH  26  27
ATOM     27  C   UNL     1      -2.722  -6.500  18.843  1.00  0.00    -0.000 C 
BRANCH  27  28
ATOM     28  C   UNL     1      -2.770  -8.037  18.834  1.00  0.00    -0.000 C 
BRANCH  28  29
ATOM     29  C   UNL     1      -2.357  -8.678  20.176  1.00  0.00    -0.003 C 
ATOM     30  C   UNL     1      -0.901  -8.382  20.537  1.00  0.00     0.004 C 
ENDBRANCH  28  29
ENDBRANCH  27  28
ENDBRANCH  26  27
ENDBRANCH  25  26
ENDBRANCH  24  25
ENDBRANCH  23  24
ENDBRANCH  22  23
ENDBRANCH  21  22
ENDBRANCH  20  21
ENDBRANCH  19  20
ENDBRANCH  18  19
ENDBRANCH  17  18
ENDBRANCH   1  17
TORSDOF 26
ENDMDL
MODEL 9
REMARK VINA RESULT:    20.484      4.774     13.428
REMARK INTER + INTRA:          50.574
REMARK INTER:                  52.187
REMARK INTRA:                  -1.613
REMARK UNBOUND:                -1.044
REMARK SMILES CCCCCCCCCCCCCCCCCCCCCCCCCCCC(=O)[O-]
REMARK SMILES IDX 15 1 16 2 17 3 18 4 19 5 20 6 21 7 22 8 23 9 24 10 25 11
REMARK SMILES IDX 26 12 27 13 28 14 29 15 30 16 14 17 13 18 12 19 11 20 10 21
REMARK SMILES IDX 9 22 8 23 7 24 6 25 5 26 4 27 3 28 2 29 1 30
REMARK H PARENT
REMARK Flexibility Score: inf
ROOT
ATOM      1  C   UNL     1      -3.206 -11.177   8.930  1.00  0.00     0.000 C 
ENDROOT
BRANCH   1   2
ATOM      2  C   UNL     1      -4.003 -11.207   7.614  1.00  0.00     0.000 C 
BRANCH   2   3
ATOM      3  C   UNL     1      -4.734 -12.551   7.407  1.00  0.00     0.000 C 
BRANCH   3   4
ATOM      4  C   UNL     1      -5.755 -12.528   6.253  1.00  0.00     0.000 C 
BRANCH   4   5
ATOM      5  C   UNL     1      -6.678 -13.757   6.179  1.00  0.00     0.000 C 
BRANCH   5   6
ATOM      6  C   UNL     1      -6.372 -14.860   7.210  1.00  0.00     0.000 C 
BRANCH   6   7
ATOM      7  C   UNL     1      -5.539 -16.030   6.642  1.00  0.00     0.000 C 
BRANCH   7   8
ATOM      8  C   UNL     1      -4.306 -16.342   7.507  1.00  0.00     0.000 C 
BRANCH   8   9
ATOM      9  C   UNL     1      -2.985 -16.134   6.749  1.00  0.00     0.000 C 
BRANCH   9  10
ATOM     10  C   UNL     1      -2.796 -14.679   6.281  1.00  0.00     0.000 C 
BRANCH  10  11
ATOM     11  C   UNL     1      -1.398 -14.130   6.607  1.00  0.00     0.000 C 
BRANCH  11  12
ATOM     12  C   UNL     1      -1.164 -13.977   8.121  1.00  0.00     0.006 C 
BRANCH  12  13
ATOM     13  C   UNL     1       0.280 -13.566   8.443  1.00  0.00     0.053 C 
BRANCH  13  14
ATOM     14  C   UNL     1       1.059 -14.697   9.042  1.00  0.00     0.041 C 
ATOM     15  O   UNL     1       1.015 -14.911  10.282  1.00  0.00    -0.550 OA
ATOM     16  O   UNL     1       1.851 -15.501   8.233  1.00  0.00    -0.550 OA
ENDBRANCH  13  14
ENDBRANCH  12  13
ENDBRANCH  11  12
ENDBRANCH  10  11
ENDBRANCH   9  10
ENDBRANCH   8   9
ENDBRANCH   7   8
ENDBRANCH   6   7
ENDBRANCH   5   6
ENDBRANCH   4   5
ENDBRANCH   3   4
ENDBRANCH   2   3
ENDBRANCH   1   2
BRANCH   1  17
ATOM     17  C   UNL     1      -3.050  -9.757   9.496  1.00  0.00     0.000 C 
BRANCH  17  18
ATOM     18  C   UNL     1      -4.099  -9.440  10.579  1.00  0.00     0.000 C 
BRANCH  18  19
ATOM     19  C   UNL     1      -3.585  -8.422  11.609  1.00  0.00     0.000 C 
BRANCH  19  20
ATOM     20  C   UNL     1      -3.450  -9.028  13.017  1.00  0.00     0.000 C 
BRANCH  20  21
ATOM     21  C   UNL     1      -2.851  -8.027  14.028  1.00  0.00     0.000 C 
BRANCH  21  22
ATOM     22  C   UNL     1      -3.511  -8.080  15.416  1.00  0.00    -0.000 C 
BRANCH  22  23
ATOM     23  C   UNL     1      -2.534  -7.745  16.554  1.00  0.00    -0.000 C 
BRANCH  23  24
ATOM     24  C   UNL     1      -3.175  -7.859  17.949  1.00  0.00    -0.000 C 
BRANCH  24  25
ATOM     25  C   UNL     1      -2.316  -7.335  19.118  1.00  0.00    -0.000 C 
BRANCH  25  26
ATOM     26  C   UNL     1      -1.888  -8.392  20.151  1.00  0.00    -0.000 C 
BRANCH  26  27
ATOM     27  C   UNL     1      -1.256  -7.779  21.410  1.00  0.00    -0.000 C 
BRANCH  27  28
ATOM     28  C   UNL     1      -2.004  -6.529  21.903  1.00  0.00    -0.000 C 
BRANCH  28  29
ATOM     29  C   UNL     1      -1.358  -5.866  23.137  1.00  0.00    -0.003 C 
ATOM     30  C   UNL     1      -2.341  -5.717  24.298  1.00  0.00     0.004 C 
ENDBRANCH  28  29
ENDBRANCH  27  28
ENDBRANCH  26  27
ENDBRANCH  25  26
ENDBRANCH  24  25
ENDBRANCH  23  24
ENDBRANCH  22  23
ENDBRANCH  21  22
ENDBRANCH  20  21
ENDBRANCH  19  20
ENDBRANCH  18  19
ENDBRANCH  17  18
ENDBRANCH   1  17
TORSDOF 26
ENDMDL
