MODEL 1
REMARK VINA RESULT:    -3.441      0.000      0.000
REMARK INTER + INTRA:          -4.912
REMARK INTER:                  -4.850
REMARK INTRA:                  -0.062
REMARK UNBOUND:                -0.062
REMARK SMILES CC1=CCCC(C)=CCC(C)(C)C=CC1
REMARK SMILES IDX 2 1 3 2 1 3 4 4 5 5 6 6 7 7 8 8 15 10 14 11 13 12 10 13
REMARK SMILES IDX 11 14 12 15 9 16
REMARK H PARENT
REMARK Flexibility Score: 60.00
ROOT
ATOM      1  C   UNL     1      30.126   9.256  29.919  1.00  0.00    -0.074 C 
ATOM      2  C   UNL     1      30.485   7.952  29.795  1.00  0.00    -0.027 C 
ATOM      3  C   UNL     1      30.628  10.007  31.128  1.00  0.00     0.039 C 
ENDROOT
BRANCH   2   4
ATOM      4  C   UNL     1      30.126   7.063  28.630  1.00  0.00     0.032 C 
BRANCH   4   5
ATOM      5  C   UNL     1      31.098   7.261  27.462  1.00  0.00     0.034 C 
BRANCH   5   6
ATOM      6  C   UNL     1      30.492   7.327  26.062  1.00  0.00    -0.077 C 
ATOM      7  C   UNL     1      30.036   6.021  25.448  1.00  0.00     0.039 C 
ATOM      8  C   UNL     1      30.159   8.457  25.377  1.00  0.00    -0.027 CG0
ATOM      9  G   UNL     1      30.697   9.872  25.529  1.00  0.00     0.000 G0
ENDBRANCH   5   6
ENDBRANCH   4   5
ENDBRANCH   2   4
BRANCH   1  10
ATOM     10  C   UNL     1      29.244   9.986  28.913  1.00  0.00     0.057 C 
BRANCH  10  11
ATOM     11  C   UNL     1      29.895  11.249  28.422  1.00  0.00    -0.026 C 
ATOM     12  C   UNL     1      30.036  11.708  27.155  1.00  0.00    -0.024 C 
BRANCH  12  13
ATOM     13  C   UNL     1      29.716  11.089  25.778  1.00  0.00    -0.014 C 
ATOM     14  C   UNL     1      30.049  12.207  24.751  1.00  0.00     0.016 C 
ATOM     15  C   UNL     1      28.222  10.755  25.535  1.00  0.00     0.016 C 
BRANCH  13  16
ATOM     16  C   UNL     1      30.697   9.881  25.521  1.00  0.00     0.038 CG0
ATOM     17  G   UNL     1      30.144   8.470  25.388  1.00  0.00     0.000 G0
ENDBRANCH  13  16
ENDBRANCH  12  13
ENDBRANCH  10  11
ENDBRANCH   1  10
TORSDOF 0
ENDMDL
MODEL 2
REMARK VINA RESULT:    -3.139      1.510      3.869
REMARK INTER + INTRA:          -4.486
REMARK INTER:                  -4.512
REMARK INTRA:                   0.027
REMARK UNBOUND:                -0.062
REMARK SMILES CC1=CCCC(C)=CCC(C)(C)C=CC1
REMARK SMILES IDX 2 1 3 2 1 3 4 4 5 5 6 6 7 7 8 8 15 10 14 11 13 12 10 13
REMARK SMILES IDX 11 14 12 15 9 16
REMARK H PARENT
REMARK Flexibility Score: 60.00
ROOT
ATOM      1  C   UNL     1      30.463   7.415  25.123  1.00  0.00    -0.074 C 
ATOM      2  C   UNL     1      30.580   6.436  26.056  1.00  0.00    -0.027 C 
ATOM      3  C   UNL     1      29.961   7.020  23.755  1.00  0.00     0.039 C 
ENDROOT
BRANCH   2   4
ATOM      4  C   UNL     1      31.009   6.651  27.486  1.00  0.00     0.032 C 
BRANCH   4   5
ATOM      5  C   UNL     1      29.823   7.067  28.364  1.00  0.00     0.034 C 
BRANCH   5   6
ATOM      6  C   UNL     1      29.994   8.332  29.201  1.00  0.00    -0.077 C 
ATOM      7  C   UNL     1      30.755   8.198  30.503  1.00  0.00     0.039 C 
ATOM      8  C   UNL     1      29.685   9.604  28.819  1.00  0.00    -0.027 CG0
ATOM      9  G   UNL     1      28.696  10.082  27.766  1.00  0.00     0.000 G0
ENDBRANCH   5   6
ENDBRANCH   4   5
ENDBRANCH   2   4
BRANCH   1  10
ATOM     10  C   UNL     1      30.818   8.874  25.384  1.00  0.00     0.057 C 
BRANCH  10  11
ATOM     11  C   UNL     1      29.796   9.806  24.794  1.00  0.00    -0.026 C 
ATOM     12  C   UNL     1      29.117  10.821  25.381  1.00  0.00    -0.024 C 
BRANCH  12  13
ATOM     13  C   UNL     1      29.034  11.315  26.841  1.00  0.00    -0.014 C 
ATOM     14  C   UNL     1      27.832  12.301  26.860  1.00  0.00     0.016 C 
ATOM     15  C   UNL     1      30.245  12.152  27.325  1.00  0.00     0.016 C 
BRANCH  13  16
ATOM     16  C   UNL     1      28.679  10.094  27.774  1.00  0.00     0.038 CG0
ATOM     17  G   UNL     1      29.684   9.615  28.811  1.00  0.00     0.000 G0
ENDBRANCH  13  16
ENDBRANCH  12  13
ENDBRANCH  10  11
ENDBRANCH   1  10
TORSDOF 0
ENDMDL
MODEL 3
REMARK VINA RESULT:    -3.069      6.279      8.768
REMARK INTER + INTRA:          -4.387
REMARK INTER:                  -4.395
REMARK INTRA:                   0.008
REMARK UNBOUND:                -0.062
REMARK SMILES CC1=CCCC(C)=CCC(C)(C)C=CC1
REMARK SMILES IDX 2 1 3 2 1 3 4 4 5 5 6 6 7 7 8 8 15 10 14 11 13 12 10 13
REMARK SMILES IDX 11 14 12 15 9 16
REMARK H PARENT
REMARK Flexibility Score: 60.00
ROOT
ATOM      1  C   UNL     1      30.110  10.261  33.099  1.00  0.00    -0.074 C 
ATOM      2  C   UNL     1      30.993   9.457  32.453  1.00  0.00    -0.027 C 
ATOM      3  C   UNL     1      29.080  10.981  32.264  1.00  0.00     0.039 C 
ENDROOT
BRANCH   2   4
ATOM      4  C   UNL     1      32.052   8.619  33.125  1.00  0.00     0.032 C 
BRANCH   4   5
ATOM      5  C   UNL     1      31.754   7.123  32.974  1.00  0.00     0.034 C 
BRANCH   5   6
ATOM      6  C   UNL     1      30.507   6.592  33.677  1.00  0.00    -0.077 C 
ATOM      7  C   UNL     1      29.374   6.111  32.797  1.00  0.00     0.039 C 
ATOM      8  C   UNL     1      30.375   6.343  35.011  1.00  0.00    -0.027 CG0
ATOM      9  G   UNL     1      31.142   6.934  36.184  1.00  0.00     0.000 G0
ENDBRANCH   5   6
ENDBRANCH   4   5
ENDBRANCH   2   4
BRANCH   1  10
ATOM     10  C   UNL     1      30.116  10.477  34.608  1.00  0.00     0.057 C 
BRANCH  10  11
ATOM     11  C   UNL     1      29.124   9.581  35.298  1.00  0.00    -0.026 C 
ATOM     12  C   UNL     1      29.320   8.687  36.296  1.00  0.00    -0.024 C 
BRANCH  12  13
ATOM     13  C   UNL     1      30.593   8.167  36.996  1.00  0.00    -0.014 C 
ATOM     14  C   UNL     1      30.105   7.650  38.379  1.00  0.00     0.016 C 
ATOM     15  C   UNL     1      31.654   9.248  37.326  1.00  0.00     0.016 C 
BRANCH  13  16
ATOM     16  C   UNL     1      31.157   6.937  36.186  1.00  0.00     0.038 CG0
ATOM     17  G   UNL     1      30.362   6.367  35.021  1.00  0.00     0.000 G0
ENDBRANCH  13  16
ENDBRANCH  12  13
ENDBRANCH  10  11
ENDBRANCH   1  10
TORSDOF 0
ENDMDL
MODEL 4
REMARK VINA RESULT:    -2.975      6.956      9.163
REMARK INTER + INTRA:          -4.254
REMARK INTER:                  -4.203
REMARK INTRA:                  -0.052
REMARK UNBOUND:                -0.062
REMARK SMILES CC1=CCCC(C)=CCC(C)(C)C=CC1
REMARK SMILES IDX 2 1 3 2 1 3 4 4 5 5 6 6 7 7 8 8 15 10 14 11 13 12 10 13
REMARK SMILES IDX 11 14 12 15 9 16
REMARK H PARENT
REMARK Flexibility Score: 60.00
ROOT
ATOM      1  C   UNL     1      30.558  10.497  38.410  1.00  0.00    -0.074 C 
ATOM      2  C   UNL     1      29.539  11.316  38.043  1.00  0.00    -0.027 C 
ATOM      3  C   UNL     1      30.625  10.069  39.855  1.00  0.00     0.039 C 
ENDROOT
BRANCH   2   4
ATOM      4  C   UNL     1      29.279  11.799  36.638  1.00  0.00     0.032 C 
BRANCH   4   5
ATOM      5  C   UNL     1      28.193  10.961  35.956  1.00  0.00     0.034 C 
BRANCH   5   6
ATOM      6  C   UNL     1      28.208  10.920  34.430  1.00  0.00    -0.077 C 
ATOM      7  C   UNL     1      27.444  12.008  33.705  1.00  0.00     0.039 C 
ATOM      8  C   UNL     1      28.978  10.110  33.649  1.00  0.00    -0.027 CG0
ATOM      9  G   UNL     1      29.615   8.769  33.983  1.00  0.00     0.000 G0
ENDBRANCH   5   6
ENDBRANCH   4   5
ENDBRANCH   2   4
BRANCH   1  10
ATOM     10  C   UNL     1      31.629  10.002  37.444  1.00  0.00     0.057 C 
BRANCH  10  11
ATOM     11  C   UNL     1      31.392   8.572  37.042  1.00  0.00    -0.026 C 
ATOM     12  C   UNL     1      31.247   8.038  35.806  1.00  0.00    -0.024 C 
BRANCH  12  13
ATOM     13  C   UNL     1      31.143   8.670  34.402  1.00  0.00    -0.014 C 
ATOM     14  C   UNL     1      31.839   7.653  33.454  1.00  0.00     0.016 C 
ATOM     15  C   UNL     1      31.929   9.993  34.213  1.00  0.00     0.016 C 
BRANCH  13  16
ATOM     16  C   UNL     1      29.623   8.760  33.992  1.00  0.00     0.038 CG0
ATOM     17  G   UNL     1      29.002  10.111  33.670  1.00  0.00     0.000 G0
ENDBRANCH  13  16
ENDBRANCH  12  13
ENDBRANCH  10  11
ENDBRANCH   1  10
TORSDOF 0
ENDMDL
MODEL 5
REMARK VINA RESULT:    -2.934      1.873      3.106
REMARK INTER + INTRA:          -4.197
REMARK INTER:                  -4.109
REMARK INTRA:                  -0.089
REMARK UNBOUND:                -0.062
REMARK SMILES CC1=CCCC(C)=CCC(C)(C)C=CC1
REMARK SMILES IDX 2 1 3 2 1 3 4 4 5 5 6 6 7 7 8 8 15 10 14 11 13 12 10 13
REMARK SMILES IDX 11 14 12 15 9 16
REMARK H PARENT
REMARK Flexibility Score: 60.00
ROOT
ATOM      1  C   UNL     1      29.658  11.904  26.758  1.00  0.00    -0.074 C 
ATOM      2  C   UNL     1      29.611  10.748  27.469  1.00  0.00    -0.027 C 
ATOM      3  C   UNL     1      30.394  13.071  27.369  1.00  0.00     0.039 C 
ENDROOT
BRANCH   2   4
ATOM      4  C   UNL     1      28.972   9.466  26.996  1.00  0.00     0.032 C 
BRANCH   4   5
ATOM      5  C   UNL     1      30.014   8.355  26.829  1.00  0.00     0.034 C 
BRANCH   5   6
ATOM      6  C   UNL     1      29.928   7.511  25.560  1.00  0.00    -0.077 C 
ATOM      7  C   UNL     1      29.450   6.083  25.715  1.00  0.00     0.039 C 
ATOM      8  C   UNL     1      30.070   7.958  24.279  1.00  0.00    -0.027 CG0
ATOM      9  G   UNL     1      30.798   9.189  23.762  1.00  0.00     0.000 G0
ENDBRANCH   5   6
ENDBRANCH   4   5
ENDBRANCH   2   4
BRANCH   1  10
ATOM     10  C   UNL     1      29.002  12.080  25.393  1.00  0.00     0.057 C 
BRANCH  10  11
ATOM     11  C   UNL     1      30.016  12.395  24.329  1.00  0.00    -0.026 C 
ATOM     12  C   UNL     1      30.399  11.656  23.259  1.00  0.00    -0.024 C 
BRANCH  12  13
ATOM     13  C   UNL     1      30.057  10.222  22.804  1.00  0.00    -0.014 C 
ATOM     14  C   UNL     1      30.675  10.097  21.383  1.00  0.00     0.016 C 
ATOM     15  C   UNL     1      28.546   9.934  22.609  1.00  0.00     0.016 C 
BRANCH  13  16
ATOM     16  C   UNL     1      30.792   9.196  23.750  1.00  0.00     0.038 CG0
ATOM     17  G   UNL     1      30.046   7.979  24.274  1.00  0.00     0.000 G0
ENDBRANCH  13  16
ENDBRANCH  12  13
ENDBRANCH  10  11
ENDBRANCH   1  10
TORSDOF 0
ENDMDL
MODEL 6
REMARK VINA RESULT:    -2.860      1.995      4.885
REMARK INTER + INTRA:          -4.093
REMARK INTER:                  -4.162
REMARK INTRA:                   0.069
REMARK UNBOUND:                -0.062
REMARK SMILES CC1=CCCC(C)=CCC(C)(C)C=CC1
REMARK SMILES IDX 2 1 3 2 1 3 4 4 5 5 6 6 7 7 8 8 15 10 14 11 13 12 10 13
REMARK SMILES IDX 11 14 12 15 9 16
REMARK H PARENT
REMARK Flexibility Score: 60.00
ROOT
ATOM      1  C   UNL     1      28.761  12.395  23.871  1.00  0.00    -0.074 C 
ATOM      2  C   UNL     1      28.787  12.468  25.227  1.00  0.00    -0.027 C 
ATOM      3  C   UNL     1      27.877  13.371  23.135  1.00  0.00     0.039 C 
ENDROOT
BRANCH   2   4
ATOM      4  C   UNL     1      29.650  11.615  26.123  1.00  0.00     0.032 C 
BRANCH   4   5
ATOM      5  C   UNL     1      28.955  10.294  26.469  1.00  0.00     0.034 C 
BRANCH   5   6
ATOM      6  C   UNL     1      29.854   9.094  26.757  1.00  0.00    -0.077 C 
ATOM      7  C   UNL     1      29.807   8.519  28.157  1.00  0.00     0.039 C 
ATOM      8  C   UNL     1      30.566   8.377  25.841  1.00  0.00    -0.027 CG0
ATOM      9  G   UNL     1      31.068   8.796  24.468  1.00  0.00     0.000 G0
ENDBRANCH   5   6
ENDBRANCH   4   5
ENDBRANCH   2   4
BRANCH   1  10
ATOM     10  C   UNL     1      29.566  11.380  23.068  1.00  0.00     0.057 C 
BRANCH  10  11
ATOM     11  C   UNL     1      28.756  10.149  22.764  1.00  0.00    -0.026 C 
ATOM     12  C   UNL     1      29.107   8.844  22.856  1.00  0.00    -0.024 C 
BRANCH  12  13
ATOM     13  C   UNL     1      30.446   8.142  23.169  1.00  0.00    -0.014 C 
ATOM     14  C   UNL     1      31.367   8.486  21.965  1.00  0.00     0.016 C 
ATOM     15  C   UNL     1      30.388   6.593  23.198  1.00  0.00     0.016 C 
BRANCH  13  16
ATOM     16  C   UNL     1      31.072   8.788  24.464  1.00  0.00     0.038 CG0
ATOM     17  G   UNL     1      30.570   8.371  25.839  1.00  0.00     0.000 G0
ENDBRANCH  13  16
ENDBRANCH  12  13
ENDBRANCH  10  11
ENDBRANCH   1  10
TORSDOF 0
ENDMDL
MODEL 7
REMARK VINA RESULT:    -2.849      2.211      5.844
REMARK INTER + INTRA:          -4.077
REMARK INTER:                  -4.025
REMARK INTRA:                  -0.052
REMARK UNBOUND:                -0.062
REMARK SMILES CC1=CCCC(C)=CCC(C)(C)C=CC1
REMARK SMILES IDX 2 1 3 2 1 3 4 4 5 5 6 6 7 7 8 8 15 10 14 11 13 12 10 13
REMARK SMILES IDX 11 14 12 15 9 16
REMARK H PARENT
REMARK Flexibility Score: 60.00
ROOT
ATOM      1  C   UNL     1      31.047  12.112  23.214  1.00  0.00    -0.074 C 
ATOM      2  C   UNL     1      30.486  13.348  23.249  1.00  0.00    -0.027 C 
ATOM      3  C   UNL     1      32.458  11.999  22.692  1.00  0.00     0.039 C 
ENDROOT
BRANCH   2   4
ATOM      4  C   UNL     1      29.113  13.660  23.790  1.00  0.00     0.032 C 
BRANCH   4   5
ATOM      5  C   UNL     1      29.176  14.056  25.269  1.00  0.00     0.034 C 
BRANCH   5   6
ATOM      6  C   UNL     1      28.114  13.460  26.190  1.00  0.00    -0.077 C 
ATOM      7  C   UNL     1      26.791  14.190  26.278  1.00  0.00     0.039 C 
ATOM      8  C   UNL     1      28.168  12.246  26.808  1.00  0.00    -0.027 CG0
ATOM      9  G   UNL     1      29.380  11.403  27.175  1.00  0.00     0.000 G0
ENDBRANCH   5   6
ENDBRANCH   4   5
ENDBRANCH   2   4
BRANCH   1  10
ATOM     10  C   UNL     1      30.325  10.847  23.662  1.00  0.00     0.057 C 
BRANCH  10  11
ATOM     11  C   UNL     1      31.115  10.097  24.699  1.00  0.00    -0.026 C 
ATOM     12  C   UNL     1      30.736   9.672  25.928  1.00  0.00    -0.024 C 
BRANCH  12  13
ATOM     13  C   UNL     1      29.455   9.890  26.759  1.00  0.00    -0.014 C 
ATOM     14  C   UNL     1      29.661   9.035  28.042  1.00  0.00     0.016 C 
ATOM     15  C   UNL     1      28.153   9.343  26.120  1.00  0.00     0.016 C 
BRANCH  13  16
ATOM     16  C   UNL     1      29.374  11.405  27.189  1.00  0.00     0.038 CG0
ATOM     17  G   UNL     1      28.164  12.241  26.802  1.00  0.00     0.000 G0
ENDBRANCH  13  16
ENDBRANCH  12  13
ENDBRANCH  10  11
ENDBRANCH   1  10
TORSDOF 0
ENDMDL
MODEL 8
REMARK VINA RESULT:    -2.795      2.927      5.723
REMARK INTER + INTRA:          -4.001
REMARK INTER:                  -3.953
REMARK INTRA:                  -0.048
REMARK UNBOUND:                -0.062
REMARK SMILES CC1=CCCC(C)=CCC(C)(C)C=CC1
REMARK SMILES IDX 2 1 3 2 1 3 4 4 5 5 6 6 7 7 8 8 15 10 14 11 13 12 10 13
REMARK SMILES IDX 11 14 12 15 9 16
REMARK H PARENT
REMARK Flexibility Score: 60.00
ROOT
ATOM      1  C   UNL     1      29.069   9.225  23.614  1.00  0.00    -0.074 C 
ATOM      2  C   UNL     1      28.764   9.904  22.478  1.00  0.00    -0.027 C 
ATOM      3  C   UNL     1      30.028   8.066  23.499  1.00  0.00     0.039 C 
ENDROOT
BRANCH   2   4
ATOM      4  C   UNL     1      27.873  11.119  22.410  1.00  0.00     0.032 C 
BRANCH   4   5
ATOM      5  C   UNL     1      28.671  12.372  22.033  1.00  0.00     0.034 C 
BRANCH   5   6
ATOM      6  C   UNL     1      28.448  13.617  22.888  1.00  0.00    -0.077 C 
ATOM      7  C   UNL     1      27.648  14.742  22.269  1.00  0.00     0.039 C 
ATOM      8  C   UNL     1      28.744  13.753  24.212  1.00  0.00    -0.027 CG0
ATOM      9  G   UNL     1      29.758  12.996  25.056  1.00  0.00     0.000 G0
ENDBRANCH   5   6
ENDBRANCH   4   5
ENDBRANCH   2   4
BRANCH   1  10
ATOM     10  C   UNL     1      28.487   9.566  24.981  1.00  0.00     0.057 C 
BRANCH  10  11
ATOM     11  C   UNL     1      29.568   9.836  25.990  1.00  0.00    -0.026 C 
ATOM     12  C   UNL     1      29.883  10.990  26.627  1.00  0.00    -0.024 C 
BRANCH  12  13
ATOM     13  C   UNL     1      29.366  12.437  26.481  1.00  0.00    -0.014 C 
ATOM     14  C   UNL     1      30.150  13.249  27.550  1.00  0.00     0.016 C 
ATOM     15  C   UNL     1      27.872  12.644  26.838  1.00  0.00     0.016 C 
BRANCH  13  16
ATOM     16  C   UNL     1      29.771  12.984  25.058  1.00  0.00     0.038 CG0
ATOM     17  G   UNL     1      28.753  13.743  24.220  1.00  0.00     0.000 G0
ENDBRANCH  13  16
ENDBRANCH  12  13
ENDBRANCH  10  11
ENDBRANCH   1  10
TORSDOF 0
ENDMDL
MODEL 9
REMARK VINA RESULT:    -2.750      2.534      6.276
REMARK INTER + INTRA:          -3.938
REMARK INTER:                  -3.919
REMARK INTRA:                  -0.019
REMARK UNBOUND:                -0.062
REMARK SMILES CC1=CCCC(C)=CCC(C)(C)C=CC1
REMARK SMILES IDX 2 1 3 2 1 3 4 4 5 5 6 6 7 7 8 8 15 10 14 11 13 12 10 13
REMARK SMILES IDX 11 14 12 15 9 16
REMARK H PARENT
REMARK Flexibility Score: 60.00
ROOT
ATOM      1  C   UNL     1      28.143  12.286  22.024  1.00  0.00    -0.074 C 
ATOM      2  C   UNL     1      28.060  13.504  22.619  1.00  0.00    -0.027 C 
ATOM      3  C   UNL     1      28.363  12.252  20.532  1.00  0.00     0.039 C 
ENDROOT
BRANCH   2   4
ATOM      4  C   UNL     1      27.900  13.733  24.101  1.00  0.00     0.032 C 
BRANCH   4   5
ATOM      5  C   UNL     1      29.254  13.985  24.773  1.00  0.00     0.034 C 
BRANCH   5   6
ATOM      6  C   UNL     1      29.394  13.554  26.231  1.00  0.00    -0.077 C 
ATOM      7  C   UNL     1      28.928  14.534  27.286  1.00  0.00     0.039 C 
ATOM      8  C   UNL     1      29.732  12.311  26.679  1.00  0.00    -0.027 CG0
ATOM      9  G   UNL     1      30.507  11.209  25.973  1.00  0.00     0.000 G0
ENDBRANCH   5   6
ENDBRANCH   4   5
ENDBRANCH   2   4
BRANCH   1  10
ATOM     10  C   UNL     1      28.017  10.969  22.781  1.00  0.00     0.057 C 
BRANCH  10  11
ATOM     11  C   UNL     1      29.334  10.245  22.853  1.00  0.00    -0.026 C 
ATOM     12  C   UNL     1      30.002   9.780  23.936  1.00  0.00    -0.024 C 
BRANCH  12  13
ATOM     13  C   UNL     1      29.753   9.914  25.453  1.00  0.00    -0.014 C 
ATOM     14  C   UNL     1      30.428   8.661  26.079  1.00  0.00     0.016 C 
ATOM     15  C   UNL     1      28.268   9.827  25.889  1.00  0.00     0.016 C 
BRANCH  13  16
ATOM     16  C   UNL     1      30.507  11.193  25.984  1.00  0.00     0.038 CG0
ATOM     17  G   UNL     1      29.729  12.296  26.685  1.00  0.00     0.000 G0
ENDBRANCH  13  16
ENDBRANCH  12  13
ENDBRANCH  10  11
ENDBRANCH   1  10
TORSDOF 0
ENDMDL
