MODEL 1
REMARK VINA RESULT:    -4.803      0.000      0.000
REMARK INTER + INTRA:          -7.569
REMARK INTER:                  -6.768
REMARK INTRA:                  -0.801
REMARK UNBOUND:                -0.801
REMARK SMILES COc1ccc(-c2cc(=O)c3c(OC)c(OC)c(OC)c(OC)c3o2)cc1OC
REMARK SMILES IDX 7 1 8 2 9 3 10 4 11 5 24 6 25 7 21 8 18 9 15 10 12 11 6 12
REMARK SMILES IDX 3 13 27 14 4 15 26 16 5 17 2 18 1 19 28 20 29 21 22 22 23 23
REMARK SMILES IDX 13 24 14 25 19 26 20 27 16 28 17 29
REMARK H PARENT
REMARK Flexibility Score: inf
ROOT
ATOM      1  C   UNL     1       0.051  -0.508  -9.224  1.00  0.00     0.138 A 
ATOM      2  C   UNL     1       0.085  -0.966 -10.548  1.00  0.00     0.100 A 
ATOM      3  C   UNL     1      -1.112  -1.170 -11.232  1.00  0.00     0.197 A 
ATOM      4  O   UNL     1      -1.061  -1.585 -12.422  1.00  0.00    -0.289 OA
ATOM      5  C   UNL     1      -2.346  -0.913 -10.587  1.00  0.00     0.115 A 
ATOM      6  C   UNL     1      -2.294  -0.431  -9.262  1.00  0.00     0.188 A 
ATOM      7  O   UNL     1      -1.122  -0.256  -8.653  1.00  0.00    -0.452 OA
ATOM      8  C   UNL     1      -3.470  -0.151  -8.558  1.00  0.00     0.209 A 
ATOM      9  C   UNL     1      -4.732  -0.416  -9.141  1.00  0.00     0.211 A 
ATOM     10  C   UNL     1      -4.798  -0.868 -10.488  1.00  0.00     0.208 A 
ATOM     11  C   UNL     1      -3.599  -1.122 -11.212  1.00  0.00     0.179 A 
ENDROOT
BRANCH   1  12
ATOM     12  C   UNL     1       1.294  -0.288  -8.440  1.00  0.00     0.021 A 
ATOM     13  C   UNL     1       3.626   0.122  -6.900  1.00  0.00     0.160 A 
ATOM     14  C   UNL     1       3.731  -0.377  -8.207  1.00  0.00     0.161 A 
ATOM     15  C   UNL     1       2.356   0.405  -6.365  1.00  0.00     0.051 A 
ATOM     16  C   UNL     1       2.564  -0.585  -8.970  1.00  0.00     0.062 A 
ATOM     17  C   UNL     1       1.205   0.196  -7.127  1.00  0.00     0.016 A 
BRANCH  13  18
ATOM     18  O   UNL     1       4.806   0.321  -6.164  1.00  0.00    -0.493 OA
ATOM     19  C   UNL     1       5.392   1.594  -5.909  1.00  0.00     0.278 C 
ENDBRANCH  13  18
BRANCH  14  20
ATOM     20  O   UNL     1       5.011  -0.659  -8.711  1.00  0.00    -0.493 OA
ATOM     21  C   UNL     1       5.725   0.176  -9.616  1.00  0.00     0.278 C 
ENDBRANCH  14  20
ENDBRANCH   1  12
BRANCH   8  22
ATOM     22  O   UNL     1      -3.373   0.377  -7.267  1.00  0.00    -0.490 OA
ATOM     23  C   UNL     1      -3.367  -0.454  -6.111  1.00  0.00     0.278 C 
ENDBRANCH   8  22
BRANCH  11  24
ATOM     24  O   UNL     1      -3.596  -1.578 -12.547  1.00  0.00    -0.492 OA
ATOM     25  C   UNL     1      -4.018  -0.867 -13.711  1.00  0.00     0.278 C 
ENDBRANCH  11  24
BRANCH   9  26
ATOM     26  O   UNL     1      -5.935  -0.250  -8.429  1.00  0.00    -0.490 OA
ATOM     27  C   UNL     1      -6.628  -1.226  -7.661  1.00  0.00     0.279 C 
ENDBRANCH   9  26
BRANCH  10  28
ATOM     28  O   UNL     1      -6.023  -1.074 -11.151  1.00  0.00    -0.490 OA
ATOM     29  C   UNL     1      -6.763  -2.284 -11.265  1.00  0.00     0.278 C 
ENDBRANCH  10  28
TORSDOF 7
ENDMDL
MODEL 2
REMARK VINA RESULT:    -4.694      8.713     13.860
REMARK INTER + INTRA:          -7.416
REMARK INTER:                  -6.684
REMARK INTRA:                  -0.732
REMARK UNBOUND:                -0.801
REMARK SMILES COc1ccc(-c2cc(=O)c3c(OC)c(OC)c(OC)c(OC)c3o2)cc1OC
REMARK SMILES IDX 7 1 8 2 9 3 10 4 11 5 24 6 25 7 21 8 18 9 15 10 12 11 6 12
REMARK SMILES IDX 3 13 27 14 4 15 26 16 5 17 2 18 1 19 28 20 29 21 22 22 23 23
REMARK SMILES IDX 13 24 14 25 19 26 20 27 16 28 17 29
REMARK H PARENT
REMARK Flexibility Score: inf
ROOT
ATOM      1  C   UNL     1      -9.024   2.781 -19.252  1.00  0.00     0.138 A 
ATOM      2  C   UNL     1      -9.588   1.694 -19.932  1.00  0.00     0.100 A 
ATOM      3  C   UNL     1      -9.436   0.408 -19.414  1.00  0.00     0.197 A 
ATOM      4  O   UNL     1      -9.950  -0.558 -20.042  1.00  0.00    -0.289 OA
ATOM      5  C   UNL     1      -8.717   0.214 -18.210  1.00  0.00     0.115 A 
ATOM      6  C   UNL     1      -8.200   1.362 -17.573  1.00  0.00     0.188 A 
ATOM      7  O   UNL     1      -8.372   2.568 -18.113  1.00  0.00    -0.452 OA
ATOM      8  C   UNL     1      -7.480   1.252 -16.379  1.00  0.00     0.209 A 
ATOM      9  C   UNL     1      -7.197  -0.020 -15.829  1.00  0.00     0.211 A 
ATOM     10  C   UNL     1      -7.743  -1.182 -16.442  1.00  0.00     0.208 A 
ATOM     11  C   UNL     1      -8.501  -1.064 -17.640  1.00  0.00     0.179 A 
ENDROOT
BRANCH   1  12
ATOM     12  C   UNL     1      -9.140   4.170 -19.765  1.00  0.00     0.021 A 
ATOM     13  C   UNL     1      -9.360   6.833 -20.682  1.00  0.00     0.160 A 
ATOM     14  C   UNL     1      -8.763   5.859 -21.497  1.00  0.00     0.161 A 
ATOM     15  C   UNL     1      -9.836   6.473 -19.408  1.00  0.00     0.051 A 
ATOM     16  C   UNL     1      -8.651   4.533 -21.033  1.00  0.00     0.062 A 
ATOM     17  C   UNL     1      -9.721   5.158 -18.955  1.00  0.00     0.016 A 
BRANCH  13  18
ATOM     18  O   UNL     1      -9.460   8.145 -21.172  1.00  0.00    -0.493 OA
ATOM     19  C   UNL     1     -10.035   9.232 -20.454  1.00  0.00     0.278 C 
ENDBRANCH  13  18
BRANCH  14  20
ATOM     20  O   UNL     1      -8.289   6.250 -22.761  1.00  0.00    -0.493 OA
ATOM     21  C   UNL     1      -8.935   5.951 -23.994  1.00  0.00     0.278 C 
ENDBRANCH  14  20
ENDBRANCH   1  12
BRANCH   8  22
ATOM     22  O   UNL     1      -7.033   2.419 -15.752  1.00  0.00    -0.490 OA
ATOM     23  C   UNL     1      -5.721   2.933 -15.962  1.00  0.00     0.278 C 
ENDBRANCH   8  22
BRANCH  11  24
ATOM     24  O   UNL     1      -9.063  -2.178 -18.301  1.00  0.00    -0.492 OA
ATOM     25  C   UNL     1     -10.125  -3.016 -17.845  1.00  0.00     0.278 C 
ENDBRANCH  11  24
BRANCH   9  26
ATOM     26  O   UNL     1      -6.387  -0.180 -14.689  1.00  0.00    -0.490 OA
ATOM     27  C   UNL     1      -4.985  -0.419 -14.651  1.00  0.00     0.279 C 
ENDBRANCH   9  26
BRANCH  10  28
ATOM     28  O   UNL     1      -7.565  -2.470 -15.900  1.00  0.00    -0.490 OA
ATOM     29  C   UNL     1      -6.568  -3.429 -16.233  1.00  0.00     0.278 C 
ENDBRANCH  10  28
TORSDOF 7
ENDMDL
MODEL 3
REMARK VINA RESULT:    -4.654      2.285      8.074
REMARK INTER + INTRA:          -7.360
REMARK INTER:                  -6.645
REMARK INTRA:                  -0.715
REMARK UNBOUND:                -0.801
REMARK SMILES COc1ccc(-c2cc(=O)c3c(OC)c(OC)c(OC)c(OC)c3o2)cc1OC
REMARK SMILES IDX 7 1 8 2 9 3 10 4 11 5 24 6 25 7 21 8 18 9 15 10 12 11 6 12
REMARK SMILES IDX 3 13 27 14 4 15 26 16 5 17 2 18 1 19 28 20 29 21 22 22 23 23
REMARK SMILES IDX 13 24 14 25 19 26 20 27 16 28 17 29
REMARK H PARENT
REMARK Flexibility Score: inf
ROOT
ATOM      1  C   UNL     1       0.070   0.431  -9.174  1.00  0.00     0.138 A 
ATOM      2  C   UNL     1      -0.014   0.854 -10.507  1.00  0.00     0.100 A 
ATOM      3  C   UNL     1       1.157   1.069 -11.231  1.00  0.00     0.197 A 
ATOM      4  O   UNL     1       1.061   1.451 -12.430  1.00  0.00    -0.289 OA
ATOM      5  C   UNL     1       2.416   0.857 -10.617  1.00  0.00     0.115 A 
ATOM      6  C   UNL     1       2.414   0.408  -9.279  1.00  0.00     0.188 A 
ATOM      7  O   UNL     1       1.265   0.222  -8.632  1.00  0.00    -0.452 OA
ATOM      8  C   UNL     1       3.617   0.175  -8.604  1.00  0.00     0.209 A 
ATOM      9  C   UNL     1       4.854   0.454  -9.231  1.00  0.00     0.211 A 
ATOM     10  C   UNL     1       4.870   0.873 -10.591  1.00  0.00     0.208 A 
ATOM     11  C   UNL     1       3.644   1.080 -11.284  1.00  0.00     0.179 A 
ENDROOT
BRANCH   1  12
ATOM     12  C   UNL     1      -1.144   0.202  -8.348  1.00  0.00     0.021 A 
ATOM     13  C   UNL     1      -3.417  -0.230  -6.728  1.00  0.00     0.160 A 
ATOM     14  C   UNL     1      -3.561   0.366  -7.990  1.00  0.00     0.161 A 
ATOM     15  C   UNL     1      -2.137  -0.599  -6.278  1.00  0.00     0.051 A 
ATOM     16  C   UNL     1      -2.423   0.584  -8.792  1.00  0.00     0.062 A 
ATOM     17  C   UNL     1      -1.015  -0.379  -7.078  1.00  0.00     0.016 A 
BRANCH  13  18
ATOM     18  O   UNL     1      -4.569  -0.437  -5.952  1.00  0.00    -0.493 OA
ATOM     19  C   UNL     1      -5.279  -1.670  -5.875  1.00  0.00     0.278 C 
ENDBRANCH  13  18
BRANCH  14  20
ATOM     20  O   UNL     1      -4.851   0.733  -8.409  1.00  0.00    -0.493 OA
ATOM     21  C   UNL     1      -5.599   0.051  -9.411  1.00  0.00     0.278 C 
ENDBRANCH  14  20
ENDBRANCH   1  12
BRANCH   8  22
ATOM     22  O   UNL     1       3.571  -0.321  -7.298  1.00  0.00    -0.490 OA
ATOM     23  C   UNL     1       3.533   0.539  -6.165  1.00  0.00     0.278 C 
ENDBRANCH   8  22
BRANCH  11  24
ATOM     24  O   UNL     1       3.591   1.501 -12.630  1.00  0.00    -0.492 OA
ATOM     25  C   UNL     1       3.752   0.699 -13.800  1.00  0.00     0.278 C 
ENDBRANCH  11  24
BRANCH   9  26
ATOM     26  O   UNL     1       6.082   0.335  -8.552  1.00  0.00    -0.490 OA
ATOM     27  C   UNL     1       6.751   1.335  -7.792  1.00  0.00     0.279 C 
ENDBRANCH   9  26
BRANCH  10  28
ATOM     28  O   UNL     1       6.069   1.091 -11.295  1.00  0.00    -0.490 OA
ATOM     29  C   UNL     1       6.817   2.298 -11.397  1.00  0.00     0.278 C 
ENDBRANCH  10  28
TORSDOF 7
ENDMDL
MODEL 4
REMARK VINA RESULT:    -4.642      3.293      4.216
REMARK INTER + INTRA:          -7.343
REMARK INTER:                  -6.572
REMARK INTRA:                  -0.771
REMARK UNBOUND:                -0.801
REMARK SMILES COc1ccc(-c2cc(=O)c3c(OC)c(OC)c(OC)c(OC)c3o2)cc1OC
REMARK SMILES IDX 7 1 8 2 9 3 10 4 11 5 24 6 25 7 21 8 18 9 15 10 12 11 6 12
REMARK SMILES IDX 3 13 27 14 4 15 26 16 5 17 2 18 1 19 28 20 29 21 22 22 23 23
REMARK SMILES IDX 13 24 14 25 19 26 20 27 16 28 17 29
REMARK H PARENT
REMARK Flexibility Score: inf
ROOT
ATOM      1  C   UNL     1      -2.054  -0.103  -7.979  1.00  0.00     0.138 A 
ATOM      2  C   UNL     1      -3.283   0.381  -8.446  1.00  0.00     0.100 A 
ATOM      3  C   UNL     1      -4.279  -0.524  -8.814  1.00  0.00     0.197 A 
ATOM      4  O   UNL     1      -5.378  -0.069  -9.235  1.00  0.00    -0.289 OA
ATOM      5  C   UNL     1      -4.040  -1.916  -8.712  1.00  0.00     0.115 A 
ATOM      6  C   UNL     1      -2.785  -2.321  -8.209  1.00  0.00     0.188 A 
ATOM      7  O   UNL     1      -1.868  -1.415  -7.875  1.00  0.00    -0.452 OA
ATOM      8  C   UNL     1      -2.475  -3.679  -8.077  1.00  0.00     0.209 A 
ATOM      9  C   UNL     1      -3.388  -4.666  -8.512  1.00  0.00     0.211 A 
ATOM     10  C   UNL     1      -4.670  -4.272  -8.987  1.00  0.00     0.208 A 
ATOM     11  C   UNL     1      -4.994  -2.890  -9.092  1.00  0.00     0.179 A 
ENDROOT
BRANCH   1  12
ATOM     12  C   UNL     1      -0.952   0.813  -7.587  1.00  0.00     0.021 A 
ATOM     13  C   UNL     1       1.173   2.507  -6.816  1.00  0.00     0.160 A 
ATOM     14  C   UNL     1       0.407   2.818  -7.949  1.00  0.00     0.161 A 
ATOM     15  C   UNL     1       0.881   1.346  -6.079  1.00  0.00     0.051 A 
ATOM     16  C   UNL     1      -0.650   1.967  -8.333  1.00  0.00     0.062 A 
ATOM     17  C   UNL     1      -0.166   0.507  -6.465  1.00  0.00     0.016 A 
BRANCH  13  18
ATOM     18  O   UNL     1       2.217   3.375  -6.458  1.00  0.00    -0.493 OA
ATOM     19  C   UNL     1       3.601   3.090  -6.640  1.00  0.00     0.278 C 
ENDBRANCH  13  18
BRANCH  14  20
ATOM     20  O   UNL     1       0.728   3.980  -8.671  1.00  0.00    -0.493 OA
ATOM     21  C   UNL     1       1.520   4.003  -9.854  1.00  0.00     0.278 C 
ENDBRANCH  14  20
ENDBRANCH   1  12
BRANCH   8  22
ATOM     22  O   UNL     1      -1.242  -4.036  -7.523  1.00  0.00    -0.490 OA
ATOM     23  C   UNL     1      -1.118  -4.475  -6.174  1.00  0.00     0.278 C 
ENDBRANCH   8  22
BRANCH  11  24
ATOM     24  O   UNL     1      -6.244  -2.433  -9.561  1.00  0.00    -0.492 OA
ATOM     25  C   UNL     1      -6.758  -2.512 -10.891  1.00  0.00     0.278 C 
ENDBRANCH  11  24
BRANCH   9  26
ATOM     26  O   UNL     1      -3.072  -6.038  -8.496  1.00  0.00    -0.490 OA
ATOM     27  C   UNL     1      -2.371  -6.777  -9.489  1.00  0.00     0.279 C 
ENDBRANCH   9  26
BRANCH  10  28
ATOM     28  O   UNL     1      -5.653  -5.208  -9.361  1.00  0.00    -0.490 OA
ATOM     29  C   UNL     1      -6.588  -5.876  -8.520  1.00  0.00     0.278 C 
ENDBRANCH  10  28
TORSDOF 7
ENDMDL
MODEL 5
REMARK VINA RESULT:    -4.611      2.809      3.713
REMARK INTER + INTRA:          -7.299
REMARK INTER:                  -6.520
REMARK INTRA:                  -0.779
REMARK UNBOUND:                -0.801
REMARK SMILES COc1ccc(-c2cc(=O)c3c(OC)c(OC)c(OC)c(OC)c3o2)cc1OC
REMARK SMILES IDX 7 1 8 2 9 3 10 4 11 5 24 6 25 7 21 8 18 9 15 10 12 11 6 12
REMARK SMILES IDX 3 13 27 14 4 15 26 16 5 17 2 18 1 19 28 20 29 21 22 22 23 23
REMARK SMILES IDX 13 24 14 25 19 26 20 27 16 28 17 29
REMARK H PARENT
REMARK Flexibility Score: inf
ROOT
ATOM      1  C   UNL     1      -0.984  -0.025  -7.743  1.00  0.00     0.138 A 
ATOM      2  C   UNL     1      -2.130   0.713  -8.068  1.00  0.00     0.100 A 
ATOM      3  C   UNL     1      -3.338   0.046  -8.269  1.00  0.00     0.197 A 
ATOM      4  O   UNL     1      -4.359   0.728  -8.563  1.00  0.00    -0.289 OA
ATOM      5  C   UNL     1      -3.396  -1.362  -8.143  1.00  0.00     0.115 A 
ATOM      6  C   UNL     1      -2.204  -2.029  -7.790  1.00  0.00     0.188 A 
ATOM      7  O   UNL     1      -1.076  -1.344  -7.612  1.00  0.00    -0.452 OA
ATOM      8  C   UNL     1      -2.181  -3.421  -7.644  1.00  0.00     0.209 A 
ATOM      9  C   UNL     1      -3.337  -4.187  -7.919  1.00  0.00     0.211 A 
ATOM     10  C   UNL     1      -4.555  -3.524  -8.241  1.00  0.00     0.208 A 
ATOM     11  C   UNL     1      -4.582  -2.106  -8.359  1.00  0.00     0.179 A 
ENDROOT
BRANCH   1  12
ATOM     12  C   UNL     1       0.333   0.629  -7.533  1.00  0.00     0.021 A 
ATOM     13  C   UNL     1       2.810   1.916  -7.099  1.00  0.00     0.160 A 
ATOM     14  C   UNL     1       2.770   0.530  -7.310  1.00  0.00     0.161 A 
ATOM     15  C   UNL     1       1.611   2.652  -7.096  1.00  0.00     0.051 A 
ATOM     16  C   UNL     1       1.531  -0.109  -7.521  1.00  0.00     0.062 A 
ATOM     17  C   UNL     1       0.388   2.013  -7.304  1.00  0.00     0.016 A 
BRANCH  13  18
ATOM     18  O   UNL     1       4.059   2.525  -6.894  1.00  0.00    -0.493 OA
ATOM     19  C   UNL     1       4.742   3.311  -7.866  1.00  0.00     0.278 C 
ENDBRANCH  13  18
BRANCH  14  20
ATOM     20  O   UNL     1       3.982  -0.180  -7.299  1.00  0.00    -0.493 OA
ATOM     21  C   UNL     1       4.750  -0.486  -8.458  1.00  0.00     0.278 C 
ENDBRANCH  14  20
ENDBRANCH   1  12
BRANCH   8  22
ATOM     22  O   UNL     1      -0.993  -4.036  -7.240  1.00  0.00    -0.490 OA
ATOM     23  C   UNL     1      -0.752  -4.394  -5.883  1.00  0.00     0.278 C 
ENDBRANCH   8  22
BRANCH  11  24
ATOM     24  O   UNL     1      -5.754  -1.389  -8.681  1.00  0.00    -0.492 OA
ATOM     25  C   UNL     1      -6.857  -1.094  -7.826  1.00  0.00     0.278 C 
ENDBRANCH  11  24
BRANCH   9  26
ATOM     26  O   UNL     1      -3.328  -5.595  -7.888  1.00  0.00    -0.490 OA
ATOM     27  C   UNL     1      -2.875  -6.479  -8.906  1.00  0.00     0.279 C 
ENDBRANCH   9  26
BRANCH  10  28
ATOM     28  O   UNL     1      -5.758  -4.225  -8.448  1.00  0.00    -0.490 OA
ATOM     29  C   UNL     1      -6.598  -4.828  -7.469  1.00  0.00     0.278 C 
ENDBRANCH  10  28
TORSDOF 7
ENDMDL
MODEL 6
REMARK VINA RESULT:    -4.594      3.239      8.453
REMARK INTER + INTRA:          -7.275
REMARK INTER:                  -6.556
REMARK INTRA:                  -0.720
REMARK UNBOUND:                -0.801
REMARK SMILES COc1ccc(-c2cc(=O)c3c(OC)c(OC)c(OC)c(OC)c3o2)cc1OC
REMARK SMILES IDX 7 1 8 2 9 3 10 4 11 5 24 6 25 7 21 8 18 9 15 10 12 11 6 12
REMARK SMILES IDX 3 13 27 14 4 15 26 16 5 17 2 18 1 19 28 20 29 21 22 22 23 23
REMARK SMILES IDX 13 24 14 25 19 26 20 27 16 28 17 29
REMARK H PARENT
REMARK Flexibility Score: inf
ROOT
ATOM      1  C   UNL     1       1.191   0.187  -7.831  1.00  0.00     0.138 A 
ATOM      2  C   UNL     1       2.315  -0.572  -8.182  1.00  0.00     0.100 A 
ATOM      3  C   UNL     1       3.537   0.069  -8.382  1.00  0.00     0.197 A 
ATOM      4  O   UNL     1       4.538  -0.631  -8.699  1.00  0.00    -0.289 OA
ATOM      5  C   UNL     1       3.631   1.473  -8.228  1.00  0.00     0.115 A 
ATOM      6  C   UNL     1       2.459   2.161  -7.849  1.00  0.00     0.188 A 
ATOM      7  O   UNL     1       1.316   1.500  -7.674  1.00  0.00    -0.452 OA
ATOM      8  C   UNL     1       2.471   3.549  -7.675  1.00  0.00     0.209 A 
ATOM      9  C   UNL     1       3.644   4.293  -7.946  1.00  0.00     0.211 A 
ATOM     10  C   UNL     1       4.841   3.607  -8.293  1.00  0.00     0.208 A 
ATOM     11  C   UNL     1       4.832   2.192  -8.440  1.00  0.00     0.179 A 
ENDROOT
BRANCH   1  12
ATOM     12  C   UNL     1      -0.140  -0.440  -7.621  1.00  0.00     0.021 A 
ATOM     13  C   UNL     1      -2.696  -1.586  -7.257  1.00  0.00     0.160 A 
ATOM     14  C   UNL     1      -1.552  -2.398  -7.211  1.00  0.00     0.161 A 
ATOM     15  C   UNL     1      -2.558  -0.207  -7.494  1.00  0.00     0.051 A 
ATOM     16  C   UNL     1      -0.280  -1.822  -7.398  1.00  0.00     0.062 A 
ATOM     17  C   UNL     1      -1.294   0.356  -7.680  1.00  0.00     0.016 A 
BRANCH  13  18
ATOM     18  O   UNL     1      -3.950  -2.188  -7.064  1.00  0.00    -0.493 OA
ATOM     19  C   UNL     1      -4.794  -1.951  -5.941  1.00  0.00     0.278 C 
ENDBRANCH  13  18
BRANCH  14  20
ATOM     20  O   UNL     1      -1.722  -3.774  -6.980  1.00  0.00    -0.493 OA
ATOM     21  C   UNL     1      -1.112  -4.496  -5.916  1.00  0.00     0.278 C 
ENDBRANCH  14  20
ENDBRANCH   1  12
BRANCH   8  22
ATOM     22  O   UNL     1       1.302   4.185  -7.247  1.00  0.00    -0.490 OA
ATOM     23  C   UNL     1       1.066   4.486  -5.875  1.00  0.00     0.278 C 
ENDBRANCH   8  22
BRANCH  11  24
ATOM     24  O   UNL     1       5.983   1.453  -8.788  1.00  0.00    -0.492 OA
ATOM     25  C   UNL     1       7.114   1.164  -7.967  1.00  0.00     0.278 C 
ENDBRANCH  11  24
BRANCH   9  26
ATOM     26  O   UNL     1       3.669   5.699  -7.887  1.00  0.00    -0.490 OA
ATOM     27  C   UNL     1       3.166   6.615  -8.852  1.00  0.00     0.279 C 
ENDBRANCH   9  26
BRANCH  10  28
ATOM     28  O   UNL     1       6.060   4.282  -8.497  1.00  0.00    -0.490 OA
ATOM     29  C   UNL     1       6.909   4.869  -7.517  1.00  0.00     0.278 C 
ENDBRANCH  10  28
TORSDOF 7
ENDMDL
MODEL 7
REMARK VINA RESULT:    -4.589      0.804      3.342
REMARK INTER + INTRA:          -7.269
REMARK INTER:                  -6.564
REMARK INTRA:                  -0.704
REMARK UNBOUND:                -0.801
REMARK SMILES COc1ccc(-c2cc(=O)c3c(OC)c(OC)c(OC)c(OC)c3o2)cc1OC
REMARK SMILES IDX 7 1 8 2 9 3 10 4 11 5 24 6 25 7 21 8 18 9 15 10 12 11 6 12
REMARK SMILES IDX 3 13 27 14 4 15 26 16 5 17 2 18 1 19 28 20 29 21 22 22 23 23
REMARK SMILES IDX 13 24 14 25 19 26 20 27 16 28 17 29
REMARK H PARENT
REMARK Flexibility Score: inf
ROOT
ATOM      1  C   UNL     1      -0.656  -0.128  -7.908  1.00  0.00     0.138 A 
ATOM      2  C   UNL     1      -1.696   0.019  -6.980  1.00  0.00     0.100 A 
ATOM      3  C   UNL     1      -3.015  -0.149  -7.398  1.00  0.00     0.197 A 
ATOM      4  O   UNL     1      -3.937  -0.010  -6.548  1.00  0.00    -0.289 OA
ATOM      5  C   UNL     1      -3.292  -0.467  -8.750  1.00  0.00     0.115 A 
ATOM      6  C   UNL     1      -2.188  -0.621  -9.616  1.00  0.00     0.188 A 
ATOM      7  O   UNL     1      -0.947  -0.447  -9.165  1.00  0.00    -0.452 OA
ATOM      8  C   UNL     1      -2.380  -0.937 -10.965  1.00  0.00     0.209 A 
ATOM      9  C   UNL     1      -3.686  -1.035 -11.498  1.00  0.00     0.211 A 
ATOM     10  C   UNL     1      -4.806  -0.916 -10.628  1.00  0.00     0.208 A 
ATOM     11  C   UNL     1      -4.607  -0.626  -9.249  1.00  0.00     0.179 A 
ENDROOT
BRANCH   1  12
ATOM     12  C   UNL     1       0.767   0.054  -7.523  1.00  0.00     0.021 A 
ATOM     13  C   UNL     1       3.457   0.395  -6.733  1.00  0.00     0.160 A 
ATOM     14  C   UNL     1       3.162  -0.161  -7.986  1.00  0.00     0.161 A 
ATOM     15  C   UNL     1       2.407   0.770  -5.876  1.00  0.00     0.051 A 
ATOM     16  C   UNL     1       1.818  -0.334  -8.374  1.00  0.00     0.062 A 
ATOM     17  C   UNL     1       1.078   0.595  -6.266  1.00  0.00     0.016 A 
BRANCH  13  18
ATOM     18  O   UNL     1       4.806   0.558  -6.375  1.00  0.00    -0.493 OA
ATOM     19  C   UNL     1       5.381   1.784  -5.934  1.00  0.00     0.278 C 
ENDBRANCH  13  18
BRANCH  14  20
ATOM     20  O   UNL     1       4.232  -0.533  -8.817  1.00  0.00    -0.493 OA
ATOM     21  C   UNL     1       4.821   0.308  -9.803  1.00  0.00     0.278 C 
ENDBRANCH  14  20
ENDBRANCH   1  12
BRANCH   8  22
ATOM     22  O   UNL     1      -1.258  -1.136 -11.776  1.00  0.00    -0.490 OA
ATOM     23  C   UNL     1      -0.611  -0.059 -12.446  1.00  0.00     0.278 C 
ENDBRANCH   8  22
BRANCH  11  24
ATOM     24  O   UNL     1      -5.674  -0.489  -8.336  1.00  0.00    -0.492 OA
ATOM     25  C   UNL     1      -6.505  -1.522  -7.807  1.00  0.00     0.278 C 
ENDBRANCH  11  24
BRANCH   9  26
ATOM     26  O   UNL     1      -3.922  -1.245 -12.870  1.00  0.00    -0.490 OA
ATOM     27  C   UNL     1      -4.230  -0.266 -13.855  1.00  0.00     0.279 C 
ENDBRANCH   9  26
BRANCH  10  28
ATOM     28  O   UNL     1      -6.129  -1.083 -11.081  1.00  0.00    -0.490 OA
ATOM     29  C   UNL     1      -6.834  -2.302 -11.291  1.00  0.00     0.278 C 
ENDBRANCH  10  28
TORSDOF 7
ENDMDL
MODEL 8
REMARK VINA RESULT:    -4.586      3.110      3.824
REMARK INTER + INTRA:          -7.264
REMARK INTER:                  -6.541
REMARK INTRA:                  -0.723
REMARK UNBOUND:                -0.801
REMARK SMILES COc1ccc(-c2cc(=O)c3c(OC)c(OC)c(OC)c(OC)c3o2)cc1OC
REMARK SMILES IDX 7 1 8 2 9 3 10 4 11 5 24 6 25 7 21 8 18 9 15 10 12 11 6 12
REMARK SMILES IDX 3 13 27 14 4 15 26 16 5 17 2 18 1 19 28 20 29 21 22 22 23 23
REMARK SMILES IDX 13 24 14 25 19 26 20 27 16 28 17 29
REMARK H PARENT
REMARK Flexibility Score: inf
ROOT
ATOM      1  C   UNL     1      -0.743  -1.039  -7.437  1.00  0.00     0.138 A 
ATOM      2  C   UNL     1      -0.309  -2.315  -7.055  1.00  0.00     0.100 A 
ATOM      3  C   UNL     1      -1.154  -3.409  -7.242  1.00  0.00     0.197 A 
ATOM      4  O   UNL     1      -0.747  -4.550  -6.890  1.00  0.00    -0.289 OA
ATOM      5  C   UNL     1      -2.436  -3.221  -7.813  1.00  0.00     0.115 A 
ATOM      6  C   UNL     1      -2.788  -1.908  -8.193  1.00  0.00     0.188 A 
ATOM      7  O   UNL     1      -1.943  -0.898  -7.990  1.00  0.00    -0.452 OA
ATOM      8  C   UNL     1      -4.036  -1.642  -8.767  1.00  0.00     0.209 A 
ATOM      9  C   UNL     1      -4.992  -2.674  -8.908  1.00  0.00     0.211 A 
ATOM     10  C   UNL     1      -4.636  -4.008  -8.562  1.00  0.00     0.208 A 
ATOM     11  C   UNL     1      -3.354  -4.280  -8.008  1.00  0.00     0.179 A 
ENDROOT
BRANCH   1  12
ATOM     12  C   UNL     1       0.108   0.165  -7.248  1.00  0.00     0.021 A 
ATOM     13  C   UNL     1       1.674   2.487  -6.885  1.00  0.00     0.160 A 
ATOM     14  C   UNL     1       2.165   1.241  -6.469  1.00  0.00     0.161 A 
ATOM     15  C   UNL     1       0.399   2.569  -7.472  1.00  0.00     0.051 A 
ATOM     16  C   UNL     1       1.378   0.085  -6.647  1.00  0.00     0.062 A 
ATOM     17  C   UNL     1      -0.376   1.421  -7.645  1.00  0.00     0.016 A 
BRANCH  13  18
ATOM     18  O   UNL     1       2.482   3.620  -6.697  1.00  0.00    -0.493 OA
ATOM     19  C   UNL     1       2.005   4.884  -6.245  1.00  0.00     0.278 C 
ENDBRANCH  13  18
BRANCH  14  20
ATOM     20  O   UNL     1       3.439   1.191  -5.877  1.00  0.00    -0.493 OA
ATOM     21  C   UNL     1       4.499   0.348  -6.314  1.00  0.00     0.278 C 
ENDBRANCH  14  20
ENDBRANCH   1  12
BRANCH   8  22
ATOM     22  O   UNL     1      -4.323  -0.337  -9.179  1.00  0.00    -0.490 OA
ATOM     23  C   UNL     1      -4.972   0.599  -8.324  1.00  0.00     0.278 C 
ENDBRANCH   8  22
BRANCH  11  24
ATOM     24  O   UNL     1      -2.943  -5.579  -7.638  1.00  0.00    -0.492 OA
ATOM     25  C   UNL     1      -2.630  -6.672  -8.501  1.00  0.00     0.278 C 
ENDBRANCH  11  24
BRANCH   9  26
ATOM     26  O   UNL     1      -6.295  -2.428  -9.381  1.00  0.00    -0.490 OA
ATOM     27  C   UNL     1      -6.721  -2.332 -10.735  1.00  0.00     0.279 C 
ENDBRANCH   9  26
BRANCH  10  28
ATOM     28  O   UNL     1      -5.514  -5.092  -8.754  1.00  0.00    -0.490 OA
ATOM     29  C   UNL     1      -6.469  -5.616  -7.838  1.00  0.00     0.278 C 
ENDBRANCH  10  28
TORSDOF 7
ENDMDL
MODEL 9
REMARK VINA RESULT:    -4.508      3.644      8.772
REMARK INTER + INTRA:          -7.154
REMARK INTER:                  -6.451
REMARK INTRA:                  -0.704
REMARK UNBOUND:                -0.801
REMARK SMILES COc1ccc(-c2cc(=O)c3c(OC)c(OC)c(OC)c(OC)c3o2)cc1OC
REMARK SMILES IDX 7 1 8 2 9 3 10 4 11 5 24 6 25 7 21 8 18 9 15 10 12 11 6 12
REMARK SMILES IDX 3 13 27 14 4 15 26 16 5 17 2 18 1 19 28 20 29 21 22 22 23 23
REMARK SMILES IDX 13 24 14 25 19 26 20 27 16 28 17 29
REMARK H PARENT
REMARK Flexibility Score: inf
ROOT
ATOM      1  C   UNL     1       0.801   0.820  -7.412  1.00  0.00     0.138 A 
ATOM      2  C   UNL     1       0.377   2.078  -6.962  1.00  0.00     0.100 A 
ATOM      3  C   UNL     1       1.225   3.176  -7.101  1.00  0.00     0.197 A 
ATOM      4  O   UNL     1       0.826   4.299  -6.688  1.00  0.00    -0.289 OA
ATOM      5  C   UNL     1       2.500   3.012  -7.693  1.00  0.00     0.115 A 
ATOM      6  C   UNL     1       2.843   1.718  -8.142  1.00  0.00     0.188 A 
ATOM      7  O   UNL     1       1.996   0.703  -7.982  1.00  0.00    -0.452 OA
ATOM      8  C   UNL     1       4.085   1.476  -8.740  1.00  0.00     0.209 A 
ATOM      9  C   UNL     1       5.044   2.510  -8.838  1.00  0.00     0.211 A 
ATOM     10  C   UNL     1       4.698   3.826  -8.421  1.00  0.00     0.208 A 
ATOM     11  C   UNL     1       3.422   4.076  -7.842  1.00  0.00     0.179 A 
ENDROOT
BRANCH   1  12
ATOM     12  C   UNL     1      -0.053  -0.388  -7.276  1.00  0.00     0.021 A 
ATOM     13  C   UNL     1      -1.627  -2.719  -7.019  1.00  0.00     0.160 A 
ATOM     14  C   UNL     1      -2.095  -1.499  -6.507  1.00  0.00     0.161 A 
ATOM     15  C   UNL     1      -0.370  -2.770  -7.648  1.00  0.00     0.051 A 
ATOM     16  C   UNL     1      -1.304  -0.340  -6.633  1.00  0.00     0.062 A 
ATOM     17  C   UNL     1       0.408  -1.618  -7.769  1.00  0.00     0.016 A 
BRANCH  13  18
ATOM     18  O   UNL     1      -2.438  -3.857  -6.880  1.00  0.00    -0.493 OA
ATOM     19  C   UNL     1      -2.242  -4.872  -5.900  1.00  0.00     0.278 C 
ENDBRANCH  13  18
BRANCH  14  20
ATOM     20  O   UNL     1      -3.350  -1.481  -5.875  1.00  0.00    -0.493 OA
ATOM     21  C   UNL     1      -4.426  -0.624  -6.241  1.00  0.00     0.278 C 
ENDBRANCH  14  20
ENDBRANCH   1  12
BRANCH   8  22
ATOM     22  O   UNL     1       4.362   0.193  -9.220  1.00  0.00    -0.490 OA
ATOM     23  C   UNL     1       5.125  -0.746  -8.468  1.00  0.00     0.278 C 
ENDBRANCH   8  22
BRANCH  11  24
ATOM     24  O   UNL     1       3.020   5.355  -7.403  1.00  0.00    -0.492 OA
ATOM     25  C   UNL     1       2.618   6.465  -8.206  1.00  0.00     0.278 C 
ENDBRANCH  11  24
BRANCH   9  26
ATOM     26  O   UNL     1       6.342   2.283  -9.334  1.00  0.00    -0.490 OA
ATOM     27  C   UNL     1       6.748   2.214 -10.696  1.00  0.00     0.279 C 
ENDBRANCH   9  26
BRANCH  10  28
ATOM     28  O   UNL     1       5.579   4.915  -8.566  1.00  0.00    -0.490 OA
ATOM     29  C   UNL     1       5.827   5.690  -9.735  1.00  0.00     0.278 C 
ENDBRANCH  10  28
TORSDOF 7
ENDMDL
