MODEL 1
REMARK VINA RESULT:    -6.271      0.000      0.000
REMARK INTER + INTRA:          -7.847
REMARK INTER:                  -7.554
REMARK INTRA:                  -0.293
REMARK UNBOUND:                -0.293
REMARK SMILES O=c1c(O)c(-c2ccc(O)c(O)c2)oc2cc(O)cc(O)c12
REMARK SMILES IDX 5 1 3 2 2 3 1 4 22 5 20 6 19 7 17 8 16 9 15 10 14 11 6 12
REMARK SMILES IDX 7 13 8 14 9 15 13 16 11 17 10 18 12 20 4 22 21 24 18 26
REMARK H PARENT 10 19 12 21 4 23 21 25 18 27
REMARK Flexibility Score: inf
ROOT
ATOM      1  C   UNL     1      14.250  56.260  32.812  1.00  0.00     0.180 A 
ATOM      2  C   UNL     1      13.963  56.119  31.444  1.00  0.00     0.208 A 
ATOM      3  C   UNL     1      14.447  57.080  30.543  1.00  0.00     0.238 A 
ATOM      4  O   UNL     1      14.141  56.977  29.326  1.00  0.00    -0.285 OA
ATOM      5  C   UNL     1      15.226  58.163  31.019  1.00  0.00     0.111 A 
ATOM      6  C   UNL     1      15.802  59.173  30.190  1.00  0.00     0.134 A 
ATOM      7  C   UNL     1      16.442  60.268  30.782  1.00  0.00     0.093 A 
ATOM      8  C   UNL     1      16.586  60.357  32.166  1.00  0.00     0.123 A 
ATOM      9  C   UNL     1      16.080  59.345  32.982  1.00  0.00     0.094 A 
ATOM     10  C   UNL     1      15.403  58.258  32.424  1.00  0.00     0.146 A 
ATOM     11  O   UNL     1      14.927  57.321  33.235  1.00  0.00    -0.452 OA
ENDROOT
BRANCH   1  12
ATOM     12  C   UNL     1      13.795  55.274  33.819  1.00  0.00     0.025 A 
ATOM     13  C   UNL     1      12.639  55.496  34.590  1.00  0.00     0.016 A 
ATOM     14  C   UNL     1      12.215  54.541  35.517  1.00  0.00     0.051 A 
ATOM     15  C   UNL     1      12.929  53.345  35.677  1.00  0.00     0.157 A 
ATOM     16  C   UNL     1      14.494  54.065  33.968  1.00  0.00     0.062 A 
ATOM     17  C   UNL     1      14.069  53.106  34.899  1.00  0.00     0.158 A 
BRANCH  15  18
ATOM     18  O   UNL     1      12.509  52.391  36.602  1.00  0.00    -0.504 OA
ATOM     19  H   UNL     1      12.881  52.366  37.544  1.00  0.00     0.293 HD
ENDBRANCH  15  18
BRANCH  17  20
ATOM     20  O   UNL     1      14.773  51.913  35.056  1.00  0.00    -0.504 OA
ATOM     21  H   UNL     1      15.540  51.666  34.442  1.00  0.00     0.293 HD
ENDBRANCH  17  20
ENDBRANCH   1  12
BRANCH   2  22
ATOM     22  O   UNL     1      13.174  55.054  30.998  1.00  0.00    -0.502 OA
ATOM     23  H   UNL     1      12.998  54.881  30.015  1.00  0.00     0.293 HD
ENDBRANCH   2  22
BRANCH   6  24
ATOM     24  O   UNL     1      15.795  59.134  28.793  1.00  0.00    -0.507 OA
ATOM     25  H   UNL     1      15.435  58.369  28.241  1.00  0.00     0.293 HD
ENDBRANCH   6  24
BRANCH   8  26
ATOM     26  O   UNL     1      17.245  61.454  32.720  1.00  0.00    -0.508 OA
ATOM     27  H   UNL     1      17.208  62.367  32.284  1.00  0.00     0.293 HD
ENDBRANCH   8  26
TORSDOF 6
ENDMDL
MODEL 2
REMARK VINA RESULT:    -5.741      2.153      6.636
REMARK INTER + INTRA:          -7.209
REMARK INTER:                  -6.885
REMARK INTRA:                  -0.323
REMARK UNBOUND:                -0.293
REMARK SMILES O=c1c(O)c(-c2ccc(O)c(O)c2)oc2cc(O)cc(O)c12
REMARK SMILES IDX 5 1 3 2 2 3 1 4 22 5 20 6 19 7 17 8 16 9 15 10 14 11 6 12
REMARK SMILES IDX 7 13 8 14 9 15 13 16 11 17 10 18 12 20 4 22 21 24 18 26
REMARK H PARENT 10 19 12 21 4 23 21 25 18 27
REMARK Flexibility Score: inf
ROOT
ATOM      1  C   UNL     1      15.706  56.258  31.870  1.00  0.00     0.180 A 
ATOM      2  C   UNL     1      15.420  55.808  30.570  1.00  0.00     0.208 A 
ATOM      3  C   UNL     1      15.086  54.458  30.374  1.00  0.00     0.238 A 
ATOM      4  O   UNL     1      14.883  54.050  29.201  1.00  0.00    -0.285 OA
ATOM      5  C   UNL     1      15.024  53.580  31.483  1.00  0.00     0.111 A 
ATOM      6  C   UNL     1      14.657  52.203  31.406  1.00  0.00     0.134 A 
ATOM      7  C   UNL     1      14.758  51.397  32.546  1.00  0.00     0.093 A 
ATOM      8  C   UNL     1      15.150  51.931  33.773  1.00  0.00     0.123 A 
ATOM      9  C   UNL     1      15.454  53.289  33.873  1.00  0.00     0.094 A 
ATOM     10  C   UNL     1      15.398  54.111  32.745  1.00  0.00     0.146 A 
ATOM     11  O   UNL     1      15.705  55.395  32.879  1.00  0.00    -0.452 OA
ENDROOT
BRANCH   1  12
ATOM     12  C   UNL     1      16.043  57.671  32.158  1.00  0.00     0.025 A 
ATOM     13  C   UNL     1      17.371  58.132  32.103  1.00  0.00     0.016 A 
ATOM     14  C   UNL     1      17.663  59.475  32.355  1.00  0.00     0.051 A 
ATOM     15  C   UNL     1      16.633  60.378  32.651  1.00  0.00     0.157 A 
ATOM     16  C   UNL     1      15.013  58.585  32.434  1.00  0.00     0.062 A 
ATOM     17  C   UNL     1      15.306  59.934  32.688  1.00  0.00     0.158 A 
BRANCH  15  18
ATOM     18  O   UNL     1      16.921  61.719  32.904  1.00  0.00    -0.504 OA
ATOM     19  H   UNL     1      17.785  61.999  33.355  1.00  0.00     0.293 HD
ENDBRANCH  15  18
BRANCH  17  20
ATOM     20  O   UNL     1      14.283  60.836  32.976  1.00  0.00    -0.504 OA
ATOM     21  H   UNL     1      13.352  60.520  33.224  1.00  0.00     0.293 HD
ENDBRANCH  17  20
ENDBRANCH   1  12
BRANCH   2  22
ATOM     22  O   UNL     1      15.507  56.688  29.487  1.00  0.00    -0.502 OA
ATOM     23  H   UNL     1      15.839  56.396  28.575  1.00  0.00     0.293 HD
ENDBRANCH   2  22
BRANCH   6  24
ATOM     24  O   UNL     1      14.164  51.589  30.250  1.00  0.00    -0.507 OA
ATOM     25  H   UNL     1      14.465  50.691  29.904  1.00  0.00     0.293 HD
ENDBRANCH   6  24
BRANCH   8  26
ATOM     26  O   UNL     1      15.224  51.102  34.892  1.00  0.00    -0.508 OA
ATOM     27  H   UNL     1      14.956  50.126  34.846  1.00  0.00     0.293 HD
ENDBRANCH   8  26
TORSDOF 6
ENDMDL
MODEL 3
REMARK VINA RESULT:    -5.634      1.719      6.948
REMARK INTER + INTRA:          -7.079
REMARK INTER:                  -6.847
REMARK INTRA:                  -0.232
REMARK UNBOUND:                -0.293
REMARK SMILES O=c1c(O)c(-c2ccc(O)c(O)c2)oc2cc(O)cc(O)c12
REMARK SMILES IDX 5 1 3 2 2 3 1 4 22 5 20 6 19 7 17 8 16 9 15 10 14 11 6 12
REMARK SMILES IDX 7 13 8 14 9 15 13 16 11 17 10 18 12 20 4 22 21 24 18 26
REMARK H PARENT 10 19 12 21 4 23 21 25 18 27
REMARK Flexibility Score: inf
ROOT
ATOM      1  C   UNL     1      14.722  57.396  32.813  1.00  0.00     0.180 A 
ATOM      2  C   UNL     1      13.351  57.336  33.117  1.00  0.00     0.208 A 
ATOM      3  C   UNL     1      12.808  56.127  33.579  1.00  0.00     0.238 A 
ATOM      4  O   UNL     1      11.569  56.065  33.798  1.00  0.00    -0.285 OA
ATOM      5  C   UNL     1      13.645  54.997  33.749  1.00  0.00     0.111 A 
ATOM      6  C   UNL     1      13.209  53.733  34.249  1.00  0.00     0.134 A 
ATOM      7  C   UNL     1      14.094  52.649  34.250  1.00  0.00     0.093 A 
ATOM      8  C   UNL     1      15.415  52.798  33.832  1.00  0.00     0.123 A 
ATOM      9  C   UNL     1      15.869  54.044  33.397  1.00  0.00     0.094 A 
ATOM     10  C   UNL     1      15.000  55.136  33.350  1.00  0.00     0.146 A 
ATOM     11  O   UNL     1      15.467  56.301  32.919  1.00  0.00    -0.452 OA
ENDROOT
BRANCH   1  12
ATOM     12  C   UNL     1      15.372  58.641  32.344  1.00  0.00     0.025 A 
ATOM     13  C   UNL     1      16.268  59.352  33.162  1.00  0.00     0.016 A 
ATOM     14  C   UNL     1      16.888  60.512  32.690  1.00  0.00     0.051 A 
ATOM     15  C   UNL     1      16.634  60.968  31.389  1.00  0.00     0.157 A 
ATOM     16  C   UNL     1      15.138  59.092  31.034  1.00  0.00     0.062 A 
ATOM     17  C   UNL     1      15.760  60.255  30.559  1.00  0.00     0.158 A 
BRANCH  15  18
ATOM     18  O   UNL     1      17.251  62.125  30.915  1.00  0.00    -0.504 OA
ATOM     19  H   UNL     1      16.728  62.842  30.427  1.00  0.00     0.293 HD
ENDBRANCH  15  18
BRANCH  17  20
ATOM     20  O   UNL     1      15.515  60.709  29.264  1.00  0.00    -0.504 OA
ATOM     21  H   UNL     1      14.661  61.201  29.028  1.00  0.00     0.293 HD
ENDBRANCH  17  20
ENDBRANCH   1  12
BRANCH   2  22
ATOM     22  O   UNL     1      12.539  58.457  32.922  1.00  0.00    -0.502 OA
ATOM     23  H   UNL     1      12.869  59.293  32.453  1.00  0.00     0.293 HD
ENDBRANCH   2  22
BRANCH   6  24
ATOM     24  O   UNL     1      11.935  53.500  34.777  1.00  0.00    -0.507 OA
ATOM     25  H   UNL     1      11.219  54.203  34.883  1.00  0.00     0.293 HD
ENDBRANCH   6  24
BRANCH   8  26
ATOM     26  O   UNL     1      16.274  51.700  33.862  1.00  0.00    -0.508 OA
ATOM     27  H   UNL     1      16.128  50.898  33.261  1.00  0.00     0.293 HD
ENDBRANCH   8  26
TORSDOF 6
ENDMDL
MODEL 4
REMARK VINA RESULT:    -5.588      1.565      1.817
REMARK INTER + INTRA:          -7.024
REMARK INTER:                  -6.821
REMARK INTRA:                  -0.203
REMARK UNBOUND:                -0.293
REMARK SMILES O=c1c(O)c(-c2ccc(O)c(O)c2)oc2cc(O)cc(O)c12
REMARK SMILES IDX 5 1 3 2 2 3 1 4 22 5 20 6 19 7 17 8 16 9 15 10 14 11 6 12
REMARK SMILES IDX 7 13 8 14 9 15 13 16 11 17 10 18 12 20 4 22 21 24 18 26
REMARK H PARENT 10 19 12 21 4 23 21 25 18 27
REMARK Flexibility Score: inf
ROOT
ATOM      1  C   UNL     1      14.406  56.167  32.964  1.00  0.00     0.180 A 
ATOM      2  C   UNL     1      13.277  56.510  32.200  1.00  0.00     0.208 A 
ATOM      3  C   UNL     1      13.199  57.793  31.637  1.00  0.00     0.238 A 
ATOM      4  O   UNL     1      12.161  58.111  31.000  1.00  0.00    -0.285 OA
ATOM      5  C   UNL     1      14.258  58.713  31.829  1.00  0.00     0.111 A 
ATOM      6  C   UNL     1      14.303  60.025  31.271  1.00  0.00     0.134 A 
ATOM      7  C   UNL     1      15.338  60.895  31.635  1.00  0.00     0.093 A 
ATOM      8  C   UNL     1      16.363  60.479  32.484  1.00  0.00     0.123 A 
ATOM      9  C   UNL     1      16.361  59.179  32.988  1.00  0.00     0.094 A 
ATOM     10  C   UNL     1      15.323  58.299  32.672  1.00  0.00     0.146 A 
ATOM     11  O   UNL     1      15.352  57.074  33.181  1.00  0.00    -0.452 OA
ENDROOT
BRANCH   1  12
ATOM     12  C   UNL     1      14.570  54.826  33.570  1.00  0.00     0.025 A 
ATOM     13  C   UNL     1      13.752  54.396  34.629  1.00  0.00     0.016 A 
ATOM     14  C   UNL     1      13.909  53.117  35.170  1.00  0.00     0.051 A 
ATOM     15  C   UNL     1      14.874  52.245  34.650  1.00  0.00     0.157 A 
ATOM     16  C   UNL     1      15.522  53.939  33.039  1.00  0.00     0.062 A 
ATOM     17  C   UNL     1      15.680  52.655  33.581  1.00  0.00     0.158 A 
BRANCH  15  18
ATOM     18  O   UNL     1      15.035  50.968  35.187  1.00  0.00    -0.504 OA
ATOM     19  H   UNL     1      15.499  50.230  34.671  1.00  0.00     0.293 HD
ENDBRANCH  15  18
BRANCH  17  20
ATOM     20  O   UNL     1      16.636  51.783  33.062  1.00  0.00    -0.504 OA
ATOM     21  H   UNL     1      16.627  50.794  33.285  1.00  0.00     0.293 HD
ENDBRANCH  17  20
ENDBRANCH   1  12
BRANCH   2  22
ATOM     22  O   UNL     1      12.232  55.593  32.041  1.00  0.00    -0.502 OA
ATOM     23  H   UNL     1      11.303  55.874  31.751  1.00  0.00     0.293 HD
ENDBRANCH   2  22
BRANCH   6  24
ATOM     24  O   UNL     1      13.379  60.510  30.340  1.00  0.00    -0.507 OA
ATOM     25  H   UNL     1      12.588  61.093  30.567  1.00  0.00     0.293 HD
ENDBRANCH   6  24
BRANCH   8  26
ATOM     26  O   UNL     1      17.386  61.367  32.812  1.00  0.00    -0.508 OA
ATOM     27  H   UNL     1      18.235  61.422  32.263  1.00  0.00     0.293 HD
ENDBRANCH   8  26
TORSDOF 6
ENDMDL
MODEL 5
REMARK VINA RESULT:    -5.526      1.671      2.217
REMARK INTER + INTRA:          -6.950
REMARK INTER:                  -6.817
REMARK INTRA:                  -0.133
REMARK UNBOUND:                -0.293
REMARK SMILES O=c1c(O)c(-c2ccc(O)c(O)c2)oc2cc(O)cc(O)c12
REMARK SMILES IDX 5 1 3 2 2 3 1 4 22 5 20 6 19 7 17 8 16 9 15 10 14 11 6 12
REMARK SMILES IDX 7 13 8 14 9 15 13 16 11 17 10 18 12 20 4 22 21 24 18 26
REMARK H PARENT 10 19 12 21 4 23 21 25 18 27
REMARK Flexibility Score: inf
ROOT
ATOM      1  C   UNL     1      14.302  56.247  33.006  1.00  0.00     0.180 A 
ATOM      2  C   UNL     1      13.088  56.655  32.428  1.00  0.00     0.208 A 
ATOM      3  C   UNL     1      12.960  57.977  31.973  1.00  0.00     0.238 A 
ATOM      4  O   UNL     1      11.852  58.351  31.506  1.00  0.00    -0.285 OA
ATOM      5  C   UNL     1      14.054  58.870  32.084  1.00  0.00     0.111 A 
ATOM      6  C   UNL     1      14.050  60.219  31.619  1.00  0.00     0.134 A 
ATOM      7  C   UNL     1      15.140  61.050  31.900  1.00  0.00     0.093 A 
ATOM      8  C   UNL     1      16.262  60.563  32.571  1.00  0.00     0.123 A 
ATOM      9  C   UNL     1      16.302  59.229  32.978  1.00  0.00     0.094 A 
ATOM     10  C   UNL     1      15.213  58.385  32.744  1.00  0.00     0.146 A 
ATOM     11  O   UNL     1      15.286  57.126  33.157  1.00  0.00    -0.452 OA
ENDROOT
BRANCH   1  12
ATOM     12  C   UNL     1      14.520  54.864  33.488  1.00  0.00     0.025 A 
ATOM     13  C   UNL     1      15.519  54.045  32.933  1.00  0.00     0.016 A 
ATOM     14  C   UNL     1      15.724  52.751  33.420  1.00  0.00     0.051 A 
ATOM     15  C   UNL     1      14.943  52.263  34.477  1.00  0.00     0.157 A 
ATOM     16  C   UNL     1      13.755  54.377  34.562  1.00  0.00     0.062 A 
ATOM     17  C   UNL     1      13.960  53.078  35.051  1.00  0.00     0.158 A 
BRANCH  15  18
ATOM     18  O   UNL     1      15.143  50.973  34.965  1.00  0.00    -0.504 OA
ATOM     19  H   UNL     1      14.845  50.705  35.895  1.00  0.00     0.293 HD
ENDBRANCH  15  18
BRANCH  17  20
ATOM     20  O   UNL     1      13.190  52.592  36.106  1.00  0.00    -0.504 OA
ATOM     21  H   UNL     1      12.216  52.852  36.215  1.00  0.00     0.293 HD
ENDBRANCH  17  20
ENDBRANCH   1  12
BRANCH   2  22
ATOM     22  O   UNL     1      12.013  55.764  32.348  1.00  0.00    -0.502 OA
ATOM     23  H   UNL     1      11.071  56.066  32.133  1.00  0.00     0.293 HD
ENDBRANCH   2  22
BRANCH   6  24
ATOM     24  O   UNL     1      13.018  60.779  30.858  1.00  0.00    -0.507 OA
ATOM     25  H   UNL     1      12.366  61.471  31.196  1.00  0.00     0.293 HD
ENDBRANCH   6  24
BRANCH   8  26
ATOM     26  O   UNL     1      17.337  61.414  32.820  1.00  0.00    -0.508 OA
ATOM     27  H   UNL     1      17.908  61.779  32.067  1.00  0.00     0.293 HD
ENDBRANCH   8  26
TORSDOF 6
ENDMDL
MODEL 6
REMARK VINA RESULT:    -5.386      3.173      7.189
REMARK INTER + INTRA:          -6.782
REMARK INTER:                  -6.482
REMARK INTRA:                  -0.300
REMARK UNBOUND:                -0.293
REMARK SMILES O=c1c(O)c(-c2ccc(O)c(O)c2)oc2cc(O)cc(O)c12
REMARK SMILES IDX 5 1 3 2 2 3 1 4 22 5 20 6 19 7 17 8 16 9 15 10 14 11 6 12
REMARK SMILES IDX 7 13 8 14 9 15 13 16 11 17 10 18 12 20 4 22 21 24 18 26
REMARK H PARENT 10 19 12 21 4 23 21 25 18 27
REMARK Flexibility Score: inf
ROOT
ATOM      1  C   UNL     1      15.125  54.511  31.894  1.00  0.00     0.180 A 
ATOM      2  C   UNL     1      15.318  53.605  32.950  1.00  0.00     0.208 A 
ATOM      3  C   UNL     1      15.029  52.246  32.744  1.00  0.00     0.238 A 
ATOM      4  O   UNL     1      15.153  51.449  33.711  1.00  0.00    -0.285 OA
ATOM      5  C   UNL     1      14.566  51.808  31.480  1.00  0.00     0.111 A 
ATOM      6  C   UNL     1      14.281  50.449  31.148  1.00  0.00     0.134 A 
ATOM      7  C   UNL     1      13.703  50.149  29.909  1.00  0.00     0.093 A 
ATOM      8  C   UNL     1      13.463  51.146  28.965  1.00  0.00     0.123 A 
ATOM      9  C   UNL     1      13.793  52.470  29.256  1.00  0.00     0.094 A 
ATOM     10  C   UNL     1      14.337  52.807  30.498  1.00  0.00     0.146 A 
ATOM     11  O   UNL     1      14.627  54.079  30.740  1.00  0.00    -0.452 OA
ENDROOT
BRANCH   1  12
ATOM     12  C   UNL     1      15.430  55.953  32.027  1.00  0.00     0.025 A 
ATOM     13  C   UNL     1      14.523  56.841  32.633  1.00  0.00     0.016 A 
ATOM     14  C   UNL     1      14.842  58.194  32.770  1.00  0.00     0.051 A 
ATOM     15  C   UNL     1      16.078  58.677  32.317  1.00  0.00     0.157 A 
ATOM     16  C   UNL     1      16.676  56.440  31.594  1.00  0.00     0.062 A 
ATOM     17  C   UNL     1      16.997  57.798  31.731  1.00  0.00     0.158 A 
BRANCH  15  18
ATOM     18  O   UNL     1      16.399  60.027  32.451  1.00  0.00    -0.504 OA
ATOM     19  H   UNL     1      16.153  60.551  33.283  1.00  0.00     0.293 HD
ENDBRANCH  15  18
BRANCH  17  20
ATOM     20  O   UNL     1      18.227  58.281  31.288  1.00  0.00    -0.504 OA
ATOM     21  H   UNL     1      18.822  57.733  30.677  1.00  0.00     0.293 HD
ENDBRANCH  17  20
ENDBRANCH   1  12
BRANCH   2  22
ATOM     22  O   UNL     1      15.755  54.062  34.197  1.00  0.00    -0.502 OA
ATOM     23  H   UNL     1      15.669  55.031  34.481  1.00  0.00     0.293 HD
ENDBRANCH   2  22
BRANCH   6  24
ATOM     24  O   UNL     1      14.568  49.365  31.983  1.00  0.00    -0.507 OA
ATOM     25  H   UNL     1      14.386  48.400  31.754  1.00  0.00     0.293 HD
ENDBRANCH   6  24
BRANCH   8  26
ATOM     26  O   UNL     1      12.902  50.808  27.735  1.00  0.00    -0.508 OA
ATOM     27  H   UNL     1      12.294  50.004  27.633  1.00  0.00     0.293 HD
ENDBRANCH   8  26
TORSDOF 6
ENDMDL
MODEL 7
REMARK VINA RESULT:    -5.213      2.506      3.560
REMARK INTER + INTRA:          -6.573
REMARK INTER:                  -6.256
REMARK INTRA:                  -0.317
REMARK UNBOUND:                -0.293
REMARK SMILES O=c1c(O)c(-c2ccc(O)c(O)c2)oc2cc(O)cc(O)c12
REMARK SMILES IDX 5 1 3 2 2 3 1 4 22 5 20 6 19 7 17 8 16 9 15 10 14 11 6 12
REMARK SMILES IDX 7 13 8 14 9 15 13 16 11 17 10 18 12 20 4 22 21 24 18 26
REMARK H PARENT 10 19 12 21 4 23 21 25 18 27
REMARK Flexibility Score: inf
ROOT
ATOM      1  C   UNL     1      15.122  56.287  32.264  1.00  0.00     0.180 A 
ATOM      2  C   UNL     1      16.176  57.044  31.726  1.00  0.00     0.208 A 
ATOM      3  C   UNL     1      16.062  58.443  31.691  1.00  0.00     0.238 A 
ATOM      4  O   UNL     1      16.986  59.112  31.158  1.00  0.00    -0.285 OA
ATOM      5  C   UNL     1      14.903  59.069  32.210  1.00  0.00     0.111 A 
ATOM      6  C   UNL     1      14.699  60.480  32.263  1.00  0.00     0.134 A 
ATOM      7  C   UNL     1      13.459  60.983  32.676  1.00  0.00     0.093 A 
ATOM      8  C   UNL     1      12.441  60.130  33.100  1.00  0.00     0.123 A 
ATOM      9  C   UNL     1      12.651  58.751  33.110  1.00  0.00     0.094 A 
ATOM     10  C   UNL     1      13.864  58.217  32.668  1.00  0.00     0.146 A 
ATOM     11  O   UNL     1      14.020  56.899  32.683  1.00  0.00    -0.452 OA
ENDROOT
BRANCH   1  12
ATOM     12  C   UNL     1      15.180  54.810  32.357  1.00  0.00     0.025 A 
ATOM     13  C   UNL     1      15.584  54.167  33.541  1.00  0.00     0.016 A 
ATOM     14  C   UNL     1      15.607  52.771  33.614  1.00  0.00     0.051 A 
ATOM     15  C   UNL     1      15.213  52.000  32.512  1.00  0.00     0.157 A 
ATOM     16  C   UNL     1      14.766  54.032  31.263  1.00  0.00     0.062 A 
ATOM     17  C   UNL     1      14.789  52.631  31.336  1.00  0.00     0.158 A 
BRANCH  15  18
ATOM     18  O   UNL     1      15.236  50.608  32.581  1.00  0.00    -0.504 OA
ATOM     19  H   UNL     1      15.219  50.121  33.469  1.00  0.00     0.293 HD
ENDBRANCH  15  18
BRANCH  17  20
ATOM     20  O   UNL     1      14.392  51.861  30.244  1.00  0.00    -0.504 OA
ATOM     21  H   UNL     1      13.981  50.942  30.365  1.00  0.00     0.293 HD
ENDBRANCH  17  20
ENDBRANCH   1  12
BRANCH   2  22
ATOM     22  O   UNL     1      17.303  56.405  31.199  1.00  0.00    -0.502 OA
ATOM     23  H   UNL     1      17.240  55.547  30.662  1.00  0.00     0.293 HD
ENDBRANCH   2  22
BRANCH   6  24
ATOM     24  O   UNL     1      15.682  61.424  31.948  1.00  0.00    -0.507 OA
ATOM     25  H   UNL     1      15.975  62.172  32.557  1.00  0.00     0.293 HD
ENDBRANCH   6  24
BRANCH   8  26
ATOM     26  O   UNL     1      11.225  60.667  33.521  1.00  0.00    -0.508 OA
ATOM     27  H   UNL     1      10.473  60.076  33.855  1.00  0.00     0.293 HD
ENDBRANCH   8  26
TORSDOF 6
ENDMDL
MODEL 8
REMARK VINA RESULT:    -5.151      4.889      6.571
REMARK INTER + INTRA:          -6.498
REMARK INTER:                  -6.199
REMARK INTRA:                  -0.298
REMARK UNBOUND:                -0.293
REMARK SMILES O=c1c(O)c(-c2ccc(O)c(O)c2)oc2cc(O)cc(O)c12
REMARK SMILES IDX 5 1 3 2 2 3 1 4 22 5 20 6 19 7 17 8 16 9 15 10 14 11 6 12
REMARK SMILES IDX 7 13 8 14 9 15 13 16 11 17 10 18 12 20 4 22 21 24 18 26
REMARK H PARENT 10 19 12 21 4 23 21 25 18 27
REMARK Flexibility Score: inf
ROOT
ATOM      1  C   UNL     1      14.907  50.551  31.367  1.00  0.00     0.180 A 
ATOM      2  C   UNL     1      14.749  51.364  30.232  1.00  0.00     0.208 A 
ATOM      3  C   UNL     1      14.759  52.759  30.386  1.00  0.00     0.238 A 
ATOM      4  O   UNL     1      14.563  53.481  29.373  1.00  0.00    -0.285 OA
ATOM      5  C   UNL     1      14.944  53.325  31.671  1.00  0.00     0.111 A 
ATOM      6  C   UNL     1      15.012  54.726  31.937  1.00  0.00     0.134 A 
ATOM      7  C   UNL     1      15.065  55.175  33.262  1.00  0.00     0.093 A 
ATOM      8  C   UNL     1      15.120  54.275  34.325  1.00  0.00     0.123 A 
ATOM      9  C   UNL     1      15.115  52.902  34.074  1.00  0.00     0.094 A 
ATOM     10  C   UNL     1      15.025  52.424  32.764  1.00  0.00     0.146 A 
ATOM     11  O   UNL     1      15.012  51.112  32.567  1.00  0.00    -0.452 OA
ENDROOT
BRANCH   1  12
ATOM     12  C   UNL     1      14.931  49.073  31.282  1.00  0.00     0.025 A 
ATOM     13  C   UNL     1      13.780  48.307  31.537  1.00  0.00     0.016 A 
ATOM     14  C   UNL     1      13.820  46.914  31.426  1.00  0.00     0.051 A 
ATOM     15  C   UNL     1      15.004  46.270  31.045  1.00  0.00     0.157 A 
ATOM     16  C   UNL     1      16.110  48.423  30.879  1.00  0.00     0.062 A 
ATOM     17  C   UNL     1      16.150  47.025  30.768  1.00  0.00     0.158 A 
BRANCH  15  18
ATOM     18  O   UNL     1      15.047  44.881  30.935  1.00  0.00    -0.504 OA
ATOM     19  H   UNL     1      15.007  44.283  31.752  1.00  0.00     0.293 HD
ENDBRANCH  15  18
BRANCH  17  20
ATOM     20  O   UNL     1      17.325  46.381  30.382  1.00  0.00    -0.504 OA
ATOM     21  H   UNL     1      17.793  46.609  29.513  1.00  0.00     0.293 HD
ENDBRANCH  17  20
ENDBRANCH   1  12
BRANCH   2  22
ATOM     22  O   UNL     1      14.547  50.784  28.976  1.00  0.00    -0.502 OA
ATOM     23  H   UNL     1      15.146  50.053  28.611  1.00  0.00     0.293 HD
ENDBRANCH   2  22
BRANCH   6  24
ATOM     24  O   UNL     1      15.056  55.708  30.943  1.00  0.00    -0.507 OA
ATOM     25  H   UNL     1      14.246  56.125  30.510  1.00  0.00     0.293 HD
ENDBRANCH   6  24
BRANCH   8  26
ATOM     26  O   UNL     1      15.190  54.757  35.631  1.00  0.00    -0.508 OA
ATOM     27  H   UNL     1      15.792  54.327  36.323  1.00  0.00     0.293 HD
ENDBRANCH   8  26
TORSDOF 6
ENDMDL
MODEL 9
REMARK VINA RESULT:    -5.136      6.110     10.100
REMARK INTER + INTRA:          -6.480
REMARK INTER:                  -6.215
REMARK INTRA:                  -0.265
REMARK UNBOUND:                -0.293
REMARK SMILES O=c1c(O)c(-c2ccc(O)c(O)c2)oc2cc(O)cc(O)c12
REMARK SMILES IDX 5 1 3 2 2 3 1 4 22 5 20 6 19 7 17 8 16 9 15 10 14 11 6 12
REMARK SMILES IDX 7 13 8 14 9 15 13 16 11 17 10 18 12 20 4 22 21 24 18 26
REMARK H PARENT 10 19 12 21 4 23 21 25 18 27
REMARK Flexibility Score: inf
ROOT
ATOM      1  C   UNL     1      15.051  49.361  31.652  1.00  0.00     0.180 A 
ATOM      2  C   UNL     1      15.780  48.856  30.562  1.00  0.00     0.208 A 
ATOM      3  C   UNL     1      15.687  47.490  30.253  1.00  0.00     0.238 A 
ATOM      4  O   UNL     1      16.384  47.034  29.309  1.00  0.00    -0.285 OA
ATOM      5  C   UNL     1      14.853  46.648  31.028  1.00  0.00     0.111 A 
ATOM      6  C   UNL     1      14.652  45.256  30.780  1.00  0.00     0.134 A 
ATOM      7  C   UNL     1      13.909  44.494  31.689  1.00  0.00     0.093 A 
ATOM      8  C   UNL     1      13.305  45.084  32.799  1.00  0.00     0.123 A 
ATOM      9  C   UNL     1      13.445  46.454  33.019  1.00  0.00     0.094 A 
ATOM     10  C   UNL     1      14.211  47.235  32.150  1.00  0.00     0.146 A 
ATOM     11  O   UNL     1      14.329  48.533  32.399  1.00  0.00    -0.452 OA
ENDROOT
BRANCH   1  12
ATOM     12  C   UNL     1      15.079  50.793  32.024  1.00  0.00     0.025 A 
ATOM     13  C   UNL     1      15.842  51.252  33.113  1.00  0.00     0.016 A 
ATOM     14  C   UNL     1      15.873  52.612  33.432  1.00  0.00     0.051 A 
ATOM     15  C   UNL     1      15.156  53.535  32.658  1.00  0.00     0.157 A 
ATOM     16  C   UNL     1      14.379  51.726  31.240  1.00  0.00     0.062 A 
ATOM     17  C   UNL     1      14.410  53.091  31.559  1.00  0.00     0.158 A 
BRANCH  15  18
ATOM     18  O   UNL     1      15.184  54.892  32.973  1.00  0.00    -0.504 OA
ATOM     19  H   UNL     1      14.982  55.602  32.279  1.00  0.00     0.293 HD
ENDBRANCH  15  18
BRANCH  17  20
ATOM     20  O   UNL     1      13.703  54.013  30.788  1.00  0.00    -0.504 OA
ATOM     21  H   UNL     1      12.901  53.735  30.234  1.00  0.00     0.293 HD
ENDBRANCH  17  20
ENDBRANCH   1  12
BRANCH   2  22
ATOM     22  O   UNL     1      16.614  49.701  29.823  1.00  0.00    -0.502 OA
ATOM     23  H   UNL     1      17.568  49.902  30.101  1.00  0.00     0.293 HD
ENDBRANCH   2  22
BRANCH   6  24
ATOM     24  O   UNL     1      15.134  44.587  29.651  1.00  0.00    -0.507 OA
ATOM     25  H   UNL     1      15.621  45.028  28.886  1.00  0.00     0.293 HD
ENDBRANCH   6  24
BRANCH   8  26
ATOM     26  O   UNL     1      12.558  44.296  33.675  1.00  0.00    -0.508 OA
ATOM     27  H   UNL     1      11.546  44.331  33.684  1.00  0.00     0.293 HD
ENDBRANCH   8  26
TORSDOF 6
ENDMDL
