MODEL 1
REMARK VINA RESULT:    -6.989      0.000      0.000
REMARK INTER + INTRA:          -8.574
REMARK INTER:                  -8.419
REMARK INTRA:                  -0.155
REMARK UNBOUND:                -0.155
REMARK SMILES O=c1c(O)c(-c2ccc(O)c(O)c2)oc2cc(O)cc(O)c12
REMARK SMILES IDX 5 1 3 2 2 3 1 4 22 5 20 6 19 7 17 8 16 9 15 10 14 11 6 12
REMARK SMILES IDX 7 13 8 14 9 15 13 16 11 17 10 18 12 20 4 22 21 24 18 26
REMARK H PARENT 10 19 12 21 4 23 21 25 18 27
REMARK Flexibility Score: inf
ROOT
ATOM      1  C   UNL     1      31.503 -92.062  37.669  1.00  0.00     0.180 A 
ATOM      2  C   UNL     1      30.266 -92.653  37.361  1.00  0.00     0.208 A 
ATOM      3  C   UNL     1      30.123 -94.043  37.488  1.00  0.00     0.238 A 
ATOM      4  O   UNL     1      28.998 -94.559  37.262  1.00  0.00    -0.285 OA
ATOM      5  C   UNL     1      31.225 -94.829  37.905  1.00  0.00     0.111 A 
ATOM      6  C   UNL     1      31.206 -96.250  38.028  1.00  0.00     0.134 A 
ATOM      7  C   UNL     1      32.313 -96.911  38.574  1.00  0.00     0.093 A 
ATOM      8  C   UNL     1      33.463 -96.208  38.940  1.00  0.00     0.123 A 
ATOM      9  C   UNL     1      33.514 -94.826  38.768  1.00  0.00     0.094 A 
ATOM     10  C   UNL     1      32.411 -94.135  38.260  1.00  0.00     0.146 A 
ATOM     11  O   UNL     1      32.498 -92.818  38.121  1.00  0.00    -0.452 OA
ENDROOT
BRANCH   1  12
ATOM     12  C   UNL     1      31.737 -90.606  37.537  1.00  0.00     0.025 A 
ATOM     13  C   UNL     1      32.634 -90.135  36.566  1.00  0.00     0.016 A 
ATOM     14  C   UNL     1      32.855 -88.764  36.411  1.00  0.00     0.051 A 
ATOM     15  C   UNL     1      32.171 -87.843  37.214  1.00  0.00     0.157 A 
ATOM     16  C   UNL     1      31.037 -89.678  38.328  1.00  0.00     0.062 A 
ATOM     17  C   UNL     1      31.253 -88.303  38.175  1.00  0.00     0.158 A 
BRANCH  15  18
ATOM     18  O   UNL     1      32.394 -86.475  37.060  1.00  0.00    -0.504 OA
ATOM     19  H   UNL     1      33.036 -86.119  36.361  1.00  0.00     0.293 HD
ENDBRANCH  15  18
BRANCH  17  20
ATOM     20  O   UNL     1      30.546 -87.412  38.980  1.00  0.00    -0.504 OA
ATOM     21  H   UNL     1      29.589 -87.586  39.263  1.00  0.00     0.293 HD
ENDBRANCH  17  20
ENDBRANCH   1  12
BRANCH   2  22
ATOM     22  O   UNL     1      29.185 -91.856  36.972  1.00  0.00    -0.502 OA
ATOM     23  H   UNL     1      28.245 -92.221  36.879  1.00  0.00     0.293 HD
ENDBRANCH   2  22
BRANCH   6  24
ATOM     24  O   UNL     1      30.144 -97.056  37.608  1.00  0.00    -0.507 OA
ATOM     25  H   UNL     1      29.894 -97.940  38.025  1.00  0.00     0.293 HD
ENDBRANCH   6  24
BRANCH   8  26
ATOM     26  O   UNL     1      34.567 -96.875  39.469  1.00  0.00    -0.508 OA
ATOM     27  H   UNL     1      35.306 -96.378  39.950  1.00  0.00     0.293 HD
ENDBRANCH   8  26
TORSDOF 6
ENDMDL
MODEL 2
REMARK VINA RESULT:    -5.681      9.523     10.931
REMARK INTER + INTRA:          -6.999
REMARK INTER:                  -6.692
REMARK INTRA:                  -0.307
REMARK UNBOUND:                -0.155
REMARK SMILES O=c1c(O)c(-c2ccc(O)c(O)c2)oc2cc(O)cc(O)c12
REMARK SMILES IDX 5 1 3 2 2 3 1 4 22 5 20 6 19 7 17 8 16 9 15 10 14 11 6 12
REMARK SMILES IDX 7 13 8 14 9 15 13 16 11 17 10 18 12 20 4 22 21 24 18 26
REMARK H PARENT 10 19 12 21 4 23 21 25 18 27
REMARK Flexibility Score: inf
ROOT
ATOM      1  C   UNL     1      36.727 -95.166  29.893  1.00  0.00     0.180 A 
ATOM      2  C   UNL     1      37.796 -95.609  29.095  1.00  0.00     0.208 A 
ATOM      3  C   UNL     1      39.091 -95.622  29.636  1.00  0.00     0.238 A 
ATOM      4  O   UNL     1      40.035 -96.070  28.934  1.00  0.00    -0.285 OA
ATOM      5  C   UNL     1      39.305 -95.176  30.963  1.00  0.00     0.111 A 
ATOM      6  C   UNL     1      40.580 -95.107  31.598  1.00  0.00     0.134 A 
ATOM      7  C   UNL     1      40.659 -94.774  32.957  1.00  0.00     0.093 A 
ATOM      8  C   UNL     1      39.512 -94.443  33.683  1.00  0.00     0.123 A 
ATOM      9  C   UNL     1      38.268 -94.449  33.056  1.00  0.00     0.094 A 
ATOM     10  C   UNL     1      38.155 -94.813  31.712  1.00  0.00     0.146 A 
ATOM     11  O   UNL     1      36.950 -94.816  31.155  1.00  0.00    -0.452 OA
ENDROOT
BRANCH   1  12
ATOM     12  C   UNL     1      35.338 -95.100  29.386  1.00  0.00     0.025 A 
ATOM     13  C   UNL     1      34.936 -94.004  28.607  1.00  0.00     0.016 A 
ATOM     14  C   UNL     1      33.636 -93.933  28.102  1.00  0.00     0.051 A 
ATOM     15  C   UNL     1      32.721 -94.963  28.355  1.00  0.00     0.157 A 
ATOM     16  C   UNL     1      34.423 -96.143  29.622  1.00  0.00     0.062 A 
ATOM     17  C   UNL     1      33.119 -96.076  29.115  1.00  0.00     0.158 A 
BRANCH  15  18
ATOM     18  O   UNL     1      31.423 -94.888  27.852  1.00  0.00    -0.504 OA
ATOM     19  H   UNL     1      31.098 -94.074  27.344  1.00  0.00     0.293 HD
ENDBRANCH  15  18
BRANCH  17  20
ATOM     20  O   UNL     1      32.238 -97.125  29.374  1.00  0.00    -0.504 OA
ATOM     21  H   UNL     1      32.252 -97.636  30.248  1.00  0.00     0.293 HD
ENDBRANCH  17  20
ENDBRANCH   1  12
BRANCH   2  22
ATOM     22  O   UNL     1      37.559 -96.066  27.796  1.00  0.00    -0.502 OA
ATOM     23  H   UNL     1      38.265 -96.033  27.069  1.00  0.00     0.293 HD
ENDBRANCH   2  22
BRANCH   6  24
ATOM     24  O   UNL     1      41.794 -95.328  30.940  1.00  0.00    -0.507 OA
ATOM     25  H   UNL     1      42.657 -94.850  31.153  1.00  0.00     0.293 HD
ENDBRANCH   6  24
BRANCH   8  26
ATOM     26  O   UNL     1      39.600 -94.098  35.031  1.00  0.00    -0.508 OA
ATOM     27  H   UNL     1      39.449 -93.147  35.345  1.00  0.00     0.293 HD
ENDBRANCH   8  26
TORSDOF 6
ENDMDL
MODEL 3
REMARK VINA RESULT:    -5.646      8.950     11.089
REMARK INTER + INTRA:          -6.956
REMARK INTER:                  -6.644
REMARK INTRA:                  -0.312
REMARK UNBOUND:                -0.155
REMARK SMILES O=c1c(O)c(-c2ccc(O)c(O)c2)oc2cc(O)cc(O)c12
REMARK SMILES IDX 5 1 3 2 2 3 1 4 22 5 20 6 19 7 17 8 16 9 15 10 14 11 6 12
REMARK SMILES IDX 7 13 8 14 9 15 13 16 11 17 10 18 12 20 4 22 21 24 18 26
REMARK H PARENT 10 19 12 21 4 23 21 25 18 27
REMARK Flexibility Score: inf
ROOT
ATOM      1  C   UNL     1      40.638 -95.374  35.954  1.00  0.00     0.180 A 
ATOM      2  C   UNL     1      41.852 -95.358  35.245  1.00  0.00     0.208 A 
ATOM      3  C   UNL     1      41.824 -95.228  33.848  1.00  0.00     0.238 A 
ATOM      4  O   UNL     1      42.915 -95.160  33.225  1.00  0.00    -0.285 OA
ATOM      5  C   UNL     1      40.582 -95.133  33.174  1.00  0.00     0.111 A 
ATOM      6  C   UNL     1      40.434 -95.040  31.758  1.00  0.00     0.134 A 
ATOM      7  C   UNL     1      39.164 -94.819  31.209  1.00  0.00     0.093 A 
ATOM      8  C   UNL     1      38.030 -94.754  32.022  1.00  0.00     0.123 A 
ATOM      9  C   UNL     1      38.157 -94.904  33.401  1.00  0.00     0.094 A 
ATOM     10  C   UNL     1      39.415 -95.088  33.981  1.00  0.00     0.146 A 
ATOM     11  O   UNL     1      39.492 -95.217  35.299  1.00  0.00    -0.452 OA
ENDROOT
BRANCH   1  12
ATOM     12  C   UNL     1      40.585 -95.531  37.425  1.00  0.00     0.025 A 
ATOM     13  C   UNL     1      40.664 -96.815  37.986  1.00  0.00     0.016 A 
ATOM     14  C   UNL     1      40.636 -96.984  39.373  1.00  0.00     0.051 A 
ATOM     15  C   UNL     1      40.545 -95.872  40.219  1.00  0.00     0.157 A 
ATOM     16  C   UNL     1      40.514 -94.415  38.278  1.00  0.00     0.062 A 
ATOM     17  C   UNL     1      40.488 -94.581  39.668  1.00  0.00     0.158 A 
BRANCH  15  18
ATOM     18  O   UNL     1      40.515 -96.044  41.603  1.00  0.00    -0.504 OA
ATOM     19  H   UNL     1      41.365 -96.165  42.140  1.00  0.00     0.293 HD
ENDBRANCH  15  18
BRANCH  17  20
ATOM     20  O   UNL     1      40.411 -93.452  40.483  1.00  0.00    -0.504 OA
ATOM     21  H   UNL     1      40.545 -93.502  41.486  1.00  0.00     0.293 HD
ENDBRANCH  17  20
ENDBRANCH   1  12
BRANCH   2  22
ATOM     22  O   UNL     1      43.067 -95.430  35.932  1.00  0.00    -0.502 OA
ATOM     23  H   UNL     1      43.204 -95.007  36.842  1.00  0.00     0.293 HD
ENDBRANCH   2  22
BRANCH   6  24
ATOM     24  O   UNL     1      41.488 -95.183  30.851  1.00  0.00    -0.507 OA
ATOM     25  H   UNL     1      41.641 -95.995  30.273  1.00  0.00     0.293 HD
ENDBRANCH   6  24
BRANCH   8  26
ATOM     26  O   UNL     1      36.768 -94.550  31.467  1.00  0.00    -0.508 OA
ATOM     27  H   UNL     1      35.954 -94.387  32.047  1.00  0.00     0.293 HD
ENDBRANCH   8  26
TORSDOF 6
ENDMDL
MODEL 4
REMARK VINA RESULT:    -5.642      9.343     10.966
REMARK INTER + INTRA:          -6.952
REMARK INTER:                  -6.836
REMARK INTRA:                  -0.116
REMARK UNBOUND:                -0.155
REMARK SMILES O=c1c(O)c(-c2ccc(O)c(O)c2)oc2cc(O)cc(O)c12
REMARK SMILES IDX 5 1 3 2 2 3 1 4 22 5 20 6 19 7 17 8 16 9 15 10 14 11 6 12
REMARK SMILES IDX 7 13 8 14 9 15 13 16 11 17 10 18 12 20 4 22 21 24 18 26
REMARK H PARENT 10 19 12 21 4 23 21 25 18 27
REMARK Flexibility Score: inf
ROOT
ATOM      1  C   UNL     1      37.956 -95.156  31.039  1.00  0.00     0.180 A 
ATOM      2  C   UNL     1      38.616 -95.773  29.964  1.00  0.00     0.208 A 
ATOM      3  C   UNL     1      37.941 -95.919  28.742  1.00  0.00     0.238 A 
ATOM      4  O   UNL     1      38.556 -96.425  27.768  1.00  0.00    -0.285 OA
ATOM      5  C   UNL     1      36.607 -95.461  28.615  1.00  0.00     0.111 A 
ATOM      6  C   UNL     1      35.813 -95.594  27.437  1.00  0.00     0.134 A 
ATOM      7  C   UNL     1      34.552 -94.988  27.381  1.00  0.00     0.093 A 
ATOM      8  C   UNL     1      34.030 -94.309  28.486  1.00  0.00     0.123 A 
ATOM      9  C   UNL     1      34.773 -94.225  29.661  1.00  0.00     0.094 A 
ATOM     10  C   UNL     1      36.050 -94.789  29.734  1.00  0.00     0.146 A 
ATOM     11  O   UNL     1      36.728 -94.677  30.869  1.00  0.00    -0.452 OA
ENDROOT
BRANCH   1  12
ATOM     12  C   UNL     1      38.592 -94.987  32.365  1.00  0.00     0.025 A 
ATOM     13  C   UNL     1      39.741 -94.190  32.485  1.00  0.00     0.016 A 
ATOM     14  C   UNL     1      40.345 -94.001  33.730  1.00  0.00     0.051 A 
ATOM     15  C   UNL     1      39.802 -94.594  34.877  1.00  0.00     0.157 A 
ATOM     16  C   UNL     1      38.038 -95.565  33.522  1.00  0.00     0.062 A 
ATOM     17  C   UNL     1      38.640 -95.377  34.772  1.00  0.00     0.158 A 
BRANCH  15  18
ATOM     18  O   UNL     1      40.409 -94.407  36.118  1.00  0.00    -0.504 OA
ATOM     19  H   UNL     1      41.396 -94.586  36.258  1.00  0.00     0.293 HD
ENDBRANCH  15  18
BRANCH  17  20
ATOM     20  O   UNL     1      38.066 -95.970  35.895  1.00  0.00    -0.504 OA
ATOM     21  H   UNL     1      38.100 -96.970  36.053  1.00  0.00     0.293 HD
ENDBRANCH  17  20
ENDBRANCH   1  12
BRANCH   2  22
ATOM     22  O   UNL     1      39.940 -96.199  30.104  1.00  0.00    -0.502 OA
ATOM     23  H   UNL     1      40.694 -95.829  29.537  1.00  0.00     0.293 HD
ENDBRANCH   2  22
BRANCH   6  24
ATOM     24  O   UNL     1      36.202 -96.328  26.312  1.00  0.00    -0.507 OA
ATOM     25  H   UNL     1      35.939 -96.107  25.364  1.00  0.00     0.293 HD
ENDBRANCH   6  24
BRANCH   8  26
ATOM     26  O   UNL     1      32.768 -93.722  28.427  1.00  0.00    -0.508 OA
ATOM     27  H   UNL     1      31.948 -94.254  28.165  1.00  0.00     0.293 HD
ENDBRANCH   8  26
TORSDOF 6
ENDMDL
MODEL 5
REMARK VINA RESULT:    -5.373      8.238     10.869
REMARK INTER + INTRA:          -6.627
REMARK INTER:                  -6.416
REMARK INTRA:                  -0.211
REMARK UNBOUND:                -0.155
REMARK SMILES O=c1c(O)c(-c2ccc(O)c(O)c2)oc2cc(O)cc(O)c12
REMARK SMILES IDX 5 1 3 2 2 3 1 4 22 5 20 6 19 7 17 8 16 9 15 10 14 11 6 12
REMARK SMILES IDX 7 13 8 14 9 15 13 16 11 17 10 18 12 20 4 22 21 24 18 26
REMARK H PARENT 10 19 12 21 4 23 21 25 18 27
REMARK Flexibility Score: inf
ROOT
ATOM      1  C   UNL     1      40.648 -95.137  35.405  1.00  0.00     0.180 A 
ATOM      2  C   UNL     1      41.782 -94.785  36.158  1.00  0.00     0.208 A 
ATOM      3  C   UNL     1      41.698 -94.789  37.558  1.00  0.00     0.238 A 
ATOM      4  O   UNL     1      42.731 -94.525  38.227  1.00  0.00    -0.285 OA
ATOM      5  C   UNL     1      40.477 -95.126  38.191  1.00  0.00     0.111 A 
ATOM      6  C   UNL     1      40.267 -95.123  39.602  1.00  0.00     0.134 A 
ATOM      7  C   UNL     1      39.057 -95.600  40.122  1.00  0.00     0.093 A 
ATOM      8  C   UNL     1      38.026 -96.020  39.277  1.00  0.00     0.123 A 
ATOM      9  C   UNL     1      38.200 -95.971  37.896  1.00  0.00     0.094 A 
ATOM     10  C   UNL     1      39.409 -95.534  37.349  1.00  0.00     0.146 A 
ATOM     11  O   UNL     1      39.536 -95.513  36.028  1.00  0.00    -0.452 OA
ENDROOT
BRANCH   1  12
ATOM     12  C   UNL     1      40.651 -95.134  33.925  1.00  0.00     0.025 A 
ATOM     13  C   UNL     1      39.954 -94.131  33.233  1.00  0.00     0.016 A 
ATOM     14  C   UNL     1      39.961 -94.098  31.837  1.00  0.00     0.051 A 
ATOM     15  C   UNL     1      40.678 -95.058  31.110  1.00  0.00     0.157 A 
ATOM     16  C   UNL     1      41.387 -96.084  33.193  1.00  0.00     0.062 A 
ATOM     17  C   UNL     1      41.398 -96.053  31.793  1.00  0.00     0.158 A 
BRANCH  15  18
ATOM     18  O   UNL     1      40.681 -95.024  29.716  1.00  0.00    -0.504 OA
ATOM     19  H   UNL     1      40.471 -95.849  29.166  1.00  0.00     0.293 HD
ENDBRANCH  15  18
BRANCH  17  20
ATOM     20  O   UNL     1      42.133 -97.014  31.100  1.00  0.00    -0.504 OA
ATOM     21  H   UNL     1      41.883 -97.311  30.165  1.00  0.00     0.293 HD
ENDBRANCH  17  20
ENDBRANCH   1  12
BRANCH   2  22
ATOM     22  O   UNL     1      42.983 -94.477  35.514  1.00  0.00    -0.502 OA
ATOM     23  H   UNL     1      43.028 -93.862  34.709  1.00  0.00     0.293 HD
ENDBRANCH   2  22
BRANCH   6  24
ATOM     24  O   UNL     1      41.195 -94.639  40.528  1.00  0.00    -0.507 OA
ATOM     25  H   UNL     1      40.968 -94.333  41.463  1.00  0.00     0.293 HD
ENDBRANCH   6  24
BRANCH   8  26
ATOM     26  O   UNL     1      36.820 -96.479  39.802  1.00  0.00    -0.508 OA
ATOM     27  H   UNL     1      36.311 -97.242  39.372  1.00  0.00     0.293 HD
ENDBRANCH   8  26
TORSDOF 6
ENDMDL
MODEL 6
REMARK VINA RESULT:    -5.155     10.496     11.906
REMARK INTER + INTRA:          -6.365
REMARK INTER:                  -6.066
REMARK INTRA:                  -0.299
REMARK UNBOUND:                -0.155
REMARK SMILES O=c1c(O)c(-c2ccc(O)c(O)c2)oc2cc(O)cc(O)c12
REMARK SMILES IDX 5 1 3 2 2 3 1 4 22 5 20 6 19 7 17 8 16 9 15 10 14 11 6 12
REMARK SMILES IDX 7 13 8 14 9 15 13 16 11 17 10 18 12 20 4 22 21 24 18 26
REMARK H PARENT 10 19 12 21 4 23 21 25 18 27
REMARK Flexibility Score: inf
ROOT
ATOM      1  C   UNL     1      40.379 -95.043  31.246  1.00  0.00     0.180 A 
ATOM      2  C   UNL     1      39.020 -95.231  31.549  1.00  0.00     0.208 A 
ATOM      3  C   UNL     1      38.619 -95.267  32.894  1.00  0.00     0.238 A 
ATOM      4  O   UNL     1      37.394 -95.382  33.157  1.00  0.00    -0.285 OA
ATOM      5  C   UNL     1      39.585 -95.133  33.920  1.00  0.00     0.111 A 
ATOM      6  C   UNL     1      39.298 -95.197  35.316  1.00  0.00     0.134 A 
ATOM      7  C   UNL     1      40.311 -94.920  36.244  1.00  0.00     0.093 A 
ATOM      8  C   UNL     1      41.616 -94.648  35.824  1.00  0.00     0.123 A 
ATOM      9  C   UNL     1      41.919 -94.643  34.465  1.00  0.00     0.094 A 
ATOM     10  C   UNL     1      40.922 -94.879  33.515  1.00  0.00     0.146 A 
ATOM     11  O   UNL     1      41.252 -94.854  32.230  1.00  0.00    -0.452 OA
ENDROOT
BRANCH   1  12
ATOM     12  C   UNL     1      40.881 -95.017  29.854  1.00  0.00     0.025 A 
ATOM     13  C   UNL     1      41.405 -96.189  29.285  1.00  0.00     0.016 A 
ATOM     14  C   UNL     1      41.865 -96.191  27.966  1.00  0.00     0.051 A 
ATOM     15  C   UNL     1      41.795 -95.027  27.191  1.00  0.00     0.157 A 
ATOM     16  C   UNL     1      40.794 -93.855  29.066  1.00  0.00     0.062 A 
ATOM     17  C   UNL     1      41.252 -93.854  27.743  1.00  0.00     0.158 A 
BRANCH  15  18
ATOM     18  O   UNL     1      42.258 -95.031  25.876  1.00  0.00    -0.504 OA
ATOM     19  H   UNL     1      41.619 -95.037  25.089  1.00  0.00     0.293 HD
ENDBRANCH  15  18
BRANCH  17  20
ATOM     20  O   UNL     1      41.156 -92.682  26.994  1.00  0.00    -0.504 OA
ATOM     21  H   UNL     1      41.734 -91.873  27.185  1.00  0.00     0.293 HD
ENDBRANCH  17  20
ENDBRANCH   1  12
BRANCH   2  22
ATOM     22  O   UNL     1      38.080 -95.339  30.520  1.00  0.00    -0.502 OA
ATOM     23  H   UNL     1      37.223 -94.799  30.506  1.00  0.00     0.293 HD
ENDBRANCH   2  22
BRANCH   6  24
ATOM     24  O   UNL     1      38.052 -95.550  35.842  1.00  0.00    -0.507 OA
ATOM     25  H   UNL     1      37.356 -96.092  35.353  1.00  0.00     0.293 HD
ENDBRANCH   6  24
BRANCH   8  26
ATOM     26  O   UNL     1      42.621 -94.389  36.754  1.00  0.00    -0.508 OA
ATOM     27  H   UNL     1      42.622 -93.544  37.312  1.00  0.00     0.293 HD
ENDBRANCH   8  26
TORSDOF 6
ENDMDL
MODEL 7
REMARK VINA RESULT:    -5.135     15.116     16.651
REMARK INTER + INTRA:          -6.341
REMARK INTER:                  -6.008
REMARK INTRA:                  -0.333
REMARK UNBOUND:                -0.155
REMARK SMILES O=c1c(O)c(-c2ccc(O)c(O)c2)oc2cc(O)cc(O)c12
REMARK SMILES IDX 5 1 3 2 2 3 1 4 22 5 20 6 19 7 17 8 16 9 15 10 14 11 6 12
REMARK SMILES IDX 7 13 8 14 9 15 13 16 11 17 10 18 12 20 4 22 21 24 18 26
REMARK H PARENT 10 19 12 21 4 23 21 25 18 27
REMARK Flexibility Score: inf
ROOT
ATOM      1  C   UNL     1      37.598 -77.807  37.373  1.00  0.00     0.180 A 
ATOM      2  C   UNL     1      38.135 -77.623  36.088  1.00  0.00     0.208 A 
ATOM      3  C   UNL     1      37.262 -77.478  34.998  1.00  0.00     0.238 A 
ATOM      4  O   UNL     1      37.748 -77.259  33.858  1.00  0.00    -0.285 OA
ATOM      5  C   UNL     1      35.862 -77.536  35.204  1.00  0.00     0.111 A 
ATOM      6  C   UNL     1      34.886 -77.443  34.168  1.00  0.00     0.134 A 
ATOM      7  C   UNL     1      33.527 -77.382  34.502  1.00  0.00     0.093 A 
ATOM      8  C   UNL     1      33.108 -77.478  35.831  1.00  0.00     0.123 A 
ATOM      9  C   UNL     1      34.050 -77.630  36.846  1.00  0.00     0.094 A 
ATOM     10  C   UNL     1      35.415 -77.656  36.546  1.00  0.00     0.146 A 
ATOM     11  O   UNL     1      36.280 -77.792  37.543  1.00  0.00    -0.452 OA
ENDROOT
BRANCH   1  12
ATOM     12  C   UNL     1      38.453 -77.991  38.567  1.00  0.00     0.025 A 
ATOM     13  C   UNL     1      38.808 -76.877  39.343  1.00  0.00     0.016 A 
ATOM     14  C   UNL     1      39.597 -77.031  40.485  1.00  0.00     0.051 A 
ATOM     15  C   UNL     1      40.032 -78.304  40.878  1.00  0.00     0.157 A 
ATOM     16  C   UNL     1      38.874 -79.270  38.975  1.00  0.00     0.062 A 
ATOM     17  C   UNL     1      39.664 -79.429  40.121  1.00  0.00     0.158 A 
BRANCH  15  18
ATOM     18  O   UNL     1      40.822 -78.455  42.016  1.00  0.00    -0.504 OA
ATOM     19  H   UNL     1      41.532 -79.175  42.077  1.00  0.00     0.293 HD
ENDBRANCH  15  18
BRANCH  17  20
ATOM     20  O   UNL     1      40.067 -80.711  40.492  1.00  0.00    -0.504 OA
ATOM     21  H   UNL     1      39.959 -81.056  41.438  1.00  0.00     0.293 HD
ENDBRANCH  17  20
ENDBRANCH   1  12
BRANCH   2  22
ATOM     22  O   UNL     1      39.519 -77.546  35.910  1.00  0.00    -0.502 OA
ATOM     23  H   UNL     1      40.157 -77.357  36.674  1.00  0.00     0.293 HD
ENDBRANCH   2  22
BRANCH   6  24
ATOM     24  O   UNL     1      35.193 -77.435  32.804  1.00  0.00    -0.507 OA
ATOM     25  H   UNL     1      35.134 -76.623  32.207  1.00  0.00     0.293 HD
ENDBRANCH   6  24
BRANCH   8  26
ATOM     26  O   UNL     1      31.753 -77.432  36.154  1.00  0.00    -0.508 OA
ATOM     27  H   UNL     1      31.131 -78.202  35.940  1.00  0.00     0.293 HD
ENDBRANCH   8  26
TORSDOF 6
ENDMDL
MODEL 8
REMARK VINA RESULT:    -5.131     10.053     11.567
REMARK INTER + INTRA:          -6.336
REMARK INTER:                  -6.653
REMARK INTRA:                   0.317
REMARK UNBOUND:                -0.155
REMARK SMILES O=c1c(O)c(-c2ccc(O)c(O)c2)oc2cc(O)cc(O)c12
REMARK SMILES IDX 5 1 3 2 2 3 1 4 22 5 20 6 19 7 17 8 16 9 15 10 14 11 6 12
REMARK SMILES IDX 7 13 8 14 9 15 13 16 11 17 10 18 12 20 4 22 21 24 18 26
REMARK H PARENT 10 19 12 21 4 23 21 25 18 27
REMARK Flexibility Score: inf
ROOT
ATOM      1  C   UNL     1      39.670 -95.224  31.322  1.00  0.00     0.180 A 
ATOM      2  C   UNL     1      40.109 -95.433  30.004  1.00  0.00     0.208 A 
ATOM      3  C   UNL     1      39.158 -95.606  28.987  1.00  0.00     0.238 A 
ATOM      4  O   UNL     1      39.558 -95.738  27.801  1.00  0.00    -0.285 OA
ATOM      5  C   UNL     1      37.778 -95.586  29.303  1.00  0.00     0.111 A 
ATOM      6  C   UNL     1      36.728 -95.792  28.359  1.00  0.00     0.134 A 
ATOM      7  C   UNL     1      35.396 -95.621  28.758  1.00  0.00     0.093 A 
ATOM      8  C   UNL     1      35.076 -95.315  30.083  1.00  0.00     0.123 A 
ATOM      9  C   UNL     1      36.091 -95.172  31.026  1.00  0.00     0.094 A 
ATOM     10  C   UNL     1      37.431 -95.300  30.649  1.00  0.00     0.146 A 
ATOM     11  O   UNL     1      38.367 -95.145  31.576  1.00  0.00    -0.452 OA
ENDROOT
BRANCH   1  12
ATOM     12  C   UNL     1      40.612 -95.058  32.452  1.00  0.00     0.025 A 
ATOM     13  C   UNL     1      41.876 -95.663  32.393  1.00  0.00     0.016 A 
ATOM     14  C   UNL     1      42.788 -95.501  33.440  1.00  0.00     0.051 A 
ATOM     15  C   UNL     1      42.455 -94.720  34.553  1.00  0.00     0.157 A 
ATOM     16  C   UNL     1      40.288 -94.257  33.562  1.00  0.00     0.062 A 
ATOM     17  C   UNL     1      41.200 -94.091  34.612  1.00  0.00     0.158 A 
BRANCH  15  18
ATOM     18  O   UNL     1      43.366 -94.562  35.597  1.00  0.00    -0.504 OA
ATOM     19  H   UNL     1      44.365 -94.554  35.432  1.00  0.00     0.293 HD
ENDBRANCH  15  18
BRANCH  17  20
ATOM     20  O   UNL     1      40.843 -93.295  35.699  1.00  0.00    -0.504 OA
ATOM     21  H   UNL     1      41.039 -92.302  35.727  1.00  0.00     0.293 HD
ENDBRANCH  17  20
ENDBRANCH   1  12
BRANCH   2  22
ATOM     22  O   UNL     1      41.476 -95.427  29.711  1.00  0.00    -0.502 OA
ATOM     23  H   UNL     1      42.152 -94.924  30.274  1.00  0.00     0.293 HD
ENDBRANCH   2  22
BRANCH   6  24
ATOM     24  O   UNL     1      36.935 -96.189  27.034  1.00  0.00    -0.507 OA
ATOM     25  H   UNL     1      36.514 -97.000  26.606  1.00  0.00     0.293 HD
ENDBRANCH   6  24
BRANCH   8  26
ATOM     26  O   UNL     1      33.748 -95.162  30.476  1.00  0.00    -0.508 OA
ATOM     27  H   UNL     1      33.108 -94.569  29.960  1.00  0.00     0.293 HD
ENDBRANCH   8  26
TORSDOF 6
ENDMDL
