MODEL 1
REMARK VINA RESULT:    -7.602      0.000      0.000
REMARK INTER + INTRA:         -11.328
REMARK INTER:                 -10.046
REMARK INTRA:                  -1.282
REMARK UNBOUND:                -1.282
REMARK SMILES CC(C)=CCC[C@@H](C(=O)[O-])[C@H]1CC[C@]2(C)C3=C(CC[C@]12C)[C@@]1(C)CC[C@H](O)C(C)(C)[C@@H]1CC3
REMARK SMILES IDX 6 1 7 2 8 3 9 4 10 5 11 6 12 7 20 8 13 9 14 10 19 11 21 12
REMARK SMILES IDX 15 13 16 14 18 15 17 16 33 17 22 18 32 19 31 20 24 21 23 22
REMARK SMILES IDX 28 23 25 24 26 25 29 26 30 27 27 28 5 30 4 31 2 32 1 33 3 34
REMARK H PARENT 27 29
REMARK Flexibility Score: inf
ROOT
ATOM      1  C   UNL     1      19.747  -0.170 -26.106  1.00  0.00     0.014 C 
ENDROOT
BRANCH   1   2
ATOM      2  C   UNL     1      18.944  -0.442 -24.806  1.00  0.00     0.039 C 
BRANCH   2   3
ATOM      3  C   UNL     1      18.404  -1.851 -24.864  1.00  0.00     0.045 C 
ATOM      4  O   UNL     1      18.985  -2.733 -25.552  1.00  0.00    -0.550 OA
ATOM      5  O   UNL     1      17.213  -2.165 -24.221  1.00  0.00    -0.550 OA
ENDBRANCH   2   3
BRANCH   2   6
ATOM      6  C   UNL     1      19.808  -0.218 -23.513  1.00  0.00     0.004 C 
ATOM      7  C   UNL     1      21.168   0.409 -23.822  1.00  0.00     0.006 C 
ATOM      8  C   UNL     1      19.194   0.652 -22.333  1.00  0.00    -0.020 C 
ATOM      9  C   UNL     1      21.641   1.030 -22.527  1.00  0.00     0.012 C 
ATOM     10  C   UNL     1      20.383   1.617 -21.862  1.00  0.00    -0.006 C 
ATOM     11  C   UNL     1      18.734  -0.299 -21.184  1.00  0.00     0.012 C 
ATOM     12  C   UNL     1      17.917   1.446 -22.749  1.00  0.00     0.012 C 
ATOM     13  C   UNL     1      20.224   3.067 -22.423  1.00  0.00     0.017 C 
ATOM     14  C   UNL     1      20.608   1.633 -20.319  1.00  0.00    -0.064 C 
ATOM     15  C   UNL     1      19.893  -0.738 -20.304  1.00  0.00     0.032 C 
ATOM     16  C   UNL     1      20.483   0.470 -19.603  1.00  0.00    -0.064 C 
ATOM     17  C   UNL     1      21.192   2.892 -19.680  1.00  0.00     0.032 C 
ATOM     18  C   UNL     1      20.716   0.396 -18.074  1.00  0.00    -0.008 C 
ATOM     19  C   UNL     1      21.251   2.890 -18.155  1.00  0.00     0.009 C 
ATOM     20  C   UNL     1      21.715   1.522 -17.635  1.00  0.00     0.007 C 
ATOM     21  C   UNL     1      21.327  -1.004 -17.692  1.00  0.00     0.014 C 
ATOM     22  C   UNL     1      19.308   0.545 -17.431  1.00  0.00     0.016 C 
ATOM     23  C   UNL     1      22.148   1.517 -16.107  1.00  0.00    -0.006 C 
ATOM     24  C   UNL     1      22.429  -0.983 -16.616  1.00  0.00     0.033 C 
ATOM     25  C   UNL     1      22.170   0.058 -15.519  1.00  0.00     0.120 C 
ATOM     26  C   UNL     1      23.593   2.083 -16.009  1.00  0.00     0.014 C 
ATOM     27  C   UNL     1      21.261   2.440 -15.226  1.00  0.00     0.014 C 
BRANCH  25  28
ATOM     28  O   UNL     1      20.980  -0.254 -14.837  1.00  0.00    -0.393 OA
ATOM     29  H   UNL     1      20.322   0.457 -15.053  1.00  0.00     0.210 HD
ENDBRANCH  25  28
ENDBRANCH   2   6
ENDBRANCH   1   2
BRANCH   1  30
ATOM     30  C   UNL     1      18.900   0.525 -27.186  1.00  0.00     0.028 C 
BRANCH  30  31
ATOM     31  C   UNL     1      17.497   0.770 -26.686  1.00  0.00    -0.028 C 
ATOM     32  C   UNL     1      17.079   1.930 -26.131  1.00  0.00    -0.080 C 
ATOM     33  C   UNL     1      17.993   3.124 -25.995  1.00  0.00     0.039 C 
ATOM     34  C   UNL     1      15.654   2.027 -25.650  1.00  0.00     0.039 C 
ENDBRANCH  30  31
ENDBRANCH   1  30
TORSDOF 6
ENDMDL
MODEL 2
REMARK VINA RESULT:    -7.531      1.550      2.648
REMARK INTER + INTRA:         -11.235
REMARK INTER:                 -10.318
REMARK INTRA:                  -0.917
REMARK UNBOUND:                -1.282
REMARK SMILES CC(C)=CCC[C@@H](C(=O)[O-])[C@H]1CC[C@]2(C)C3=C(CC[C@]12C)[C@@]1(C)CC[C@H](O)C(C)(C)[C@@H]1CC3
REMARK SMILES IDX 6 1 7 2 8 3 9 4 10 5 11 6 12 7 20 8 13 9 14 10 19 11 21 12
REMARK SMILES IDX 15 13 16 14 18 15 17 16 33 17 22 18 32 19 31 20 24 21 23 22
REMARK SMILES IDX 28 23 25 24 26 25 29 26 30 27 27 28 5 30 4 31 2 32 1 33 3 34
REMARK H PARENT 27 29
REMARK Flexibility Score: inf
ROOT
ATOM      1  C   UNL     1      19.759   0.429 -26.536  1.00  0.00     0.014 C 
ENDROOT
BRANCH   1   2
ATOM      2  C   UNL     1      19.119   1.179 -25.336  1.00  0.00     0.039 C 
BRANCH   2   3
ATOM      3  C   UNL     1      17.628   0.945 -25.368  1.00  0.00     0.045 C 
ATOM      4  O   UNL     1      17.091   0.114 -24.587  1.00  0.00    -0.550 OA
ATOM      5  O   UNL     1      16.845   1.591 -26.317  1.00  0.00    -0.550 OA
ENDBRANCH   2   3
BRANCH   2   6
ATOM      6  C   UNL     1      19.734   0.736 -23.960  1.00  0.00     0.004 C 
ATOM      7  C   UNL     1      21.235   0.457 -24.054  1.00  0.00     0.006 C 
ATOM      8  C   UNL     1      19.555   1.697 -22.707  1.00  0.00    -0.020 C 
ATOM      9  C   UNL     1      21.766   0.564 -22.642  1.00  0.00     0.012 C 
ATOM     10  C   UNL     1      20.990   1.724 -21.992  1.00  0.00    -0.006 C 
ATOM     11  C   UNL     1      18.456   1.111 -21.767  1.00  0.00     0.012 C 
ATOM     12  C   UNL     1      19.057   3.125 -23.087  1.00  0.00     0.012 C 
ATOM     13  C   UNL     1      21.788   3.027 -22.320  1.00  0.00     0.017 C 
ATOM     14  C   UNL     1      20.932   1.473 -20.454  1.00  0.00    -0.064 C 
ATOM     15  C   UNL     1      18.990  -0.003 -20.881  1.00  0.00     0.032 C 
ATOM     16  C   UNL     1      20.047   0.555 -19.949  1.00  0.00    -0.064 C 
ATOM     17  C   UNL     1      22.025   2.080 -19.575  1.00  0.00     0.032 C 
ATOM     18  C   UNL     1      19.947   0.228 -18.439  1.00  0.00    -0.008 C 
ATOM     19  C   UNL     1      21.827   1.914 -18.071  1.00  0.00     0.009 C 
ATOM     20  C   UNL     1      21.327   0.500 -17.745  1.00  0.00     0.007 C 
ATOM     21  C   UNL     1      19.569  -1.287 -18.242  1.00  0.00     0.014 C 
ATOM     22  C   UNL     1      18.803   1.128 -17.894  1.00  0.00     0.016 C 
ATOM     23  C   UNL     1      21.427   0.110 -16.208  1.00  0.00    -0.006 C 
ATOM     24  C   UNL     1      20.292  -2.015 -17.093  1.00  0.00     0.033 C 
ATOM     25  C   UNL     1      20.509  -1.121 -15.865  1.00  0.00     0.120 C 
ATOM     26  C   UNL     1      22.895  -0.302 -15.906  1.00  0.00     0.014 C 
ATOM     27  C   UNL     1      21.108   1.301 -15.262  1.00  0.00     0.014 C 
BRANCH  25  28
ATOM     28  O   UNL     1      19.267  -0.723 -15.340  1.00  0.00    -0.393 OA
ATOM     29  H   UNL     1      18.578  -0.929 -16.024  1.00  0.00     0.210 HD
ENDBRANCH  25  28
ENDBRANCH   2   6
ENDBRANCH   1   2
BRANCH   1  30
ATOM     30  C   UNL     1      18.915  -0.772 -26.996  1.00  0.00     0.028 C 
BRANCH  30  31
ATOM     31  C   UNL     1      19.703  -2.053 -26.876  1.00  0.00    -0.028 C 
ATOM     32  C   UNL     1      19.660  -2.876 -25.803  1.00  0.00    -0.080 C 
ATOM     33  C   UNL     1      18.767  -2.595 -24.619  1.00  0.00     0.039 C 
ATOM     34  C   UNL     1      20.522  -4.112 -25.807  1.00  0.00     0.039 C 
ENDBRANCH  30  31
ENDBRANCH   1  30
TORSDOF 6
ENDMDL
MODEL 3
REMARK VINA RESULT:    -6.934      1.911      2.741
REMARK INTER + INTRA:         -10.446
REMARK INTER:                  -9.230
REMARK INTRA:                  -1.216
REMARK UNBOUND:                -1.282
REMARK SMILES CC(C)=CCC[C@@H](C(=O)[O-])[C@H]1CC[C@]2(C)C3=C(CC[C@]12C)[C@@]1(C)CC[C@H](O)C(C)(C)[C@@H]1CC3
REMARK SMILES IDX 6 1 7 2 8 3 9 4 10 5 11 6 12 7 20 8 13 9 14 10 19 11 21 12
REMARK SMILES IDX 15 13 16 14 18 15 17 16 33 17 22 18 32 19 31 20 24 21 23 22
REMARK SMILES IDX 28 23 25 24 26 25 29 26 30 27 27 28 5 30 4 31 2 32 1 33 3 34
REMARK H PARENT 27 29
REMARK Flexibility Score: inf
ROOT
ATOM      1  C   UNL     1      21.335  -0.044 -26.225  1.00  0.00     0.014 C 
ENDROOT
BRANCH   1   2
ATOM      2  C   UNL     1      20.171   0.085 -25.206  1.00  0.00     0.039 C 
BRANCH   2   3
ATOM      3  C   UNL     1      19.187  -1.031 -25.462  1.00  0.00     0.045 C 
ATOM      4  O   UNL     1      19.497  -2.228 -25.220  1.00  0.00    -0.550 OA
ATOM      5  O   UNL     1      17.956  -0.750 -26.043  1.00  0.00    -0.550 OA
ENDBRANCH   2   3
BRANCH   2   6
ATOM      6  C   UNL     1      20.675   0.068 -23.718  1.00  0.00     0.004 C 
ATOM      7  C   UNL     1      22.179   0.324 -23.609  1.00  0.00     0.006 C 
ATOM      8  C   UNL     1      19.995   1.057 -22.677  1.00  0.00    -0.020 C 
ATOM      9  C   UNL     1      22.417   0.792 -22.191  1.00  0.00     0.012 C 
ATOM     10  C   UNL     1      21.209   1.679 -21.836  1.00  0.00    -0.006 C 
ATOM     11  C   UNL     1      19.018   0.249 -21.767  1.00  0.00     0.012 C 
ATOM     12  C   UNL     1      19.118   2.158 -23.350  1.00  0.00     0.012 C 
ATOM     13  C   UNL     1      21.573   3.125 -22.303  1.00  0.00     0.017 C 
ATOM     14  C   UNL     1      20.999   1.624 -20.292  1.00  0.00    -0.064 C 
ATOM     15  C   UNL     1      19.746  -0.482 -20.650  1.00  0.00     0.032 C 
ATOM     16  C   UNL     1      20.400   0.527 -19.727  1.00  0.00    -0.064 C 
ATOM     17  C   UNL     1      21.678   2.684 -19.425  1.00  0.00     0.032 C 
ATOM     18  C   UNL     1      20.179   0.383 -18.202  1.00  0.00    -0.008 C 
ATOM     19  C   UNL     1      21.314   2.654 -17.943  1.00  0.00     0.009 C 
ATOM     20  C   UNL     1      21.266   1.209 -17.428  1.00  0.00     0.007 C 
ATOM     21  C   UNL     1      20.298  -1.130 -17.782  1.00  0.00     0.014 C 
ATOM     22  C   UNL     1      18.731   0.886 -17.942  1.00  0.00     0.016 C 
ATOM     23  C   UNL     1      21.248   1.080 -15.845  1.00  0.00    -0.006 C 
ATOM     24  C   UNL     1      21.033  -1.403 -16.457  1.00  0.00     0.033 C 
ATOM     25  C   UNL     1      20.748  -0.339 -15.388  1.00  0.00     0.120 C 
ATOM     26  C   UNL     1      22.703   1.253 -15.328  1.00  0.00     0.014 C 
ATOM     27  C   UNL     1      20.409   2.194 -15.159  1.00  0.00     0.014 C 
BRANCH  25  28
ATOM     28  O   UNL     1      19.378  -0.339 -15.070  1.00  0.00    -0.393 OA
ATOM     29  H   UNL     1      19.219   0.420 -14.450  1.00  0.00     0.210 HD
ENDBRANCH  25  28
ENDBRANCH   2   6
ENDBRANCH   1   2
BRANCH   1  30
ATOM     30  C   UNL     1      21.465   1.193 -27.130  1.00  0.00     0.028 C 
BRANCH  30  31
ATOM     31  C   UNL     1      22.874   1.322 -27.656  1.00  0.00    -0.028 C 
ATOM     32  C   UNL     1      23.864   1.991 -27.026  1.00  0.00    -0.080 C 
ATOM     33  C   UNL     1      23.652   2.653 -25.685  1.00  0.00     0.039 C 
ATOM     34  C   UNL     1      25.220   2.061 -27.681  1.00  0.00     0.039 C 
ENDBRANCH  30  31
ENDBRANCH   1  30
TORSDOF 6
ENDMDL
MODEL 4
REMARK VINA RESULT:    -6.780      2.053      8.512
REMARK INTER + INTRA:         -10.242
REMARK INTER:                  -8.517
REMARK INTRA:                  -1.725
REMARK UNBOUND:                -1.282
REMARK SMILES CC(C)=CCC[C@@H](C(=O)[O-])[C@H]1CC[C@]2(C)C3=C(CC[C@]12C)[C@@]1(C)CC[C@H](O)C(C)(C)[C@@H]1CC3
REMARK SMILES IDX 6 1 7 2 8 3 9 4 10 5 11 6 12 7 20 8 13 9 14 10 19 11 21 12
REMARK SMILES IDX 15 13 16 14 18 15 17 16 33 17 22 18 32 19 31 20 24 21 23 22
REMARK SMILES IDX 28 23 25 24 26 25 29 26 30 27 27 28 5 30 4 31 2 32 1 33 3 34
REMARK H PARENT 27 29
REMARK Flexibility Score: inf
ROOT
ATOM      1  C   UNL     1      22.277   1.280 -15.355  1.00  0.00     0.014 C 
ENDROOT
BRANCH   1   2
ATOM      2  C   UNL     1      22.471   2.179 -16.606  1.00  0.00     0.039 C 
BRANCH   2   3
ATOM      3  C   UNL     1      23.869   2.750 -16.570  1.00  0.00     0.045 C 
ATOM      4  O   UNL     1      24.440   3.118 -17.631  1.00  0.00    -0.550 OA
ATOM      5  O   UNL     1      24.567   2.800 -15.369  1.00  0.00    -0.550 OA
ENDBRANCH   2   3
BRANCH   2   6
ATOM      6  C   UNL     1      22.210   1.403 -17.946  1.00  0.00     0.004 C 
ATOM      7  C   UNL     1      21.785  -0.047 -17.707  1.00  0.00     0.006 C 
ATOM      8  C   UNL     1      21.149   1.996 -18.970  1.00  0.00    -0.020 C 
ATOM      9  C   UNL     1      21.084  -0.487 -18.973  1.00  0.00     0.012 C 
ATOM     10  C   UNL     1      20.284   0.737 -19.454  1.00  0.00    -0.006 C 
ATOM     11  C   UNL     1      21.907   2.665 -20.159  1.00  0.00     0.012 C 
ATOM     12  C   UNL     1      20.262   3.124 -18.359  1.00  0.00     0.012 C 
ATOM     13  C   UNL     1      18.896   0.665 -18.740  1.00  0.00     0.017 C 
ATOM     14  C   UNL     1      20.125   0.639 -21.002  1.00  0.00    -0.064 C 
ATOM     15  C   UNL     1      22.380   1.647 -21.185  1.00  0.00     0.032 C 
ATOM     16  C   UNL     1      21.180   0.969 -21.815  1.00  0.00    -0.064 C 
ATOM     17  C   UNL     1      18.881  -0.045 -21.566  1.00  0.00     0.032 C 
ATOM     18  C   UNL     1      21.112   0.873 -23.358  1.00  0.00    -0.008 C 
ATOM     19  C   UNL     1      18.722   0.022 -23.082  1.00  0.00     0.009 C 
ATOM     20  C   UNL     1      20.069  -0.221 -23.777  1.00  0.00     0.007 C 
ATOM     21  C   UNL     1      22.523   0.477 -23.934  1.00  0.00     0.014 C 
ATOM     22  C   UNL     1      20.729   2.298 -23.847  1.00  0.00     0.016 C 
ATOM     23  C   UNL     1      19.956  -0.523 -25.332  1.00  0.00    -0.006 C 
ATOM     24  C   UNL     1      22.513  -0.527 -25.102  1.00  0.00     0.033 C 
ATOM     25  C   UNL     1      21.334  -0.312 -26.061  1.00  0.00     0.120 C 
ATOM     26  C   UNL     1      19.557  -2.015 -25.510  1.00  0.00     0.014 C 
ATOM     27  C   UNL     1      18.844   0.309 -26.029  1.00  0.00     0.014 C 
BRANCH  25  28
ATOM     28  O   UNL     1      21.428   0.959 -26.655  1.00  0.00    -0.393 OA
ATOM     29  H   UNL     1      22.134   1.461 -26.168  1.00  0.00     0.210 HD
ENDBRANCH  25  28
ENDBRANCH   2   6
ENDBRANCH   1   2
BRANCH   1  30
ATOM     30  C   UNL     1      21.452   1.971 -14.256  1.00  0.00     0.028 C 
BRANCH  30  31
ATOM     31  C   UNL     1      20.087   2.353 -14.776  1.00  0.00    -0.028 C 
ATOM     32  C   UNL     1      19.153   1.466 -15.183  1.00  0.00    -0.080 C 
ATOM     33  C   UNL     1      19.384  -0.025 -15.116  1.00  0.00     0.039 C 
ATOM     34  C   UNL     1      17.839   1.989 -15.705  1.00  0.00     0.039 C 
ENDBRANCH  30  31
ENDBRANCH   1  30
TORSDOF 6
ENDMDL
MODEL 5
REMARK VINA RESULT:    -6.403     14.109     16.079
REMARK INTER + INTRA:          -9.744
REMARK INTER:                  -7.819
REMARK INTRA:                  -1.925
REMARK UNBOUND:                -1.282
REMARK SMILES CC(C)=CCC[C@@H](C(=O)[O-])[C@H]1CC[C@]2(C)C3=C(CC[C@]12C)[C@@]1(C)CC[C@H](O)C(C)(C)[C@@H]1CC3
REMARK SMILES IDX 6 1 7 2 8 3 9 4 10 5 11 6 12 7 20 8 13 9 14 10 19 11 21 12
REMARK SMILES IDX 15 13 16 14 18 15 17 16 33 17 22 18 32 19 31 20 24 21 23 22
REMARK SMILES IDX 28 23 25 24 26 25 29 26 30 27 27 28 5 30 4 31 2 32 1 33 3 34
REMARK H PARENT 27 29
REMARK Flexibility Score: inf
ROOT
ATOM      1  C   UNL     1      15.652 -13.102 -25.826  1.00  0.00     0.014 C 
ENDROOT
BRANCH   1   2
ATOM      2  C   UNL     1      16.698 -13.772 -26.757  1.00  0.00     0.039 C 
BRANCH   2   3
ATOM      3  C   UNL     1      16.195 -13.688 -28.178  1.00  0.00     0.045 C 
ATOM      4  O   UNL     1      15.293 -14.466 -28.587  1.00  0.00    -0.550 OA
ATOM      5  O   UNL     1      16.783 -12.798 -29.070  1.00  0.00    -0.550 OA
ENDBRANCH   2   3
BRANCH   2   6
ATOM      6  C   UNL     1      18.122 -13.123 -26.619  1.00  0.00     0.004 C 
ATOM      7  C   UNL     1      18.208 -12.150 -25.442  1.00  0.00     0.006 C 
ATOM      8  C   UNL     1      19.380 -14.083 -26.474  1.00  0.00    -0.020 C 
ATOM      9  C   UNL     1      19.679 -12.024 -25.116  1.00  0.00     0.012 C 
ATOM     10  C   UNL     1      20.272 -13.431 -25.313  1.00  0.00    -0.006 C 
ATOM     11  C   UNL     1      20.147 -14.128 -27.832  1.00  0.00     0.012 C 
ATOM     12  C   UNL     1      18.998 -15.563 -26.165  1.00  0.00     0.012 C 
ATOM     13  C   UNL     1      20.101 -14.175 -23.949  1.00  0.00     0.017 C 
ATOM     14  C   UNL     1      21.778 -13.280 -25.685  1.00  0.00    -0.064 C 
ATOM     15  C   UNL     1      21.048 -12.918 -28.023  1.00  0.00     0.032 C 
ATOM     16  C   UNL     1      22.129 -12.919 -26.961  1.00  0.00    -0.064 C 
ATOM     17  C   UNL     1      22.814 -13.305 -24.561  1.00  0.00     0.032 C 
ATOM     18  C   UNL     1      23.599 -12.721 -27.403  1.00  0.00    -0.008 C 
ATOM     19  C   UNL     1      24.272 -13.295 -25.009  1.00  0.00     0.009 C 
ATOM     20  C   UNL     1      24.474 -12.309 -26.168  1.00  0.00     0.007 C 
ATOM     21  C   UNL     1      23.685 -11.583 -28.489  1.00  0.00     0.014 C 
ATOM     22  C   UNL     1      24.031 -14.076 -28.031  1.00  0.00     0.016 C 
ATOM     23  C   UNL     1      25.994 -11.959 -26.472  1.00  0.00    -0.006 C 
ATOM     24  C   UNL     1      24.885 -10.627 -28.365  1.00  0.00     0.033 C 
ATOM     25  C   UNL     1      26.166 -11.336 -27.906  1.00  0.00     0.120 C 
ATOM     26  C   UNL     1      26.463 -10.896 -25.439  1.00  0.00     0.014 C 
ATOM     27  C   UNL     1      26.939 -13.180 -26.297  1.00  0.00     0.014 C 
BRANCH  25  28
ATOM     28  O   UNL     1      26.545 -12.299 -28.857  1.00  0.00    -0.393 OA
ATOM     29  H   UNL     1      26.666 -11.827 -29.723  1.00  0.00     0.210 HD
ENDBRANCH  25  28
ENDBRANCH   2   6
ENDBRANCH   1   2
BRANCH   1  30
ATOM     30  C   UNL     1      14.991 -14.106 -24.866  1.00  0.00     0.028 C 
BRANCH  30  31
ATOM     31  C   UNL     1      15.989 -14.608 -23.851  1.00  0.00    -0.028 C 
ATOM     32  C   UNL     1      16.344 -15.904 -23.710  1.00  0.00    -0.080 C 
ATOM     33  C   UNL     1      15.789 -16.986 -24.606  1.00  0.00     0.039 C 
ATOM     34  C   UNL     1      17.336 -16.268 -22.635  1.00  0.00     0.039 C 
ENDBRANCH  30  31
ENDBRANCH   1  30
TORSDOF 6
ENDMDL
MODEL 6
REMARK VINA RESULT:    -6.353      2.177      9.214
REMARK INTER + INTRA:          -9.678
REMARK INTER:                  -8.968
REMARK INTRA:                  -0.711
REMARK UNBOUND:                -1.282
REMARK SMILES CC(C)=CCC[C@@H](C(=O)[O-])[C@H]1CC[C@]2(C)C3=C(CC[C@]12C)[C@@]1(C)CC[C@H](O)C(C)(C)[C@@H]1CC3
REMARK SMILES IDX 6 1 7 2 8 3 9 4 10 5 11 6 12 7 20 8 13 9 14 10 19 11 21 12
REMARK SMILES IDX 15 13 16 14 18 15 17 16 33 17 22 18 32 19 31 20 24 21 23 22
REMARK SMILES IDX 28 23 25 24 26 25 29 26 30 27 27 28 5 30 4 31 2 32 1 33 3 34
REMARK H PARENT 27 29
REMARK Flexibility Score: inf
ROOT
ATOM      1  C   UNL     1      22.438   0.092 -15.053  1.00  0.00     0.014 C 
ENDROOT
BRANCH   1   2
ATOM      2  C   UNL     1      22.033   1.280 -15.966  1.00  0.00     0.039 C 
BRANCH   2   3
ATOM      3  C   UNL     1      23.170   2.274 -15.987  1.00  0.00     0.045 C 
ATOM      4  O   UNL     1      23.349   3.066 -15.024  1.00  0.00    -0.550 OA
ATOM      5  O   UNL     1      23.983   2.374 -17.111  1.00  0.00    -0.550 OA
ENDBRANCH   2   3
BRANCH   2   6
ATOM      6  C   UNL     1      21.658   0.816 -17.419  1.00  0.00     0.004 C 
ATOM      7  C   UNL     1      20.956  -0.543 -17.434  1.00  0.00     0.006 C 
ATOM      8  C   UNL     1      20.756   1.773 -18.311  1.00  0.00    -0.020 C 
ATOM      9  C   UNL     1      20.213  -0.611 -18.750  1.00  0.00     0.012 C 
ATOM     10  C   UNL     1      19.676   0.810 -18.999  1.00  0.00    -0.006 C 
ATOM     11  C   UNL     1      21.656   2.480 -19.372  1.00  0.00     0.012 C 
ATOM     12  C   UNL     1      20.089   2.927 -17.501  1.00  0.00     0.012 C 
ATOM     13  C   UNL     1      18.284   0.885 -18.293  1.00  0.00     0.017 C 
ATOM     14  C   UNL     1      19.537   1.017 -20.538  1.00  0.00    -0.064 C 
ATOM     15  C   UNL     1      21.948   1.584 -20.566  1.00  0.00     0.032 C 
ATOM     16  C   UNL     1      20.654   1.273 -21.292  1.00  0.00    -0.064 C 
ATOM     17  C   UNL     1      18.198   0.696 -21.200  1.00  0.00     0.032 C 
ATOM     18  C   UNL     1      20.605   1.463 -22.828  1.00  0.00    -0.008 C 
ATOM     19  C   UNL     1      18.090   1.057 -22.679  1.00  0.00     0.009 C 
ATOM     20  C   UNL     1      19.381   0.682 -23.420  1.00  0.00     0.007 C 
ATOM     21  C   UNL     1      21.926   0.907 -23.480  1.00  0.00     0.014 C 
ATOM     22  C   UNL     1      20.517   2.998 -23.054  1.00  0.00     0.016 C 
ATOM     23  C   UNL     1      19.249   0.684 -25.003  1.00  0.00    -0.006 C 
ATOM     24  C   UNL     1      21.750   0.144 -24.806  1.00  0.00     0.033 C 
ATOM     25  C   UNL     1      20.658   0.747 -25.699  1.00  0.00     0.120 C 
ATOM     26  C   UNL     1      18.573  -0.647 -25.436  1.00  0.00     0.014 C 
ATOM     27  C   UNL     1      18.335   1.825 -25.530  1.00  0.00     0.014 C 
BRANCH  25  28
ATOM     28  O   UNL     1      21.009   2.060 -26.061  1.00  0.00    -0.393 OA
ATOM     29  H   UNL     1      21.426   2.017 -26.961  1.00  0.00     0.210 HD
ENDBRANCH  25  28
ENDBRANCH   2   6
ENDBRANCH   1   2
BRANCH   1  30
ATOM     30  C   UNL     1      23.872  -0.395 -15.322  1.00  0.00     0.028 C 
BRANCH  30  31
ATOM     31  C   UNL     1      24.471  -1.002 -14.077  1.00  0.00    -0.028 C 
ATOM     32  C   UNL     1      25.264  -0.332 -13.210  1.00  0.00    -0.080 C 
ATOM     33  C   UNL     1      25.595   1.129 -13.397  1.00  0.00     0.039 C 
ATOM     34  C   UNL     1      25.815  -1.072 -12.018  1.00  0.00     0.039 C 
ENDBRANCH  30  31
ENDBRANCH   1  30
TORSDOF 6
ENDMDL
MODEL 7
REMARK VINA RESULT:    -6.198      1.638      8.719
REMARK INTER + INTRA:          -9.473
REMARK INTER:                  -8.367
REMARK INTRA:                  -1.106
REMARK UNBOUND:                -1.282
REMARK SMILES CC(C)=CCC[C@@H](C(=O)[O-])[C@H]1CC[C@]2(C)C3=C(CC[C@]12C)[C@@]1(C)CC[C@H](O)C(C)(C)[C@@H]1CC3
REMARK SMILES IDX 6 1 7 2 8 3 9 4 10 5 11 6 12 7 20 8 13 9 14 10 19 11 21 12
REMARK SMILES IDX 15 13 16 14 18 15 17 16 33 17 22 18 32 19 31 20 24 21 23 22
REMARK SMILES IDX 28 23 25 24 26 25 29 26 30 27 27 28 5 30 4 31 2 32 1 33 3 34
REMARK H PARENT 27 29
REMARK Flexibility Score: inf
ROOT
ATOM      1  C   UNL     1      22.270   2.573 -17.075  1.00  0.00     0.014 C 
ENDROOT
BRANCH   1   2
ATOM      2  C   UNL     1      20.844   2.015 -17.328  1.00  0.00     0.039 C 
BRANCH   2   3
ATOM      3  C   UNL     1      19.870   2.790 -16.473  1.00  0.00     0.045 C 
ATOM      4  O   UNL     1      20.155   3.085 -15.282  1.00  0.00    -0.550 OA
ATOM      5  O   UNL     1      18.616   3.117 -16.974  1.00  0.00    -0.550 OA
ENDBRANCH   2   3
BRANCH   2   6
ATOM      6  C   UNL     1      20.440   2.074 -18.845  1.00  0.00     0.004 C 
ATOM      7  C   UNL     1      21.236   3.125 -19.620  1.00  0.00     0.006 C 
ATOM      8  C   UNL     1      20.537   0.742 -19.706  1.00  0.00    -0.020 C 
ATOM      9  C   UNL     1      21.142   2.725 -21.075  1.00  0.00     0.012 C 
ATOM     10  C   UNL     1      21.212   1.187 -21.090  1.00  0.00    -0.006 C 
ATOM     11  C   UNL     1      19.102   0.169 -19.924  1.00  0.00     0.012 C 
ATOM     12  C   UNL     1      21.334  -0.397 -18.999  1.00  0.00     0.012 C 
ATOM     13  C   UNL     1      22.728   0.815 -21.154  1.00  0.00     0.017 C 
ATOM     14  C   UNL     1      20.454   0.676 -22.353  1.00  0.00    -0.064 C 
ATOM     15  C   UNL     1      18.362   0.882 -21.045  1.00  0.00     0.032 C 
ATOM     16  C   UNL     1      19.083   0.646 -22.357  1.00  0.00    -0.064 C 
ATOM     17  C   UNL     1      21.250   0.446 -23.638  1.00  0.00     0.032 C 
ATOM     18  C   UNL     1      18.257   0.179 -23.580  1.00  0.00    -0.008 C 
ATOM     19  C   UNL     1      20.474  -0.188 -24.789  1.00  0.00     0.009 C 
ATOM     20  C   UNL     1      19.072   0.426 -24.897  1.00  0.00     0.007 C 
ATOM     21  C   UNL     1      16.908   0.987 -23.657  1.00  0.00     0.014 C 
ATOM     22  C   UNL     1      17.951  -1.324 -23.325  1.00  0.00     0.016 C 
ATOM     23  C   UNL     1      18.319   0.101 -26.258  1.00  0.00    -0.006 C 
ATOM     24  C   UNL     1      16.459   1.409 -25.069  1.00  0.00     0.033 C 
ATOM     25  C   UNL     1      16.771   0.350 -26.134  1.00  0.00     0.120 C 
ATOM     26  C   UNL     1      18.862   1.060 -27.354  1.00  0.00     0.014 C 
ATOM     27  C   UNL     1      18.595  -1.341 -26.768  1.00  0.00     0.014 C 
BRANCH  25  28
ATOM     28  O   UNL     1      16.067  -0.834 -25.850  1.00  0.00    -0.393 OA
ATOM     29  H   UNL     1      15.741  -1.198 -26.714  1.00  0.00     0.210 HD
ENDBRANCH  25  28
ENDBRANCH   2   6
ENDBRANCH   1   2
BRANCH   1  30
ATOM     30  C   UNL     1      23.115   1.646 -16.184  1.00  0.00     0.028 C 
BRANCH  30  31
ATOM     31  C   UNL     1      22.333   0.410 -15.810  1.00  0.00    -0.028 C 
ATOM     32  C   UNL     1      22.834  -0.618 -15.089  1.00  0.00    -0.080 C 
ATOM     33  C   UNL     1      24.244  -0.600 -14.548  1.00  0.00     0.039 C 
ATOM     34  C   UNL     1      21.947  -1.804 -14.810  1.00  0.00     0.039 C 
ENDBRANCH  30  31
ENDBRANCH   1  30
TORSDOF 6
ENDMDL
MODEL 8
REMARK VINA RESULT:    -6.161      1.620      8.820
REMARK INTER + INTRA:          -9.423
REMARK INTER:                  -8.089
REMARK INTRA:                  -1.334
REMARK UNBOUND:                -1.282
REMARK SMILES CC(C)=CCC[C@@H](C(=O)[O-])[C@H]1CC[C@]2(C)C3=C(CC[C@]12C)[C@@]1(C)CC[C@H](O)C(C)(C)[C@@H]1CC3
REMARK SMILES IDX 6 1 7 2 8 3 9 4 10 5 11 6 12 7 20 8 13 9 14 10 19 11 21 12
REMARK SMILES IDX 15 13 16 14 18 15 17 16 33 17 22 18 32 19 31 20 24 21 23 22
REMARK SMILES IDX 28 23 25 24 26 25 29 26 30 27 27 28 5 30 4 31 2 32 1 33 3 34
REMARK H PARENT 27 29
REMARK Flexibility Score: inf
ROOT
ATOM      1  C   UNL     1      21.508   2.372 -14.990  1.00  0.00     0.014 C 
ENDROOT
BRANCH   1   2
ATOM      2  C   UNL     1      20.792   1.208 -15.727  1.00  0.00     0.039 C 
BRANCH   2   3
ATOM      3  C   UNL     1      19.600   0.783 -14.903  1.00  0.00     0.045 C 
ATOM      4  O   UNL     1      19.426   1.242 -13.742  1.00  0.00    -0.550 OA
ATOM      5  O   UNL     1      18.726  -0.180 -15.393  1.00  0.00    -0.550 OA
ENDBRANCH   2   3
BRANCH   2   6
ATOM      6  C   UNL     1      20.363   1.599 -17.187  1.00  0.00     0.004 C 
ATOM      7  C   UNL     1      20.817   3.008 -17.570  1.00  0.00     0.006 C 
ATOM      8  C   UNL     1      20.819   0.662 -18.386  1.00  0.00    -0.020 C 
ATOM      9  C   UNL     1      20.817   3.047 -19.081  1.00  0.00     0.012 C 
ATOM     10  C   UNL     1      21.318   1.663 -19.533  1.00  0.00    -0.006 C 
ATOM     11  C   UNL     1      19.601  -0.193 -18.858  1.00  0.00     0.012 C 
ATOM     12  C   UNL     1      21.917  -0.370 -17.984  1.00  0.00     0.012 C 
ATOM     13  C   UNL     1      22.876   1.758 -19.598  1.00  0.00     0.017 C 
ATOM     14  C   UNL     1      20.716   1.360 -20.940  1.00  0.00    -0.064 C 
ATOM     15  C   UNL     1      18.672   0.587 -19.774  1.00  0.00     0.032 C 
ATOM     16  C   UNL     1      19.409   0.957 -21.046  1.00  0.00    -0.064 C 
ATOM     17  C   UNL     1      21.523   1.748 -22.178  1.00  0.00     0.032 C 
ATOM     18  C   UNL     1      18.729   0.664 -22.405  1.00  0.00    -0.008 C 
ATOM     19  C   UNL     1      20.940   1.294 -23.513  1.00  0.00     0.009 C 
ATOM     20  C   UNL     1      19.419   1.503 -23.536  1.00  0.00     0.007 C 
ATOM     21  C   UNL     1      17.206   1.056 -22.339  1.00  0.00     0.014 C 
ATOM     22  C   UNL     1      18.865  -0.871 -22.616  1.00  0.00     0.016 C 
ATOM     23  C   UNL     1      18.767   1.401 -24.981  1.00  0.00    -0.006 C 
ATOM     24  C   UNL     1      16.632   1.735 -23.597  1.00  0.00     0.033 C 
ATOM     25  C   UNL     1      17.214   1.167 -24.898  1.00  0.00     0.120 C 
ATOM     26  C   UNL     1      18.999   2.751 -25.715  1.00  0.00     0.014 C 
ATOM     27  C   UNL     1      19.431   0.308 -25.865  1.00  0.00     0.014 C 
BRANCH  25  28
ATOM     28  O   UNL     1      16.878  -0.194 -25.015  1.00  0.00    -0.393 OA
ATOM     29  H   UNL     1      16.705  -0.373 -25.976  1.00  0.00     0.210 HD
ENDBRANCH  25  28
ENDBRANCH   2   6
ENDBRANCH   1   2
BRANCH   1  30
ATOM     30  C   UNL     1      23.025   2.148 -14.871  1.00  0.00     0.028 C 
BRANCH  30  31
ATOM     31  C   UNL     1      23.355   0.679 -14.969  1.00  0.00    -0.028 C 
ATOM     32  C   UNL     1      24.401   0.091 -14.347  1.00  0.00    -0.080 C 
ATOM     33  C   UNL     1      25.332   0.866 -13.446  1.00  0.00     0.039 C 
ATOM     34  C   UNL     1      24.628  -1.385 -14.555  1.00  0.00     0.039 C 
ENDBRANCH  30  31
ENDBRANCH   1  30
TORSDOF 6
ENDMDL
MODEL 9
REMARK VINA RESULT:    -6.022     14.294     16.932
REMARK INTER + INTRA:          -9.240
REMARK INTER:                  -7.855
REMARK INTRA:                  -1.386
REMARK UNBOUND:                -1.282
REMARK SMILES CC(C)=CCC[C@@H](C(=O)[O-])[C@H]1CC[C@]2(C)C3=C(CC[C@]12C)[C@@]1(C)CC[C@H](O)C(C)(C)[C@@H]1CC3
REMARK SMILES IDX 6 1 7 2 8 3 9 4 10 5 11 6 12 7 20 8 13 9 14 10 19 11 21 12
REMARK SMILES IDX 15 13 16 14 18 15 17 16 33 17 22 18 32 19 31 20 24 21 23 22
REMARK SMILES IDX 28 23 25 24 26 25 29 26 30 27 27 28 5 30 4 31 2 32 1 33 3 34
REMARK H PARENT 27 29
REMARK Flexibility Score: inf
ROOT
ATOM      1  C   UNL     1      25.730 -14.086 -25.159  1.00  0.00     0.014 C 
ENDROOT
BRANCH   1   2
ATOM      2  C   UNL     1      24.675 -14.646 -26.150  1.00  0.00     0.039 C 
BRANCH   2   3
ATOM      3  C   UNL     1      24.948 -16.117 -26.357  1.00  0.00     0.045 C 
ATOM      4  O   UNL     1      25.404 -16.537 -27.454  1.00  0.00    -0.550 OA
ATOM      5  O   UNL     1      24.623 -17.030 -25.360  1.00  0.00    -0.550 OA
ENDBRANCH   2   3
BRANCH   2   6
ATOM      6  C   UNL     1      23.204 -14.406 -25.655  1.00  0.00     0.004 C 
ATOM      7  C   UNL     1      23.012 -13.016 -25.046  1.00  0.00     0.006 C 
ATOM      8  C   UNL     1      22.016 -14.585 -26.695  1.00  0.00    -0.020 C 
ATOM      9  C   UNL     1      21.527 -12.738 -25.108  1.00  0.00     0.012 C 
ATOM     10  C   UNL     1      21.046 -13.335 -26.442  1.00  0.00    -0.006 C 
ATOM     11  C   UNL     1      21.293 -15.940 -26.417  1.00  0.00     0.012 C 
ATOM     12  C   UNL     1      22.497 -14.670 -28.177  1.00  0.00     0.012 C 
ATOM     13  C   UNL     1      21.232 -12.216 -27.517  1.00  0.00     0.017 C 
ATOM     14  C   UNL     1      19.544 -13.724 -26.291  1.00  0.00    -0.064 C 
ATOM     15  C   UNL     1      20.311 -15.841 -25.260  1.00  0.00     0.032 C 
ATOM     16  C   UNL     1      19.204 -14.870 -25.619  1.00  0.00    -0.064 C 
ATOM     17  C   UNL     1      18.481 -12.699 -26.687  1.00  0.00     0.032 C 
ATOM     18  C   UNL     1      17.736 -15.312 -25.402  1.00  0.00    -0.008 C 
ATOM     19  C   UNL     1      17.039 -13.197 -26.647  1.00  0.00     0.009 C 
ATOM     20  C   UNL     1      16.798 -14.055 -25.398  1.00  0.00     0.007 C 
ATOM     21  C   UNL     1      17.598 -16.053 -24.020  1.00  0.00     0.014 C 
ATOM     22  C   UNL     1      17.424 -16.302 -26.559  1.00  0.00     0.016 C 
ATOM     23  C   UNL     1      15.266 -14.324 -25.076  1.00  0.00    -0.006 C 
ATOM     24  C   UNL     1      16.327 -15.733 -23.211  1.00  0.00     0.033 C 
ATOM     25  C   UNL     1      15.089 -15.544 -24.098  1.00  0.00     0.120 C 
ATOM     26  C   UNL     1      14.691 -13.067 -24.366  1.00  0.00     0.014 C 
ATOM     27  C   UNL     1      14.409 -14.530 -26.355  1.00  0.00     0.014 C 
BRANCH  25  28
ATOM     28  O   UNL     1      14.809 -16.737 -24.787  1.00  0.00    -0.393 OA
ATOM     29  H   UNL     1      14.298 -17.322 -24.169  1.00  0.00     0.210 HD
ENDBRANCH  25  28
ENDBRANCH   2   6
ENDBRANCH   1   2
BRANCH   1  30
ATOM     30  C   UNL     1      26.850 -13.308 -25.870  1.00  0.00     0.028 C 
BRANCH  30  31
ATOM     31  C   UNL     1      26.278 -12.404 -26.934  1.00  0.00    -0.028 C 
ATOM     32  C   UNL     1      25.879 -11.131 -26.717  1.00  0.00    -0.080 C 
ATOM     33  C   UNL     1      26.011 -10.474 -25.364  1.00  0.00     0.039 C 
ATOM     34  C   UNL     1      25.300 -10.350 -27.869  1.00  0.00     0.039 C 
ENDBRANCH  30  31
ENDBRANCH   1  30
TORSDOF 6
ENDMDL
