MODEL 1
REMARK VINA RESULT:    -5.469      0.000      0.000
REMARK INTER + INTRA:          -7.435
REMARK INTER:                  -7.068
REMARK INTRA:                  -0.367
REMARK UNBOUND:                -0.367
REMARK SMILES CCO[C@H]1O[C@@H](CO)[C@@H](O)[C@H](O)[C@H]1O
REMARK SMILES IDX 4 1 13 2 11 3 9 4 6 5 5 6 3 7 2 8 1 9 14 10 12 12 7 14 8 15
REMARK SMILES IDX 10 17
REMARK H PARENT 14 11 12 13 8 16 10 18
REMARK Flexibility Score: inf
ROOT
ATOM      1  C   UNL     1     109.032  53.214   2.057  1.00  0.00     0.281 C 
ATOM      2  C   UNL     1     109.200  53.163   3.594  1.00  0.00     0.202 C 
ATOM      3  C   UNL     1     108.504  54.367   4.268  1.00  0.00     0.179 C 
ATOM      4  C   UNL     1     107.090  54.615   3.690  1.00  0.00     0.177 C 
ATOM      5  C   UNL     1     107.128  54.567   2.142  1.00  0.00     0.178 C 
ATOM      6  O   UNL     1     107.658  53.331   1.696  1.00  0.00    -0.341 OA
ENDROOT
BRANCH   1   7
ATOM      7  O   UNL     1     109.680  52.095   1.461  1.00  0.00    -0.350 OA
BRANCH   7   8
ATOM      8  C   UNL     1     109.256  51.834   0.138  1.00  0.00     0.160 C 
ATOM      9  C   UNL     1     109.939  50.570  -0.363  1.00  0.00     0.035 C 
ENDBRANCH   7   8
ENDBRANCH   1   7
BRANCH   2  10
ATOM     10  O   UNL     1     108.749  51.944   4.132  1.00  0.00    -0.385 OA
ATOM     11  H   UNL     1     107.865  51.739   3.735  1.00  0.00     0.211 HD
ENDBRANCH   2  10
BRANCH   3  12
ATOM     12  O   UNL     1     109.298  55.513   4.079  1.00  0.00    -0.387 OA
ATOM     13  H   UNL     1     110.244  55.211   4.071  1.00  0.00     0.211 HD
ENDBRANCH   3  12
BRANCH   5  14
ATOM     14  C   UNL     1     105.731  54.748   1.530  1.00  0.00     0.191 C 
BRANCH  14  15
ATOM     15  O   UNL     1     104.941  55.590   2.326  1.00  0.00    -0.394 OA
ATOM     16  H   UNL     1     105.480  56.405   2.507  1.00  0.00     0.210 HD
ENDBRANCH  14  15
ENDBRANCH   5  14
BRANCH   4  17
ATOM     17  O   UNL     1     106.185  53.658   4.181  1.00  0.00    -0.387 OA
ATOM     18  H   UNL     1     105.936  53.078   3.415  1.00  0.00     0.211 HD
ENDBRANCH   4  17
TORSDOF 7
ENDMDL
MODEL 2
REMARK VINA RESULT:    -4.993      2.639      4.186
REMARK INTER + INTRA:          -6.819
REMARK INTER:                  -6.464
REMARK INTRA:                  -0.355
REMARK UNBOUND:                -0.367
REMARK SMILES CCO[C@H]1O[C@@H](CO)[C@@H](O)[C@H](O)[C@H]1O
REMARK SMILES IDX 4 1 13 2 11 3 9 4 6 5 5 6 3 7 2 8 1 9 14 10 12 12 7 14 8 15
REMARK SMILES IDX 10 17
REMARK H PARENT 14 11 12 13 8 16 10 18
REMARK Flexibility Score: inf
ROOT
ATOM      1  C   UNL     1     108.354  52.709   0.282  1.00  0.00     0.281 C 
ATOM      2  C   UNL     1     108.382  52.657  -1.264  1.00  0.00     0.202 C 
ATOM      3  C   UNL     1     106.965  52.848  -1.850  1.00  0.00     0.179 C 
ATOM      4  C   UNL     1     106.209  54.013  -1.166  1.00  0.00     0.177 C 
ATOM      5  C   UNL     1     106.355  53.916   0.373  1.00  0.00     0.178 C 
ATOM      6  O   UNL     1     107.723  53.901   0.743  1.00  0.00    -0.341 OA
ENDROOT
BRANCH   1   7
ATOM      7  O   UNL     1     109.670  52.531   0.796  1.00  0.00    -0.350 OA
BRANCH   7   8
ATOM      8  C   UNL     1     110.155  51.210   0.668  1.00  0.00     0.160 C 
ATOM      9  C   UNL     1     110.702  50.748   2.010  1.00  0.00     0.035 C 
ENDBRANCH   7   8
ENDBRANCH   1   7
BRANCH   2  10
ATOM     10  O   UNL     1     109.289  53.585  -1.806  1.00  0.00    -0.385 OA
ATOM     11  H   UNL     1     110.085  53.089  -2.125  1.00  0.00     0.211 HD
ENDBRANCH   2  10
BRANCH   3  12
ATOM     12  O   UNL     1     106.240  51.654  -1.683  1.00  0.00    -0.387 OA
ATOM     13  H   UNL     1     105.527  51.840  -1.017  1.00  0.00     0.211 HD
ENDBRANCH   3  12
BRANCH   5  14
ATOM     14  C   UNL     1     105.670  55.090   1.088  1.00  0.00     0.191 C 
BRANCH  14  15
ATOM     15  O   UNL     1     104.513  55.487   0.401  1.00  0.00    -0.394 OA
ATOM     16  H   UNL     1     104.801  56.116  -0.311  1.00  0.00     0.210 HD
ENDBRANCH  14  15
ENDBRANCH   5  14
BRANCH   4  17
ATOM     17  O   UNL     1     106.699  55.249  -1.620  1.00  0.00    -0.387 OA
ATOM     18  H   UNL     1     105.948  55.895  -1.564  1.00  0.00     0.211 HD
ENDBRANCH   4  17
TORSDOF 7
ENDMDL
MODEL 3
REMARK VINA RESULT:    -4.765      1.546      2.249
REMARK INTER + INTRA:          -6.525
REMARK INTER:                  -6.200
REMARK INTRA:                  -0.325
REMARK UNBOUND:                -0.367
REMARK SMILES CCO[C@H]1O[C@@H](CO)[C@@H](O)[C@H](O)[C@H]1O
REMARK SMILES IDX 4 1 13 2 11 3 9 4 6 5 5 6 3 7 2 8 1 9 14 10 12 12 7 14 8 15
REMARK SMILES IDX 10 17
REMARK H PARENT 14 11 12 13 8 16 10 18
REMARK Flexibility Score: inf
ROOT
ATOM      1  C   UNL     1     107.099  54.483   2.125  1.00  0.00     0.281 C 
ATOM      2  C   UNL     1     107.347  54.265   3.635  1.00  0.00     0.202 C 
ATOM      3  C   UNL     1     107.061  55.556   4.436  1.00  0.00     0.179 C 
ATOM      4  C   UNL     1     105.738  56.227   3.995  1.00  0.00     0.177 C 
ATOM      5  C   UNL     1     105.660  56.295   2.450  1.00  0.00     0.178 C 
ATOM      6  O   UNL     1     105.792  55.000   1.889  1.00  0.00    -0.341 OA
ENDROOT
BRANCH   1   7
ATOM      7  O   UNL     1     107.368  53.280   1.411  1.00  0.00    -0.350 OA
BRANCH   7   8
ATOM      8  C   UNL     1     108.729  53.120   1.065  1.00  0.00     0.160 C 
ATOM      9  C   UNL     1     108.842  52.083  -0.043  1.00  0.00     0.035 C 
ENDBRANCH   7   8
ENDBRANCH   1   7
BRANCH   2  10
ATOM     10  O   UNL     1     106.609  53.178   4.138  1.00  0.00    -0.385 OA
ATOM     11  H   UNL     1     107.244  52.529   4.535  1.00  0.00     0.211 HD
ENDBRANCH   2  10
BRANCH   3  12
ATOM     12  O   UNL     1     108.129  56.451   4.247  1.00  0.00    -0.387 OA
ATOM     13  H   UNL     1     108.828  56.211   4.910  1.00  0.00     0.211 HD
ENDBRANCH   3  12
BRANCH   5  14
ATOM     14  C   UNL     1     104.332  56.900   1.970  1.00  0.00     0.191 C 
BRANCH  14  15
ATOM     15  O   UNL     1     103.974  58.005   2.755  1.00  0.00    -0.394 OA
ATOM     16  H   UNL     1     103.696  58.725   2.130  1.00  0.00     0.210 HD
ENDBRANCH  14  15
ENDBRANCH   5  14
BRANCH   4  17
ATOM     17  O   UNL     1     104.636  55.520   4.504  1.00  0.00    -0.387 OA
ATOM     18  H   UNL     1     104.506  54.729   3.918  1.00  0.00     0.211 HD
ENDBRANCH   4  17
TORSDOF 7
ENDMDL
MODEL 4
REMARK VINA RESULT:    -4.736      1.471      4.154
REMARK INTER + INTRA:          -6.488
REMARK INTER:                  -6.137
REMARK INTRA:                  -0.351
REMARK UNBOUND:                -0.367
REMARK SMILES CCO[C@H]1O[C@@H](CO)[C@@H](O)[C@H](O)[C@H]1O
REMARK SMILES IDX 4 1 13 2 11 3 9 4 6 5 5 6 3 7 2 8 1 9 14 10 12 12 7 14 8 15
REMARK SMILES IDX 10 17
REMARK H PARENT 14 11 12 13 8 16 10 18
REMARK Flexibility Score: inf
ROOT
ATOM      1  C   UNL     1     106.604  54.259   1.958  1.00  0.00     0.281 C 
ATOM      2  C   UNL     1     106.496  54.645   3.451  1.00  0.00     0.202 C 
ATOM      3  C   UNL     1     107.212  53.606   4.345  1.00  0.00     0.179 C 
ATOM      4  C   UNL     1     108.601  53.220   3.781  1.00  0.00     0.177 C 
ATOM      5  C   UNL     1     108.502  52.931   2.263  1.00  0.00     0.178 C 
ATOM      6  O   UNL     1     107.962  54.049   1.579  1.00  0.00    -0.341 OA
ENDROOT
BRANCH   1   7
ATOM      7  O   UNL     1     105.938  55.231   1.157  1.00  0.00    -0.350 OA
BRANCH   7   8
ATOM      8  C   UNL     1     106.065  55.004  -0.232  1.00  0.00     0.160 C 
ATOM      9  C   UNL     1     105.428  56.161  -0.986  1.00  0.00     0.035 C 
ENDBRANCH   7   8
ENDBRANCH   1   7
BRANCH   2  10
ATOM     10  O   UNL     1     106.974  55.945   3.695  1.00  0.00    -0.385 OA
ATOM     11  H   UNL     1     106.198  56.530   3.888  1.00  0.00     0.211 HD
ENDBRANCH   2  10
BRANCH   3  12
ATOM     12  O   UNL     1     106.405  52.457   4.439  1.00  0.00    -0.387 OA
ATOM     13  H   UNL     1     106.467  52.136   5.376  1.00  0.00     0.211 HD
ENDBRANCH   3  12
BRANCH   5  14
ATOM     14  C   UNL     1     109.873  52.603   1.653  1.00  0.00     0.191 C 
BRANCH  14  15
ATOM     15  O   UNL     1     110.659  51.870   2.554  1.00  0.00    -0.394 OA
ATOM     16  H   UNL     1     111.536  52.332   2.614  1.00  0.00     0.210 HD
ENDBRANCH  14  15
ENDBRANCH   5  14
BRANCH   4  17
ATOM     17  O   UNL     1     109.529  54.247   4.019  1.00  0.00    -0.387 OA
ATOM     18  H   UNL     1     110.018  54.396   3.168  1.00  0.00     0.211 HD
ENDBRANCH   4  17
TORSDOF 7
ENDMDL
MODEL 5
REMARK VINA RESULT:    -4.680      2.075      4.900
REMARK INTER + INTRA:          -6.416
REMARK INTER:                  -6.060
REMARK INTRA:                  -0.356
REMARK UNBOUND:                -0.367
REMARK SMILES CCO[C@H]1O[C@@H](CO)[C@@H](O)[C@H](O)[C@H]1O
REMARK SMILES IDX 4 1 13 2 11 3 9 4 6 5 5 6 3 7 2 8 1 9 14 10 12 12 7 14 8 15
REMARK SMILES IDX 10 17
REMARK H PARENT 14 11 12 13 8 16 10 18
REMARK Flexibility Score: inf
ROOT
ATOM      1  C   UNL     1     105.499  55.585   2.829  1.00  0.00     0.281 C 
ATOM      2  C   UNL     1     106.487  55.406   4.005  1.00  0.00     0.202 C 
ATOM      3  C   UNL     1     107.189  54.031   3.936  1.00  0.00     0.179 C 
ATOM      4  C   UNL     1     107.681  53.706   2.504  1.00  0.00     0.177 C 
ATOM      5  C   UNL     1     106.566  54.009   1.473  1.00  0.00     0.178 C 
ATOM      6  O   UNL     1     106.144  55.358   1.578  1.00  0.00    -0.341 OA
ENDROOT
BRANCH   1   7
ATOM      7  O   UNL     1     104.867  56.858   2.916  1.00  0.00    -0.350 OA
BRANCH   7   8
ATOM      8  C   UNL     1     104.268  57.277   1.706  1.00  0.00     0.160 C 
ATOM      9  C   UNL     1     103.299  58.412   1.998  1.00  0.00     0.035 C 
ENDBRANCH   7   8
ENDBRANCH   1   7
BRANCH   2  10
ATOM     10  O   UNL     1     107.422  56.455   4.071  1.00  0.00    -0.385 OA
ATOM     11  H   UNL     1     107.178  57.131   3.390  1.00  0.00     0.211 HD
ENDBRANCH   2  10
BRANCH   3  12
ATOM     12  O   UNL     1     106.286  53.039   4.360  1.00  0.00    -0.387 OA
ATOM     13  H   UNL     1     105.548  53.504   4.833  1.00  0.00     0.211 HD
ENDBRANCH   3  12
BRANCH   5  14
ATOM     14  C   UNL     1     107.036  53.758   0.032  1.00  0.00     0.191 C 
BRANCH  14  15
ATOM     15  O   UNL     1     108.098  52.842   0.006  1.00  0.00    -0.394 OA
ATOM     16  H   UNL     1     107.928  52.225  -0.753  1.00  0.00     0.210 HD
ENDBRANCH  14  15
ENDBRANCH   5  14
BRANCH   4  17
ATOM     17  O   UNL     1     108.834  54.449   2.202  1.00  0.00    -0.387 OA
ATOM     18  H   UNL     1     108.625  55.399   2.400  1.00  0.00     0.211 HD
ENDBRANCH   4  17
TORSDOF 7
ENDMDL
MODEL 6
REMARK VINA RESULT:    -4.629      2.708      5.756
REMARK INTER + INTRA:          -6.349
REMARK INTER:                  -5.997
REMARK INTRA:                  -0.352
REMARK UNBOUND:                -0.367
REMARK SMILES CCO[C@H]1O[C@@H](CO)[C@@H](O)[C@H](O)[C@H]1O
REMARK SMILES IDX 4 1 13 2 11 3 9 4 6 5 5 6 3 7 2 8 1 9 14 10 12 12 7 14 8 15
REMARK SMILES IDX 10 17
REMARK H PARENT 14 11 12 13 8 16 10 18
REMARK Flexibility Score: inf
ROOT
ATOM      1  C   UNL     1     106.291  54.810   0.395  1.00  0.00     0.281 C 
ATOM      2  C   UNL     1     105.838  54.617  -1.071  1.00  0.00     0.202 C 
ATOM      3  C   UNL     1     107.044  54.311  -1.989  1.00  0.00     0.179 C 
ATOM      4  C   UNL     1     107.991  53.257  -1.365  1.00  0.00     0.177 C 
ATOM      5  C   UNL     1     108.272  53.600   0.119  1.00  0.00     0.178 C 
ATOM      6  O   UNL     1     107.059  53.696   0.845  1.00  0.00    -0.341 OA
ENDROOT
BRANCH   1   7
ATOM      7  O   UNL     1     105.163  55.089   1.218  1.00  0.00    -0.350 OA
BRANCH   7   8
ATOM      8  C   UNL     1     104.588  56.358   0.980  1.00  0.00     0.160 C 
ATOM      9  C   UNL     1     104.513  57.124   2.292  1.00  0.00     0.035 C 
ENDBRANCH   7   8
ENDBRANCH   1   7
BRANCH   2  10
ATOM     10  O   UNL     1     104.843  53.629  -1.188  1.00  0.00    -0.385 OA
ATOM     11  H   UNL     1     104.448  53.479  -0.292  1.00  0.00     0.211 HD
ENDBRANCH   2  10
BRANCH   3  12
ATOM     12  O   UNL     1     107.753  55.504  -2.217  1.00  0.00    -0.387 OA
ATOM     13  H   UNL     1     108.716  55.296  -2.096  1.00  0.00     0.211 HD
ENDBRANCH   3  12
BRANCH   5  14
ATOM     14  C   UNL     1     109.160  52.543   0.792  1.00  0.00     0.191 C 
BRANCH  14  15
ATOM     15  O   UNL     1     110.003  51.929  -0.145  1.00  0.00    -0.394 OA
ATOM     16  H   UNL     1     109.497  51.875  -0.998  1.00  0.00     0.210 HD
ENDBRANCH  14  15
ENDBRANCH   5  14
BRANCH   4  17
ATOM     17  O   UNL     1     107.429  51.973  -1.467  1.00  0.00    -0.387 OA
ATOM     18  H   UNL     1     108.112  51.333  -1.135  1.00  0.00     0.211 HD
ENDBRANCH   4  17
TORSDOF 7
ENDMDL
MODEL 7
REMARK VINA RESULT:    -4.580      2.544      4.926
REMARK INTER + INTRA:          -6.285
REMARK INTER:                  -5.935
REMARK INTRA:                  -0.350
REMARK UNBOUND:                -0.367
REMARK SMILES CCO[C@H]1O[C@@H](CO)[C@@H](O)[C@H](O)[C@H]1O
REMARK SMILES IDX 4 1 13 2 11 3 9 4 6 5 5 6 3 7 2 8 1 9 14 10 12 12 7 14 8 15
REMARK SMILES IDX 10 17
REMARK H PARENT 14 11 12 13 8 16 10 18
REMARK Flexibility Score: inf
ROOT
ATOM      1  C   UNL     1     106.620  56.265   4.367  1.00  0.00     0.281 C 
ATOM      2  C   UNL     1     107.698  55.157   4.314  1.00  0.00     0.202 C 
ATOM      3  C   UNL     1     107.183  53.919   3.546  1.00  0.00     0.179 C 
ATOM      4  C   UNL     1     106.466  54.312   2.232  1.00  0.00     0.177 C 
ATOM      5  C   UNL     1     105.476  55.475   2.489  1.00  0.00     0.178 C 
ATOM      6  O   UNL     1     106.149  56.584   3.060  1.00  0.00    -0.341 OA
ENDROOT
BRANCH   1   7
ATOM      7  O   UNL     1     107.119  57.394   5.078  1.00  0.00    -0.350 OA
BRANCH   7   8
ATOM      8  C   UNL     1     106.278  58.527   5.005  1.00  0.00     0.160 C 
ATOM      9  C   UNL     1     107.115  59.746   4.651  1.00  0.00     0.035 C 
ENDBRANCH   7   8
ENDBRANCH   1   7
BRANCH   2  10
ATOM     10  O   UNL     1     108.910  55.627   3.775  1.00  0.00    -0.385 OA
ATOM     11  H   UNL     1     109.394  54.857   3.383  1.00  0.00     0.211 HD
ENDBRANCH   2  10
BRANCH   3  12
ATOM     12  O   UNL     1     106.294  53.210   4.373  1.00  0.00    -0.387 OA
ATOM     13  H   UNL     1     105.655  52.740   3.776  1.00  0.00     0.211 HD
ENDBRANCH   3  12
BRANCH   5  14
ATOM     14  C   UNL     1     104.788  55.937   1.195  1.00  0.00     0.191 C 
BRANCH  14  15
ATOM     15  O   UNL     1     104.910  54.966   0.190  1.00  0.00    -0.394 OA
ATOM     16  H   UNL     1     104.658  55.403  -0.665  1.00  0.00     0.210 HD
ENDBRANCH  14  15
ENDBRANCH   5  14
BRANCH   4  17
ATOM     17  O   UNL     1     107.404  54.684   1.254  1.00  0.00    -0.387 OA
ATOM     18  H   UNL     1     106.922  54.706   0.386  1.00  0.00     0.211 HD
ENDBRANCH   4  17
TORSDOF 7
ENDMDL
MODEL 8
REMARK VINA RESULT:    -4.505      2.815      4.872
REMARK INTER + INTRA:          -6.189
REMARK INTER:                  -5.841
REMARK INTRA:                  -0.347
REMARK UNBOUND:                -0.367
REMARK SMILES CCO[C@H]1O[C@@H](CO)[C@@H](O)[C@H](O)[C@H]1O
REMARK SMILES IDX 4 1 13 2 11 3 9 4 6 5 5 6 3 7 2 8 1 9 14 10 12 12 7 14 8 15
REMARK SMILES IDX 10 17
REMARK H PARENT 14 11 12 13 8 16 10 18
REMARK Flexibility Score: inf
ROOT
ATOM      1  C   UNL     1     106.951  53.665   0.840  1.00  0.00     0.281 C 
ATOM      2  C   UNL     1     107.871  53.062  -0.247  1.00  0.00     0.202 C 
ATOM      3  C   UNL     1     107.182  53.087  -1.631  1.00  0.00     0.179 C 
ATOM      4  C   UNL     1     106.502  54.449  -1.912  1.00  0.00     0.177 C 
ATOM      5  C   UNL     1     105.680  54.902  -0.681  1.00  0.00     0.178 C 
ATOM      6  O   UNL     1     106.504  54.967   0.470  1.00  0.00    -0.341 OA
ENDROOT
BRANCH   1   7
ATOM      7  O   UNL     1     107.608  53.631   2.104  1.00  0.00    -0.350 OA
BRANCH   7   8
ATOM      8  C   UNL     1     106.933  54.355   3.113  1.00  0.00     0.160 C 
ATOM      9  C   UNL     1     107.944  54.831   4.145  1.00  0.00     0.035 C 
ENDBRANCH   7   8
ENDBRANCH   1   7
BRANCH   2  10
ATOM     10  O   UNL     1     109.125  53.699  -0.288  1.00  0.00    -0.385 OA
ATOM     11  H   UNL     1     109.497  53.591  -1.199  1.00  0.00     0.211 HD
ENDBRANCH   2  10
BRANCH   3  12
ATOM     12  O   UNL     1     106.221  52.062  -1.677  1.00  0.00    -0.387 OA
ATOM     13  H   UNL     1     106.086  51.750  -0.745  1.00  0.00     0.211 HD
ENDBRANCH   3  12
BRANCH   5  14
ATOM     14  C   UNL     1     105.038  56.281  -0.898  1.00  0.00     0.191 C 
BRANCH  14  15
ATOM     15  O   UNL     1     104.975  56.593  -2.263  1.00  0.00    -0.394 OA
ATOM     16  H   UNL     1     105.830  57.040  -2.497  1.00  0.00     0.210 HD
ENDBRANCH  14  15
ENDBRANCH   5  14
BRANCH   4  17
ATOM     17  O   UNL     1     107.465  55.420  -2.235  1.00  0.00    -0.387 OA
ATOM     18  H   UNL     1     108.293  54.933  -2.485  1.00  0.00     0.211 HD
ENDBRANCH   4  17
TORSDOF 7
ENDMDL
