MODEL 1
REMARK VINA RESULT:    -5.867      0.000      0.000
REMARK INTER + INTRA:         -14.603
REMARK INTER:                 -13.413
REMARK INTRA:                  -1.190
REMARK UNBOUND:                -1.190
REMARK SMILES CCCCCCCCCCCCCCCCCCCCCCCC(=O)[O-]
REMARK SMILES IDX 13 1 14 2 15 3 16 4 17 5 18 6 19 7 20 8 21 9 22 10 23 11
REMARK SMILES IDX 24 12 25 13 26 14 12 15 11 16 10 17 9 18 8 19 7 20 6 21 5 22
REMARK SMILES IDX 4 23 3 24 2 25 1 26
REMARK H PARENT
REMARK Flexibility Score: inf
ROOT
ATOM      1  C   UNL     1      11.119   8.997 -18.665  1.00  0.00     0.000 C 
ENDROOT
BRANCH   1   2
ATOM      2  C   UNL     1      12.303   8.621 -19.579  1.00  0.00     0.000 C 
BRANCH   2   3
ATOM      3  C   UNL     1      13.094   7.371 -19.144  1.00  0.00     0.000 C 
BRANCH   3   4
ATOM      4  C   UNL     1      13.753   6.584 -20.295  1.00  0.00     0.000 C 
BRANCH   4   5
ATOM      5  C   UNL     1      15.253   6.865 -20.499  1.00  0.00     0.000 C 
BRANCH   5   6
ATOM      6  C   UNL     1      15.557   7.533 -21.848  1.00  0.00     0.000 C 
BRANCH   6   7
ATOM      7  C   UNL     1      16.240   8.894 -21.645  1.00  0.00     0.000 C 
BRANCH   7   8
ATOM      8  C   UNL     1      17.095   8.938 -20.368  1.00  0.00     0.000 C 
BRANCH   8   9
ATOM      9  C   UNL     1      18.293   9.896 -20.495  1.00  0.00     0.000 C 
BRANCH   9  10
ATOM     10  C   UNL     1      17.994  11.089 -21.418  1.00  0.00     0.006 C 
BRANCH  10  11
ATOM     11  C   UNL     1      18.811  12.334 -21.051  1.00  0.00     0.053 C 
BRANCH  11  12
ATOM     12  C   UNL     1      18.069  13.174 -20.060  1.00  0.00     0.041 C 
ATOM     13  O   UNL     1      18.696  13.945 -19.287  1.00  0.00    -0.550 OA
ATOM     14  O   UNL     1      16.680  13.142 -20.023  1.00  0.00    -0.550 OA
ENDBRANCH  11  12
ENDBRANCH  10  11
ENDBRANCH   9  10
ENDBRANCH   8   9
ENDBRANCH   7   8
ENDBRANCH   6   7
ENDBRANCH   5   6
ENDBRANCH   4   5
ENDBRANCH   3   4
ENDBRANCH   2   3
ENDBRANCH   1   2
BRANCH   1  15
ATOM     15  C   UNL     1      10.751  10.491 -18.648  1.00  0.00     0.000 C 
BRANCH  15  16
ATOM     16  C   UNL     1      11.056  11.166 -17.300  1.00  0.00     0.000 C 
BRANCH  16  17
ATOM     17  C   UNL     1      10.168  12.397 -17.031  1.00  0.00     0.000 C 
BRANCH  17  18
ATOM     18  C   UNL     1       9.895  13.292 -18.253  1.00  0.00    -0.000 C 
BRANCH  18  19
ATOM     19  C   UNL     1       9.504  14.729 -17.869  1.00  0.00    -0.000 C 
BRANCH  19  20
ATOM     20  C   UNL     1       9.133  15.587 -19.090  1.00  0.00    -0.000 C 
BRANCH  20  21
ATOM     21  C   UNL     1       8.679  14.743 -20.295  1.00  0.00    -0.000 C 
BRANCH  21  22
ATOM     22  C   UNL     1       7.363  15.248 -20.906  1.00  0.00    -0.000 C 
BRANCH  22  23
ATOM     23  C   UNL     1       6.528  14.116 -21.532  1.00  0.00    -0.000 C 
BRANCH  23  24
ATOM     24  C   UNL     1       5.343  14.656 -22.362  1.00  0.00    -0.000 C 
BRANCH  24  25
ATOM     25  C   UNL     1       4.308  13.578 -22.727  1.00  0.00    -0.003 C 
ATOM     26  C   UNL     1       3.029  13.671 -21.899  1.00  0.00     0.004 C 
ENDBRANCH  24  25
ENDBRANCH  23  24
ENDBRANCH  22  23
ENDBRANCH  21  22
ENDBRANCH  20  21
ENDBRANCH  19  20
ENDBRANCH  18  19
ENDBRANCH  17  18
ENDBRANCH  16  17
ENDBRANCH  15  16
ENDBRANCH   1  15
TORSDOF 22
ENDMDL
MODEL 2
REMARK VINA RESULT:    -5.751      1.771      3.537
REMARK INTER + INTRA:         -14.338
REMARK INTER:                 -12.758
REMARK INTRA:                  -1.580
REMARK UNBOUND:                -1.190
REMARK SMILES CCCCCCCCCCCCCCCCCCCCCCCC(=O)[O-]
REMARK SMILES IDX 13 1 14 2 15 3 16 4 17 5 18 6 19 7 20 8 21 9 22 10 23 11
REMARK SMILES IDX 24 12 25 13 26 14 12 15 11 16 10 17 9 18 8 19 7 20 6 21 5 22
REMARK SMILES IDX 4 23 3 24 2 25 1 26
REMARK H PARENT
REMARK Flexibility Score: inf
ROOT
ATOM      1  C   UNL     1      11.855   8.858 -19.544  1.00  0.00     0.000 C 
ENDROOT
BRANCH   1   2
ATOM      2  C   UNL     1      12.834   7.695 -19.284  1.00  0.00     0.000 C 
BRANCH   2   3
ATOM      3  C   UNL     1      13.380   7.004 -20.549  1.00  0.00     0.000 C 
BRANCH   3   4
ATOM      4  C   UNL     1      14.907   6.790 -20.567  1.00  0.00     0.000 C 
BRANCH   4   5
ATOM      5  C   UNL     1      15.646   7.469 -21.734  1.00  0.00     0.000 C 
BRANCH   5   6
ATOM      6  C   UNL     1      16.315   8.791 -21.329  1.00  0.00     0.000 C 
BRANCH   6   7
ATOM      7  C   UNL     1      17.405   8.554 -20.274  1.00  0.00     0.000 C 
BRANCH   7   8
ATOM      8  C   UNL     1      18.217   9.824 -19.972  1.00  0.00     0.000 C 
BRANCH   8   9
ATOM      9  C   UNL     1      18.831  10.444 -21.239  1.00  0.00     0.000 C 
BRANCH   9  10
ATOM     10  C   UNL     1      18.415  11.911 -21.435  1.00  0.00     0.006 C 
BRANCH  10  11
ATOM     11  C   UNL     1      17.382  12.371 -20.398  1.00  0.00     0.053 C 
BRANCH  11  12
ATOM     12  C   UNL     1      17.865  13.595 -19.685  1.00  0.00     0.041 C 
ATOM     13  O   UNL     1      17.055  14.317 -19.047  1.00  0.00    -0.550 OA
ATOM     14  O   UNL     1      19.219  13.911 -19.685  1.00  0.00    -0.550 OA
ENDBRANCH  11  12
ENDBRANCH  10  11
ENDBRANCH   9  10
ENDBRANCH   8   9
ENDBRANCH   7   8
ENDBRANCH   6   7
ENDBRANCH   5   6
ENDBRANCH   4   5
ENDBRANCH   3   4
ENDBRANCH   2   3
ENDBRANCH   1   2
BRANCH   1  15
ATOM     15  C   UNL     1      11.232   9.487 -18.285  1.00  0.00     0.000 C 
BRANCH  15  16
ATOM     16  C   UNL     1      10.675  10.898 -18.534  1.00  0.00     0.000 C 
BRANCH  16  17
ATOM     17  C   UNL     1      10.300  11.143 -20.009  1.00  0.00     0.000 C 
BRANCH  17  18
ATOM     18  C   UNL     1       9.982  12.605 -20.374  1.00  0.00    -0.000 C 
BRANCH  18  19
ATOM     19  C   UNL     1       8.476  12.864 -20.552  1.00  0.00    -0.000 C 
BRANCH  19  20
ATOM     20  C   UNL     1       8.137  14.363 -20.609  1.00  0.00    -0.000 C 
BRANCH  20  21
ATOM     21  C   UNL     1       9.253  15.248 -20.026  1.00  0.00    -0.000 C 
BRANCH  21  22
ATOM     22  C   UNL     1       8.908  15.790 -18.630  1.00  0.00    -0.000 C 
BRANCH  22  23
ATOM     23  C   UNL     1       9.376  14.856 -17.499  1.00  0.00    -0.000 C 
BRANCH  23  24
ATOM     24  C   UNL     1       9.797  15.635 -16.235  1.00  0.00    -0.000 C 
BRANCH  24  25
ATOM     25  C   UNL     1       9.343  14.970 -14.924  1.00  0.00    -0.003 C 
ATOM     26  C   UNL     1       7.875  15.231 -14.596  1.00  0.00     0.004 C 
ENDBRANCH  24  25
ENDBRANCH  23  24
ENDBRANCH  22  23
ENDBRANCH  21  22
ENDBRANCH  20  21
ENDBRANCH  19  20
ENDBRANCH  18  19
ENDBRANCH  17  18
ENDBRANCH  16  17
ENDBRANCH  15  16
ENDBRANCH   1  15
TORSDOF 22
ENDMDL
MODEL 3
REMARK VINA RESULT:    -5.749      1.998      4.306
REMARK INTER + INTRA:         -14.332
REMARK INTER:                 -13.253
REMARK INTRA:                  -1.079
REMARK UNBOUND:                -1.190
REMARK SMILES CCCCCCCCCCCCCCCCCCCCCCCC(=O)[O-]
REMARK SMILES IDX 13 1 14 2 15 3 16 4 17 5 18 6 19 7 20 8 21 9 22 10 23 11
REMARK SMILES IDX 24 12 25 13 26 14 12 15 11 16 10 17 9 18 8 19 7 20 6 21 5 22
REMARK SMILES IDX 4 23 3 24 2 25 1 26
REMARK H PARENT
REMARK Flexibility Score: inf
ROOT
ATOM      1  C   UNL     1      10.255  12.021 -20.099  1.00  0.00     0.000 C 
ENDROOT
BRANCH   1   2
ATOM      2  C   UNL     1      10.564  11.833 -18.600  1.00  0.00     0.000 C 
BRANCH   2   3
ATOM      3  C   UNL     1      11.026  10.419 -18.200  1.00  0.00     0.000 C 
BRANCH   3   4
ATOM      4  C   UNL     1      11.302   9.465 -19.380  1.00  0.00     0.000 C 
BRANCH   4   5
ATOM      5  C   UNL     1      12.200   8.260 -19.047  1.00  0.00     0.000 C 
BRANCH   5   6
ATOM      6  C   UNL     1      12.821   7.615 -20.295  1.00  0.00     0.000 C 
BRANCH   6   7
ATOM      7  C   UNL     1      14.149   6.923 -19.951  1.00  0.00     0.000 C 
BRANCH   7   8
ATOM      8  C   UNL     1      15.081   6.802 -21.168  1.00  0.00     0.000 C 
BRANCH   8   9
ATOM      9  C   UNL     1      15.541   8.172 -21.695  1.00  0.00     0.000 C 
BRANCH   9  10
ATOM     10  C   UNL     1      16.912   8.586 -21.137  1.00  0.00     0.006 C 
BRANCH  10  11
ATOM     11  C   UNL     1      17.180  10.088 -21.295  1.00  0.00     0.053 C 
BRANCH  11  12
ATOM     12  C   UNL     1      17.996  10.597 -20.148  1.00  0.00     0.041 C 
ATOM     13  O   UNL     1      17.689  11.680 -19.585  1.00  0.00    -0.550 OA
ATOM     14  O   UNL     1      19.068   9.852 -19.671  1.00  0.00    -0.550 OA
ENDBRANCH  11  12
ENDBRANCH  10  11
ENDBRANCH   9  10
ENDBRANCH   8   9
ENDBRANCH   7   8
ENDBRANCH   6   7
ENDBRANCH   5   6
ENDBRANCH   4   5
ENDBRANCH   3   4
ENDBRANCH   2   3
ENDBRANCH   1   2
BRANCH   1  15
ATOM     15  C   UNL     1       8.888  12.656 -20.414  1.00  0.00     0.000 C 
BRANCH  15  16
ATOM     16  C   UNL     1       8.873  14.179 -20.200  1.00  0.00     0.000 C 
BRANCH  16  17
ATOM     17  C   UNL     1       7.656  14.865 -20.851  1.00  0.00     0.000 C 
BRANCH  17  18
ATOM     18  C   UNL     1       6.703  13.928 -21.615  1.00  0.00    -0.000 C 
BRANCH  18  19
ATOM     19  C   UNL     1       5.313  14.545 -21.845  1.00  0.00    -0.000 C 
BRANCH  19  20
ATOM     20  C   UNL     1       4.475  13.752 -22.862  1.00  0.00    -0.000 C 
BRANCH  20  21
ATOM     21  C   UNL     1       3.008  13.590 -22.426  1.00  0.00    -0.000 C 
BRANCH  21  22
ATOM     22  C   UNL     1       2.700  14.320 -21.109  1.00  0.00    -0.000 C 
BRANCH  22  23
ATOM     23  C   UNL     1       2.139  13.380 -20.027  1.00  0.00    -0.000 C 
BRANCH  23  24
ATOM     24  C   UNL     1       1.307  14.137 -18.970  1.00  0.00    -0.000 C 
BRANCH  24  25
ATOM     25  C   UNL     1       1.780  13.894 -17.527  1.00  0.00    -0.003 C 
ATOM     26  C   UNL     1       1.716  12.426 -17.115  1.00  0.00     0.004 C 
ENDBRANCH  24  25
ENDBRANCH  23  24
ENDBRANCH  22  23
ENDBRANCH  21  22
ENDBRANCH  20  21
ENDBRANCH  19  20
ENDBRANCH  18  19
ENDBRANCH  17  18
ENDBRANCH  16  17
ENDBRANCH  15  16
ENDBRANCH   1  15
TORSDOF 22
ENDMDL
MODEL 4
REMARK VINA RESULT:    -5.721      4.526     11.350
REMARK INTER + INTRA:         -14.269
REMARK INTER:                 -13.070
REMARK INTRA:                  -1.199
REMARK UNBOUND:                -1.190
REMARK SMILES CCCCCCCCCCCCCCCCCCCCCCCC(=O)[O-]
REMARK SMILES IDX 13 1 14 2 15 3 16 4 17 5 18 6 19 7 20 8 21 9 22 10 23 11
REMARK SMILES IDX 24 12 25 13 26 14 12 15 11 16 10 17 9 18 8 19 7 20 6 21 5 22
REMARK SMILES IDX 4 23 3 24 2 25 1 26
REMARK H PARENT
REMARK Flexibility Score: inf
ROOT
ATOM      1  C   UNL     1      11.655   9.190 -19.360  1.00  0.00     0.000 C 
ENDROOT
BRANCH   1   2
ATOM      2  C   UNL     1      10.840  10.372 -18.796  1.00  0.00     0.000 C 
BRANCH   2   3
ATOM      3  C   UNL     1      10.706  11.583 -19.740  1.00  0.00     0.000 C 
BRANCH   3   4
ATOM      4  C   UNL     1       9.338  11.716 -20.440  1.00  0.00     0.000 C 
BRANCH   4   5
ATOM      5  C   UNL     1       8.832  13.159 -20.612  1.00  0.00     0.000 C 
BRANCH   5   6
ATOM      6  C   UNL     1       7.437  13.231 -21.250  1.00  0.00     0.000 C 
BRANCH   6   7
ATOM      7  C   UNL     1       6.883  14.663 -21.198  1.00  0.00     0.000 C 
BRANCH   7   8
ATOM      8  C   UNL     1       5.661  14.854 -22.111  1.00  0.00     0.000 C 
BRANCH   8   9
ATOM      9  C   UNL     1       5.032  13.517 -22.539  1.00  0.00     0.000 C 
BRANCH   9  10
ATOM     10  C   UNL     1       3.498  13.529 -22.431  1.00  0.00     0.006 C 
BRANCH  10  11
ATOM     11  C   UNL     1       3.002  14.329 -21.219  1.00  0.00     0.053 C 
BRANCH  11  12
ATOM     12  C   UNL     1       1.885  13.605 -20.536  1.00  0.00     0.041 C 
ATOM     13  O   UNL     1       0.741  13.566 -21.061  1.00  0.00    -0.550 OA
ATOM     14  O   UNL     1       2.118  12.932 -19.342  1.00  0.00    -0.550 OA
ENDBRANCH  11  12
ENDBRANCH  10  11
ENDBRANCH   9  10
ENDBRANCH   8   9
ENDBRANCH   7   8
ENDBRANCH   6   7
ENDBRANCH   5   6
ENDBRANCH   4   5
ENDBRANCH   3   4
ENDBRANCH   2   3
ENDBRANCH   1   2
BRANCH   1  15
ATOM     15  C   UNL     1      12.340   8.301 -18.306  1.00  0.00     0.000 C 
BRANCH  15  16
ATOM     16  C   UNL     1      13.144   7.147 -18.929  1.00  0.00     0.000 C 
BRANCH  16  17
ATOM     17  C   UNL     1      13.580   7.434 -20.378  1.00  0.00     0.000 C 
BRANCH  17  18
ATOM     18  C   UNL     1      14.779   6.609 -20.881  1.00  0.00    -0.000 C 
BRANCH  18  19
ATOM     19  C   UNL     1      15.621   7.353 -21.931  1.00  0.00    -0.000 C 
BRANCH  19  20
ATOM     20  C   UNL     1      16.068   8.744 -21.451  1.00  0.00    -0.000 C 
BRANCH  20  21
ATOM     21  C   UNL     1      17.073   8.677 -20.287  1.00  0.00    -0.000 C 
BRANCH  21  22
ATOM     22  C   UNL     1      18.166   9.753 -20.389  1.00  0.00    -0.000 C 
BRANCH  22  23
ATOM     23  C   UNL     1      17.828  10.846 -21.419  1.00  0.00    -0.000 C 
BRANCH  23  24
ATOM     24  C   UNL     1      18.377  12.228 -21.005  1.00  0.00    -0.000 C 
BRANCH  24  25
ATOM     25  C   UNL     1      17.357  13.092 -20.245  1.00  0.00    -0.003 C 
ATOM     26  C   UNL     1      17.989  14.295 -19.549  1.00  0.00     0.004 C 
ENDBRANCH  24  25
ENDBRANCH  23  24
ENDBRANCH  22  23
ENDBRANCH  21  22
ENDBRANCH  20  21
ENDBRANCH  19  20
ENDBRANCH  18  19
ENDBRANCH  17  18
ENDBRANCH  16  17
ENDBRANCH  15  16
ENDBRANCH   1  15
TORSDOF 22
ENDMDL
MODEL 5
REMARK VINA RESULT:    -5.704      3.315      9.703
REMARK INTER + INTRA:         -14.230
REMARK INTER:                 -12.340
REMARK INTRA:                  -1.890
REMARK UNBOUND:                -1.190
REMARK SMILES CCCCCCCCCCCCCCCCCCCCCCCC(=O)[O-]
REMARK SMILES IDX 13 1 14 2 15 3 16 4 17 5 18 6 19 7 20 8 21 9 22 10 23 11
REMARK SMILES IDX 24 12 25 13 26 14 12 15 11 16 10 17 9 18 8 19 7 20 6 21 5 22
REMARK SMILES IDX 4 23 3 24 2 25 1 26
REMARK H PARENT
REMARK Flexibility Score: inf
ROOT
ATOM      1  C   UNL     1      13.464   7.466 -20.478  1.00  0.00     0.000 C 
ENDROOT
BRANCH   1   2
ATOM      2  C   UNL     1      12.799   7.283 -19.098  1.00  0.00     0.000 C 
BRANCH   2   3
ATOM      3  C   UNL     1      12.346   8.586 -18.412  1.00  0.00     0.000 C 
BRANCH   3   4
ATOM      4  C   UNL     1      11.079   9.231 -19.010  1.00  0.00     0.000 C 
BRANCH   4   5
ATOM      5  C   UNL     1      10.889  10.722 -18.678  1.00  0.00     0.000 C 
BRANCH   5   6
ATOM      6  C   UNL     1      10.978  11.015 -17.173  1.00  0.00     0.000 C 
BRANCH   6   7
ATOM      7  C   UNL     1      10.330  12.367 -16.838  1.00  0.00     0.000 C 
BRANCH   7   8
ATOM      8  C   UNL     1      10.021  13.199 -18.093  1.00  0.00     0.000 C 
BRANCH   8   9
ATOM      9  C   UNL     1       9.473  14.596 -17.753  1.00  0.00     0.000 C 
BRANCH   9  10
ATOM     10  C   UNL     1       9.058  15.384 -19.006  1.00  0.00     0.006 C 
BRANCH  10  11
ATOM     11  C   UNL     1       9.102  14.529 -20.279  1.00  0.00     0.053 C 
BRANCH  11  12
ATOM     12  C   UNL     1       7.736  14.411 -20.878  1.00  0.00     0.041 C 
ATOM     13  O   UNL     1       7.033  15.439 -21.059  1.00  0.00    -0.550 OA
ATOM     14  O   UNL     1       7.257  13.169 -21.280  1.00  0.00    -0.550 OA
ENDBRANCH  11  12
ENDBRANCH  10  11
ENDBRANCH   9  10
ENDBRANCH   8   9
ENDBRANCH   7   8
ENDBRANCH   6   7
ENDBRANCH   5   6
ENDBRANCH   4   5
ENDBRANCH   3   4
ENDBRANCH   2   3
ENDBRANCH   1   2
BRANCH   1  15
ATOM     15  C   UNL     1      14.878   6.873 -20.610  1.00  0.00     0.000 C 
BRANCH  15  16
ATOM     16  C   UNL     1      15.721   7.572 -21.691  1.00  0.00     0.000 C 
BRANCH  16  17
ATOM     17  C   UNL     1      16.714   8.596 -21.108  1.00  0.00     0.000 C 
BRANCH  17  18
ATOM     18  C   UNL     1      16.826   8.605 -19.572  1.00  0.00    -0.000 C 
BRANCH  18  19
ATOM     19  C   UNL     1      18.236   8.966 -19.076  1.00  0.00    -0.000 C 
BRANCH  19  20
ATOM     20  C   UNL     1      19.246   9.116 -20.226  1.00  0.00    -0.000 C 
BRANCH  20  21
ATOM     21  C   UNL     1      19.676  10.577 -20.453  1.00  0.00    -0.000 C 
BRANCH  21  22
ATOM     22  C   UNL     1      19.340  11.077 -21.867  1.00  0.00    -0.000 C 
BRANCH  22  23
ATOM     23  C   UNL     1      18.119  12.013 -21.890  1.00  0.00    -0.000 C 
BRANCH  23  24
ATOM     24  C   UNL     1      17.675  12.428 -20.470  1.00  0.00    -0.000 C 
BRANCH  24  25
ATOM     25  C   UNL     1      17.649  13.951 -20.255  1.00  0.00    -0.003 C 
ATOM     26  C   UNL     1      18.762  14.446 -19.335  1.00  0.00     0.004 C 
ENDBRANCH  24  25
ENDBRANCH  23  24
ENDBRANCH  22  23
ENDBRANCH  21  22
ENDBRANCH  20  21
ENDBRANCH  19  20
ENDBRANCH  18  19
ENDBRANCH  17  18
ENDBRANCH  16  17
ENDBRANCH  15  16
ENDBRANCH   1  15
TORSDOF 22
ENDMDL
MODEL 6
REMARK VINA RESULT:    -5.690      1.144      2.104
REMARK INTER + INTRA:         -14.199
REMARK INTER:                 -12.826
REMARK INTRA:                  -1.373
REMARK UNBOUND:                -1.190
REMARK SMILES CCCCCCCCCCCCCCCCCCCCCCCC(=O)[O-]
REMARK SMILES IDX 13 1 14 2 15 3 16 4 17 5 18 6 19 7 20 8 21 9 22 10 23 11
REMARK SMILES IDX 24 12 25 13 26 14 12 15 11 16 10 17 9 18 8 19 7 20 6 21 5 22
REMARK SMILES IDX 4 23 3 24 2 25 1 26
REMARK H PARENT
REMARK Flexibility Score: inf
ROOT
ATOM      1  C   UNL     1      13.265   7.486 -18.671  1.00  0.00     0.000 C 
ENDROOT
BRANCH   1   2
ATOM      2  C   UNL     1      13.388   7.237 -20.189  1.00  0.00     0.000 C 
BRANCH   2   3
ATOM      3  C   UNL     1      14.762   6.722 -20.658  1.00  0.00     0.000 C 
BRANCH   3   4
ATOM      4  C   UNL     1      15.469   7.610 -21.702  1.00  0.00     0.000 C 
BRANCH   4   5
ATOM      5  C   UNL     1      16.768   8.277 -21.217  1.00  0.00     0.000 C 
BRANCH   5   6
ATOM      6  C   UNL     1      16.739   8.624 -19.721  1.00  0.00     0.000 C 
BRANCH   6   7
ATOM      7  C   UNL     1      17.876   9.591 -19.359  1.00  0.00     0.000 C 
BRANCH   7   8
ATOM      8  C   UNL     1      19.116   9.401 -20.249  1.00  0.00     0.000 C 
BRANCH   8   9
ATOM      9  C   UNL     1      19.603  10.722 -20.869  1.00  0.00     0.000 C 
BRANCH   9  10
ATOM     10  C   UNL     1      18.449  11.698 -21.152  1.00  0.00     0.006 C 
BRANCH  10  11
ATOM     11  C   UNL     1      18.765  13.128 -20.694  1.00  0.00     0.053 C 
BRANCH  11  12
ATOM     12  C   UNL     1      17.531  13.796 -20.174  1.00  0.00     0.041 C 
ATOM     13  O   UNL     1      16.440  13.169 -20.136  1.00  0.00    -0.550 OA
ATOM     14  O   UNL     1      17.596  15.096 -19.688  1.00  0.00    -0.550 OA
ENDBRANCH  11  12
ENDBRANCH  10  11
ENDBRANCH   9  10
ENDBRANCH   8   9
ENDBRANCH   7   8
ENDBRANCH   6   7
ENDBRANCH   5   6
ENDBRANCH   4   5
ENDBRANCH   3   4
ENDBRANCH   2   3
ENDBRANCH   1   2
BRANCH   1  15
ATOM     15  C   UNL     1      12.076   8.364 -18.243  1.00  0.00     0.000 C 
BRANCH  15  16
ATOM     16  C   UNL     1      11.495   9.191 -19.402  1.00  0.00     0.000 C 
BRANCH  16  17
ATOM     17  C   UNL     1      10.765  10.462 -18.926  1.00  0.00     0.000 C 
BRANCH  17  18
ATOM     18  C   UNL     1      10.557  11.544 -20.001  1.00  0.00    -0.000 C 
BRANCH  18  19
ATOM     19  C   UNL     1       9.746  12.748 -19.490  1.00  0.00    -0.000 C 
BRANCH  19  20
ATOM     20  C   UNL     1       8.829  13.344 -20.571  1.00  0.00    -0.000 C 
BRANCH  20  21
ATOM     21  C   UNL     1       8.496  14.826 -20.318  1.00  0.00    -0.000 C 
BRANCH  21  22
ATOM     22  C   UNL     1       7.179  15.256 -20.982  1.00  0.00    -0.000 C 
BRANCH  22  23
ATOM     23  C   UNL     1       6.391  14.067 -21.560  1.00  0.00    -0.000 C 
BRANCH  23  24
ATOM     24  C   UNL     1       5.071  14.510 -22.227  1.00  0.00    -0.000 C 
BRANCH  24  25
ATOM     25  C   UNL     1       4.365  13.384 -23.000  1.00  0.00    -0.003 C 
ATOM     26  C   UNL     1       4.636  13.426 -24.502  1.00  0.00     0.004 C 
ENDBRANCH  24  25
ENDBRANCH  23  24
ENDBRANCH  22  23
ENDBRANCH  21  22
ENDBRANCH  20  21
ENDBRANCH  19  20
ENDBRANCH  18  19
ENDBRANCH  17  18
ENDBRANCH  16  17
ENDBRANCH  15  16
ENDBRANCH   1  15
TORSDOF 22
ENDMDL
MODEL 7
REMARK VINA RESULT:    -5.689      4.577     11.622
REMARK INTER + INTRA:         -14.196
REMARK INTER:                 -13.007
REMARK INTRA:                  -1.189
REMARK UNBOUND:                -1.190
REMARK SMILES CCCCCCCCCCCCCCCCCCCCCCCC(=O)[O-]
REMARK SMILES IDX 13 1 14 2 15 3 16 4 17 5 18 6 19 7 20 8 21 9 22 10 23 11
REMARK SMILES IDX 24 12 25 13 26 14 12 15 11 16 10 17 9 18 8 19 7 20 6 21 5 22
REMARK SMILES IDX 4 23 3 24 2 25 1 26
REMARK H PARENT
REMARK Flexibility Score: inf
ROOT
ATOM      1  C   UNL     1      10.759  10.285 -18.946  1.00  0.00     0.000 C 
ENDROOT
BRANCH   1   2
ATOM      2  C   UNL     1      10.746  11.596 -19.758  1.00  0.00     0.000 C 
BRANCH   2   3
ATOM      3  C   UNL     1       9.699  12.634 -19.309  1.00  0.00     0.000 C 
BRANCH   3   4
ATOM      4  C   UNL     1       8.960  13.352 -20.456  1.00  0.00     0.000 C 
BRANCH   4   5
ATOM      5  C   UNL     1       8.740  14.861 -20.244  1.00  0.00     0.000 C 
BRANCH   5   6
ATOM      6  C   UNL     1       7.431  15.366 -20.868  1.00  0.00     0.000 C 
BRANCH   6   7
ATOM      7  C   UNL     1       6.668  14.220 -21.549  1.00  0.00     0.000 C 
BRANCH   7   8
ATOM      8  C   UNL     1       5.296  14.663 -22.085  1.00  0.00     0.000 C 
BRANCH   8   9
ATOM      9  C   UNL     1       4.530  13.512 -22.760  1.00  0.00     0.000 C 
BRANCH   9  10
ATOM     10  C   UNL     1       3.042  13.493 -22.374  1.00  0.00     0.006 C 
BRANCH  10  11
ATOM     11  C   UNL     1       2.771  14.207 -21.044  1.00  0.00     0.053 C 
BRANCH  11  12
ATOM     12  C   UNL     1       1.566  13.627 -20.373  1.00  0.00     0.041 C 
ATOM     13  O   UNL     1       1.687  12.645 -19.594  1.00  0.00    -0.550 OA
ATOM     14  O   UNL     1       0.316  14.200 -20.571  1.00  0.00    -0.550 OA
ENDBRANCH  11  12
ENDBRANCH  10  11
ENDBRANCH   9  10
ENDBRANCH   8   9
ENDBRANCH   7   8
ENDBRANCH   6   7
ENDBRANCH   5   6
ENDBRANCH   4   5
ENDBRANCH   3   4
ENDBRANCH   2   3
ENDBRANCH   1   2
BRANCH   1  15
ATOM     15  C   UNL     1      11.548   9.125 -19.581  1.00  0.00     0.000 C 
BRANCH  15  16
ATOM     16  C   UNL     1      12.040   8.100 -18.546  1.00  0.00     0.000 C 
BRANCH  16  17
ATOM     17  C   UNL     1      13.386   7.457 -18.933  1.00  0.00     0.000 C 
BRANCH  17  18
ATOM     18  C   UNL     1      13.603   7.239 -20.442  1.00  0.00    -0.000 C 
BRANCH  18  19
ATOM     19  C   UNL     1      15.017   6.734 -20.777  1.00  0.00    -0.000 C 
BRANCH  19  20
ATOM     20  C   UNL     1      15.655   7.499 -21.949  1.00  0.00    -0.000 C 
BRANCH  20  21
ATOM     21  C   UNL     1      16.203   8.876 -21.532  1.00  0.00    -0.000 C 
BRANCH  21  22
ATOM     22  C   UNL     1      17.259   8.778 -20.420  1.00  0.00    -0.000 C 
BRANCH  22  23
ATOM     23  C   UNL     1      17.971  10.118 -20.160  1.00  0.00    -0.000 C 
BRANCH  23  24
ATOM     24  C   UNL     1      17.475  11.235 -21.103  1.00  0.00    -0.000 C 
BRANCH  24  25
ATOM     25  C   UNL     1      18.612  11.991 -21.811  1.00  0.00    -0.003 C 
ATOM     26  C   UNL     1      18.710  11.670 -23.300  1.00  0.00     0.004 C 
ENDBRANCH  24  25
ENDBRANCH  23  24
ENDBRANCH  22  23
ENDBRANCH  21  22
ENDBRANCH  20  21
ENDBRANCH  19  20
ENDBRANCH  18  19
ENDBRANCH  17  18
ENDBRANCH  16  17
ENDBRANCH  15  16
ENDBRANCH   1  15
TORSDOF 22
ENDMDL
MODEL 8
REMARK VINA RESULT:    -5.632      1.282      2.210
REMARK INTER + INTRA:         -14.065
REMARK INTER:                 -12.897
REMARK INTRA:                  -1.168
REMARK UNBOUND:                -1.190
REMARK SMILES CCCCCCCCCCCCCCCCCCCCCCCC(=O)[O-]
REMARK SMILES IDX 13 1 14 2 15 3 16 4 17 5 18 6 19 7 20 8 21 9 22 10 23 11
REMARK SMILES IDX 24 12 25 13 26 14 12 15 11 16 10 17 9 18 8 19 7 20 6 21 5 22
REMARK SMILES IDX 4 23 3 24 2 25 1 26
REMARK H PARENT
REMARK Flexibility Score: inf
ROOT
ATOM      1  C   UNL     1      11.330   9.323 -19.696  1.00  0.00     0.000 C 
ENDROOT
BRANCH   1   2
ATOM      2  C   UNL     1      12.265   8.278 -19.054  1.00  0.00     0.000 C 
BRANCH   2   3
ATOM      3  C   UNL     1      12.880   7.260 -20.035  1.00  0.00     0.000 C 
BRANCH   3   4
ATOM      4  C   UNL     1      14.420   7.285 -20.118  1.00  0.00     0.000 C 
BRANCH   4   5
ATOM      5  C   UNL     1      14.992   7.908 -21.405  1.00  0.00     0.000 C 
BRANCH   5   6
ATOM      6  C   UNL     1      16.468   8.308 -21.270  1.00  0.00     0.000 C 
BRANCH   6   7
ATOM      7  C   UNL     1      16.903   8.314 -19.797  1.00  0.00     0.000 C 
BRANCH   7   8
ATOM      8  C   UNL     1      17.600   9.624 -19.394  1.00  0.00     0.000 C 
BRANCH   8   9
ATOM      9  C   UNL     1      18.829   9.929 -20.268  1.00  0.00     0.000 C 
BRANCH   9  10
ATOM     10  C   UNL     1      18.587  11.102 -21.232  1.00  0.00     0.006 C 
BRANCH  10  11
ATOM     11  C   UNL     1      17.382  11.958 -20.823  1.00  0.00     0.053 C 
BRANCH  11  12
ATOM     12  C   UNL     1      17.821  13.107 -19.970  1.00  0.00     0.041 C 
ATOM     13  O   UNL     1      16.966  13.842 -19.409  1.00  0.00    -0.550 OA
ATOM     14  O   UNL     1      19.175  13.337 -19.757  1.00  0.00    -0.550 OA
ENDBRANCH  11  12
ENDBRANCH  10  11
ENDBRANCH   9  10
ENDBRANCH   8   9
ENDBRANCH   7   8
ENDBRANCH   6   7
ENDBRANCH   5   6
ENDBRANCH   4   5
ENDBRANCH   3   4
ENDBRANCH   2   3
ENDBRANCH   1   2
BRANCH   1  15
ATOM     15  C   UNL     1      10.783  10.394 -18.736  1.00  0.00     0.000 C 
BRANCH  15  16
ATOM     16  C   UNL     1      10.672  11.782 -19.389  1.00  0.00     0.000 C 
BRANCH  16  17
ATOM     17  C   UNL     1       9.383  11.954 -20.217  1.00  0.00     0.000 C 
BRANCH  17  18
ATOM     18  C   UNL     1       8.873  13.401 -20.348  1.00  0.00    -0.000 C 
BRANCH  18  19
ATOM     19  C   UNL     1       7.575  13.506 -21.167  1.00  0.00    -0.000 C 
BRANCH  19  20
ATOM     20  C   UNL     1       7.074  14.955 -21.297  1.00  0.00    -0.000 C 
BRANCH  20  21
ATOM     21  C   UNL     1       5.562  15.039 -21.571  1.00  0.00    -0.000 C 
BRANCH  21  22
ATOM     22  C   UNL     1       5.121  14.128 -22.728  1.00  0.00    -0.000 C 
BRANCH  22  23
ATOM     23  C   UNL     1       3.944  13.213 -22.346  1.00  0.00    -0.000 C 
BRANCH  23  24
ATOM     24  C   UNL     1       2.781  13.997 -21.700  1.00  0.00    -0.000 C 
BRANCH  24  25
ATOM     25  C   UNL     1       2.078  13.231 -20.567  1.00  0.00    -0.003 C 
ATOM     26  C   UNL     1       1.799  14.096 -19.341  1.00  0.00     0.004 C 
ENDBRANCH  24  25
ENDBRANCH  23  24
ENDBRANCH  22  23
ENDBRANCH  21  22
ENDBRANCH  20  21
ENDBRANCH  19  20
ENDBRANCH  18  19
ENDBRANCH  17  18
ENDBRANCH  16  17
ENDBRANCH  15  16
ENDBRANCH   1  15
TORSDOF 22
ENDMDL
MODEL 9
REMARK VINA RESULT:    -5.552      3.462      9.350
REMARK INTER + INTRA:         -13.884
REMARK INTER:                 -11.923
REMARK INTRA:                  -1.960
REMARK UNBOUND:                -1.190
REMARK SMILES CCCCCCCCCCCCCCCCCCCCCCCC(=O)[O-]
REMARK SMILES IDX 13 1 14 2 15 3 16 4 17 5 18 6 19 7 20 8 21 9 22 10 23 11
REMARK SMILES IDX 24 12 25 13 26 14 12 15 11 16 10 17 9 18 8 19 7 20 6 21 5 22
REMARK SMILES IDX 4 23 3 24 2 25 1 26
REMARK H PARENT
REMARK Flexibility Score: inf
ROOT
ATOM      1  C   UNL     1      15.414   7.488 -21.846  1.00  0.00     0.000 C 
ENDROOT
BRANCH   1   2
ATOM      2  C   UNL     1      14.597   6.635 -20.854  1.00  0.00     0.000 C 
BRANCH   2   3
ATOM      3  C   UNL     1      13.286   7.281 -20.362  1.00  0.00     0.000 C 
BRANCH   3   4
ATOM      4  C   UNL     1      13.208   7.517 -18.840  1.00  0.00     0.000 C 
BRANCH   4   5
ATOM      5  C   UNL     1      12.077   8.455 -18.384  1.00  0.00     0.000 C 
BRANCH   5   6
ATOM      6  C   UNL     1      11.531   9.330 -19.522  1.00  0.00     0.000 C 
BRANCH   6   7
ATOM      7  C   UNL     1      10.753  10.532 -18.966  1.00  0.00     0.000 C 
BRANCH   7   8
ATOM      8  C   UNL     1      10.232  11.460 -20.076  1.00  0.00     0.000 C 
BRANCH   8   9
ATOM      9  C   UNL     1       9.562  12.728 -19.516  1.00  0.00     0.000 C 
BRANCH   9  10
ATOM     10  C   UNL     1      10.026  13.054 -18.087  1.00  0.00     0.006 C 
BRANCH  10  11
ATOM     11  C   UNL     1       9.583  14.450 -17.631  1.00  0.00     0.053 C 
BRANCH  11  12
ATOM     12  C   UNL     1       9.931  14.665 -16.192  1.00  0.00     0.041 C 
ATOM     13  O   UNL     1       9.678  15.767 -15.638  1.00  0.00    -0.550 OA
ATOM     14  O   UNL     1      10.491  13.633 -15.449  1.00  0.00    -0.550 OA
ENDBRANCH  11  12
ENDBRANCH  10  11
ENDBRANCH   9  10
ENDBRANCH   8   9
ENDBRANCH   7   8
ENDBRANCH   6   7
ENDBRANCH   5   6
ENDBRANCH   4   5
ENDBRANCH   3   4
ENDBRANCH   2   3
ENDBRANCH   1   2
BRANCH   1  15
ATOM     15  C   UNL     1      16.302   8.571 -21.207  1.00  0.00     0.000 C 
BRANCH  15  16
ATOM     16  C   UNL     1      16.690   8.244 -19.755  1.00  0.00     0.000 C 
BRANCH  16  17
ATOM     17  C   UNL     1      17.656   9.279 -19.145  1.00  0.00     0.000 C 
BRANCH  17  18
ATOM     18  C   UNL     1      19.145   8.891 -19.182  1.00  0.00    -0.000 C 
BRANCH  18  19
ATOM     19  C   UNL     1      19.848   9.333 -20.477  1.00  0.00    -0.000 C 
BRANCH  19  20
ATOM     20  C   UNL     1      19.753  10.850 -20.713  1.00  0.00    -0.000 C 
BRANCH  20  21
ATOM     21  C   UNL     1      18.822  11.212 -21.885  1.00  0.00    -0.000 C 
BRANCH  21  22
ATOM     22  C   UNL     1      17.743  12.232 -21.487  1.00  0.00    -0.000 C 
BRANCH  22  23
ATOM     23  C   UNL     1      18.038  12.910 -20.137  1.00  0.00    -0.000 C 
BRANCH  23  24
ATOM     24  C   UNL     1      17.628  14.399 -20.130  1.00  0.00    -0.000 C 
BRANCH  24  25
ATOM     25  C   UNL     1      18.609  15.302 -19.364  1.00  0.00    -0.003 C 
ATOM     26  C   UNL     1      19.969  14.650 -19.133  1.00  0.00     0.004 C 
ENDBRANCH  24  25
ENDBRANCH  23  24
ENDBRANCH  22  23
ENDBRANCH  21  22
ENDBRANCH  20  21
ENDBRANCH  19  20
ENDBRANCH  18  19
ENDBRANCH  17  18
ENDBRANCH  16  17
ENDBRANCH  15  16
ENDBRANCH   1  15
TORSDOF 22
ENDMDL
