MODEL 1
REMARK VINA RESULT:    -0.698      0.000      0.000
REMARK INTER + INTRA:          -0.768
REMARK INTER:                  -0.943
REMARK INTRA:                   0.175
REMARK UNBOUND:                 0.175
REMARK SMILES CC(=O)CCC=C(C)CCC=C(C)C
REMARK SMILES IDX 7 1 6 2 8 3 9 4 10 5 11 6 13 7 12 8 14 9 5 10 4 11 2 12 3 13
REMARK SMILES IDX 1 14
REMARK H PARENT
REMARK Flexibility Score: inf
ROOT
ATOM      1  C   UNL     1      33.376  22.837  26.957  1.00  0.00    -0.077 C 
ATOM      2  C   UNL     1      34.726  22.851  26.909  1.00  0.00    -0.028 C 
ATOM      3  C   UNL     1      32.577  24.119  26.989  1.00  0.00     0.039 C 
ENDROOT
BRANCH   1   4
ATOM      4  C   UNL     1      32.649  21.509  26.988  1.00  0.00     0.034 C 
BRANCH   4   5
ATOM      5  C   UNL     1      31.379  21.602  27.839  1.00  0.00     0.032 C 
BRANCH   5   6
ATOM      6  C   UNL     1      31.614  22.413  29.090  1.00  0.00    -0.028 C 
ATOM      7  C   UNL     1      31.077  24.092  30.805  1.00  0.00     0.039 C 
ATOM      8  C   UNL     1      30.742  23.338  29.544  1.00  0.00    -0.080 C 
ATOM      9  C   UNL     1      29.450  23.627  28.818  1.00  0.00     0.039 C 
ENDBRANCH   5   6
ENDBRANCH   4   5
ENDBRANCH   1   4
BRANCH   2  10
ATOM     10  C   UNL     1      35.537  24.124  26.875  1.00  0.00     0.035 C 
BRANCH  10  11
ATOM     11  C   UNL     1      36.775  24.017  27.770  1.00  0.00     0.079 C 
BRANCH  11  12
ATOM     12  C   UNL     1      36.428  23.374  29.087  1.00  0.00     0.130 C 
ATOM     13  O   UNL     1      37.108  22.449  29.502  1.00  0.00    -0.300 OA
ATOM     14  C   UNL     1      35.256  23.839  29.899  1.00  0.00     0.087 C 
ENDBRANCH  11  12
ENDBRANCH  10  11
ENDBRANCH   2  10
TORSDOF 6
ENDMDL
