MODEL 1
REMARK VINA RESULT:     2.537      0.000      0.000
REMARK INTER + INTRA:           3.566
REMARK INTER:                   2.760
REMARK INTRA:                   0.806
REMARK UNBOUND:                 0.806
REMARK SMILES CC(=O)[C@@H]1CC[C@H]2[C@@H]3CC=C4C[C@@H](O)CC[C@@]4(C)[C@H]3CC[C@@]12C
REMARK SMILES IDX 4 1 5 2 6 3 7 4 22 5 21 6 20 7 19 8 8 9 9 10 10 11 11 12
REMARK SMILES IDX 17 13 16 14 15 15 13 16 12 17 18 18 23 19 2 20 1 21 3 22
REMARK SMILES IDX 14 23
REMARK H PARENT 14 24
REMARK Flexibility Score: inf
ROOT
ATOM      1  C   UNL     1      11.960 -32.730  14.064  1.00  0.00     0.062 C 
ATOM      2  C   UNL     1      12.277 -33.769  12.993  1.00  0.00     0.012 C 
ATOM      3  C   UNL     1      11.103 -34.731  13.041  1.00  0.00     0.005 C 
ATOM      4  C   UNL     1       9.879 -33.926  13.533  1.00  0.00    -0.001 C 
ATOM      5  C   UNL     1      10.424 -32.524  13.969  1.00  0.00    -0.020 C 
ATOM      6  C   UNL     1       9.850 -32.062  15.339  1.00  0.00     0.008 C 
ATOM      7  C   UNL     1       8.341 -32.307  15.433  1.00  0.00     0.005 C 
ATOM      8  C   UNL     1       7.957 -33.806  15.239  1.00  0.00     0.003 C 
ATOM      9  C   UNL     1       9.117 -34.666  14.668  1.00  0.00     0.000 C 
ATOM     10  C   UNL     1       8.513 -35.991  14.174  1.00  0.00     0.031 C 
ATOM     11  C   UNL     1       7.758 -36.679  15.272  1.00  0.00    -0.027 C 
ATOM     12  C   UNL     1       7.177 -36.020  16.303  1.00  0.00    -0.065 C 
ATOM     13  C   UNL     1       7.297 -34.497  16.499  1.00  0.00    -0.008 C 
ATOM     14  C   UNL     1       8.140 -34.270  17.798  1.00  0.00     0.014 C 
ATOM     15  C   UNL     1       7.647 -35.087  19.014  1.00  0.00     0.033 C 
ATOM     16  C   UNL     1       7.471 -36.590  18.718  1.00  0.00     0.118 C 
ATOM     17  C   UNL     1       6.628 -36.835  17.454  1.00  0.00     0.063 C 
ATOM     18  C   UNL     1       5.875 -33.902  16.676  1.00  0.00     0.016 C 
ATOM     19  C   UNL     1      10.071 -31.476  12.875  1.00  0.00     0.012 C 
ENDROOT
BRANCH   1  20
ATOM     20  C   UNL     1      12.786 -31.455  13.994  1.00  0.00     0.133 C 
ATOM     21  C   UNL     1      14.239 -31.406  14.375  1.00  0.00     0.088 C 
ATOM     22  O   UNL     1      12.244 -30.424  13.624  1.00  0.00    -0.300 OA
ENDBRANCH   1  20
BRANCH  16  23
ATOM     23  O   UNL     1       8.713 -37.246  18.641  1.00  0.00    -0.393 OA
ATOM     24  H   UNL     1       8.611 -38.035  18.050  1.00  0.00     0.210 HD
ENDBRANCH  16  23
TORSDOF 2
ENDMDL
