MODEL 1
REMARK VINA RESULT:    -3.440      0.000      0.000
REMARK INTER + INTRA:          -3.939
REMARK INTER:                  -3.943
REMARK INTRA:                   0.005
REMARK UNBOUND:                 0.005
REMARK SMILES CC(C)[C@@H]([NH3+])C(=O)[O-]
REMARK SMILES IDX 4 1 5 2 6 6 7 7 8 8 2 9 1 10 3 11
REMARK H PARENT 5 3 5 4 5 5
REMARK Flexibility Score: inf
ROOT
ATOM      1  C   UNL     1      29.954  46.828  25.695  1.00  0.00     0.230 C 
ENDROOT
BRANCH   1   2
ATOM      2  N   UNL     1      30.528  46.071  24.571  1.00  0.00    -0.350 N 
ATOM      3  H   UNL     1      30.971  45.181  24.895  1.00  0.00     0.345 HD
ATOM      4  H   UNL     1      31.237  46.648  24.067  1.00  0.00     0.345 HD
ATOM      5  H   UNL     1      29.771  45.834  23.889  1.00  0.00     0.345 HD
ENDBRANCH   1   2
BRANCH   1   6
ATOM      6  C   UNL     1      28.766  47.644  25.247  1.00  0.00     0.099 C 
ATOM      7  O   UNL     1      28.600  48.824  25.658  1.00  0.00    -0.544 OA
ATOM      8  O   UNL     1      27.869  47.108  24.332  1.00  0.00    -0.544 OA
ENDBRANCH   1   6
BRANCH   1   9
ATOM      9  C   UNL     1      29.581  45.927  26.912  1.00  0.00     0.047 C 
ATOM     10  C   UNL     1      30.595  44.801  27.179  1.00  0.00     0.014 C 
ATOM     11  C   UNL     1      29.361  46.753  28.188  1.00  0.00     0.014 C 
ENDBRANCH   1   9
TORSDOF 3
ENDMDL
MODEL 2
REMARK VINA RESULT:    -3.425      2.500      3.136
REMARK INTER + INTRA:          -3.921
REMARK INTER:                  -3.951
REMARK INTRA:                   0.030
REMARK UNBOUND:                 0.005
REMARK SMILES CC(C)[C@@H]([NH3+])C(=O)[O-]
REMARK SMILES IDX 4 1 5 2 6 6 7 7 8 8 2 9 1 10 3 11
REMARK H PARENT 5 3 5 4 5 5
REMARK Flexibility Score: inf
ROOT
ATOM      1  C   UNL     1      28.485  48.673  25.731  1.00  0.00     0.230 C 
ENDROOT
BRANCH   1   2
ATOM      2  N   UNL     1      28.391  49.777  24.762  1.00  0.00    -0.350 N 
ATOM      3  H   UNL     1      29.289  50.309  24.701  1.00  0.00     0.345 HD
ATOM      4  H   UNL     1      27.619  50.429  25.026  1.00  0.00     0.345 HD
ATOM      5  H   UNL     1      28.170  49.391  23.816  1.00  0.00     0.345 HD
ENDBRANCH   1   2
BRANCH   1   6
ATOM      6  C   UNL     1      28.729  47.359  25.030  1.00  0.00     0.099 C 
ATOM      7  O   UNL     1      27.934  46.940  24.146  1.00  0.00    -0.544 OA
ATOM      8  O   UNL     1      29.868  46.622  25.326  1.00  0.00    -0.544 OA
ENDBRANCH   1   6
BRANCH   1   9
ATOM      9  C   UNL     1      29.555  48.919  26.837  1.00  0.00     0.047 C 
ATOM     10  C   UNL     1      29.836  50.408  27.104  1.00  0.00     0.014 C 
ATOM     11  C   UNL     1      29.195  48.207  28.149  1.00  0.00     0.014 C 
ENDBRANCH   1   9
TORSDOF 3
ENDMDL
MODEL 3
REMARK VINA RESULT:    -3.394     12.037     13.018
REMARK INTER + INTRA:          -3.886
REMARK INTER:                  -3.884
REMARK INTRA:                  -0.002
REMARK UNBOUND:                 0.005
REMARK SMILES CC(C)[C@@H]([NH3+])C(=O)[O-]
REMARK SMILES IDX 4 1 5 2 6 6 7 7 8 8 2 9 1 10 3 11
REMARK H PARENT 5 3 5 4 5 5
REMARK Flexibility Score: inf
ROOT
ATOM      1  C   UNL     1      31.474  59.032  24.912  1.00  0.00     0.230 C 
ENDROOT
BRANCH   1   2
ATOM      2  N   UNL     1      31.028  59.395  23.557  1.00  0.00    -0.350 N 
ATOM      3  H   UNL     1      31.488  58.800  22.831  1.00  0.00     0.345 HD
ATOM      4  H   UNL     1      31.232  60.400  23.362  1.00  0.00     0.345 HD
ATOM      5  H   UNL     1      29.992  59.263  23.486  1.00  0.00     0.345 HD
ENDBRANCH   1   2
BRANCH   1   6
ATOM      6  C   UNL     1      32.507  57.933  24.864  1.00  0.00     0.099 C 
ATOM      7  O   UNL     1      32.398  56.911  25.594  1.00  0.00    -0.544 OA
ATOM      8  O   UNL     1      33.568  58.023  23.973  1.00  0.00    -0.544 OA
ENDBRANCH   1   6
BRANCH   1   9
ATOM      9  C   UNL     1      31.998  60.252  25.730  1.00  0.00     0.047 C 
ATOM     10  C   UNL     1      31.025  61.443  25.753  1.00  0.00     0.014 C 
ATOM     11  C   UNL     1      32.383  59.856  27.163  1.00  0.00     0.014 C 
ENDBRANCH   1   9
TORSDOF 3
ENDMDL
MODEL 4
REMARK VINA RESULT:    -3.380      9.559     10.733
REMARK INTER + INTRA:          -3.870
REMARK INTER:                  -3.811
REMARK INTRA:                  -0.058
REMARK UNBOUND:                 0.005
REMARK SMILES CC(C)[C@@H]([NH3+])C(=O)[O-]
REMARK SMILES IDX 4 1 5 2 6 6 7 7 8 8 2 9 1 10 3 11
REMARK H PARENT 5 3 5 4 5 5
REMARK Flexibility Score: inf
ROOT
ATOM      1  C   UNL     1      28.922  45.664  16.223  1.00  0.00     0.230 C 
ENDROOT
BRANCH   1   2
ATOM      2  N   UNL     1      28.010  44.509  16.202  1.00  0.00    -0.350 N 
ATOM      3  H   UNL     1      28.237  43.856  15.418  1.00  0.00     0.345 HD
ATOM      4  H   UNL     1      27.020  44.828  16.113  1.00  0.00     0.345 HD
ATOM      5  H   UNL     1      28.093  43.985  17.104  1.00  0.00     0.345 HD
ENDBRANCH   1   2
BRANCH   1   6
ATOM      6  C   UNL     1      30.288  45.264  16.726  1.00  0.00     0.099 C 
ATOM      7  O   UNL     1      30.630  45.490  17.918  1.00  0.00    -0.544 OA
ATOM      8  O   UNL     1      31.164  44.596  15.881  1.00  0.00    -0.544 OA
ENDBRANCH   1   6
BRANCH   1   9
ATOM      9  C   UNL     1      29.028  46.385  14.844  1.00  0.00     0.047 C 
ATOM     10  C   UNL     1      27.813  46.149  13.931  1.00  0.00     0.014 C 
ATOM     11  C   UNL     1      29.283  47.890  15.005  1.00  0.00     0.014 C 
ENDBRANCH   1   9
TORSDOF 3
ENDMDL
MODEL 5
REMARK VINA RESULT:    -3.342      6.702      7.531
REMARK INTER + INTRA:          -3.826
REMARK INTER:                  -3.750
REMARK INTRA:                  -0.076
REMARK UNBOUND:                 0.005
REMARK SMILES CC(C)[C@@H]([NH3+])C(=O)[O-]
REMARK SMILES IDX 4 1 5 2 6 6 7 7 8 8 2 9 1 10 3 11
REMARK H PARENT 5 3 5 4 5 5
REMARK Flexibility Score: inf
ROOT
ATOM      1  C   UNL     1      29.950  53.787  27.643  1.00  0.00     0.230 C 
ENDROOT
BRANCH   1   2
ATOM      2  N   UNL     1      28.860  54.577  27.050  1.00  0.00    -0.350 N 
ATOM      3  H   UNL     1      27.985  54.509  27.619  1.00  0.00     0.345 HD
ATOM      4  H   UNL     1      28.665  54.256  26.076  1.00  0.00     0.345 HD
ATOM      5  H   UNL     1      29.146  55.582  27.001  1.00  0.00     0.345 HD
ENDBRANCH   1   2
BRANCH   1   6
ATOM      6  C   UNL     1      29.634  52.312  27.601  1.00  0.00     0.099 C 
ATOM      7  O   UNL     1      29.504  51.709  26.502  1.00  0.00    -0.544 OA
ATOM      8  O   UNL     1      29.531  51.596  28.787  1.00  0.00    -0.544 OA
ENDBRANCH   1   6
BRANCH   1   9
ATOM      9  C   UNL     1      31.338  54.076  26.994  1.00  0.00     0.047 C 
ATOM     10  C   UNL     1      31.688  55.572  26.927  1.00  0.00     0.014 C 
ATOM     11  C   UNL     1      32.467  53.300  27.689  1.00  0.00     0.014 C 
ENDBRANCH   1   9
TORSDOF 3
ENDMDL
MODEL 6
REMARK VINA RESULT:    -3.333     10.645     11.548
REMARK INTER + INTRA:          -3.816
REMARK INTER:                  -3.750
REMARK INTRA:                  -0.066
REMARK UNBOUND:                 0.005
REMARK SMILES CC(C)[C@@H]([NH3+])C(=O)[O-]
REMARK SMILES IDX 4 1 5 2 6 6 7 7 8 8 2 9 1 10 3 11
REMARK H PARENT 5 3 5 4 5 5
REMARK Flexibility Score: inf
ROOT
ATOM      1  C   UNL     1      28.615  44.559  14.666  1.00  0.00     0.230 C 
ENDROOT
BRANCH   1   2
ATOM      2  N   UNL     1      27.551  43.676  15.168  1.00  0.00    -0.350 N 
ATOM      3  H   UNL     1      27.310  43.893  16.162  1.00  0.00     0.345 HD
ATOM      4  H   UNL     1      27.840  42.675  15.092  1.00  0.00     0.345 HD
ATOM      5  H   UNL     1      26.691  43.801  14.585  1.00  0.00     0.345 HD
ENDBRANCH   1   2
BRANCH   1   6
ATOM      6  C   UNL     1      29.096  45.495  15.748  1.00  0.00     0.099 C 
ATOM      7  O   UNL     1      28.669  45.391  16.929  1.00  0.00    -0.544 OA
ATOM      8  O   UNL     1      30.056  46.454  15.451  1.00  0.00    -0.544 OA
ENDBRANCH   1   6
BRANCH   1   9
ATOM      9  C   UNL     1      29.810  43.780  14.036  1.00  0.00     0.047 C 
ATOM     10  C   UNL     1      30.680  43.044  15.069  1.00  0.00     0.014 C 
ATOM     11  C   UNL     1      29.343  42.802  12.947  1.00  0.00     0.014 C 
ENDBRANCH   1   9
TORSDOF 3
ENDMDL
MODEL 7
REMARK VINA RESULT:    -3.333     15.625     16.144
REMARK INTER + INTRA:          -3.815
REMARK INTER:                  -3.737
REMARK INTRA:                  -0.078
REMARK UNBOUND:                 0.005
REMARK SMILES CC(C)[C@@H]([NH3+])C(=O)[O-]
REMARK SMILES IDX 4 1 5 2 6 6 7 7 8 8 2 9 1 10 3 11
REMARK H PARENT 5 3 5 4 5 5
REMARK Flexibility Score: inf
ROOT
ATOM      1  C   UNL     1      32.134  58.783  15.131  1.00  0.00     0.230 C 
ENDROOT
BRANCH   1   2
ATOM      2  N   UNL     1      33.525  58.984  15.568  1.00  0.00    -0.350 N 
ATOM      3  H   UNL     1      33.956  59.815  15.104  1.00  0.00     0.345 HD
ATOM      4  H   UNL     1      34.098  58.136  15.361  1.00  0.00     0.345 HD
ATOM      5  H   UNL     1      33.546  59.134  16.603  1.00  0.00     0.345 HD
ENDBRANCH   1   2
BRANCH   1   6
ATOM      6  C   UNL     1      32.015  57.562  14.252  1.00  0.00     0.099 C 
ATOM      7  O   UNL     1      31.793  57.675  13.017  1.00  0.00    -0.544 OA
ATOM      8  O   UNL     1      32.199  56.299  14.800  1.00  0.00    -0.544 OA
ENDBRANCH   1   6
BRANCH   1   9
ATOM      9  C   UNL     1      31.125  58.714  16.317  1.00  0.00     0.047 C 
ATOM     10  C   UNL     1      31.303  59.845  17.345  1.00  0.00     0.014 C 
ATOM     11  C   UNL     1      29.670  58.670  15.827  1.00  0.00     0.014 C 
ENDBRANCH   1   9
TORSDOF 3
ENDMDL
MODEL 8
REMARK VINA RESULT:    -3.313     10.736     11.547
REMARK INTER + INTRA:          -3.793
REMARK INTER:                  -3.801
REMARK INTRA:                   0.008
REMARK UNBOUND:                 0.005
REMARK SMILES CC(C)[C@@H]([NH3+])C(=O)[O-]
REMARK SMILES IDX 4 1 5 2 6 6 7 7 8 8 2 9 1 10 3 11
REMARK H PARENT 5 3 5 4 5 5
REMARK Flexibility Score: inf
ROOT
ATOM      1  C   UNL     1      28.438  44.975  15.548  1.00  0.00     0.230 C 
ENDROOT
BRANCH   1   2
ATOM      2  N   UNL     1      27.778  43.754  15.059  1.00  0.00    -0.350 N 
ATOM      3  H   UNL     1      27.747  43.014  15.797  1.00  0.00     0.345 HD
ATOM      4  H   UNL     1      28.272  43.384  14.217  1.00  0.00     0.345 HD
ATOM      5  H   UNL     1      26.796  43.980  14.776  1.00  0.00     0.345 HD
ENDBRANCH   1   2
BRANCH   1   6
ATOM      6  C   UNL     1      29.940  44.845  15.471  1.00  0.00     0.099 C 
ATOM      7  O   UNL     1      30.658  45.031  16.490  1.00  0.00    -0.544 OA
ATOM      8  O   UNL     1      30.538  44.468  14.276  1.00  0.00    -0.544 OA
ENDBRANCH   1   6
BRANCH   1   9
ATOM      9  C   UNL     1      27.955  46.265  14.819  1.00  0.00     0.047 C 
ATOM     10  C   UNL     1      28.912  47.459  14.979  1.00  0.00     0.014 C 
ATOM     11  C   UNL     1      27.675  46.010  13.330  1.00  0.00     0.014 C 
ENDBRANCH   1   9
TORSDOF 3
ENDMDL
MODEL 9
REMARK VINA RESULT:    -3.272     15.322     16.184
REMARK INTER + INTRA:          -3.745
REMARK INTER:                  -3.695
REMARK INTRA:                  -0.050
REMARK UNBOUND:                 0.005
REMARK SMILES CC(C)[C@@H]([NH3+])C(=O)[O-]
REMARK SMILES IDX 4 1 5 2 6 6 7 7 8 8 2 9 1 10 3 11
REMARK H PARENT 5 3 5 4 5 5
REMARK Flexibility Score: inf
ROOT
ATOM      1  C   UNL     1      32.457  58.167  15.548  1.00  0.00     0.230 C 
ENDROOT
BRANCH   1   2
ATOM      2  N   UNL     1      33.642  59.040  15.541  1.00  0.00    -0.350 N 
ATOM      3  H   UNL     1      34.343  58.727  14.832  1.00  0.00     0.345 HD
ATOM      4  H   UNL     1      34.088  59.058  16.485  1.00  0.00     0.345 HD
ATOM      5  H   UNL     1      33.351  60.018  15.310  1.00  0.00     0.345 HD
ENDBRANCH   1   2
BRANCH   1   6
ATOM      6  C   UNL     1      31.216  58.943  15.918  1.00  0.00     0.099 C 
ATOM      7  O   UNL     1      30.791  58.954  17.104  1.00  0.00    -0.544 OA
ATOM      8  O   UNL     1      30.561  59.693  14.951  1.00  0.00    -0.544 OA
ENDBRANCH   1   6
BRANCH   1   9
ATOM      9  C   UNL     1      32.253  57.401  14.205  1.00  0.00     0.047 C 
ATOM     10  C   UNL     1      33.458  57.496  13.252  1.00  0.00     0.014 C 
ATOM     11  C   UNL     1      31.879  55.930  14.437  1.00  0.00     0.014 C 
ENDBRANCH   1   9
TORSDOF 3
ENDMDL
