MODEL 1
REMARK VINA RESULT:    -4.341      0.000      0.000
REMARK INTER + INTRA:         -10.272
REMARK INTER:                  -8.148
REMARK INTRA:                  -2.124
REMARK UNBOUND:                -2.124
REMARK SMILES O=C([O-])CCCCCCCCCCCCCCC(=O)[O-]
REMARK SMILES IDX 10 1 9 2 8 3 7 4 6 5 5 6 4 7 2 8 1 9 3 10 11 11 12 12 13 13
REMARK SMILES IDX 14 14 15 15 16 16 17 17 18 18 19 19 20 20
REMARK H PARENT
REMARK Flexibility Score: inf
ROOT
ATOM      1  C   UNL     1      -1.538  26.091  56.691  1.00  0.00     0.000 C 
ENDROOT
BRANCH   1   2
ATOM      2  C   UNL     1      -1.488  27.466  57.387  1.00  0.00     0.000 C 
BRANCH   2   3
ATOM      3  C   UNL     1      -2.213  27.543  58.746  1.00  0.00     0.000 C 
BRANCH   3   4
ATOM      4  C   UNL     1      -3.742  27.371  58.682  1.00  0.00     0.000 C 
BRANCH   4   5
ATOM      5  C   UNL     1      -4.204  25.979  59.146  1.00  0.00     0.000 C 
BRANCH   5   6
ATOM      6  C   UNL     1      -4.947  25.202  58.043  1.00  0.00     0.006 C 
BRANCH   6   7
ATOM      7  C   UNL     1      -6.346  24.707  58.445  1.00  0.00     0.053 C 
BRANCH   7   8
ATOM      8  C   UNL     1      -7.430  25.590  57.911  1.00  0.00     0.041 C 
ATOM      9  O   UNL     1      -7.420  26.826  58.155  1.00  0.00    -0.550 OA
ATOM     10  O   UNL     1      -8.471  25.045  57.170  1.00  0.00    -0.550 OA
ENDBRANCH   7   8
ENDBRANCH   6   7
ENDBRANCH   5   6
ENDBRANCH   4   5
ENDBRANCH   3   4
ENDBRANCH   2   3
ENDBRANCH   1   2
BRANCH   1  11
ATOM     11  C   UNL     1      -2.051  26.109  55.239  1.00  0.00     0.000 C 
BRANCH  11  12
ATOM     12  C   UNL     1      -2.855  27.377  54.907  1.00  0.00     0.000 C 
BRANCH  12  13
ATOM     13  C   UNL     1      -4.378  27.152  54.956  1.00  0.00     0.000 C 
BRANCH  13  14
ATOM     14  C   UNL     1      -5.187  28.283  55.617  1.00  0.00     0.000 C 
BRANCH  14  15
ATOM     15  C   UNL     1      -4.395  29.593  55.747  1.00  0.00     0.000 C 
BRANCH  15  16
ATOM     16  C   UNL     1      -5.215  30.659  56.489  1.00  0.00     0.006 C 
BRANCH  16  17
ATOM     17  C   UNL     1      -5.569  31.850  55.588  1.00  0.00     0.053 C 
BRANCH  17  18
ATOM     18  C   UNL     1      -6.949  31.727  55.021  1.00  0.00     0.041 C 
ATOM     19  O   UNL     1      -7.136  31.829  53.780  1.00  0.00    -0.550 OA
ATOM     20  O   UNL     1      -8.035  31.531  55.866  1.00  0.00    -0.550 OA
ENDBRANCH  17  18
ENDBRANCH  16  17
ENDBRANCH  15  16
ENDBRANCH  14  15
ENDBRANCH  13  14
ENDBRANCH  12  13
ENDBRANCH  11  12
ENDBRANCH   1  11
TORSDOF 15
ENDMDL
MODEL 2
REMARK VINA RESULT:    -4.248      1.714      2.656
REMARK INTER + INTRA:         -10.097
REMARK INTER:                  -8.505
REMARK INTRA:                  -1.592
REMARK UNBOUND:                -2.124
REMARK SMILES O=C([O-])CCCCCCCCCCCCCCC(=O)[O-]
REMARK SMILES IDX 10 1 9 2 8 3 7 4 6 5 5 6 4 7 2 8 1 9 3 10 11 11 12 12 13 13
REMARK SMILES IDX 14 14 15 15 16 16 17 17 18 18 19 19 20 20
REMARK H PARENT
REMARK Flexibility Score: inf
ROOT
ATOM      1  C   UNL     1      -1.985  28.591  59.631  1.00  0.00     0.000 C 
ENDROOT
BRANCH   1   2
ATOM      2  C   UNL     1      -2.386  27.370  58.778  1.00  0.00     0.000 C 
BRANCH   2   3
ATOM      3  C   UNL     1      -3.619  26.592  59.279  1.00  0.00     0.000 C 
BRANCH   3   4
ATOM      4  C   UNL     1      -4.703  26.330  58.216  1.00  0.00     0.000 C 
BRANCH   4   5
ATOM      5  C   UNL     1      -4.114  25.928  56.853  1.00  0.00     0.000 C 
BRANCH   5   6
ATOM      6  C   UNL     1      -5.199  25.617  55.805  1.00  0.00     0.006 C 
BRANCH   6   7
ATOM      7  C   UNL     1      -6.640  25.717  56.332  1.00  0.00     0.053 C 
BRANCH   7   8
ATOM      8  C   UNL     1      -7.270  24.370  56.506  1.00  0.00     0.041 C 
ATOM      9  O   UNL     1      -6.759  23.528  57.290  1.00  0.00    -0.550 OA
ATOM     10  O   UNL     1      -8.403  24.032  55.777  1.00  0.00    -0.550 OA
ENDBRANCH   7   8
ENDBRANCH   6   7
ENDBRANCH   5   6
ENDBRANCH   4   5
ENDBRANCH   3   4
ENDBRANCH   2   3
ENDBRANCH   1   2
BRANCH   1  11
ATOM     11  C   UNL     1      -2.375  29.959  59.042  1.00  0.00     0.000 C 
BRANCH  11  12
ATOM     12  C   UNL     1      -1.379  30.458  57.982  1.00  0.00     0.000 C 
BRANCH  12  13
ATOM     13  C   UNL     1      -2.012  30.606  56.586  1.00  0.00     0.000 C 
BRANCH  13  14
ATOM     14  C   UNL     1      -3.551  30.651  56.565  1.00  0.00     0.000 C 
BRANCH  14  15
ATOM     15  C   UNL     1      -4.177  29.500  55.763  1.00  0.00     0.000 C 
BRANCH  15  16
ATOM     16  C   UNL     1      -5.544  29.907  55.194  1.00  0.00     0.006 C 
BRANCH  16  17
ATOM     17  C   UNL     1      -5.829  31.404  55.382  1.00  0.00     0.053 C 
BRANCH  17  18
ATOM     18  C   UNL     1      -7.262  31.737  55.101  1.00  0.00     0.041 C 
ATOM     19  O   UNL     1      -7.585  32.279  54.012  1.00  0.00    -0.550 OA
ATOM     20  O   UNL     1      -8.237  31.476  56.056  1.00  0.00    -0.550 OA
ENDBRANCH  17  18
ENDBRANCH  16  17
ENDBRANCH  15  16
ENDBRANCH  14  15
ENDBRANCH  13  14
ENDBRANCH  12  13
ENDBRANCH  11  12
ENDBRANCH   1  11
TORSDOF 15
ENDMDL
MODEL 3
REMARK VINA RESULT:    -4.245      1.396      5.250
REMARK INTER + INTRA:         -10.091
REMARK INTER:                  -8.273
REMARK INTRA:                  -1.818
REMARK UNBOUND:                -2.124
REMARK SMILES O=C([O-])CCCCCCCCCCCCCCC(=O)[O-]
REMARK SMILES IDX 10 1 9 2 8 3 7 4 6 5 5 6 4 7 2 8 1 9 3 10 11 11 12 12 13 13
REMARK SMILES IDX 14 14 15 15 16 16 17 17 18 18 19 19 20 20
REMARK H PARENT
REMARK Flexibility Score: inf
ROOT
ATOM      1  C   UNL     1      -1.758  27.375  55.720  1.00  0.00     0.000 C 
ENDROOT
BRANCH   1   2
ATOM      2  C   UNL     1      -2.108  28.838  56.061  1.00  0.00     0.000 C 
BRANCH   2   3
ATOM      3  C   UNL     1      -2.915  29.036  57.360  1.00  0.00     0.000 C 
BRANCH   3   4
ATOM      4  C   UNL     1      -4.408  29.357  57.160  1.00  0.00     0.000 C 
BRANCH   4   5
ATOM      5  C   UNL     1      -4.898  29.043  55.736  1.00  0.00     0.000 C 
BRANCH   5   6
ATOM      6  C   UNL     1      -5.268  30.309  54.942  1.00  0.00     0.006 C 
BRANCH   6   7
ATOM      7  C   UNL     1      -5.798  31.468  55.802  1.00  0.00     0.053 C 
BRANCH   7   8
ATOM      8  C   UNL     1      -7.294  31.495  55.851  1.00  0.00     0.041 C 
ATOM      9  O   UNL     1      -7.892  31.499  56.959  1.00  0.00    -0.550 OA
ATOM     10  O   UNL     1      -8.029  31.482  54.673  1.00  0.00    -0.550 OA
ENDBRANCH   7   8
ENDBRANCH   6   7
ENDBRANCH   5   6
ENDBRANCH   4   5
ENDBRANCH   3   4
ENDBRANCH   2   3
ENDBRANCH   1   2
BRANCH   1  11
ATOM     11  C   UNL     1      -1.427  26.481  56.929  1.00  0.00     0.000 C 
BRANCH  11  12
ATOM     12  C   UNL     1      -2.271  25.196  56.969  1.00  0.00     0.000 C 
BRANCH  12  13
ATOM     13  C   UNL     1      -3.737  25.453  57.365  1.00  0.00     0.000 C 
BRANCH  13  14
ATOM     14  C   UNL     1      -3.988  25.627  58.874  1.00  0.00     0.000 C 
BRANCH  14  15
ATOM     15  C   UNL     1      -5.349  26.265  59.188  1.00  0.00     0.000 C 
BRANCH  15  16
ATOM     16  C   UNL     1      -6.485  25.244  59.027  1.00  0.00     0.006 C 
BRANCH  16  17
ATOM     17  C   UNL     1      -7.510  25.678  57.970  1.00  0.00     0.053 C 
BRANCH  17  18
ATOM     18  C   UNL     1      -7.376  24.886  56.707  1.00  0.00     0.041 C 
ATOM     19  O   UNL     1      -7.421  23.628  56.740  1.00  0.00    -0.550 OA
ATOM     20  O   UNL     1      -7.169  25.535  55.496  1.00  0.00    -0.550 OA
ENDBRANCH  17  18
ENDBRANCH  16  17
ENDBRANCH  15  16
ENDBRANCH  14  15
ENDBRANCH  13  14
ENDBRANCH  12  13
ENDBRANCH  11  12
ENDBRANCH   1  11
TORSDOF 15
ENDMDL
MODEL 4
REMARK VINA RESULT:    -4.224      1.988      3.101
REMARK INTER + INTRA:         -10.053
REMARK INTER:                  -8.537
REMARK INTRA:                  -1.515
REMARK UNBOUND:                -2.124
REMARK SMILES O=C([O-])CCCCCCCCCCCCCCC(=O)[O-]
REMARK SMILES IDX 10 1 9 2 8 3 7 4 6 5 5 6 4 7 2 8 1 9 3 10 11 11 12 12 13 13
REMARK SMILES IDX 14 14 15 15 16 16 17 17 18 18 19 19 20 20
REMARK H PARENT
REMARK Flexibility Score: inf
ROOT
ATOM      1  C   UNL     1      -3.567  25.192  56.101  1.00  0.00     0.000 C 
ENDROOT
BRANCH   1   2
ATOM      2  C   UNL     1      -4.326  24.643  57.326  1.00  0.00     0.000 C 
BRANCH   2   3
ATOM      3  C   UNL     1      -5.718  24.052  57.027  1.00  0.00     0.000 C 
BRANCH   3   4
ATOM      4  C   UNL     1      -6.741  24.178  58.172  1.00  0.00     0.000 C 
BRANCH   4   5
ATOM      5  C   UNL     1      -7.688  25.377  57.994  1.00  0.00     0.000 C 
BRANCH   5   6
ATOM      6  C   UNL     1      -7.834  26.215  59.278  1.00  0.00     0.006 C 
BRANCH   6   7
ATOM      7  C   UNL     1      -6.657  26.086  60.259  1.00  0.00     0.053 C 
BRANCH   7   8
ATOM      8  C   UNL     1      -7.095  26.221  61.684  1.00  0.00     0.041 C 
ATOM      9  O   UNL     1      -8.154  25.664  62.077  1.00  0.00    -0.550 OA
ATOM     10  O   UNL     1      -6.351  26.989  62.571  1.00  0.00    -0.550 OA
ENDBRANCH   7   8
ENDBRANCH   6   7
ENDBRANCH   5   6
ENDBRANCH   4   5
ENDBRANCH   3   4
ENDBRANCH   2   3
ENDBRANCH   1   2
BRANCH   1  11
ATOM     11  C   UNL     1      -3.379  26.720  56.077  1.00  0.00     0.000 C 
BRANCH  11  12
ATOM     12  C   UNL     1      -3.779  27.391  57.402  1.00  0.00     0.000 C 
BRANCH  12  13
ATOM     13  C   UNL     1      -5.179  28.030  57.353  1.00  0.00     0.000 C 
BRANCH  13  14
ATOM     14  C   UNL     1      -5.367  29.115  56.276  1.00  0.00     0.000 C 
BRANCH  14  15
ATOM     15  C   UNL     1      -4.732  30.460  56.659  1.00  0.00     0.000 C 
BRANCH  15  16
ATOM     16  C   UNL     1      -4.946  31.503  55.552  1.00  0.00     0.006 C 
BRANCH  16  17
ATOM     17  C   UNL     1      -6.015  31.066  54.541  1.00  0.00     0.053 C 
BRANCH  17  18
ATOM     18  C   UNL     1      -7.279  31.853  54.693  1.00  0.00     0.041 C 
ATOM     19  O   UNL     1      -7.628  32.670  53.800  1.00  0.00    -0.550 OA
ATOM     20  O   UNL     1      -8.056  31.710  55.836  1.00  0.00    -0.550 OA
ENDBRANCH  17  18
ENDBRANCH  16  17
ENDBRANCH  15  16
ENDBRANCH  14  15
ENDBRANCH  13  14
ENDBRANCH  12  13
ENDBRANCH  11  12
ENDBRANCH   1  11
TORSDOF 15
ENDMDL
MODEL 5
REMARK VINA RESULT:    -4.183      1.293      1.807
REMARK INTER + INTRA:          -9.976
REMARK INTER:                  -8.092
REMARK INTRA:                  -1.884
REMARK UNBOUND:                -2.124
REMARK SMILES O=C([O-])CCCCCCCCCCCCCCC(=O)[O-]
REMARK SMILES IDX 10 1 9 2 8 3 7 4 6 5 5 6 4 7 2 8 1 9 3 10 11 11 12 12 13 13
REMARK SMILES IDX 14 14 15 15 16 16 17 17 18 18 19 19 20 20
REMARK H PARENT
REMARK Flexibility Score: inf
ROOT
ATOM      1  C   UNL     1      -1.473  27.388  57.527  1.00  0.00     0.000 C 
ENDROOT
BRANCH   1   2
ATOM      2  C   UNL     1      -2.741  26.693  58.062  1.00  0.00     0.000 C 
BRANCH   2   3
ATOM      3  C   UNL     1      -3.985  27.596  58.186  1.00  0.00     0.000 C 
BRANCH   3   4
ATOM      4  C   UNL     1      -5.164  27.214  57.270  1.00  0.00     0.000 C 
BRANCH   4   5
ATOM      5  C   UNL     1      -4.758  26.233  56.157  1.00  0.00     0.000 C 
BRANCH   5   6
ATOM      6  C   UNL     1      -5.389  24.839  56.335  1.00  0.00     0.006 C 
BRANCH   6   7
ATOM      7  C   UNL     1      -6.322  24.713  57.550  1.00  0.00     0.053 C 
BRANCH   7   8
ATOM      8  C   UNL     1      -7.763  24.654  57.150  1.00  0.00     0.041 C 
ATOM      9  O   UNL     1      -8.597  25.446  57.663  1.00  0.00    -0.550 OA
ATOM     10  O   UNL     1      -8.193  23.702  56.233  1.00  0.00    -0.550 OA
ENDBRANCH   7   8
ENDBRANCH   6   7
ENDBRANCH   5   6
ENDBRANCH   4   5
ENDBRANCH   3   4
ENDBRANCH   2   3
ENDBRANCH   1   2
BRANCH   1  11
ATOM     11  C   UNL     1      -1.188  27.168  56.030  1.00  0.00     0.000 C 
BRANCH  11  12
ATOM     12  C   UNL     1      -1.451  28.424  55.182  1.00  0.00     0.000 C 
BRANCH  12  13
ATOM     13  C   UNL     1      -1.954  29.617  56.015  1.00  0.00     0.000 C 
BRANCH  13  14
ATOM     14  C   UNL     1      -3.220  30.307  55.473  1.00  0.00     0.000 C 
BRANCH  14  15
ATOM     15  C   UNL     1      -4.035  31.015  56.566  1.00  0.00     0.000 C 
BRANCH  15  16
ATOM     16  C   UNL     1      -5.541  30.909  56.284  1.00  0.00     0.006 C 
BRANCH  16  17
ATOM     17  C   UNL     1      -5.897  31.357  54.859  1.00  0.00     0.053 C 
BRANCH  17  18
ATOM     18  C   UNL     1      -7.318  31.819  54.761  1.00  0.00     0.041 C 
ATOM     19  O   UNL     1      -7.700  32.486  53.763  1.00  0.00    -0.550 OA
ATOM     20  O   UNL     1      -8.214  31.540  55.786  1.00  0.00    -0.550 OA
ENDBRANCH  17  18
ENDBRANCH  16  17
ENDBRANCH  15  16
ENDBRANCH  14  15
ENDBRANCH  13  14
ENDBRANCH  12  13
ENDBRANCH  11  12
ENDBRANCH   1  11
TORSDOF 15
ENDMDL
MODEL 6
REMARK VINA RESULT:    -4.171      1.344      1.987
REMARK INTER + INTRA:          -9.954
REMARK INTER:                  -8.274
REMARK INTRA:                  -1.680
REMARK UNBOUND:                -2.124
REMARK SMILES O=C([O-])CCCCCCCCCCCCCCC(=O)[O-]
REMARK SMILES IDX 10 1 9 2 8 3 7 4 6 5 5 6 4 7 2 8 1 9 3 10 11 11 12 12 13 13
REMARK SMILES IDX 14 14 15 15 16 16 17 17 18 18 19 19 20 20
REMARK H PARENT
REMARK Flexibility Score: inf
ROOT
ATOM      1  C   UNL     1      -2.020  28.507  56.482  1.00  0.00     0.000 C 
ENDROOT
BRANCH   1   2
ATOM      2  C   UNL     1      -1.505  27.653  57.659  1.00  0.00     0.000 C 
BRANCH   2   3
ATOM      3  C   UNL     1      -2.086  28.016  59.040  1.00  0.00     0.000 C 
BRANCH   3   4
ATOM      4  C   UNL     1      -3.416  27.324  59.392  1.00  0.00     0.000 C 
BRANCH   4   5
ATOM      5  C   UNL     1      -3.464  25.857  58.930  1.00  0.00     0.000 C 
BRANCH   5   6
ATOM      6  C   UNL     1      -4.705  25.543  58.074  1.00  0.00     0.006 C 
BRANCH   6   7
ATOM      7  C   UNL     1      -6.029  25.527  58.854  1.00  0.00     0.053 C 
BRANCH   7   8
ATOM      8  C   UNL     1      -7.142  24.916  58.061  1.00  0.00     0.041 C 
ATOM      9  O   UNL     1      -8.264  25.485  58.000  1.00  0.00    -0.550 OA
ATOM     10  O   UNL     1      -6.952  23.701  57.416  1.00  0.00    -0.550 OA
ENDBRANCH   7   8
ENDBRANCH   6   7
ENDBRANCH   5   6
ENDBRANCH   4   5
ENDBRANCH   3   4
ENDBRANCH   2   3
ENDBRANCH   1   2
BRANCH   1  11
ATOM     11  C   UNL     1      -3.162  27.875  55.666  1.00  0.00     0.000 C 
BRANCH  11  12
ATOM     12  C   UNL     1      -4.484  28.651  55.789  1.00  0.00     0.000 C 
BRANCH  12  13
ATOM     13  C   UNL     1      -4.439  29.746  56.871  1.00  0.00     0.000 C 
BRANCH  13  14
ATOM     14  C   UNL     1      -4.890  31.143  56.408  1.00  0.00     0.000 C 
BRANCH  14  15
ATOM     15  C   UNL     1      -3.992  31.733  55.309  1.00  0.00     0.000 C 
BRANCH  15  16
ATOM     16  C   UNL     1      -4.762  31.874  53.988  1.00  0.00     0.006 C 
BRANCH  16  17
ATOM     17  C   UNL     1      -5.348  33.281  53.804  1.00  0.00     0.053 C 
BRANCH  17  18
ATOM     18  C   UNL     1      -6.834  33.292  53.986  1.00  0.00     0.041 C 
ATOM     19  O   UNL     1      -7.486  32.216  53.940  1.00  0.00    -0.550 OA
ATOM     20  O   UNL     1      -7.504  34.495  54.173  1.00  0.00    -0.550 OA
ENDBRANCH  17  18
ENDBRANCH  16  17
ENDBRANCH  15  16
ENDBRANCH  14  15
ENDBRANCH  13  14
ENDBRANCH  12  13
ENDBRANCH  11  12
ENDBRANCH   1  11
TORSDOF 15
ENDMDL
MODEL 7
REMARK VINA RESULT:    -4.152      1.519      5.494
REMARK INTER + INTRA:          -9.917
REMARK INTER:                  -8.395
REMARK INTRA:                  -1.522
REMARK UNBOUND:                -2.124
REMARK SMILES O=C([O-])CCCCCCCCCCCCCCC(=O)[O-]
REMARK SMILES IDX 10 1 9 2 8 3 7 4 6 5 5 6 4 7 2 8 1 9 3 10 11 11 12 12 13 13
REMARK SMILES IDX 14 14 15 15 16 16 17 17 18 18 19 19 20 20
REMARK H PARENT
REMARK Flexibility Score: inf
ROOT
ATOM      1  C   UNL     1      -2.402  27.384  56.004  1.00  0.00     0.000 C 
ENDROOT
BRANCH   1   2
ATOM      2  C   UNL     1      -3.872  27.830  56.145  1.00  0.00     0.000 C 
BRANCH   2   3
ATOM      3  C   UNL     1      -4.174  28.728  57.360  1.00  0.00     0.000 C 
BRANCH   3   4
ATOM      4  C   UNL     1      -3.366  30.038  57.422  1.00  0.00     0.000 C 
BRANCH   4   5
ATOM      5  C   UNL     1      -3.837  31.077  56.389  1.00  0.00     0.000 C 
BRANCH   5   6
ATOM      6  C   UNL     1      -5.371  31.182  56.308  1.00  0.00     0.006 C 
BRANCH   6   7
ATOM      7  C   UNL     1      -5.939  31.110  54.882  1.00  0.00     0.053 C 
BRANCH   7   8
ATOM      8  C   UNL     1      -7.284  31.759  54.778  1.00  0.00     0.041 C 
ATOM      9  O   UNL     1      -7.529  32.566  53.843  1.00  0.00    -0.550 OA
ATOM     10  O   UNL     1      -8.259  31.498  55.734  1.00  0.00    -0.550 OA
ENDBRANCH   7   8
ENDBRANCH   6   7
ENDBRANCH   5   6
ENDBRANCH   4   5
ENDBRANCH   3   4
ENDBRANCH   2   3
ENDBRANCH   1   2
BRANCH   1  11
ATOM     11  C   UNL     1      -1.886  26.466  57.127  1.00  0.00     0.000 C 
BRANCH  11  12
ATOM     12  C   UNL     1      -1.400  25.103  56.607  1.00  0.00     0.000 C 
BRANCH  12  13
ATOM     13  C   UNL     1      -2.291  24.535  55.486  1.00  0.00     0.000 C 
BRANCH  13  14
ATOM     14  C   UNL     1      -3.060  23.252  55.847  1.00  0.00     0.000 C 
BRANCH  14  15
ATOM     15  C   UNL     1      -4.579  23.464  55.935  1.00  0.00     0.000 C 
BRANCH  15  16
ATOM     16  C   UNL     1      -4.974  24.055  57.297  1.00  0.00     0.006 C 
BRANCH  16  17
ATOM     17  C   UNL     1      -6.488  24.276  57.417  1.00  0.00     0.053 C 
BRANCH  17  18
ATOM     18  C   UNL     1      -6.894  25.626  56.913  1.00  0.00     0.041 C 
ATOM     19  O   UNL     1      -7.106  25.807  55.685  1.00  0.00    -0.550 OA
ATOM     20  O   UNL     1      -7.009  26.694  57.795  1.00  0.00    -0.550 OA
ENDBRANCH  17  18
ENDBRANCH  16  17
ENDBRANCH  15  16
ENDBRANCH  14  15
ENDBRANCH  13  14
ENDBRANCH  12  13
ENDBRANCH  11  12
ENDBRANCH   1  11
TORSDOF 15
ENDMDL
MODEL 8
REMARK VINA RESULT:    -4.121      1.598      5.565
REMARK INTER + INTRA:          -9.859
REMARK INTER:                  -7.903
REMARK INTRA:                  -1.956
REMARK UNBOUND:                -2.124
REMARK SMILES O=C([O-])CCCCCCCCCCCCCCC(=O)[O-]
REMARK SMILES IDX 10 1 9 2 8 3 7 4 6 5 5 6 4 7 2 8 1 9 3 10 11 11 12 12 13 13
REMARK SMILES IDX 14 14 15 15 16 16 17 17 18 18 19 19 20 20
REMARK H PARENT
REMARK Flexibility Score: inf
ROOT
ATOM      1  C   UNL     1      -1.496  30.600  57.057  1.00  0.00     0.000 C 
ENDROOT
BRANCH   1   2
ATOM      2  C   UNL     1      -1.323  29.888  55.700  1.00  0.00     0.000 C 
BRANCH   2   3
ATOM      3  C   UNL     1      -2.553  29.933  54.771  1.00  0.00     0.000 C 
BRANCH   3   4
ATOM      4  C   UNL     1      -3.496  28.719  54.876  1.00  0.00     0.000 C 
BRANCH   4   5
ATOM      5  C   UNL     1      -4.970  29.123  55.045  1.00  0.00     0.000 C 
BRANCH   5   6
ATOM      6  C   UNL     1      -5.184  30.124  56.197  1.00  0.00     0.006 C 
BRANCH   6   7
ATOM      7  C   UNL     1      -5.745  31.487  55.760  1.00  0.00     0.053 C 
BRANCH   7   8
ATOM      8  C   UNL     1      -7.241  31.518  55.799  1.00  0.00     0.041 C 
ATOM      9  O   UNL     1      -7.847  31.532  56.903  1.00  0.00    -0.550 OA
ATOM     10  O   UNL     1      -7.969  31.497  54.616  1.00  0.00    -0.550 OA
ENDBRANCH   7   8
ENDBRANCH   6   7
ENDBRANCH   5   6
ENDBRANCH   4   5
ENDBRANCH   3   4
ENDBRANCH   2   3
ENDBRANCH   1   2
BRANCH   1  11
ATOM     11  C   UNL     1      -1.271  29.713  58.295  1.00  0.00     0.000 C 
BRANCH  11  12
ATOM     12  C   UNL     1      -2.578  29.134  58.861  1.00  0.00     0.000 C 
BRANCH  12  13
ATOM     13  C   UNL     1      -2.548  27.599  58.992  1.00  0.00     0.000 C 
BRANCH  13  14
ATOM     14  C   UNL     1      -3.358  26.835  57.929  1.00  0.00     0.000 C 
BRANCH  14  15
ATOM     15  C   UNL     1      -4.846  26.701  58.286  1.00  0.00     0.000 C 
BRANCH  15  16
ATOM     16  C   UNL     1      -5.668  26.271  57.063  1.00  0.00     0.006 C 
BRANCH  16  17
ATOM     17  C   UNL     1      -6.037  24.782  57.106  1.00  0.00     0.053 C 
BRANCH  17  18
ATOM     18  C   UNL     1      -7.520  24.577  57.138  1.00  0.00     0.041 C 
ATOM     19  O   UNL     1      -8.050  23.668  56.447  1.00  0.00    -0.550 OA
ATOM     20  O   UNL     1      -8.322  25.411  57.908  1.00  0.00    -0.550 OA
ENDBRANCH  17  18
ENDBRANCH  16  17
ENDBRANCH  15  16
ENDBRANCH  14  15
ENDBRANCH  13  14
ENDBRANCH  12  13
ENDBRANCH  11  12
ENDBRANCH   1  11
TORSDOF 15
ENDMDL
MODEL 9
REMARK VINA RESULT:    -4.079      1.603      2.684
REMARK INTER + INTRA:          -9.780
REMARK INTER:                  -7.570
REMARK INTRA:                  -2.210
REMARK UNBOUND:                -2.124
REMARK SMILES O=C([O-])CCCCCCCCCCCCCCC(=O)[O-]
REMARK SMILES IDX 10 1 9 2 8 3 7 4 6 5 5 6 4 7 2 8 1 9 3 10 11 11 12 12 13 13
REMARK SMILES IDX 14 14 15 15 16 16 17 17 18 18 19 19 20 20
REMARK H PARENT
REMARK Flexibility Score: inf
ROOT
ATOM      1  C   UNL     1      -2.206  26.296  57.252  1.00  0.00     0.000 C 
ENDROOT
BRANCH   1   2
ATOM      2  C   UNL     1      -2.771  26.232  55.819  1.00  0.00     0.000 C 
BRANCH   2   3
ATOM      3  C   UNL     1      -3.312  27.565  55.264  1.00  0.00     0.000 C 
BRANCH   3   4
ATOM      4  C   UNL     1      -4.824  27.788  55.455  1.00  0.00     0.000 C 
BRANCH   4   5
ATOM      5  C   UNL     1      -5.563  26.510  55.890  1.00  0.00     0.000 C 
BRANCH   5   6
ATOM      6  C   UNL     1      -6.037  26.567  57.354  1.00  0.00     0.006 C 
BRANCH   6   7
ATOM      7  C   UNL     1      -5.646  25.343  58.197  1.00  0.00     0.053 C 
BRANCH   7   8
ATOM      8  C   UNL     1      -5.919  24.057  57.482  1.00  0.00     0.041 C 
ATOM      9  O   UNL     1      -4.966  23.316  57.122  1.00  0.00    -0.550 OA
ATOM     10  O   UNL     1      -7.225  23.690  57.184  1.00  0.00    -0.550 OA
ENDBRANCH   7   8
ENDBRANCH   6   7
ENDBRANCH   5   6
ENDBRANCH   4   5
ENDBRANCH   3   4
ENDBRANCH   2   3
ENDBRANCH   1   2
BRANCH   1  11
ATOM     11  C   UNL     1      -1.666  27.672  57.683  1.00  0.00     0.000 C 
BRANCH  11  12
ATOM     12  C   UNL     1      -2.547  28.353  58.743  1.00  0.00     0.000 C 
BRANCH  12  13
ATOM     13  C   UNL     1      -3.120  29.703  58.271  1.00  0.00     0.000 C 
BRANCH  13  14
ATOM     14  C   UNL     1      -2.273  30.442  57.219  1.00  0.00     0.000 C 
BRANCH  14  15
ATOM     15  C   UNL     1      -3.093  31.421  56.365  1.00  0.00     0.000 C 
BRANCH  15  16
ATOM     16  C   UNL     1      -4.599  31.207  56.577  1.00  0.00     0.006 C 
BRANCH  16  17
ATOM     17  C   UNL     1      -5.441  31.901  55.498  1.00  0.00     0.053 C 
BRANCH  17  18
ATOM     18  C   UNL     1      -6.858  31.417  55.502  1.00  0.00     0.041 C 
ATOM     19  O   UNL     1      -7.357  30.907  54.465  1.00  0.00    -0.550 OA
ATOM     20  O   UNL     1      -7.639  31.558  56.643  1.00  0.00    -0.550 OA
ENDBRANCH  17  18
ENDBRANCH  16  17
ENDBRANCH  15  16
ENDBRANCH  14  15
ENDBRANCH  13  14
ENDBRANCH  12  13
ENDBRANCH  11  12
ENDBRANCH   1  11
TORSDOF 15
ENDMDL
