MODEL 1
REMARK VINA RESULT:    -3.958      0.000      0.000
REMARK INTER + INTRA:          -5.340
REMARK INTER:                  -5.347
REMARK INTRA:                   0.007
REMARK UNBOUND:                 0.007
REMARK SMILES C=C1C(=O)O[C@@H]2[C@@H]1CCC(C)=CCC[C@@]1(C)O[C@@H]21
REMARK SMILES IDX 6 1 7 2 2 3 1 4 3 5 4 6 5 7 8 8 9 9 10 10 11 11 12 12 18 14
REMARK SMILES IDX 15 15 17 16 16 17 14 18 13 19
REMARK H PARENT
REMARK Flexibility Score: 70.00
ROOT
ATOM      1  C   UNL     1       6.875  -8.683 -12.398  1.00  0.00     0.216 C 
ATOM      2  C   UNL     1       6.792 -10.238 -12.230  1.00  0.00     0.070 C 
ATOM      3  C   UNL     1       7.571 -10.740 -13.413  1.00  0.00     0.037 C 
ATOM      4  C   UNL     1       7.605 -11.996 -13.856  1.00  0.00     0.021 C 
ATOM      5  C   UNL     1       8.260  -9.619 -13.997  1.00  0.00     0.334 C 
ATOM      6  O   UNL     1       9.080  -9.673 -14.951  1.00  0.00    -0.247 OA
ATOM      7  O   UNL     1       7.900  -8.451 -13.363  1.00  0.00    -0.455 OA
ENDROOT
BRANCH   2   8
ATOM      8  C   UNL     1       7.456 -10.740 -10.924  1.00  0.00     0.017 C 
BRANCH   8   9
ATOM      9  C   UNL     1       6.541 -10.667  -9.686  1.00  0.00     0.031 C 
BRANCH   9  10
ATOM     10  C   UNL     1       6.755  -9.406  -8.867  1.00  0.00    -0.077 C 
ATOM     11  C   UNL     1       7.969  -9.341  -7.975  1.00  0.00     0.039 C 
ATOM     12  C   UNL     1       5.926  -8.336  -8.880  1.00  0.00    -0.028 CG0
ATOM     13  G   UNL     1       4.717  -8.152  -9.765  1.00  0.00     0.000 G0
ENDBRANCH   9  10
ENDBRANCH   8   9
ENDBRANCH   2   8
BRANCH   1  14
ATOM     14  C   UNL     1       5.553  -8.139 -12.975  1.00  0.00     0.192 C 
ATOM     15  C   UNL     1       4.637  -7.283 -12.163  1.00  0.00     0.096 C 
ATOM     16  O   UNL     1       5.578  -6.727 -13.053  1.00  0.00    -0.362 OA
ATOM     17  C   UNL     1       3.203  -7.119 -12.667  1.00  0.00     0.045 C 
BRANCH  15  18
ATOM     18  C   UNL     1       4.943  -6.927 -10.699  1.00  0.00     0.042 C 
BRANCH  18  19
ATOM     19  C   UNL     1       4.723  -8.137  -9.770  1.00  0.00     0.030 CG0
ATOM     20  G   UNL     1       5.925  -8.347  -8.882  1.00  0.00     0.000 G0
ENDBRANCH  18  19
ENDBRANCH  15  18
ENDBRANCH   1  14
TORSDOF 0
ENDMDL
MODEL 2
REMARK VINA RESULT:    -3.805      3.334      5.389
REMARK INTER + INTRA:          -5.132
REMARK INTER:                  -5.021
REMARK INTRA:                  -0.112
REMARK UNBOUND:                 0.007
REMARK SMILES C=C1C(=O)O[C@@H]2[C@@H]1CCC(C)=CCC[C@@]1(C)O[C@@H]21
REMARK SMILES IDX 6 1 7 2 2 3 1 4 3 5 4 6 5 7 8 8 9 9 10 10 11 11 12 12 18 14
REMARK SMILES IDX 15 15 17 16 16 17 14 18 13 19
REMARK H PARENT
REMARK Flexibility Score: 70.00
ROOT
ATOM      1  C   UNL     1       5.785  -8.691  -8.139  1.00  0.00     0.216 C 
ATOM      2  C   UNL     1       6.710  -9.955  -8.106  1.00  0.00     0.070 C 
ATOM      3  C   UNL     1       6.167 -10.731  -6.939  1.00  0.00     0.037 C 
ATOM      4  C   UNL     1       6.750 -11.772  -6.347  1.00  0.00     0.021 C 
ATOM      5  C   UNL     1       4.913 -10.135  -6.557  1.00  0.00     0.334 C 
ATOM      6  O   UNL     1       4.127 -10.573  -5.676  1.00  0.00    -0.247 OA
ATOM      7  O   UNL     1       4.674  -9.001  -7.299  1.00  0.00    -0.455 OA
ENDROOT
BRANCH   2   8
ATOM      8  C   UNL     1       6.604 -10.814  -9.390  1.00  0.00     0.017 C 
BRANCH   8   9
ATOM      9  C   UNL     1       7.707 -10.530 -10.428  1.00  0.00     0.031 C 
BRANCH   9  10
ATOM     10  C   UNL     1       7.239  -9.625 -11.554  1.00  0.00    -0.077 C 
ATOM     11  C   UNL     1       6.515 -10.259 -12.715  1.00  0.00     0.039 C 
ATOM     12  C   UNL     1       7.432  -8.286 -11.589  1.00  0.00    -0.028 CG0
ATOM     13  G   UNL     1       8.042  -7.442 -10.497  1.00  0.00     0.000 G0
ENDBRANCH   9  10
ENDBRANCH   8   9
ENDBRANCH   2   8
BRANCH   1  14
ATOM     14  C   UNL     1       6.517  -7.481  -7.526  1.00  0.00     0.192 C 
ATOM     15  C   UNL     1       7.086  -6.395  -8.380  1.00  0.00     0.096 C 
ATOM     16  O   UNL     1       5.814  -6.281  -7.785  1.00  0.00    -0.362 OA
ATOM     17  C   UNL     1       8.109  -5.461  -7.733  1.00  0.00     0.045 C 
BRANCH  15  18
ATOM     18  C   UNL     1       7.006  -6.442  -9.915  1.00  0.00     0.042 C 
BRANCH  18  19
ATOM     19  C   UNL     1       8.043  -7.420 -10.500  1.00  0.00     0.030 CG0
ATOM     20  G   UNL     1       7.420  -8.264 -11.585  1.00  0.00     0.000 G0
ENDBRANCH  18  19
ENDBRANCH  15  18
ENDBRANCH   1  14
TORSDOF 0
ENDMDL
MODEL 3
REMARK VINA RESULT:    -3.785     10.442     11.915
REMARK INTER + INTRA:          -5.106
REMARK INTER:                  -5.033
REMARK INTRA:                  -0.073
REMARK UNBOUND:                 0.007
REMARK SMILES C=C1C(=O)O[C@@H]2[C@@H]1CCC(C)=CCC[C@@]1(C)O[C@@H]21
REMARK SMILES IDX 6 1 7 2 2 3 1 4 3 5 4 6 5 7 8 8 9 9 10 10 11 11 12 12 18 14
REMARK SMILES IDX 15 15 17 16 16 17 14 18 13 19
REMARK H PARENT
REMARK Flexibility Score: 70.00
ROOT
ATOM      1  C   UNL     1       7.052 -19.624  -9.026  1.00  0.00     0.216 C 
ATOM      2  C   UNL     1       6.182 -20.901  -8.769  1.00  0.00     0.070 C 
ATOM      3  C   UNL     1       5.702 -21.256 -10.148  1.00  0.00     0.037 C 
ATOM      4  C   UNL     1       4.742 -22.131 -10.445  1.00  0.00     0.021 C 
ATOM      5  C   UNL     1       6.449 -20.468 -11.093  1.00  0.00     0.334 C 
ATOM      6  O   UNL     1       6.381 -20.562 -12.347  1.00  0.00    -0.247 OA
ATOM      7  O   UNL     1       7.268 -19.579 -10.436  1.00  0.00    -0.455 OA
ENDROOT
BRANCH   2   8
ATOM      8  C   UNL     1       7.000 -22.081  -8.187  1.00  0.00     0.017 C 
BRANCH   8   9
ATOM      9  C   UNL     1       6.759 -22.334  -6.687  1.00  0.00     0.031 C 
BRANCH   9  10
ATOM     10  C   UNL     1       7.864 -21.772  -5.808  1.00  0.00    -0.077 C 
ATOM     11  C   UNL     1       9.052 -22.654  -5.520  1.00  0.00     0.039 C 
ATOM     12  C   UNL     1       7.852 -20.534  -5.263  1.00  0.00    -0.028 CG0
ATOM     13  G   UNL     1       6.815 -19.463  -5.498  1.00  0.00     0.000 G0
ENDBRANCH   9  10
ENDBRANCH   8   9
ENDBRANCH   2   8
BRANCH   1  14
ATOM     14  C   UNL     1       6.267 -18.358  -8.628  1.00  0.00     0.192 C 
ATOM     15  C   UNL     1       6.467 -17.696  -7.304  1.00  0.00     0.096 C 
ATOM     16  O   UNL     1       7.138 -17.256  -8.463  1.00  0.00    -0.362 OA
ATOM     17  C   UNL     1       5.395 -16.706  -6.849  1.00  0.00     0.045 C 
BRANCH  15  18
ATOM     18  C   UNL     1       7.436 -18.260  -6.252  1.00  0.00     0.042 C 
BRANCH  18  19
ATOM     19  C   UNL     1       6.816 -19.454  -5.501  1.00  0.00     0.030 CG0
ATOM     20  G   UNL     1       7.855 -20.522  -5.257  1.00  0.00     0.000 G0
ENDBRANCH  18  19
ENDBRANCH  15  18
ENDBRANCH   1  14
TORSDOF 0
ENDMDL
MODEL 4
REMARK VINA RESULT:    -3.769      2.465      4.338
REMARK INTER + INTRA:          -5.084
REMARK INTER:                  -4.977
REMARK INTRA:                  -0.107
REMARK UNBOUND:                 0.007
REMARK SMILES C=C1C(=O)O[C@@H]2[C@@H]1CCC(C)=CCC[C@@]1(C)O[C@@H]21
REMARK SMILES IDX 6 1 7 2 2 3 1 4 3 5 4 6 5 7 8 8 9 9 10 10 11 11 12 12 18 14
REMARK SMILES IDX 15 15 17 16 16 17 14 18 13 19
REMARK H PARENT
REMARK Flexibility Score: 70.00
ROOT
ATOM      1  C   UNL     1       7.827  -8.129 -10.060  1.00  0.00     0.216 C 
ATOM      2  C   UNL     1       6.299  -8.067  -9.718  1.00  0.00     0.070 C 
ATOM      3  C   UNL     1       5.666  -7.879 -11.068  1.00  0.00     0.037 C 
ATOM      4  C   UNL     1       4.400  -7.538 -11.302  1.00  0.00     0.021 C 
ATOM      5  C   UNL     1       6.676  -8.111 -12.067  1.00  0.00     0.334 C 
ATOM      6  O   UNL     1       6.491  -8.130 -13.312  1.00  0.00    -0.247 OA
ATOM      7  O   UNL     1       7.901  -8.317 -11.473  1.00  0.00    -0.455 OA
ENDROOT
BRANCH   2   8
ATOM      8  C   UNL     1       5.771  -9.376  -9.079  1.00  0.00     0.017 C 
BRANCH   8   9
ATOM      9  C   UNL     1       5.661  -9.324  -7.543  1.00  0.00     0.031 C 
BRANCH   9  10
ATOM     10  C   UNL     1       6.827 -10.003  -6.845  1.00  0.00    -0.077 C 
ATOM     11  C   UNL     1       6.749 -11.494  -6.629  1.00  0.00     0.039 C 
ATOM     12  C   UNL     1       7.930  -9.359  -6.398  1.00  0.00    -0.028 CG0
ATOM     13  G   UNL     1       8.254  -7.898  -6.593  1.00  0.00     0.000 G0
ENDBRANCH   9  10
ENDBRANCH   8   9
ENDBRANCH   2   8
BRANCH   1  14
ATOM     14  C   UNL     1       8.500  -6.782  -9.728  1.00  0.00     0.192 C 
ATOM     15  C   UNL     1       9.323  -6.602  -8.495  1.00  0.00     0.096 C 
ATOM     16  O   UNL     1       9.909  -6.906  -9.740  1.00  0.00    -0.362 OA
ATOM     17  C   UNL     1       9.619  -5.168  -8.056  1.00  0.00     0.045 C 
BRANCH  15  18
ATOM     18  C   UNL     1       9.514  -7.734  -7.473  1.00  0.00     0.042 C 
BRANCH  18  19
ATOM     19  C   UNL     1       8.269  -7.898  -6.579  1.00  0.00     0.030 CG0
ATOM     20  G   UNL     1       7.942  -9.359  -6.392  1.00  0.00     0.000 G0
ENDBRANCH  18  19
ENDBRANCH  15  18
ENDBRANCH   1  14
TORSDOF 0
ENDMDL
MODEL 5
REMARK VINA RESULT:    -3.665      3.697      5.871
REMARK INTER + INTRA:          -4.944
REMARK INTER:                  -5.564
REMARK INTRA:                   0.620
REMARK UNBOUND:                 0.007
REMARK SMILES C=C1C(=O)O[C@@H]2[C@@H]1CCC(C)=CCC[C@@]1(C)O[C@@H]21
REMARK SMILES IDX 6 1 7 2 2 3 1 4 3 5 4 6 5 7 8 8 9 9 10 10 11 11 12 12 18 14
REMARK SMILES IDX 15 15 17 16 16 17 14 18 13 19
REMARK H PARENT
REMARK Flexibility Score: 70.00
ROOT
ATOM      1  C   UNL     1       7.263  -9.265  -7.271  1.00  0.00     0.216 C 
ATOM      2  C   UNL     1       6.970  -7.828  -7.823  1.00  0.00     0.070 C 
ATOM      3  C   UNL     1       7.523  -6.941  -6.743  1.00  0.00     0.037 C 
ATOM      4  C   UNL     1       7.318  -5.630  -6.621  1.00  0.00     0.021 C 
ATOM      5  C   UNL     1       8.296  -7.762  -5.849  1.00  0.00     0.334 C 
ATOM      6  O   UNL     1       8.982  -7.349  -4.876  1.00  0.00    -0.247 OA
ATOM      7  O   UNL     1       8.191  -9.088  -6.202  1.00  0.00    -0.455 OA
ENDROOT
BRANCH   2   8
ATOM      8  C   UNL     1       7.702  -7.534  -9.156  1.00  0.00     0.017 C 
BRANCH   8   9
ATOM      9  C   UNL     1       8.198  -8.794  -9.892  1.00  0.00     0.031 C 
BRANCH   9  10
ATOM     10  C   UNL     1       7.338  -9.154 -11.091  1.00  0.00    -0.077 C 
ATOM     11  C   UNL     1       7.734  -8.595 -12.435  1.00  0.00     0.039 C 
ATOM     12  C   UNL     1       6.238  -9.940 -11.035  1.00  0.00    -0.028 CG0
ATOM     13  G   UNL     1       5.724 -10.674  -9.821  1.00  0.00     0.000 G0
ENDBRANCH   9  10
ENDBRANCH   8   9
ENDBRANCH   2   8
BRANCH   1  14
ATOM     14  C   UNL     1       5.977  -9.880  -6.684  1.00  0.00     0.192 C 
ATOM     15  C   UNL     1       4.779 -10.152  -7.534  1.00  0.00     0.096 C 
ATOM     16  O   UNL     1       5.726 -11.154  -7.243  1.00  0.00    -0.362 OA
ATOM     17  C   UNL     1       3.451 -10.389  -6.815  1.00  0.00     0.045 C 
BRANCH  15  18
ATOM     18  C   UNL     1       4.749  -9.800  -9.030  1.00  0.00     0.042 C 
BRANCH  18  19
ATOM     19  C   UNL     1       5.727 -10.679  -9.833  1.00  0.00     0.030 CG0
ATOM     20  G   UNL     1       6.245  -9.930 -11.037  1.00  0.00     0.000 G0
ENDBRANCH  18  19
ENDBRANCH  15  18
ENDBRANCH   1  14
TORSDOF 0
ENDMDL
MODEL 6
REMARK VINA RESULT:    -3.613     11.336     12.937
REMARK INTER + INTRA:          -4.873
REMARK INTER:                  -4.971
REMARK INTRA:                   0.097
REMARK UNBOUND:                 0.007
REMARK SMILES C=C1C(=O)O[C@@H]2[C@@H]1CCC(C)=CCC[C@@]1(C)O[C@@H]21
REMARK SMILES IDX 6 1 7 2 2 3 1 4 3 5 4 6 5 7 8 8 9 9 10 10 11 11 12 12 18 14
REMARK SMILES IDX 15 15 17 16 16 17 14 18 13 19
REMARK H PARENT
REMARK Flexibility Score: 70.00
ROOT
ATOM      1  C   UNL     1       6.093 -21.067 -10.869  1.00  0.00     0.216 C 
ATOM      2  C   UNL     1       4.752 -21.738 -10.416  1.00  0.00     0.070 C 
ATOM      3  C   UNL     1       3.938 -21.734 -11.679  1.00  0.00     0.037 C 
ATOM      4  C   UNL     1       2.633 -21.985 -11.774  1.00  0.00     0.021 C 
ATOM      5  C   UNL     1       4.813 -21.389 -12.768  1.00  0.00     0.334 C 
ATOM      6  O   UNL     1       4.501 -21.375 -13.988  1.00  0.00    -0.247 OA
ATOM      7  O   UNL     1       6.066 -21.071 -12.296  1.00  0.00    -0.455 OA
ENDROOT
BRANCH   2   8
ATOM      8  C   UNL     1       4.941 -23.196  -9.928  1.00  0.00     0.017 C 
BRANCH   8   9
ATOM      9  C   UNL     1       4.534 -23.425  -8.460  1.00  0.00     0.031 C 
BRANCH   9  10
ATOM     10  C   UNL     1       5.725 -23.466  -7.518  1.00  0.00    -0.077 C 
ATOM     11  C   UNL     1       6.278 -24.817  -7.138  1.00  0.00     0.039 C 
ATOM     12  C   UNL     1       6.322 -22.371  -6.992  1.00  0.00    -0.028 CG0
ATOM     13  G   UNL     1       5.994 -20.933  -7.311  1.00  0.00     0.000 G0
ENDBRANCH   9  10
ENDBRANCH   8   9
ENDBRANCH   2   8
BRANCH   1  14
ATOM     14  C   UNL     1       6.138 -19.599 -10.402  1.00  0.00     0.192 C 
ATOM     15  C   UNL     1       6.670 -19.221  -9.058  1.00  0.00     0.096 C 
ATOM     16  O   UNL     1       7.473 -19.169 -10.215  1.00  0.00    -0.362 OA
ATOM     17  C   UNL     1       6.323 -17.826  -8.536  1.00  0.00     0.045 C 
BRANCH  15  18
ATOM     18  C   UNL     1       7.166 -20.275  -8.055  1.00  0.00     0.042 C 
BRANCH  18  19
ATOM     19  C   UNL     1       5.992 -20.934  -7.307  1.00  0.00     0.030 CG0
ATOM     20  G   UNL     1       6.311 -22.374  -6.985  1.00  0.00     0.000 G0
ENDBRANCH  18  19
ENDBRANCH  15  18
ENDBRANCH   1  14
TORSDOF 0
ENDMDL
MODEL 7
REMARK VINA RESULT:    -3.571     10.622     12.388
REMARK INTER + INTRA:          -4.816
REMARK INTER:                  -4.773
REMARK INTRA:                  -0.043
REMARK UNBOUND:                 0.007
REMARK SMILES C=C1C(=O)O[C@@H]2[C@@H]1CCC(C)=CCC[C@@]1(C)O[C@@H]21
REMARK SMILES IDX 6 1 7 2 2 3 1 4 3 5 4 6 5 7 8 8 9 9 10 10 11 11 12 12 18 14
REMARK SMILES IDX 15 15 17 16 16 17 14 18 13 19
REMARK H PARENT
REMARK Flexibility Score: 70.00
ROOT
ATOM      1  C   UNL     1       5.817 -20.811  -8.090  1.00  0.00     0.216 C 
ATOM      2  C   UNL     1       6.492 -19.850  -9.128  1.00  0.00     0.070 C 
ATOM      3  C   UNL     1       6.020 -20.401 -10.443  1.00  0.00     0.037 C 
ATOM      4  C   UNL     1       6.496 -20.081 -11.646  1.00  0.00     0.021 C 
ATOM      5  C   UNL     1       4.975 -21.354 -10.175  1.00  0.00     0.334 C 
ATOM      6  O   UNL     1       4.282 -21.951 -11.041  1.00  0.00    -0.247 OA
ATOM      7  O   UNL     1       4.824 -21.532  -8.819  1.00  0.00    -0.455 OA
ENDROOT
BRANCH   2   8
ATOM      8  C   UNL     1       6.020 -18.382  -8.984  1.00  0.00     0.017 C 
BRANCH   8   9
ATOM      9  C   UNL     1       6.842 -17.554  -7.977  1.00  0.00     0.031 C 
BRANCH   9  10
ATOM     10  C   UNL     1       6.186 -17.464  -6.611  1.00  0.00    -0.077 C 
ATOM     11  C   UNL     1       5.050 -16.487  -6.436  1.00  0.00     0.039 C 
ATOM     12  C   UNL     1       6.553 -18.200  -5.536  1.00  0.00    -0.028 CG0
ATOM     13  G   UNL     1       7.591 -19.296  -5.516  1.00  0.00     0.000 G0
ENDBRANCH   9  10
ENDBRANCH   8   9
ENDBRANCH   2   8
BRANCH   1  14
ATOM     14  C   UNL     1       6.847 -21.829  -7.562  1.00  0.00     0.192 C 
ATOM     15  C   UNL     1       7.360 -21.768  -6.160  1.00  0.00     0.096 C 
ATOM     16  O   UNL     1       6.293 -22.614  -6.524  1.00  0.00    -0.362 OA
ATOM     17  C   UNL     1       8.634 -22.552  -5.847  1.00  0.00     0.045 C 
BRANCH  15  18
ATOM     18  C   UNL     1       6.919 -20.668  -5.181  1.00  0.00     0.042 C 
BRANCH  18  19
ATOM     19  C   UNL     1       7.581 -19.318  -5.519  1.00  0.00     0.030 CG0
ATOM     20  G   UNL     1       6.554 -18.213  -5.526  1.00  0.00     0.000 G0
ENDBRANCH  18  19
ENDBRANCH  15  18
ENDBRANCH   1  14
TORSDOF 0
ENDMDL
MODEL 8
REMARK VINA RESULT:    -3.553      4.177      4.905
REMARK INTER + INTRA:          -4.792
REMARK INTER:                  -4.703
REMARK INTRA:                  -0.089
REMARK UNBOUND:                 0.007
REMARK SMILES C=C1C(=O)O[C@@H]2[C@@H]1CCC(C)=CCC[C@@]1(C)O[C@@H]21
REMARK SMILES IDX 6 1 7 2 2 3 1 4 3 5 4 6 5 7 8 8 9 9 10 10 11 11 12 12 18 14
REMARK SMILES IDX 15 15 17 16 16 17 14 18 13 19
REMARK H PARENT
REMARK Flexibility Score: 70.00
ROOT
ATOM      1  C   UNL     1       6.605  -7.622  -7.398  1.00  0.00     0.216 C 
ATOM      2  C   UNL     1       7.606  -8.763  -7.787  1.00  0.00     0.070 C 
ATOM      3  C   UNL     1       8.933  -8.060  -7.765  1.00  0.00     0.037 C 
ATOM      4  C   UNL     1      10.081  -8.533  -8.248  1.00  0.00     0.021 C 
ATOM      5  C   UNL     1       8.742  -6.773  -7.149  1.00  0.00     0.334 C 
ATOM      6  O   UNL     1       9.650  -5.943  -6.879  1.00  0.00    -0.247 OA
ATOM      7  O   UNL     1       7.409  -6.560  -6.884  1.00  0.00    -0.455 OA
ENDROOT
BRANCH   2   8
ATOM      8  C   UNL     1       7.621  -9.925  -6.763  1.00  0.00     0.017 C 
BRANCH   8   9
ATOM      9  C   UNL     1       6.728 -11.119  -7.154  1.00  0.00     0.031 C 
BRANCH   9  10
ATOM     10  C   UNL     1       5.390 -11.116  -6.436  1.00  0.00    -0.077 C 
ATOM     11  C   UNL     1       5.332 -11.706  -5.049  1.00  0.00     0.039 C 
ATOM     12  C   UNL     1       4.243 -10.622  -6.958  1.00  0.00    -0.028 CG0
ATOM     13  G   UNL     1       4.097  -9.906  -8.278  1.00  0.00     0.000 G0
ENDBRANCH   9  10
ENDBRANCH   8   9
ENDBRANCH   2   8
BRANCH   1  14
ATOM     14  C   UNL     1       5.881  -7.099  -8.655  1.00  0.00     0.192 C 
ATOM     15  C   UNL     1       4.468  -7.476  -8.957  1.00  0.00     0.096 C 
ATOM     16  O   UNL     1       4.791  -6.271  -8.302  1.00  0.00    -0.362 OA
ATOM     17  C   UNL     1       3.971  -7.239 -10.384  1.00  0.00     0.045 C 
BRANCH  15  18
ATOM     18  C   UNL     1       3.671  -8.431  -8.055  1.00  0.00     0.042 C 
BRANCH  18  19
ATOM     19  C   UNL     1       4.092  -9.896  -8.279  1.00  0.00     0.030 CG0
ATOM     20  G   UNL     1       4.237 -10.613  -6.958  1.00  0.00     0.000 G0
ENDBRANCH  18  19
ENDBRANCH  15  18
ENDBRANCH   1  14
TORSDOF 0
ENDMDL
MODEL 9
REMARK VINA RESULT:    -3.216      3.304      5.185
REMARK INTER + INTRA:          -4.337
REMARK INTER:                  -4.262
REMARK INTRA:                  -0.075
REMARK UNBOUND:                 0.007
REMARK SMILES C=C1C(=O)O[C@@H]2[C@@H]1CCC(C)=CCC[C@@]1(C)O[C@@H]21
REMARK SMILES IDX 6 1 7 2 2 3 1 4 3 5 4 6 5 7 8 8 9 9 10 10 11 11 12 12 18 14
REMARK SMILES IDX 15 15 17 16 16 17 14 18 13 19
REMARK H PARENT
REMARK Flexibility Score: 70.00
ROOT
ATOM      1  C   UNL     1       4.935  -9.772  -8.063  1.00  0.00     0.216 C 
ATOM      2  C   UNL     1       6.473  -9.496  -8.175  1.00  0.00     0.070 C 
ATOM      3  C   UNL     1       7.009 -10.100  -6.908  1.00  0.00     0.037 C 
ATOM      4  C   UNL     1       8.234  -9.929  -6.413  1.00  0.00     0.021 C 
ATOM      5  C   UNL     1       5.958 -10.882  -6.310  1.00  0.00     0.334 C 
ATOM      6  O   UNL     1       6.069 -11.605  -5.286  1.00  0.00    -0.247 OA
ATOM      7  O   UNL     1       4.788 -10.736  -7.021  1.00  0.00    -0.455 OA
ENDROOT
BRANCH   2   8
ATOM      8  C   UNL     1       7.123 -10.194  -9.395  1.00  0.00     0.017 C 
BRANCH   8   9
ATOM      9  C   UNL     1       7.476  -9.237 -10.551  1.00  0.00     0.031 C 
BRANCH   9  10
ATOM     10  C   UNL     1       6.463  -9.278 -11.681  1.00  0.00    -0.077 C 
ATOM     11  C   UNL     1       6.670 -10.293 -12.778  1.00  0.00     0.039 C 
ATOM     12  C   UNL     1       5.388  -8.462 -11.774  1.00  0.00    -0.028 CG0
ATOM     13  G   UNL     1       4.943  -7.449 -10.748  1.00  0.00     0.000 G0
ENDBRANCH   9  10
ENDBRANCH   8   9
ENDBRANCH   2   8
BRANCH   1  14
ATOM     14  C   UNL     1       4.195  -8.491  -7.629  1.00  0.00     0.192 C 
ATOM     15  C   UNL     1       3.531  -7.595  -8.623  1.00  0.00     0.096 C 
ATOM     16  O   UNL     1       2.814  -8.583  -7.919  1.00  0.00    -0.362 OA
ATOM     17  C   UNL     1       3.170  -6.184  -8.160  1.00  0.00     0.045 C 
BRANCH  15  18
ATOM     18  C   UNL     1       3.579  -7.880 -10.133  1.00  0.00     0.042 C 
BRANCH  18  19
ATOM     19  C   UNL     1       4.930  -7.455 -10.741  1.00  0.00     0.030 CG0
ATOM     20  G   UNL     1       5.386  -8.459 -11.770  1.00  0.00     0.000 G0
ENDBRANCH  18  19
ENDBRANCH  15  18
ENDBRANCH   1  14
TORSDOF 0
ENDMDL
