MODEL 1
REMARK VINA RESULT:    -7.706      0.000      0.000
REMARK INTER + INTRA:         -14.583
REMARK INTER:                 -12.661
REMARK INTRA:                  -1.921
REMARK UNBOUND:                -1.921
REMARK SMILES COc1ccc([C@@H]2CC(=O)c3c(O)cc(O[C@H]4O[C@@H](CO[C@H]5O[C@@H](C)[C@H](O)[C@@H](O)[C@@H]5O)[C@H](O)[C@@H](O)[C@H]4O)cc3O2)cc1O
REMARK SMILES IDX 19 1 32 2 34 3 36 4 17 5 18 6 20 7 21 8 22 9 25 10 24 11
REMARK SMILES IDX 26 12 23 13 28 14 30 15 27 16 29 18 31 20 33 22 35 24 16 26
REMARK SMILES IDX 15 27 14 28 38 29 12 30 39 31 11 32 40 33 9 34 7 35 10 36
REMARK SMILES IDX 8 37 13 38 6 40 41 41 5 42 42 43 4 44 3 45 43 46 2 48 1 49
REMARK SMILES IDX 37 50
REMARK H PARENT 27 17 29 19 31 21 33 23 35 25 13 39 43 47 37 51
REMARK Flexibility Score: inf
ROOT
ATOM      1  C   UNL     1      72.758  44.675   6.302  1.00  0.00     0.180 C 
ATOM      2  C   UNL     1      73.667  44.480   4.971  1.00  0.00     0.177 C 
ATOM      3  C   UNL     1      73.384  45.674   3.979  1.00  0.00     0.180 C 
ATOM      4  C   UNL     1      72.751  46.916   4.728  1.00  0.00     0.214 C 
ATOM      5  C   UNL     1      73.168  47.081   6.236  1.00  0.00     0.339 C 
ATOM      6  O   UNL     1      73.113  45.875   7.001  1.00  0.00    -0.332 OA
ENDROOT
BRANCH   1   7
ATOM      7  C   UNL     1      71.119  44.459   6.158  1.00  0.00     0.198 C 
BRANCH   7   8
ATOM      8  O   UNL     1      70.277  43.605   7.056  1.00  0.00    -0.347 OA
BRANCH   8   9
ATOM      9  C   UNL     1      69.994  42.331   6.325  1.00  0.00     0.281 C 
ATOM     10  C   UNL     1      72.605  40.053   5.336  1.00  0.00     0.041 C 
ATOM     11  C   UNL     1      71.238  40.713   5.156  1.00  0.00     0.150 C 
ATOM     12  C   UNL     1      70.060  39.684   5.099  1.00  0.00     0.174 C 
ATOM     13  O   UNL     1      71.162  41.543   6.273  1.00  0.00    -0.344 OA
ATOM     14  C   UNL     1      68.929  39.989   6.160  1.00  0.00     0.179 C 
ATOM     15  C   UNL     1      68.918  41.391   6.935  1.00  0.00     0.202 C 
BRANCH  12  16
ATOM     16  O   UNL     1      69.471  39.803   3.765  1.00  0.00    -0.388 OA
ATOM     17  H   UNL     1      69.357  40.775   3.564  1.00  0.00     0.211 HD
ENDBRANCH  12  16
BRANCH  14  18
ATOM     18  O   UNL     1      68.812  38.882   7.048  1.00  0.00    -0.387 OA
ATOM     19  H   UNL     1      69.769  38.578   7.237  1.00  0.00     0.211 HD
ENDBRANCH  14  18
BRANCH  15  20
ATOM     20  O   UNL     1      67.606  42.018   6.812  1.00  0.00    -0.385 OA
ATOM     21  H   UNL     1      67.740  43.014   6.921  1.00  0.00     0.211 HD
ENDBRANCH  15  20
ENDBRANCH   8   9
ENDBRANCH   7   8
ENDBRANCH   1   7
BRANCH   2  22
ATOM     22  O   UNL     1      75.043  44.534   5.345  1.00  0.00    -0.387 OA
ATOM     23  H   UNL     1      75.547  44.675   4.478  1.00  0.00     0.211 HD
ENDBRANCH   2  22
BRANCH   3  24
ATOM     24  O   UNL     1      72.496  45.133   2.996  1.00  0.00    -0.387 OA
ATOM     25  H   UNL     1      72.064  44.333   3.409  1.00  0.00     0.211 HD
ENDBRANCH   3  24
BRANCH   5  26
ATOM     26  O   UNL     1      72.487  48.237   6.924  1.00  0.00    -0.462 OA
BRANCH  26  27
ATOM     27  C   UNL     1      71.412  48.316   7.925  1.00  0.00     0.130 A 
ATOM     28  C   UNL     1      71.329  49.268   8.938  1.00  0.00     0.093 A 
ATOM     29  C   UNL     1      70.399  47.372   7.895  1.00  0.00     0.094 A 
ATOM     30  C   UNL     1      70.101  49.632   9.472  1.00  0.00     0.133 A 
ATOM     31  C   UNL     1      69.164  47.592   8.529  1.00  0.00     0.138 A 
ATOM     32  C   UNL     1      68.992  48.788   9.252  1.00  0.00     0.102 A 
ATOM     33  O   UNL     1      68.015  46.767   8.313  1.00  0.00    -0.484 OA
ATOM     34  C   UNL     1      67.618  49.122   9.735  1.00  0.00     0.174 C 
ATOM     35  C   UNL     1      66.958  46.653   9.267  1.00  0.00     0.211 C 
ATOM     36  O   UNL     1      67.275  50.356   9.798  1.00  0.00    -0.294 OA
ATOM     37  C   UNL     1      66.608  48.015  10.027  1.00  0.00     0.131 C 
BRANCH  30  38
ATOM     38  O   UNL     1      69.904  50.969   9.870  1.00  0.00    -0.507 OA
ATOM     39  H   UNL     1      69.175  51.630   9.561  1.00  0.00     0.293 HD
ENDBRANCH  30  38
BRANCH  35  40
ATOM     40  C   UNL     1      65.660  46.162   8.666  1.00  0.00    -0.003 A 
ATOM     41  C   UNL     1      65.668  44.976   7.857  1.00  0.00     0.057 A 
ATOM     42  C   UNL     1      64.362  46.729   8.950  1.00  0.00     0.011 A 
ATOM     43  C   UNL     1      64.518  44.189   7.787  1.00  0.00     0.158 A 
ATOM     44  C   UNL     1      63.217  45.996   8.756  1.00  0.00     0.051 A 
ATOM     45  C   UNL     1      63.297  44.607   8.345  1.00  0.00     0.160 A 
BRANCH  43  46
ATOM     46  O   UNL     1      64.588  42.953   7.162  1.00  0.00    -0.504 OA
ATOM     47  H   UNL     1      65.138  42.852   6.259  1.00  0.00     0.293 HD
ENDBRANCH  43  46
BRANCH  45  48
ATOM     48  O   UNL     1      62.081  43.825   8.319  1.00  0.00    -0.493 OA
ATOM     49  C   UNL     1      61.716  42.925   9.343  1.00  0.00     0.278 C 
ENDBRANCH  45  48
ENDBRANCH  35  40
ENDBRANCH  26  27
ENDBRANCH   5  26
BRANCH   4  50
ATOM     50  O   UNL     1      71.349  46.956   4.489  1.00  0.00    -0.384 OA
ATOM     51  H   UNL     1      70.845  47.146   5.359  1.00  0.00     0.211 HD
ENDBRANCH   4  50
TORSDOF 15
ENDMDL
MODEL 2
REMARK VINA RESULT:    -7.380      1.886      8.772
REMARK INTER + INTRA:         -14.048
REMARK INTER:                 -11.890
REMARK INTRA:                  -2.157
REMARK UNBOUND:                -1.921
REMARK SMILES COc1ccc([C@@H]2CC(=O)c3c(O)cc(O[C@H]4O[C@@H](CO[C@H]5O[C@@H](C)[C@H](O)[C@@H](O)[C@@H]5O)[C@H](O)[C@@H](O)[C@H]4O)cc3O2)cc1O
REMARK SMILES IDX 19 1 32 2 34 3 36 4 17 5 18 6 20 7 21 8 22 9 25 10 24 11
REMARK SMILES IDX 26 12 23 13 28 14 30 15 27 16 29 18 31 20 33 22 35 24 16 26
REMARK SMILES IDX 15 27 14 28 38 29 12 30 39 31 11 32 40 33 9 34 7 35 10 36
REMARK SMILES IDX 8 37 13 38 6 40 41 41 5 42 42 43 4 44 3 45 43 46 2 48 1 49
REMARK SMILES IDX 37 50
REMARK H PARENT 27 17 29 19 31 21 33 23 35 25 13 39 43 47 37 51
REMARK Flexibility Score: inf
ROOT
ATOM      1  C   UNL     1      64.405  46.359   8.479  1.00  0.00     0.180 C 
ATOM      2  C   UNL     1      63.043  45.598   8.033  1.00  0.00     0.177 C 
ATOM      3  C   UNL     1      63.393  44.113   7.635  1.00  0.00     0.180 C 
ATOM      4  C   UNL     1      64.778  43.656   8.250  1.00  0.00     0.214 C 
ATOM      5  C   UNL     1      65.169  44.336   9.613  1.00  0.00     0.339 C 
ATOM      6  O   UNL     1      64.979  45.752   9.645  1.00  0.00    -0.332 OA
ENDROOT
BRANCH   1   7
ATOM      7  C   UNL     1      65.522  46.704   7.301  1.00  0.00     0.198 C 
BRANCH   7   8
ATOM      8  O   UNL     1      66.885  46.092   7.196  1.00  0.00    -0.347 OA
BRANCH   8   9
ATOM      9  C   UNL     1      67.864  47.084   7.740  1.00  0.00     0.281 C 
ATOM     10  C   UNL     1      69.551  49.478   5.640  1.00  0.00     0.041 C 
ATOM     11  C   UNL     1      69.467  48.566   6.864  1.00  0.00     0.150 C 
ATOM     12  C   UNL     1      69.665  49.330   8.216  1.00  0.00     0.174 C 
ATOM     13  O   UNL     1      68.187  48.027   6.743  1.00  0.00    -0.344 OA
ATOM     14  C   UNL     1      68.476  49.096   9.231  1.00  0.00     0.179 C 
ATOM     15  C   UNL     1      67.402  47.941   8.950  1.00  0.00     0.202 C 
BRANCH  12  16
ATOM     16  O   UNL     1      70.885  48.794   8.820  1.00  0.00    -0.388 OA
ATOM     17  H   UNL     1      71.061  47.897   8.415  1.00  0.00     0.211 HD
ENDBRANCH  12  16
BRANCH  14  18
ATOM     18  O   UNL     1      67.858  50.346   9.522  1.00  0.00    -0.387 OA
ATOM     19  H   UNL     1      68.406  51.047   9.020  1.00  0.00     0.211 HD
ENDBRANCH  14  18
BRANCH  15  20
ATOM     20  O   UNL     1      67.274  47.083  10.125  1.00  0.00    -0.385 OA
ATOM     21  H   UNL     1      67.800  46.240   9.937  1.00  0.00     0.211 HD
ENDBRANCH  15  20
ENDBRANCH   8   9
ENDBRANCH   7   8
ENDBRANCH   1   7
BRANCH   2  22
ATOM     22  O   UNL     1      62.154  45.558   9.148  1.00  0.00    -0.387 OA
ATOM     23  H   UNL     1      62.656  46.012   9.902  1.00  0.00     0.211 HD
ENDBRANCH   2  22
BRANCH   3  24
ATOM     24  O   UNL     1      63.418  44.111   6.204  1.00  0.00    -0.387 OA
ATOM     25  H   UNL     1      64.375  44.200   5.934  1.00  0.00     0.211 HD
ENDBRANCH   3  24
BRANCH   5  26
ATOM     26  O   UNL     1      66.525  43.919  10.124  1.00  0.00    -0.462 OA
BRANCH  26  27
ATOM     27  C   UNL     1      67.722  43.380   9.462  1.00  0.00     0.130 A 
ATOM     28  C   UNL     1      67.968  42.030   9.226  1.00  0.00     0.093 A 
ATOM     29  C   UNL     1      68.710  44.258   9.047  1.00  0.00     0.094 A 
ATOM     30  C   UNL     1      68.777  41.629   8.172  1.00  0.00     0.133 A 
ATOM     31  C   UNL     1      69.666  43.893   8.082  1.00  0.00     0.138 A 
ATOM     32  C   UNL     1      69.632  42.580   7.576  1.00  0.00     0.102 A 
ATOM     33  O   UNL     1      70.535  44.836   7.446  1.00  0.00    -0.484 OA
ATOM     34  C   UNL     1      70.496  42.260   6.401  1.00  0.00     0.174 C 
ATOM     35  C   UNL     1      71.790  44.463   6.876  1.00  0.00     0.211 C 
ATOM     36  O   UNL     1      70.078  41.395   5.551  1.00  0.00    -0.294 OA
ATOM     37  C   UNL     1      71.787  43.037   6.153  1.00  0.00     0.131 C 
BRANCH  30  38
ATOM     38  O   UNL     1      68.460  40.437   7.489  1.00  0.00    -0.507 OA
ATOM     39  H   UNL     1      68.991  39.552   7.462  1.00  0.00     0.293 HD
ENDBRANCH  30  38
BRANCH  35  40
ATOM     40  C   UNL     1      72.300  45.452   5.851  1.00  0.00    -0.003 A 
ATOM     41  C   UNL     1      72.167  45.145   4.455  1.00  0.00     0.057 A 
ATOM     42  C   UNL     1      72.805  46.768   6.167  1.00  0.00     0.011 A 
ATOM     43  C   UNL     1      72.061  46.187   3.533  1.00  0.00     0.158 A 
ATOM     44  C   UNL     1      72.823  47.760   5.218  1.00  0.00     0.051 A 
ATOM     45  C   UNL     1      72.252  47.528   3.905  1.00  0.00     0.160 A 
BRANCH  43  46
ATOM     46  O   UNL     1      71.745  45.888   2.217  1.00  0.00    -0.504 OA
ATOM     47  H   UNL     1      72.368  46.245   1.433  1.00  0.00     0.293 HD
ENDBRANCH  43  46
BRANCH  45  48
ATOM     48  O   UNL     1      72.136  48.649   2.997  1.00  0.00    -0.493 OA
ATOM     49  C   UNL     1      70.898  49.196   2.597  1.00  0.00     0.278 C 
ENDBRANCH  45  48
ENDBRANCH  35  40
ENDBRANCH  26  27
ENDBRANCH   5  26
BRANCH   4  50
ATOM     50  O   UNL     1      65.787  43.704   7.248  1.00  0.00    -0.384 OA
ATOM     51  H   UNL     1      66.204  42.778   7.120  1.00  0.00     0.211 HD
ENDBRANCH   4  50
TORSDOF 15
ENDMDL
MODEL 3
REMARK VINA RESULT:    -7.185      1.921      7.059
REMARK INTER + INTRA:         -13.727
REMARK INTER:                 -10.966
REMARK INTRA:                  -2.761
REMARK UNBOUND:                -1.921
REMARK SMILES COc1ccc([C@@H]2CC(=O)c3c(O)cc(O[C@H]4O[C@@H](CO[C@H]5O[C@@H](C)[C@H](O)[C@@H](O)[C@@H]5O)[C@H](O)[C@@H](O)[C@H]4O)cc3O2)cc1O
REMARK SMILES IDX 19 1 32 2 34 3 36 4 17 5 18 6 20 7 21 8 22 9 25 10 24 11
REMARK SMILES IDX 26 12 23 13 28 14 30 15 27 16 29 18 31 20 33 22 35 24 16 26
REMARK SMILES IDX 15 27 14 28 38 29 12 30 39 31 11 32 40 33 9 34 7 35 10 36
REMARK SMILES IDX 8 37 13 38 6 40 41 41 5 42 42 43 4 44 3 45 43 46 2 48 1 49
REMARK SMILES IDX 37 50
REMARK H PARENT 27 17 29 19 31 21 33 23 35 25 13 39 43 47 37 51
REMARK Flexibility Score: inf
ROOT
ATOM      1  C   UNL     1      69.046  39.292   7.010  1.00  0.00     0.180 C 
ATOM      2  C   UNL     1      69.145  38.467   5.615  1.00  0.00     0.177 C 
ATOM      3  C   UNL     1      70.310  39.075   4.743  1.00  0.00     0.180 C 
ATOM      4  C   UNL     1      71.330  39.901   5.628  1.00  0.00     0.214 C 
ATOM      5  C   UNL     1      71.482  39.414   7.116  1.00  0.00     0.339 C 
ATOM      6  O   UNL     1      70.246  39.149   7.782  1.00  0.00    -0.332 OA
ENDROOT
BRANCH   1   7
ATOM      7  C   UNL     1      68.485  40.852   6.949  1.00  0.00     0.198 C 
BRANCH   7   8
ATOM      8  O   UNL     1      69.193  42.047   7.510  1.00  0.00    -0.347 OA
BRANCH   8   9
ATOM      9  C   UNL     1      68.187  43.149   7.627  1.00  0.00     0.281 C 
ATOM     10  C   UNL     1      65.196  42.827   9.609  1.00  0.00     0.041 C 
ATOM     11  C   UNL     1      65.988  43.384   8.426  1.00  0.00     0.150 C 
ATOM     12  C   UNL     1      66.021  44.948   8.389  1.00  0.00     0.174 C 
ATOM     13  O   UNL     1      67.252  42.833   8.633  1.00  0.00    -0.344 OA
ATOM     14  C   UNL     1      67.489  45.529   8.330  1.00  0.00     0.179 C 
ATOM     15  C   UNL     1      68.722  44.553   8.020  1.00  0.00     0.202 C 
BRANCH  12  16
ATOM     16  O   UNL     1      65.329  45.346   7.162  1.00  0.00    -0.388 OA
ATOM     17  H   UNL     1      64.361  45.118   7.266  1.00  0.00     0.211 HD
ENDBRANCH  12  16
BRANCH  14  18
ATOM     18  O   UNL     1      67.718  46.336   9.481  1.00  0.00    -0.387 OA
ATOM     19  H   UNL     1      67.790  45.684  10.264  1.00  0.00     0.211 HD
ENDBRANCH  14  18
BRANCH  15  20
ATOM     20  O   UNL     1      69.517  45.090   6.920  1.00  0.00    -0.385 OA
ATOM     21  H   UNL     1      68.871  45.388   6.202  1.00  0.00     0.211 HD
ENDBRANCH  15  20
ENDBRANCH   8   9
ENDBRANCH   7   8
ENDBRANCH   1   7
BRANCH   2  22
ATOM     22  O   UNL     1      69.475  37.110   5.908  1.00  0.00    -0.387 OA
ATOM     23  H   UNL     1      69.501  37.057   6.919  1.00  0.00     0.211 HD
ENDBRANCH   2  22
BRANCH   3  24
ATOM     24  O   UNL     1      69.653  39.900   3.775  1.00  0.00    -0.387 OA
ATOM     25  H   UNL     1      68.673  39.812   3.941  1.00  0.00     0.211 HD
ENDBRANCH   3  24
BRANCH   5  26
ATOM     26  O   UNL     1      72.412  40.272   7.935  1.00  0.00    -0.462 OA
BRANCH  26  27
ATOM     27  C   UNL     1      73.076  41.559   7.678  1.00  0.00     0.130 A 
ATOM     28  C   UNL     1      74.173  41.742   6.838  1.00  0.00     0.093 A 
ATOM     29  C   UNL     1      72.608  42.694   8.320  1.00  0.00     0.094 A 
ATOM     30  C   UNL     1      74.399  42.964   6.221  1.00  0.00     0.133 A 
ATOM     31  C   UNL     1      72.904  43.985   7.849  1.00  0.00     0.138 A 
ATOM     32  C   UNL     1      73.742  44.107   6.724  1.00  0.00     0.102 A 
ATOM     33  O   UNL     1      72.243  45.162   8.324  1.00  0.00    -0.484 OA
ATOM     34  C   UNL     1      73.876  45.454   6.094  1.00  0.00     0.174 C 
ATOM     35  C   UNL     1      72.834  46.460   8.251  1.00  0.00     0.211 C 
ATOM     36  O   UNL     1      74.049  45.522   4.824  1.00  0.00    -0.294 OA
ATOM     37  C   UNL     1      73.686  46.722   6.924  1.00  0.00     0.131 C 
BRANCH  30  38
ATOM     38  O   UNL     1      74.947  42.977   4.923  1.00  0.00    -0.507 OA
ATOM     39  H   UNL     1      75.732  43.543   4.563  1.00  0.00     0.293 HD
ENDBRANCH  30  38
BRANCH  35  40
ATOM     40  C   UNL     1      71.824  47.583   8.329  1.00  0.00    -0.003 A 
ATOM     41  C   UNL     1      71.129  47.984   7.139  1.00  0.00     0.057 A 
ATOM     42  C   UNL     1      71.399  48.216   9.557  1.00  0.00     0.011 A 
ATOM     43  C   UNL     1      69.854  48.540   7.247  1.00  0.00     0.158 A 
ATOM     44  C   UNL     1      70.199  48.879   9.626  1.00  0.00     0.051 A 
ATOM     45  C   UNL     1      69.296  48.881   8.491  1.00  0.00     0.160 A 
BRANCH  43  46
ATOM     46  O   UNL     1      69.113  48.749   6.094  1.00  0.00    -0.504 OA
ATOM     47  H   UNL     1      69.606  48.785   5.152  1.00  0.00     0.293 HD
ENDBRANCH  43  46
BRANCH  45  48
ATOM     48  O   UNL     1      67.974  49.442   8.664  1.00  0.00    -0.493 OA
ATOM     49  C   UNL     1      67.479  49.890   9.907  1.00  0.00     0.278 C 
ENDBRANCH  45  48
ENDBRANCH  35  40
ENDBRANCH  26  27
ENDBRANCH   5  26
BRANCH   4  50
ATOM     50  O   UNL     1      71.076  41.293   5.478  1.00  0.00    -0.384 OA
ATOM     51  H   UNL     1      70.391  41.451   4.734  1.00  0.00     0.211 HD
ENDBRANCH   4  50
TORSDOF 15
ENDMDL
MODEL 4
REMARK VINA RESULT:    -7.096      2.013      6.875
REMARK INTER + INTRA:         -13.581
REMARK INTER:                 -10.635
REMARK INTRA:                  -2.946
REMARK UNBOUND:                -1.921
REMARK SMILES COc1ccc([C@@H]2CC(=O)c3c(O)cc(O[C@H]4O[C@@H](CO[C@H]5O[C@@H](C)[C@H](O)[C@@H](O)[C@@H]5O)[C@H](O)[C@@H](O)[C@H]4O)cc3O2)cc1O
REMARK SMILES IDX 19 1 32 2 34 3 36 4 17 5 18 6 20 7 21 8 22 9 25 10 24 11
REMARK SMILES IDX 26 12 23 13 28 14 30 15 27 16 29 18 31 20 33 22 35 24 16 26
REMARK SMILES IDX 15 27 14 28 38 29 12 30 39 31 11 32 40 33 9 34 7 35 10 36
REMARK SMILES IDX 8 37 13 38 6 40 41 41 5 42 42 43 4 44 3 45 43 46 2 48 1 49
REMARK SMILES IDX 37 50
REMARK H PARENT 27 17 29 19 31 21 33 23 35 25 13 39 43 47 37 51
REMARK Flexibility Score: inf
ROOT
ATOM      1  C   UNL     1      65.965  46.698   7.410  1.00  0.00     0.180 C 
ATOM      2  C   UNL     1      64.664  46.052   8.133  1.00  0.00     0.177 C 
ATOM      3  C   UNL     1      65.025  45.719   9.633  1.00  0.00     0.180 C 
ATOM      4  C   UNL     1      66.283  46.542  10.125  1.00  0.00     0.214 C 
ATOM      5  C   UNL     1      66.482  47.946   9.444  1.00  0.00     0.339 C 
ATOM      6  O   UNL     1      66.334  47.941   8.022  1.00  0.00    -0.332 OA
ENDROOT
BRANCH   1   7
ATOM      7  C   UNL     1      67.259  45.704   7.110  1.00  0.00     0.198 C 
BRANCH   7   8
ATOM      8  O   UNL     1      67.495  44.373   7.757  1.00  0.00    -0.347 OA
BRANCH   8   9
ATOM      9  C   UNL     1      68.596  43.698   7.003  1.00  0.00     0.281 C 
ATOM     10  C   UNL     1      71.972  44.958   6.979  1.00  0.00     0.041 C 
ATOM     11  C   UNL     1      70.793  44.220   6.344  1.00  0.00     0.150 C 
ATOM     12  C   UNL     1      71.138  42.751   5.928  1.00  0.00     0.174 C 
ATOM     13  O   UNL     1      69.835  44.272   7.355  1.00  0.00    -0.344 OA
ATOM     14  C   UNL     1      70.148  41.689   6.552  1.00  0.00     0.179 C 
ATOM     15  C   UNL     1      68.789  42.176   7.248  1.00  0.00     0.202 C 
BRANCH  12  16
ATOM     16  O   UNL     1      71.004  42.692   4.472  1.00  0.00    -0.388 OA
ATOM     17  H   UNL     1      70.245  42.078   4.257  1.00  0.00     0.211 HD
ENDBRANCH  12  16
BRANCH  14  18
ATOM     18  O   UNL     1      70.884  40.792   7.377  1.00  0.00    -0.387 OA
ATOM     19  H   UNL     1      70.189  40.323   7.961  1.00  0.00     0.211 HD
ENDBRANCH  14  18
BRANCH  15  20
ATOM     20  O   UNL     1      67.654  41.451   6.686  1.00  0.00    -0.385 OA
ATOM     21  H   UNL     1      67.114  41.094   7.463  1.00  0.00     0.211 HD
ENDBRANCH  15  20
ENDBRANCH   8   9
ENDBRANCH   7   8
ENDBRANCH   1   7
BRANCH   2  22
ATOM     22  O   UNL     1      63.614  47.018   8.136  1.00  0.00    -0.387 OA
ATOM     23  H   UNL     1      63.775  47.586   7.313  1.00  0.00     0.211 HD
ENDBRANCH   2  22
BRANCH   3  24
ATOM     24  O   UNL     1      65.269  44.309   9.648  1.00  0.00    -0.387 OA
ATOM     25  H   UNL     1      66.143  44.164   9.188  1.00  0.00     0.211 HD
ENDBRANCH   3  24
BRANCH   5  26
ATOM     26  O   UNL     1      67.730  48.661   9.896  1.00  0.00    -0.462 OA
BRANCH  26  27
ATOM     27  C   UNL     1      68.994  48.993   9.222  1.00  0.00     0.130 A 
ATOM     28  C   UNL     1      70.164  49.394   9.865  1.00  0.00     0.093 A 
ATOM     29  C   UNL     1      69.053  48.931   7.840  1.00  0.00     0.094 A 
ATOM     30  C   UNL     1      71.405  49.166   9.287  1.00  0.00     0.133 A 
ATOM     31  C   UNL     1      70.277  48.840   7.155  1.00  0.00     0.138 A 
ATOM     32  C   UNL     1      71.465  48.868   7.910  1.00  0.00     0.102 A 
ATOM     33  O   UNL     1      70.373  48.521   5.762  1.00  0.00    -0.484 OA
ATOM     34  C   UNL     1      72.746  48.551   7.210  1.00  0.00     0.174 C 
ATOM     35  C   UNL     1      71.493  48.901   4.961  1.00  0.00     0.211 C 
ATOM     36  O   UNL     1      73.672  47.956   7.869  1.00  0.00    -0.294 OA
ATOM     37  C   UNL     1      72.900  48.817   5.714  1.00  0.00     0.131 C 
BRANCH  30  38
ATOM     38  O   UNL     1      72.497  48.863  10.125  1.00  0.00    -0.507 OA
ATOM     39  H   UNL     1      73.497  49.075   9.979  1.00  0.00     0.293 HD
ENDBRANCH  30  38
BRANCH  35  40
ATOM     40  C   UNL     1      71.638  48.071   3.705  1.00  0.00    -0.003 A 
ATOM     41  C   UNL     1      72.346  46.824   3.768  1.00  0.00     0.057 A 
ATOM     42  C   UNL     1      71.000  48.376   2.445  1.00  0.00     0.011 A 
ATOM     43  C   UNL     1      72.016  45.805   2.873  1.00  0.00     0.158 A 
ATOM     44  C   UNL     1      70.793  47.396   1.507  1.00  0.00     0.051 A 
ATOM     45  C   UNL     1      71.134  46.017   1.801  1.00  0.00     0.160 A 
BRANCH  43  46
ATOM     46  O   UNL     1      72.566  44.546   3.059  1.00  0.00    -0.504 OA
ATOM     47  H   UNL     1      72.962  44.017   2.226  1.00  0.00     0.293 HD
ENDBRANCH  43  46
BRANCH  45  48
ATOM     48  O   UNL     1      70.743  44.994   0.855  1.00  0.00    -0.493 OA
ATOM     49  C   UNL     1      71.351  44.835  -0.409  1.00  0.00     0.278 C 
ENDBRANCH  45  48
ENDBRANCH  35  40
ENDBRANCH  26  27
ENDBRANCH   5  26
BRANCH   4  50
ATOM     50  O   UNL     1      67.435  45.706  10.117  1.00  0.00    -0.384 OA
ATOM     51  H   UNL     1      67.195  44.775   9.767  1.00  0.00     0.211 HD
ENDBRANCH   4  50
TORSDOF 15
ENDMDL
MODEL 5
REMARK VINA RESULT:    -6.807      2.367      5.280
REMARK INTER + INTRA:         -13.106
REMARK INTER:                 -11.182
REMARK INTRA:                  -1.924
REMARK UNBOUND:                -1.921
REMARK SMILES COc1ccc([C@@H]2CC(=O)c3c(O)cc(O[C@H]4O[C@@H](CO[C@H]5O[C@@H](C)[C@H](O)[C@@H](O)[C@@H]5O)[C@H](O)[C@@H](O)[C@H]4O)cc3O2)cc1O
REMARK SMILES IDX 19 1 32 2 34 3 36 4 17 5 18 6 20 7 21 8 22 9 25 10 24 11
REMARK SMILES IDX 26 12 23 13 28 14 30 15 27 16 29 18 31 20 33 22 35 24 16 26
REMARK SMILES IDX 15 27 14 28 38 29 12 30 39 31 11 32 40 33 9 34 7 35 10 36
REMARK SMILES IDX 8 37 13 38 6 40 41 41 5 42 42 43 4 44 3 45 43 46 2 48 1 49
REMARK SMILES IDX 37 50
REMARK H PARENT 27 17 29 19 31 21 33 23 35 25 13 39 43 47 37 51
REMARK Flexibility Score: inf
ROOT
ATOM      1  C   UNL     1      71.949  41.907   6.592  1.00  0.00     0.180 C 
ATOM      2  C   UNL     1      71.996  40.318   6.922  1.00  0.00     0.177 C 
ATOM      3  C   UNL     1      73.408  39.962   7.527  1.00  0.00     0.180 C 
ATOM      4  C   UNL     1      74.136  41.244   8.102  1.00  0.00     0.214 C 
ATOM      5  C   UNL     1      73.186  42.374   8.645  1.00  0.00     0.339 C 
ATOM      6  O   UNL     1      72.087  42.688   7.787  1.00  0.00    -0.332 OA
ENDROOT
BRANCH   1   7
ATOM      7  C   UNL     1      72.874  42.463   5.333  1.00  0.00     0.198 C 
BRANCH   7   8
ATOM      8  O   UNL     1      73.809  43.633   5.398  1.00  0.00    -0.347 OA
BRANCH   8   9
ATOM      9  C   UNL     1      73.005  44.865   5.126  1.00  0.00     0.281 C 
ATOM     10  C   UNL     1      74.482  48.149   5.026  1.00  0.00     0.041 C 
ATOM     11  C   UNL     1      73.323  47.189   5.290  1.00  0.00     0.150 C 
ATOM     12  C   UNL     1      72.037  47.537   4.469  1.00  0.00     0.174 C 
ATOM     13  O   UNL     1      73.868  45.960   4.923  1.00  0.00    -0.344 OA
ATOM     14  C   UNL     1      71.509  46.319   3.612  1.00  0.00     0.179 C 
ATOM     15  C   UNL     1      72.094  44.849   3.868  1.00  0.00     0.202 C 
BRANCH  12  16
ATOM     16  O   UNL     1      71.003  47.882   5.446  1.00  0.00    -0.388 OA
ATOM     17  H   UNL     1      71.441  48.372   6.198  1.00  0.00     0.211 HD
ENDBRANCH  12  16
BRANCH  14  18
ATOM     18  O   UNL     1      71.531  46.674   2.233  1.00  0.00    -0.387 OA
ATOM     19  H   UNL     1      71.741  47.673   2.210  1.00  0.00     0.211 HD
ENDBRANCH  14  18
BRANCH  15  20
ATOM     20  O   UNL     1      70.999  43.907   4.079  1.00  0.00    -0.385 OA
ATOM     21  H   UNL     1      70.136  44.427   3.989  1.00  0.00     0.211 HD
ENDBRANCH  15  20
ENDBRANCH   8   9
ENDBRANCH   7   8
ENDBRANCH   1   7
BRANCH   2  22
ATOM     22  O   UNL     1      71.007  40.026   7.909  1.00  0.00    -0.387 OA
ATOM     23  H   UNL     1      70.473  40.881   8.009  1.00  0.00     0.211 HD
ENDBRANCH   2  22
BRANCH   3  24
ATOM     24  O   UNL     1      74.136  39.377   6.442  1.00  0.00    -0.387 OA
ATOM     25  H   UNL     1      73.636  38.556   6.171  1.00  0.00     0.211 HD
ENDBRANCH   3  24
BRANCH   5  26
ATOM     26  O   UNL     1      73.922  43.601   9.119  1.00  0.00    -0.462 OA
BRANCH  26  27
ATOM     27  C   UNL     1      73.509  44.995   9.339  1.00  0.00     0.130 A 
ATOM     28  C   UNL     1      74.370  46.090   9.372  1.00  0.00     0.093 A 
ATOM     29  C   UNL     1      72.169  45.271   9.552  1.00  0.00     0.094 A 
ATOM     30  C   UNL     1      73.917  47.359   9.037  1.00  0.00     0.133 A 
ATOM     31  C   UNL     1      71.642  46.562   9.375  1.00  0.00     0.138 A 
ATOM     32  C   UNL     1      72.527  47.599   9.023  1.00  0.00     0.102 A 
ATOM     33  O   UNL     1      70.237  46.836   9.337  1.00  0.00    -0.484 OA
ATOM     34  C   UNL     1      71.941  48.912   8.620  1.00  0.00     0.174 C 
ATOM     35  C   UNL     1      69.694  48.118   9.655  1.00  0.00     0.211 C 
ATOM     36  O   UNL     1      72.556  49.613   7.739  1.00  0.00    -0.294 OA
ATOM     37  C   UNL     1      70.579  49.351   9.155  1.00  0.00     0.131 C 
BRANCH  30  38
ATOM     38  O   UNL     1      74.793  48.237   8.368  1.00  0.00    -0.507 OA
ATOM     39  H   UNL     1      74.568  48.948   7.654  1.00  0.00     0.293 HD
ENDBRANCH  30  38
BRANCH  35  40
ATOM     40  C   UNL     1      68.309  48.338   9.089  1.00  0.00    -0.003 A 
ATOM     41  C   UNL     1      68.026  47.915   7.746  1.00  0.00     0.057 A 
ATOM     42  C   UNL     1      67.185  48.835   9.849  1.00  0.00     0.011 A 
ATOM     43  C   UNL     1      66.722  47.556   7.404  1.00  0.00     0.158 A 
ATOM     44  C   UNL     1      65.897  48.592   9.438  1.00  0.00     0.051 A 
ATOM     45  C   UNL     1      65.643  47.757   8.280  1.00  0.00     0.160 A 
BRANCH  43  46
ATOM     46  O   UNL     1      66.491  46.971   6.168  1.00  0.00    -0.504 OA
ATOM     47  H   UNL     1      65.607  46.402   6.014  1.00  0.00     0.293 HD
ENDBRANCH  43  46
BRANCH  45  48
ATOM     48  O   UNL     1      64.275  47.387   7.985  1.00  0.00    -0.493 OA
ATOM     49  C   UNL     1      63.721  46.136   8.327  1.00  0.00     0.278 C 
ENDBRANCH  45  48
ENDBRANCH  35  40
ENDBRANCH  26  27
ENDBRANCH   5  26
BRANCH   4  50
ATOM     50  O   UNL     1      75.124  41.688   7.179  1.00  0.00    -0.384 OA
ATOM     51  H   UNL     1      75.435  42.633   7.420  1.00  0.00     0.211 HD
ENDBRANCH   4  50
TORSDOF 15
ENDMDL
MODEL 6
REMARK VINA RESULT:    -6.804      1.791      5.799
REMARK INTER + INTRA:         -13.101
REMARK INTER:                 -10.474
REMARK INTRA:                  -2.627
REMARK UNBOUND:                -1.921
REMARK SMILES COc1ccc([C@@H]2CC(=O)c3c(O)cc(O[C@H]4O[C@@H](CO[C@H]5O[C@@H](C)[C@H](O)[C@@H](O)[C@@H]5O)[C@H](O)[C@@H](O)[C@H]4O)cc3O2)cc1O
REMARK SMILES IDX 19 1 32 2 34 3 36 4 17 5 18 6 20 7 21 8 22 9 25 10 24 11
REMARK SMILES IDX 26 12 23 13 28 14 30 15 27 16 29 18 31 20 33 22 35 24 16 26
REMARK SMILES IDX 15 27 14 28 38 29 12 30 39 31 11 32 40 33 9 34 7 35 10 36
REMARK SMILES IDX 8 37 13 38 6 40 41 41 5 42 42 43 4 44 3 45 43 46 2 48 1 49
REMARK SMILES IDX 37 50
REMARK H PARENT 27 17 29 19 31 21 33 23 35 25 13 39 43 47 37 51
REMARK Flexibility Score: inf
ROOT
ATOM      1  C   UNL     1      71.425  48.399   8.735  1.00  0.00     0.180 C 
ATOM      2  C   UNL     1      71.795  49.515   7.616  1.00  0.00     0.177 C 
ATOM      3  C   UNL     1      70.484  49.908   6.832  1.00  0.00     0.180 C 
ATOM      4  C   UNL     1      69.182  49.536   7.651  1.00  0.00     0.214 C 
ATOM      5  C   UNL     1      69.335  49.568   9.216  1.00  0.00     0.339 C 
ATOM      6  O   UNL     1      70.513  48.925   9.709  1.00  0.00    -0.332 OA
ENDROOT
BRANCH   1   7
ATOM      7  C   UNL     1      71.018  46.879   8.208  1.00  0.00     0.198 C 
BRANCH   7   8
ATOM      8  O   UNL     1      70.571  46.536   6.820  1.00  0.00    -0.347 OA
BRANCH   8   9
ATOM      9  C   UNL     1      71.705  45.830   6.146  1.00  0.00     0.281 C 
ATOM     10  C   UNL     1      71.952  42.237   6.043  1.00  0.00     0.041 C 
ATOM     11  C   UNL     1      72.559  43.640   6.072  1.00  0.00     0.150 C 
ATOM     12  C   UNL     1      73.502  43.928   4.857  1.00  0.00     0.174 C 
ATOM     13  O   UNL     1      71.425  44.451   6.065  1.00  0.00    -0.344 OA
ATOM     14  C   UNL     1      73.094  45.229   4.059  1.00  0.00     0.179 C 
ATOM     15  C   UNL     1      72.028  46.248   4.685  1.00  0.00     0.202 C 
BRANCH  12  16
ATOM     16  O   UNL     1      74.839  44.141   5.413  1.00  0.00    -0.388 OA
ATOM     17  H   UNL     1      75.485  43.593   4.881  1.00  0.00     0.211 HD
ENDBRANCH  12  16
BRANCH  14  18
ATOM     18  O   UNL     1      72.775  44.874   2.717  1.00  0.00    -0.387 OA
ATOM     19  H   UNL     1      71.904  44.344   2.773  1.00  0.00     0.211 HD
ENDBRANCH  14  18
BRANCH  15  20
ATOM     20  O   UNL     1      72.571  47.603   4.682  1.00  0.00    -0.385 OA
ATOM     21  H   UNL     1      72.083  48.122   5.399  1.00  0.00     0.211 HD
ENDBRANCH  15  20
ENDBRANCH   8   9
ENDBRANCH   7   8
ENDBRANCH   1   7
BRANCH   2  22
ATOM     22  O   UNL     1      72.280  50.682   8.277  1.00  0.00    -0.387 OA
ATOM     23  H   UNL     1      73.281  50.544   8.356  1.00  0.00     0.211 HD
ENDBRANCH   2  22
BRANCH   3  24
ATOM     24  O   UNL     1      70.562  49.187   5.598  1.00  0.00    -0.387 OA
ATOM     25  H   UNL     1      71.279  48.502   5.712  1.00  0.00     0.211 HD
ENDBRANCH   3  24
BRANCH   5  26
ATOM     26  O   UNL     1      68.089  49.141   9.950  1.00  0.00    -0.462 OA
BRANCH  26  27
ATOM     27  C   UNL     1      67.303  47.899   9.950  1.00  0.00     0.130 A 
ATOM     28  C   UNL     1      65.911  47.831   9.920  1.00  0.00     0.093 A 
ATOM     29  C   UNL     1      67.968  46.685  10.003  1.00  0.00     0.094 A 
ATOM     30  C   UNL     1      65.266  46.725   9.385  1.00  0.00     0.133 A 
ATOM     31  C   UNL     1      67.348  45.485   9.614  1.00  0.00     0.138 A 
ATOM     32  C   UNL     1      65.999  45.532   9.214  1.00  0.00     0.102 A 
ATOM     33  O   UNL     1      68.065  44.262   9.413  1.00  0.00    -0.484 OA
ATOM     34  C   UNL     1      65.409  44.308   8.594  1.00  0.00     0.174 C 
ATOM     35  C   UNL     1      67.445  42.980   9.514  1.00  0.00     0.211 C 
ATOM     36  O   UNL     1      64.511  44.451   7.690  1.00  0.00    -0.294 OA
ATOM     37  C   UNL     1      65.954  42.924   8.941  1.00  0.00     0.131 C 
BRANCH  30  38
ATOM     38  O   UNL     1      64.054  46.917   8.691  1.00  0.00    -0.507 OA
ATOM     39  H   UNL     1      63.138  47.209   9.067  1.00  0.00     0.293 HD
ENDBRANCH  30  38
BRANCH  35  40
ATOM     40  C   UNL     1      68.210  41.888   8.800  1.00  0.00    -0.003 A 
ATOM     41  C   UNL     1      68.657  40.744   9.545  1.00  0.00     0.057 A 
ATOM     42  C   UNL     1      68.424  41.839   7.372  1.00  0.00     0.011 A 
ATOM     43  C   UNL     1      68.813  39.522   8.891  1.00  0.00     0.158 A 
ATOM     44  C   UNL     1      68.708  40.651   6.744  1.00  0.00     0.051 A 
ATOM     45  C   UNL     1      68.713  39.409   7.494  1.00  0.00     0.160 A 
BRANCH  43  46
ATOM     46  O   UNL     1      69.059  38.385   9.645  1.00  0.00    -0.504 OA
ATOM     47  H   UNL     1      68.933  38.417  10.700  1.00  0.00     0.293 HD
ENDBRANCH  43  46
BRANCH  45  48
ATOM     48  O   UNL     1      68.847  38.166   6.766  1.00  0.00    -0.493 OA
ATOM     49  C   UNL     1      69.625  38.034   5.596  1.00  0.00     0.278 C 
ENDBRANCH  45  48
ENDBRANCH  35  40
ENDBRANCH  26  27
ENDBRANCH   5  26
BRANCH   4  50
ATOM     50  O   UNL     1      68.614  48.339   7.131  1.00  0.00    -0.384 OA
ATOM     51  H   UNL     1      69.212  47.538   7.350  1.00  0.00     0.211 HD
ENDBRANCH   4  50
TORSDOF 15
ENDMDL
MODEL 7
REMARK VINA RESULT:    -6.775      1.879      4.610
REMARK INTER + INTRA:         -13.053
REMARK INTER:                 -10.332
REMARK INTRA:                  -2.721
REMARK UNBOUND:                -1.921
REMARK SMILES COc1ccc([C@@H]2CC(=O)c3c(O)cc(O[C@H]4O[C@@H](CO[C@H]5O[C@@H](C)[C@H](O)[C@@H](O)[C@@H]5O)[C@H](O)[C@@H](O)[C@H]4O)cc3O2)cc1O
REMARK SMILES IDX 19 1 32 2 34 3 36 4 17 5 18 6 20 7 21 8 22 9 25 10 24 11
REMARK SMILES IDX 26 12 23 13 28 14 30 15 27 16 29 18 31 20 33 22 35 24 16 26
REMARK SMILES IDX 15 27 14 28 38 29 12 30 39 31 11 32 40 33 9 34 7 35 10 36
REMARK SMILES IDX 8 37 13 38 6 40 41 41 5 42 42 43 4 44 3 45 43 46 2 48 1 49
REMARK SMILES IDX 37 50
REMARK H PARENT 27 17 29 19 31 21 33 23 35 25 13 39 43 47 37 51
REMARK Flexibility Score: inf
ROOT
ATOM      1  C   UNL     1      71.978  42.220   5.805  1.00  0.00     0.180 C 
ATOM      2  C   UNL     1      72.115  40.614   5.990  1.00  0.00     0.177 C 
ATOM      3  C   UNL     1      73.073  40.319   7.209  1.00  0.00     0.180 C 
ATOM      4  C   UNL     1      73.192  41.568   8.172  1.00  0.00     0.214 C 
ATOM      5  C   UNL     1      71.926  42.501   8.230  1.00  0.00     0.339 C 
ATOM      6  O   UNL     1      71.369  42.824   6.954  1.00  0.00    -0.332 OA
ENDROOT
BRANCH   1   7
ATOM      7  C   UNL     1      73.303  43.051   5.251  1.00  0.00     0.198 C 
BRANCH   7   8
ATOM      8  O   UNL     1      73.953  44.207   5.948  1.00  0.00    -0.347 OA
BRANCH   8   9
ATOM      9  C   UNL     1      73.389  45.461   5.358  1.00  0.00     0.281 C 
ATOM     10  C   UNL     1      71.301  45.440   2.421  1.00  0.00     0.041 C 
ATOM     11  C   UNL     1      72.327  46.084   3.354  1.00  0.00     0.150 C 
ATOM     12  C   UNL     1      71.875  47.481   3.896  1.00  0.00     0.174 C 
ATOM     13  O   UNL     1      72.440  45.135   4.368  1.00  0.00    -0.344 OA
ATOM     14  C   UNL     1      71.903  47.564   5.474  1.00  0.00     0.179 C 
ATOM     15  C   UNL     1      72.634  46.417   6.321  1.00  0.00     0.202 C 
BRANCH  12  16
ATOM     16  O   UNL     1      72.833  48.457   3.375  1.00  0.00    -0.388 OA
ATOM     17  H   UNL     1      73.722  48.267   3.790  1.00  0.00     0.211 HD
ENDBRANCH  12  16
BRANCH  14  18
ATOM     18  O   UNL     1      70.589  47.832   5.952  1.00  0.00    -0.387 OA
ATOM     19  H   UNL     1      70.392  48.799   5.687  1.00  0.00     0.211 HD
ENDBRANCH  14  18
BRANCH  15  20
ATOM     20  O   UNL     1      73.588  47.014   7.250  1.00  0.00    -0.385 OA
ATOM     21  H   UNL     1      73.058  47.362   8.038  1.00  0.00     0.211 HD
ENDBRANCH  15  20
ENDBRANCH   8   9
ENDBRANCH   7   8
ENDBRANCH   1   7
BRANCH   2  22
ATOM     22  O   UNL     1      70.829  40.078   6.300  1.00  0.00    -0.387 OA
ATOM     23  H   UNL     1      70.401  40.757   6.917  1.00  0.00     0.211 HD
ENDBRANCH   2  22
BRANCH   3  24
ATOM     24  O   UNL     1      74.330  39.980   6.614  1.00  0.00    -0.387 OA
ATOM     25  H   UNL     1      74.766  40.840   6.356  1.00  0.00     0.211 HD
ENDBRANCH   3  24
BRANCH   5  26
ATOM     26  O   UNL     1      72.113  43.712   9.108  1.00  0.00    -0.462 OA
BRANCH  26  27
ATOM     27  C   UNL     1      71.238  44.841   9.457  1.00  0.00     0.130 A 
ATOM     28  C   UNL     1      71.659  46.156   9.637  1.00  0.00     0.093 A 
ATOM     29  C   UNL     1      69.886  44.606   9.647  1.00  0.00     0.094 A 
ATOM     30  C   UNL     1      70.789  47.216   9.421  1.00  0.00     0.133 A 
ATOM     31  C   UNL     1      68.939  45.643   9.588  1.00  0.00     0.138 A 
ATOM     32  C   UNL     1      69.403  46.956   9.380  1.00  0.00     0.102 A 
ATOM     33  O   UNL     1      67.528  45.412   9.525  1.00  0.00    -0.484 OA
ATOM     34  C   UNL     1      68.393  48.019   9.096  1.00  0.00     0.174 C 
ATOM     35  C   UNL     1      66.570  46.380   9.957  1.00  0.00     0.211 C 
ATOM     36  O   UNL     1      68.722  48.984   8.317  1.00  0.00    -0.294 OA
ATOM     37  C   UNL     1      66.965  47.892   9.622  1.00  0.00     0.131 C 
BRANCH  30  38
ATOM     38  O   UNL     1      71.300  48.414   8.881  1.00  0.00    -0.507 OA
ATOM     39  H   UNL     1      70.851  49.342   8.839  1.00  0.00     0.293 HD
ENDBRANCH  30  38
BRANCH  35  40
ATOM     40  C   UNL     1      65.194  46.165   9.365  1.00  0.00    -0.003 A 
ATOM     41  C   UNL     1      65.073  45.494   8.102  1.00  0.00     0.057 A 
ATOM     42  C   UNL     1      63.956  46.473  10.042  1.00  0.00     0.011 A 
ATOM     43  C   UNL     1      63.910  44.777   7.818  1.00  0.00     0.158 A 
ATOM     44  C   UNL     1      62.783  45.862   9.674  1.00  0.00     0.051 A 
ATOM     45  C   UNL     1      62.783  44.830   8.656  1.00  0.00     0.160 A 
BRANCH  43  46
ATOM     46  O   UNL     1      63.874  43.978   6.685  1.00  0.00    -0.504 OA
ATOM     47  H   UNL     1      64.227  44.364   5.760  1.00  0.00     0.293 HD
ENDBRANCH  43  46
BRANCH  45  48
ATOM     48  O   UNL     1      61.560  44.094   8.421  1.00  0.00    -0.493 OA
ATOM     49  C   UNL     1      61.344  42.780   8.889  1.00  0.00     0.278 C 
ENDBRANCH  45  48
ENDBRANCH  35  40
ENDBRANCH  26  27
ENDBRANCH   5  26
BRANCH   4  50
ATOM     50  O   UNL     1      74.420  42.245   7.929  1.00  0.00    -0.384 OA
ATOM     51  H   UNL     1      75.145  41.904   8.566  1.00  0.00     0.211 HD
ENDBRANCH   4  50
TORSDOF 15
ENDMDL
MODEL 8
REMARK VINA RESULT:    -6.715      2.774      6.684
REMARK INTER + INTRA:         -12.955
REMARK INTER:                  -9.783
REMARK INTRA:                  -3.172
REMARK UNBOUND:                -1.921
REMARK SMILES COc1ccc([C@@H]2CC(=O)c3c(O)cc(O[C@H]4O[C@@H](CO[C@H]5O[C@@H](C)[C@H](O)[C@@H](O)[C@@H]5O)[C@H](O)[C@@H](O)[C@H]4O)cc3O2)cc1O
REMARK SMILES IDX 19 1 32 2 34 3 36 4 17 5 18 6 20 7 21 8 22 9 25 10 24 11
REMARK SMILES IDX 26 12 23 13 28 14 30 15 27 16 29 18 31 20 33 22 35 24 16 26
REMARK SMILES IDX 15 27 14 28 38 29 12 30 39 31 11 32 40 33 9 34 7 35 10 36
REMARK SMILES IDX 8 37 13 38 6 40 41 41 5 42 42 43 4 44 3 45 43 46 2 48 1 49
REMARK SMILES IDX 37 50
REMARK H PARENT 27 17 29 19 31 21 33 23 35 25 13 39 43 47 37 51
REMARK Flexibility Score: inf
ROOT
ATOM      1  C   UNL     1      72.938  48.722   7.648  1.00  0.00     0.180 C 
ATOM      2  C   UNL     1      71.864  49.744   6.988  1.00  0.00     0.177 C 
ATOM      3  C   UNL     1      70.488  48.995   6.807  1.00  0.00     0.180 C 
ATOM      4  C   UNL     1      70.390  47.723   7.743  1.00  0.00     0.214 C 
ATOM      5  C   UNL     1      71.193  47.813   9.093  1.00  0.00     0.339 C 
ATOM      6  O   UNL     1      72.525  48.311   8.958  1.00  0.00    -0.332 OA
ENDROOT
BRANCH   1   7
ATOM      7  C   UNL     1      73.491  47.469   6.711  1.00  0.00     0.198 C 
BRANCH   7   8
ATOM      8  O   UNL     1      73.072  47.194   5.299  1.00  0.00    -0.347 OA
BRANCH   8   9
ATOM      9  C   UNL     1      73.021  45.709   5.128  1.00  0.00     0.281 C 
ATOM     10  C   UNL     1      73.928  43.431   7.769  1.00  0.00     0.041 C 
ATOM     11  C   UNL     1      73.800  43.822   6.297  1.00  0.00     0.150 C 
ATOM     12  C   UNL     1      72.942  42.812   5.464  1.00  0.00     0.174 C 
ATOM     13  O   UNL     1      73.206  45.080   6.376  1.00  0.00    -0.344 OA
ATOM     14  C   UNL     1      71.749  43.509   4.697  1.00  0.00     0.179 C 
ATOM     15  C   UNL     1      71.698  45.106   4.581  1.00  0.00     0.202 C 
BRANCH  12  16
ATOM     16  O   UNL     1      73.840  42.229   4.467  1.00  0.00    -0.388 OA
ATOM     17  H   UNL     1      74.779  42.447   4.733  1.00  0.00     0.211 HD
ENDBRANCH  12  16
BRANCH  14  18
ATOM     18  O   UNL     1      70.516  42.963   5.155  1.00  0.00    -0.387 OA
ATOM     19  H   UNL     1      69.830  43.191   4.433  1.00  0.00     0.211 HD
ENDBRANCH  14  18
BRANCH  15  20
ATOM     20  O   UNL     1      71.532  45.499   3.185  1.00  0.00    -0.385 OA
ATOM     21  H   UNL     1      71.775  46.479   3.121  1.00  0.00     0.211 HD
ENDBRANCH  15  20
ENDBRANCH   8   9
ENDBRANCH   7   8
ENDBRANCH   1   7
BRANCH   2  22
ATOM     22  O   UNL     1      71.658  50.834   7.886  1.00  0.00    -0.387 OA
ATOM     23  H   UNL     1      71.290  51.583   7.312  1.00  0.00     0.211 HD
ENDBRANCH   2  22
BRANCH   3  24
ATOM     24  O   UNL     1      70.441  48.643   5.421  1.00  0.00    -0.387 OA
ATOM     25  H   UNL     1      71.355  48.800   5.053  1.00  0.00     0.211 HD
ENDBRANCH   3  24
BRANCH   5  26
ATOM     26  O   UNL     1      71.123  46.553   9.918  1.00  0.00    -0.462 OA
BRANCH  26  27
ATOM     27  C   UNL     1      70.319  45.327   9.808  1.00  0.00     0.130 A 
ATOM     28  C   UNL     1      68.966  45.224  10.125  1.00  0.00     0.093 A 
ATOM     29  C   UNL     1      70.931  44.162   9.376  1.00  0.00     0.094 A 
ATOM     30  C   UNL     1      68.164  44.270   9.514  1.00  0.00     0.133 A 
ATOM     31  C   UNL     1      70.188  43.080   8.870  1.00  0.00     0.138 A 
ATOM     32  C   UNL     1      68.784  43.184   8.861  1.00  0.00     0.102 A 
ATOM     33  O   UNL     1      70.784  41.973   8.186  1.00  0.00    -0.484 OA
ATOM     34  C   UNL     1      68.010  42.139   8.126  1.00  0.00     0.174 C 
ATOM     35  C   UNL     1      70.165  40.688   8.116  1.00  0.00     0.211 C 
ATOM     36  O   UNL     1      66.913  42.478   7.554  1.00  0.00    -0.294 OA
ATOM     37  C   UNL     1      68.576  40.731   7.957  1.00  0.00     0.131 C 
BRANCH  30  38
ATOM     38  O   UNL     1      66.822  44.593   9.232  1.00  0.00    -0.507 OA
ATOM     39  H   UNL     1      66.004  44.546   9.860  1.00  0.00     0.293 HD
ENDBRANCH  30  38
BRANCH  35  40
ATOM     40  C   UNL     1      70.679  39.838   6.974  1.00  0.00    -0.003 A 
ATOM     41  C   UNL     1      69.881  39.701   5.789  1.00  0.00     0.057 A 
ATOM     42  C   UNL     1      71.994  39.242   6.927  1.00  0.00     0.011 A 
ATOM     43  C   UNL     1      70.509  39.462   4.567  1.00  0.00     0.158 A 
ATOM     44  C   UNL     1      72.561  38.885   5.729  1.00  0.00     0.051 A 
ATOM     45  C   UNL     1      71.882  39.180   4.481  1.00  0.00     0.160 A 
BRANCH  43  46
ATOM     46  O   UNL     1      69.756  39.519   3.403  1.00  0.00    -0.504 OA
ATOM     47  H   UNL     1      69.357  40.450   3.081  1.00  0.00     0.293 HD
ENDBRANCH  43  46
BRANCH  45  48
ATOM     48  O   UNL     1      72.588  38.942   3.240  1.00  0.00    -0.493 OA
ATOM     49  C   UNL     1      73.981  39.121   3.095  1.00  0.00     0.278 C 
ENDBRANCH  45  48
ENDBRANCH  35  40
ENDBRANCH  26  27
ENDBRANCH   5  26
BRANCH   4  50
ATOM     50  O   UNL     1      70.636  46.547   6.980  1.00  0.00    -0.384 OA
ATOM     51  H   UNL     1      70.118  45.756   7.371  1.00  0.00     0.211 HD
ENDBRANCH   4  50
TORSDOF 15
ENDMDL
