MODEL 1
REMARK VINA RESULT:    -7.191      0.000      0.000
REMARK INTER + INTRA:         -13.798
REMARK INTER:                 -11.816
REMARK INTRA:                  -1.982
REMARK UNBOUND:                -1.982
REMARK SMILES OC[C@@H]1O[C@@H](O)[C@H](O)[C@@H](O)[C@H]1O[C@@H]1O[C@@H](CO)[C@@H](O[C@@H]2O[C@H](CO)[C@H](O)[C@@H](O)[C@H]2O)[C@H](O)[C@H]1O
REMARK SMILES IDX 18 1 15 2 14 3 13 4 33 5 31 6 19 7 20 8 22 9 25 10 21 11
REMARK SMILES IDX 27 12 29 13 23 14 24 15 26 17 28 19 30 21 16 23 17 24 32 26
REMARK SMILES IDX 34 28 12 30 11 31 3 32 9 33 4 34 7 35 5 36 2 37 1 38 10 40
REMARK SMILES IDX 8 42 6 44
REMARK H PARENT 24 16 26 18 28 20 30 22 17 25 32 27 34 29 1 39 10 41 8 43 6 45
REMARK Flexibility Score: inf
ROOT
ATOM      1  C   UNL     1      16.482  29.468  52.573  1.00  0.00     0.184 C 
ATOM      2  C   UNL     1      17.054  28.345  53.506  1.00  0.00     0.178 C 
ATOM      3  O   UNL     1      18.089  28.966  54.331  1.00  0.00    -0.341 OA
ATOM      4  C   UNL     1      17.905  30.370  54.902  1.00  0.00     0.282 C 
ATOM      5  C   UNL     1      16.465  30.900  54.550  1.00  0.00     0.202 C 
ATOM      6  C   UNL     1      16.224  30.998  53.054  1.00  0.00     0.180 C 
ENDROOT
BRANCH   1   7
ATOM      7  O   UNL     1      15.302  28.968  51.994  1.00  0.00    -0.341 OA
BRANCH   7   8
ATOM      8  C   UNL     1      15.004  28.615  50.637  1.00  0.00     0.282 C 
ATOM      9  C   UNL     1      14.549  26.432  50.317  1.00  0.00     0.178 C 
ATOM     10  C   UNL     1      14.052  26.839  48.847  1.00  0.00     0.177 C 
ATOM     11  O   UNL     1      15.507  27.327  50.735  1.00  0.00    -0.341 OA
ATOM     12  C   UNL     1      15.204  27.725  48.236  1.00  0.00     0.179 C 
ATOM     13  C   UNL     1      15.318  29.052  49.108  1.00  0.00     0.202 C 
BRANCH   9  14
ATOM     14  C   UNL     1      15.314  25.075  50.494  1.00  0.00     0.191 C 
BRANCH  14  15
ATOM     15  O   UNL     1      15.669  24.460  49.272  1.00  0.00    -0.394 OA
ATOM     16  H   UNL     1      16.151  25.152  48.769  1.00  0.00     0.210 HD
ENDBRANCH  14  15
ENDBRANCH   9  14
BRANCH  10  17
ATOM     17  O   UNL     1      13.476  25.709  48.284  1.00  0.00    -0.387 OA
ATOM     18  H   UNL     1      12.954  26.172  47.552  1.00  0.00     0.211 HD
ENDBRANCH  10  17
BRANCH  12  19
ATOM     19  O   UNL     1      15.150  27.973  46.875  1.00  0.00    -0.387 OA
ATOM     20  H   UNL     1      14.237  27.996  46.597  1.00  0.00     0.211 HD
ENDBRANCH  12  19
BRANCH  13  21
ATOM     21  O   UNL     1      14.367  29.988  48.636  1.00  0.00    -0.385 OA
ATOM     22  H   UNL     1      14.264  30.720  49.295  1.00  0.00     0.211 HD
ENDBRANCH  13  21
ENDBRANCH   7   8
ENDBRANCH   1   7
BRANCH   2  23
ATOM     23  C   UNL     1      16.006  27.063  54.089  1.00  0.00     0.191 C 
BRANCH  23  24
ATOM     24  O   UNL     1      14.621  26.515  53.776  1.00  0.00    -0.394 OA
ATOM     25  H   UNL     1      14.485  25.522  53.438  1.00  0.00     0.210 HD
ENDBRANCH  23  24
ENDBRANCH   2  23
BRANCH   6  26
ATOM     26  O   UNL     1      16.692  31.726  51.966  1.00  0.00    -0.387 OA
ATOM     27  H   UNL     1      17.673  31.611  51.716  1.00  0.00     0.211 HD
ENDBRANCH   6  26
BRANCH   5  28
ATOM     28  O   UNL     1      15.488  30.022  55.102  1.00  0.00    -0.385 OA
ATOM     29  H   UNL     1      14.669  29.778  54.498  1.00  0.00     0.211 HD
ENDBRANCH   5  28
BRANCH   4  30
ATOM     30  O   UNL     1      19.138  31.319  54.835  1.00  0.00    -0.341 OA
BRANCH  30  31
ATOM     31  C   UNL     1      19.899  31.287  53.548  1.00  0.00     0.184 C 
ATOM     32  C   UNL     1      20.818  32.582  53.154  1.00  0.00     0.178 C 
ATOM     33  C   UNL     1      20.780  29.926  53.377  1.00  0.00     0.180 C 
ATOM     34  O   UNL     1      22.086  32.422  52.553  1.00  0.00    -0.342 OA
ATOM     35  C   UNL     1      21.612  29.852  52.099  1.00  0.00     0.201 C 
ATOM     36  C   UNL     1      22.444  31.207  51.851  1.00  0.00     0.279 C 
BRANCH  32  37
ATOM     37  C   UNL     1      20.149  33.638  52.232  1.00  0.00     0.191 C 
BRANCH  37  38
ATOM     38  O   UNL     1      18.844  33.408  51.750  1.00  0.00    -0.394 OA
ATOM     39  H   UNL     1      18.054  34.055  52.054  1.00  0.00     0.210 HD
ENDBRANCH  37  38
ENDBRANCH  32  37
BRANCH  33  40
ATOM     40  O   UNL     1      21.601  29.764  54.491  1.00  0.00    -0.387 OA
ATOM     41  H   UNL     1      22.432  30.272  54.319  1.00  0.00     0.211 HD
ENDBRANCH  33  40
BRANCH  35  42
ATOM     42  O   UNL     1      20.884  29.298  50.984  1.00  0.00    -0.385 OA
ATOM     43  H   UNL     1      20.009  29.777  50.872  1.00  0.00     0.211 HD
ENDBRANCH  35  42
BRANCH  36  44
ATOM     44  O   UNL     1      23.765  30.931  52.190  1.00  0.00    -0.366 OA
ATOM     45  H   UNL     1      24.218  31.773  52.074  1.00  0.00     0.213 HD
ENDBRANCH  36  44
ENDBRANCH  30  31
ENDBRANCH   4  30
TORSDOF 18
ENDMDL
MODEL 2
REMARK VINA RESULT:    -7.008      1.921      2.572
REMARK INTER + INTRA:         -13.497
REMARK INTER:                 -11.349
REMARK INTRA:                  -2.148
REMARK UNBOUND:                -1.982
REMARK SMILES OC[C@@H]1O[C@@H](O)[C@H](O)[C@@H](O)[C@H]1O[C@@H]1O[C@@H](CO)[C@@H](O[C@@H]2O[C@H](CO)[C@H](O)[C@@H](O)[C@H]2O)[C@H](O)[C@H]1O
REMARK SMILES IDX 18 1 15 2 14 3 13 4 33 5 31 6 19 7 20 8 22 9 25 10 21 11
REMARK SMILES IDX 27 12 29 13 23 14 24 15 26 17 28 19 30 21 16 23 17 24 32 26
REMARK SMILES IDX 34 28 12 30 11 31 3 32 9 33 4 34 7 35 5 36 2 37 1 38 10 40
REMARK SMILES IDX 8 42 6 44
REMARK H PARENT 24 16 26 18 28 20 30 22 17 25 32 27 34 29 1 39 10 41 8 43 6 45
REMARK Flexibility Score: inf
ROOT
ATOM      1  C   UNL     1      17.396  28.240  52.010  1.00  0.00     0.184 C 
ATOM      2  C   UNL     1      18.524  27.354  52.643  1.00  0.00     0.178 C 
ATOM      3  O   UNL     1      19.442  28.263  53.327  1.00  0.00    -0.341 OA
ATOM      4  C   UNL     1      18.923  29.462  54.116  1.00  0.00     0.282 C 
ATOM      5  C   UNL     1      17.349  29.443  54.134  1.00  0.00     0.202 C 
ATOM      6  C   UNL     1      16.744  29.534  52.743  1.00  0.00     0.180 C 
ENDROOT
BRANCH   1   7
ATOM      7  O   UNL     1      16.362  27.375  51.609  1.00  0.00    -0.341 OA
BRANCH   7   8
ATOM      8  C   UNL     1      16.142  26.692  50.368  1.00  0.00     0.282 C 
ATOM      9  C   UNL     1      14.458  25.197  50.410  1.00  0.00     0.178 C 
ATOM     10  C   UNL     1      14.594  25.128  48.812  1.00  0.00     0.177 C 
ATOM     11  O   UNL     1      15.678  25.525  50.954  1.00  0.00    -0.341 OA
ATOM     12  C   UNL     1      16.128  24.905  48.524  1.00  0.00     0.179 C 
ATOM     13  C   UNL     1      16.916  26.191  49.035  1.00  0.00     0.202 C 
BRANCH   9  14
ATOM     14  C   UNL     1      14.133  23.875  51.186  1.00  0.00     0.191 C 
BRANCH  14  15
ATOM     15  O   UNL     1      14.334  23.971  52.581  1.00  0.00    -0.394 OA
ATOM     16  H   UNL     1      13.676  23.359  52.976  1.00  0.00     0.210 HD
ENDBRANCH  14  15
ENDBRANCH   9  14
BRANCH  10  17
ATOM     17  O   UNL     1      13.534  24.363  48.346  1.00  0.00    -0.387 OA
ATOM     18  H   UNL     1      13.719  23.529  48.887  1.00  0.00     0.211 HD
ENDBRANCH  10  17
BRANCH  12  19
ATOM     19  O   UNL     1      16.476  24.532  47.237  1.00  0.00    -0.387 OA
ATOM     20  H   UNL     1      16.042  23.710  47.020  1.00  0.00     0.211 HD
ENDBRANCH  12  19
BRANCH  13  21
ATOM     21  O   UNL     1      16.882  27.177  48.020  1.00  0.00    -0.385 OA
ATOM     22  H   UNL     1      17.806  27.390  47.732  1.00  0.00     0.211 HD
ENDBRANCH  13  21
ENDBRANCH   7   8
ENDBRANCH   1   7
BRANCH   2  23
ATOM     23  C   UNL     1      18.153  25.743  53.234  1.00  0.00     0.191 C 
BRANCH  23  24
ATOM     24  O   UNL     1      16.933  24.842  53.348  1.00  0.00    -0.394 OA
ATOM     25  H   UNL     1      16.418  24.725  54.265  1.00  0.00     0.210 HD
ENDBRANCH  23  24
ENDBRANCH   2  23
BRANCH   6  26
ATOM     26  O   UNL     1      16.661  30.448  51.698  1.00  0.00    -0.387 OA
ATOM     27  H   UNL     1      17.051  30.165  50.800  1.00  0.00     0.211 HD
ENDBRANCH   6  26
BRANCH   5  28
ATOM     28  O   UNL     1      16.895  28.235  54.737  1.00  0.00    -0.385 OA
ATOM     29  H   UNL     1      17.197  27.336  54.295  1.00  0.00     0.211 HD
ENDBRANCH   5  28
BRANCH   4  30
ATOM     30  O   UNL     1      19.698  30.802  53.943  1.00  0.00    -0.341 OA
BRANCH  30  31
ATOM     31  C   UNL     1      21.144  30.661  53.592  1.00  0.00     0.184 C 
ATOM     32  C   UNL     1      21.697  31.417  52.250  1.00  0.00     0.178 C 
ATOM     33  C   UNL     1      22.127  31.001  54.847  1.00  0.00     0.180 C 
ATOM     34  O   UNL     1      22.961  32.049  52.236  1.00  0.00    -0.342 OA
ATOM     35  C   UNL     1      23.621  30.914  54.540  1.00  0.00     0.201 C 
ATOM     36  C   UNL     1      23.996  31.696  53.184  1.00  0.00     0.279 C 
BRANCH  32  37
ATOM     37  C   UNL     1      21.745  30.560  50.956  1.00  0.00     0.191 C 
BRANCH  37  38
ATOM     38  O   UNL     1      20.997  29.367  50.888  1.00  0.00    -0.394 OA
ATOM     39  H   UNL     1      20.771  28.947  49.934  1.00  0.00     0.210 HD
ENDBRANCH  37  38
ENDBRANCH  32  37
BRANCH  33  40
ATOM     40  O   UNL     1      21.816  32.263  55.350  1.00  0.00    -0.387 OA
ATOM     41  H   UNL     1      21.463  32.135  56.265  1.00  0.00     0.211 HD
ENDBRANCH  33  40
BRANCH  35  42
ATOM     42  O   UNL     1      24.157  29.588  54.720  1.00  0.00    -0.385 OA
ATOM     43  H   UNL     1      24.023  29.046  53.886  1.00  0.00     0.211 HD
ENDBRANCH  35  42
BRANCH  36  44
ATOM     44  O   UNL     1      24.604  32.888  53.567  1.00  0.00    -0.366 OA
ATOM     45  H   UNL     1      24.611  32.849  54.528  1.00  0.00     0.213 HD
ENDBRANCH  36  44
ENDBRANCH  30  31
ENDBRANCH   4  30
TORSDOF 18
ENDMDL
MODEL 3
REMARK VINA RESULT:    -7.004      1.639      7.338
REMARK INTER + INTRA:         -13.490
REMARK INTER:                 -10.872
REMARK INTRA:                  -2.618
REMARK UNBOUND:                -1.982
REMARK SMILES OC[C@@H]1O[C@@H](O)[C@H](O)[C@@H](O)[C@H]1O[C@@H]1O[C@@H](CO)[C@@H](O[C@@H]2O[C@H](CO)[C@H](O)[C@@H](O)[C@H]2O)[C@H](O)[C@H]1O
REMARK SMILES IDX 18 1 15 2 14 3 13 4 33 5 31 6 19 7 20 8 22 9 25 10 21 11
REMARK SMILES IDX 27 12 29 13 23 14 24 15 26 17 28 19 30 21 16 23 17 24 32 26
REMARK SMILES IDX 34 28 12 30 11 31 3 32 9 33 4 34 7 35 5 36 2 37 1 38 10 40
REMARK SMILES IDX 8 42 6 44
REMARK H PARENT 24 16 26 18 28 20 30 22 17 25 32 27 34 29 1 39 10 41 8 43 6 45
REMARK Flexibility Score: inf
ROOT
ATOM      1  C   UNL     1      17.574  29.256  52.942  1.00  0.00     0.184 C 
ATOM      2  C   UNL     1      16.390  29.993  52.225  1.00  0.00     0.178 C 
ATOM      3  O   UNL     1      15.501  28.957  51.701  1.00  0.00    -0.341 OA
ATOM      4  C   UNL     1      15.198  27.697  52.507  1.00  0.00     0.282 C 
ATOM      5  C   UNL     1      15.879  27.798  53.923  1.00  0.00     0.202 C 
ATOM      6  C   UNL     1      17.391  27.915  53.841  1.00  0.00     0.180 C 
ENDROOT
BRANCH   1   7
ATOM      7  O   UNL     1      18.269  30.218  53.695  1.00  0.00    -0.341 OA
BRANCH   7   8
ATOM      8  C   UNL     1      19.469  30.946  53.403  1.00  0.00     0.282 C 
ATOM      9  C   UNL     1      20.939  29.840  52.104  1.00  0.00     0.178 C 
ATOM     10  C   UNL     1      21.729  31.230  51.962  1.00  0.00     0.177 C 
ATOM     11  O   UNL     1      20.271  29.819  53.306  1.00  0.00    -0.341 OA
ATOM     12  C   UNL     1      21.900  31.776  53.431  1.00  0.00     0.179 C 
ATOM     13  C   UNL     1      20.449  32.083  54.011  1.00  0.00     0.202 C 
BRANCH   9  14
ATOM     14  C   UNL     1      21.775  28.518  52.206  1.00  0.00     0.191 C 
BRANCH  14  15
ATOM     15  O   UNL     1      20.985  27.346  52.207  1.00  0.00    -0.394 OA
ATOM     16  H   UNL     1      20.140  27.609  52.631  1.00  0.00     0.210 HD
ENDBRANCH  14  15
ENDBRANCH   9  14
BRANCH  10  17
ATOM     17  O   UNL     1      22.728  31.037  51.018  1.00  0.00    -0.387 OA
ATOM     18  H   UNL     1      22.446  30.116  50.708  1.00  0.00     0.211 HD
ENDBRANCH  10  17
BRANCH  12  19
ATOM     19  O   UNL     1      22.789  32.820  53.612  1.00  0.00    -0.387 OA
ATOM     20  H   UNL     1      23.531  32.515  54.130  1.00  0.00     0.211 HD
ENDBRANCH  12  19
BRANCH  13  21
ATOM     21  O   UNL     1      20.057  33.378  53.591  1.00  0.00    -0.385 OA
ATOM     22  H   UNL     1      19.071  33.418  53.515  1.00  0.00     0.211 HD
ENDBRANCH  13  21
ENDBRANCH   7   8
ENDBRANCH   1   7
BRANCH   2  23
ATOM     23  C   UNL     1      15.811  31.533  52.835  1.00  0.00     0.191 C 
BRANCH  23  24
ATOM     24  O   UNL     1      15.363  32.117  54.167  1.00  0.00    -0.394 OA
ATOM     25  H   UNL     1      15.113  33.141  54.264  1.00  0.00     0.210 HD
ENDBRANCH  23  24
ENDBRANCH   2  23
BRANCH   6  26
ATOM     26  O   UNL     1      18.478  27.147  53.439  1.00  0.00    -0.387 OA
ATOM     27  H   UNL     1      19.389  27.604  53.416  1.00  0.00     0.211 HD
ENDBRANCH   6  26
BRANCH   5  28
ATOM     28  O   UNL     1      15.381  28.942  54.610  1.00  0.00    -0.385 OA
ATOM     29  H   UNL     1      15.877  29.228  55.485  1.00  0.00     0.211 HD
ENDBRANCH   5  28
BRANCH   4  30
ATOM     30  O   UNL     1      15.191  26.351  51.724  1.00  0.00    -0.341 OA
BRANCH  30  31
ATOM     31  C   UNL     1      15.823  26.397  50.370  1.00  0.00     0.184 C 
ATOM     32  C   UNL     1      17.019  25.334  50.032  1.00  0.00     0.178 C 
ATOM     33  C   UNL     1      14.723  26.374  49.167  1.00  0.00     0.180 C 
ATOM     34  O   UNL     1      17.110  24.714  48.765  1.00  0.00    -0.342 OA
ATOM     35  C   UNL     1      15.309  26.379  47.756  1.00  0.00     0.201 C 
ATOM     36  C   UNL     1      16.480  25.287  47.595  1.00  0.00     0.279 C 
BRANCH  32  37
ATOM     37  C   UNL     1      18.469  25.846  50.250  1.00  0.00     0.191 C 
BRANCH  37  38
ATOM     38  O   UNL     1      18.703  27.232  50.362  1.00  0.00    -0.394 OA
ATOM     39  H   UNL     1      18.548  27.858  49.513  1.00  0.00     0.210 HD
ENDBRANCH  37  38
ENDBRANCH  32  37
BRANCH  33  40
ATOM     40  O   UNL     1      13.881  25.275  49.330  1.00  0.00    -0.387 OA
ATOM     41  H   UNL     1      13.084  25.588  49.825  1.00  0.00     0.211 HD
ENDBRANCH  33  40
BRANCH  35  42
ATOM     42  O   UNL     1      15.555  27.708  47.253  1.00  0.00    -0.385 OA
ATOM     43  H   UNL     1      15.293  27.763  46.285  1.00  0.00     0.211 HD
ENDBRANCH  35  42
BRANCH  36  44
ATOM     44  O   UNL     1      15.938  24.224  46.878  1.00  0.00    -0.366 OA
ATOM     45  H   UNL     1      15.786  24.587  46.000  1.00  0.00     0.213 HD
ENDBRANCH  36  44
ENDBRANCH  30  31
ENDBRANCH   4  30
TORSDOF 18
ENDMDL
MODEL 4
REMARK VINA RESULT:    -6.991      1.546      2.877
REMARK INTER + INTRA:         -13.469
REMARK INTER:                 -11.806
REMARK INTRA:                  -1.664
REMARK UNBOUND:                -1.982
REMARK SMILES OC[C@@H]1O[C@@H](O)[C@H](O)[C@@H](O)[C@H]1O[C@@H]1O[C@@H](CO)[C@@H](O[C@@H]2O[C@H](CO)[C@H](O)[C@@H](O)[C@H]2O)[C@H](O)[C@H]1O
REMARK SMILES IDX 18 1 15 2 14 3 13 4 33 5 31 6 19 7 20 8 22 9 25 10 21 11
REMARK SMILES IDX 27 12 29 13 23 14 24 15 26 17 28 19 30 21 16 23 17 24 32 26
REMARK SMILES IDX 34 28 12 30 11 31 3 32 9 33 4 34 7 35 5 36 2 37 1 38 10 40
REMARK SMILES IDX 8 42 6 44
REMARK H PARENT 24 16 26 18 28 20 30 22 17 25 32 27 34 29 1 39 10 41 8 43 6 45
REMARK Flexibility Score: inf
ROOT
ATOM      1  C   UNL     1      17.204  28.582  52.301  1.00  0.00     0.184 C 
ATOM      2  C   UNL     1      18.285  27.636  52.928  1.00  0.00     0.178 C 
ATOM      3  O   UNL     1      19.322  28.496  53.497  1.00  0.00    -0.341 OA
ATOM      4  C   UNL     1      18.961  29.783  54.233  1.00  0.00     0.282 C 
ATOM      5  C   UNL     1      17.396  29.911  54.341  1.00  0.00     0.202 C 
ATOM      6  C   UNL     1      16.717  29.974  52.984  1.00  0.00     0.180 C 
ENDROOT
BRANCH   1   7
ATOM      7  O   UNL     1      16.074  27.794  52.018  1.00  0.00    -0.341 OA
BRANCH   7   8
ATOM      8  C   UNL     1      15.579  27.284  50.773  1.00  0.00     0.282 C 
ATOM      9  C   UNL     1      15.278  28.844  49.177  1.00  0.00     0.178 C 
ATOM     10  C   UNL     1      15.078  27.630  48.147  1.00  0.00     0.177 C 
ATOM     11  O   UNL     1      14.893  28.441  50.434  1.00  0.00    -0.341 OA
ATOM     12  C   UNL     1      14.027  26.667  48.821  1.00  0.00     0.179 C 
ATOM     13  C   UNL     1      14.677  26.088  50.155  1.00  0.00     0.202 C 
BRANCH   9  14
ATOM     14  C   UNL     1      14.394  30.126  48.994  1.00  0.00     0.191 C 
BRANCH  14  15
ATOM     15  O   UNL     1      13.734  30.187  47.747  1.00  0.00    -0.394 OA
ATOM     16  H   UNL     1      14.426  29.981  47.082  1.00  0.00     0.210 HD
ENDBRANCH  14  15
ENDBRANCH   9  14
BRANCH  10  17
ATOM     17  O   UNL     1      15.015  28.180  46.875  1.00  0.00    -0.387 OA
ATOM     18  H   UNL     1      14.813  27.329  46.369  1.00  0.00     0.211 HD
ENDBRANCH  10  17
BRANCH  12  19
ATOM     19  O   UNL     1      13.471  25.686  48.019  1.00  0.00    -0.387 OA
ATOM     20  H   UNL     1      13.127  24.987  48.571  1.00  0.00     0.211 HD
ENDBRANCH  12  19
BRANCH  13  21
ATOM     21  O   UNL     1      15.472  24.964  49.822  1.00  0.00    -0.385 OA
ATOM     22  H   UNL     1      15.838  24.559  50.648  1.00  0.00     0.211 HD
ENDBRANCH  13  21
ENDBRANCH   7   8
ENDBRANCH   1   7
BRANCH   2  23
ATOM     23  C   UNL     1      17.811  26.105  53.643  1.00  0.00     0.191 C 
BRANCH  23  24
ATOM     24  O   UNL     1      17.542  24.682  53.175  1.00  0.00    -0.394 OA
ATOM     25  H   UNL     1      17.353  23.902  53.865  1.00  0.00     0.210 HD
ENDBRANCH  23  24
ENDBRANCH   2  23
BRANCH   6  26
ATOM     26  O   UNL     1      16.650  30.826  51.887  1.00  0.00    -0.387 OA
ATOM     27  H   UNL     1      16.237  31.746  52.037  1.00  0.00     0.211 HD
ENDBRANCH   6  26
BRANCH   5  28
ATOM     28  O   UNL     1      16.875  28.789  55.047  1.00  0.00    -0.385 OA
ATOM     29  H   UNL     1      17.394  27.885  54.960  1.00  0.00     0.211 HD
ENDBRANCH   5  28
BRANCH   4  30
ATOM     30  O   UNL     1      19.840  31.033  53.928  1.00  0.00    -0.341 OA
BRANCH  30  31
ATOM     31  C   UNL     1      21.256  30.739  53.549  1.00  0.00     0.184 C 
ATOM     32  C   UNL     1      21.814  31.309  52.121  1.00  0.00     0.178 C 
ATOM     33  C   UNL     1      22.311  31.121  54.733  1.00  0.00     0.180 C 
ATOM     34  O   UNL     1      23.121  31.831  52.003  1.00  0.00    -0.342 OA
ATOM     35  C   UNL     1      23.780  30.882  54.390  1.00  0.00     0.201 C 
ATOM     36  C   UNL     1      24.162  31.491  52.950  1.00  0.00     0.279 C 
BRANCH  32  37
ATOM     37  C   UNL     1      21.744  30.326  50.920  1.00  0.00     0.191 C 
BRANCH  37  38
ATOM     38  O   UNL     1      20.873  29.219  50.983  1.00  0.00    -0.394 OA
ATOM     39  H   UNL     1      20.974  28.435  50.268  1.00  0.00     0.210 HD
ENDBRANCH  37  38
ENDBRANCH  32  37
BRANCH  33  40
ATOM     40  O   UNL     1      22.120  32.448  55.113  1.00  0.00    -0.387 OA
ATOM     41  H   UNL     1      21.781  32.934  54.320  1.00  0.00     0.211 HD
ENDBRANCH  33  40
BRANCH  35  42
ATOM     42  O   UNL     1      24.217  29.540  54.689  1.00  0.00    -0.385 OA
ATOM     43  H   UNL     1      23.426  28.924  54.741  1.00  0.00     0.211 HD
ENDBRANCH  35  42
BRANCH  36  44
ATOM     44  O   UNL     1      24.876  32.660  53.189  1.00  0.00    -0.366 OA
ATOM     45  H   UNL     1      24.443  33.046  53.957  1.00  0.00     0.213 HD
ENDBRANCH  36  44
ENDBRANCH  30  31
ENDBRANCH   4  30
TORSDOF 18
ENDMDL
MODEL 5
REMARK VINA RESULT:    -6.942      1.523      8.061
REMARK INTER + INTRA:         -13.388
REMARK INTER:                 -12.000
REMARK INTRA:                  -1.388
REMARK UNBOUND:                -1.982
REMARK SMILES OC[C@@H]1O[C@@H](O)[C@H](O)[C@@H](O)[C@H]1O[C@@H]1O[C@@H](CO)[C@@H](O[C@@H]2O[C@H](CO)[C@H](O)[C@@H](O)[C@H]2O)[C@H](O)[C@H]1O
REMARK SMILES IDX 18 1 15 2 14 3 13 4 33 5 31 6 19 7 20 8 22 9 25 10 21 11
REMARK SMILES IDX 27 12 29 13 23 14 24 15 26 17 28 19 30 21 16 23 17 24 32 26
REMARK SMILES IDX 34 28 12 30 11 31 3 32 9 33 4 34 7 35 5 36 2 37 1 38 10 40
REMARK SMILES IDX 8 42 6 44
REMARK H PARENT 24 16 26 18 28 20 30 22 17 25 32 27 34 29 1 39 10 41 8 43 6 45
REMARK Flexibility Score: inf
ROOT
ATOM      1  C   UNL     1      17.970  29.938  53.249  1.00  0.00     0.184 C 
ATOM      2  C   UNL     1      16.670  30.629  53.789  1.00  0.00     0.178 C 
ATOM      3  O   UNL     1      15.605  30.336  52.831  1.00  0.00    -0.341 OA
ATOM      4  C   UNL     1      15.487  28.960  52.181  1.00  0.00     0.282 C 
ATOM      5  C   UNL     1      16.569  27.992  52.790  1.00  0.00     0.202 C 
ATOM      6  C   UNL     1      17.989  28.472  52.549  1.00  0.00     0.180 C 
ENDROOT
BRANCH   1   7
ATOM      7  O   UNL     1      18.915  29.958  54.289  1.00  0.00    -0.341 OA
BRANCH   7   8
ATOM      8  C   UNL     1      20.348  30.010  54.249  1.00  0.00     0.282 C 
ATOM      9  C   UNL     1      21.194  32.024  53.697  1.00  0.00     0.178 C 
ATOM     10  C   UNL     1      22.624  31.450  54.144  1.00  0.00     0.177 C 
ATOM     11  O   UNL     1      20.404  30.984  53.263  1.00  0.00    -0.341 OA
ATOM     12  C   UNL     1      22.776  30.062  53.411  1.00  0.00     0.179 C 
ATOM     13  C   UNL     1      21.650  29.086  53.972  1.00  0.00     0.202 C 
BRANCH   9  14
ATOM     14  C   UNL     1      21.131  32.980  52.457  1.00  0.00     0.191 C 
BRANCH  14  15
ATOM     15  O   UNL     1      19.823  33.186  51.964  1.00  0.00    -0.394 OA
ATOM     16  H   UNL     1      19.231  32.984  52.721  1.00  0.00     0.210 HD
ENDBRANCH  14  15
ENDBRANCH   9  14
BRANCH  10  17
ATOM     17  O   UNL     1      23.516  32.513  54.118  1.00  0.00    -0.387 OA
ATOM     18  H   UNL     1      23.463  32.759  55.098  1.00  0.00     0.211 HD
ENDBRANCH  10  17
BRANCH  12  19
ATOM     19  O   UNL     1      24.036  29.490  53.406  1.00  0.00    -0.387 OA
ATOM     20  H   UNL     1      24.114  28.910  52.652  1.00  0.00     0.211 HD
ENDBRANCH  12  19
BRANCH  13  21
ATOM     21  O   UNL     1      22.120  28.490  55.168  1.00  0.00    -0.385 OA
ATOM     22  H   UNL     1      21.863  29.051  55.943  1.00  0.00     0.211 HD
ENDBRANCH  13  21
ENDBRANCH   7   8
ENDBRANCH   1   7
BRANCH   2  23
ATOM     23  C   UNL     1      16.395  30.762  55.517  1.00  0.00     0.191 C 
BRANCH  23  24
ATOM     24  O   UNL     1      15.216  30.679  56.476  1.00  0.00    -0.394 OA
ATOM     25  H   UNL     1      14.666  29.784  56.597  1.00  0.00     0.210 HD
ENDBRANCH  23  24
ENDBRANCH   2  23
BRANCH   6  26
ATOM     26  O   UNL     1      18.857  28.673  51.481  1.00  0.00    -0.387 OA
ATOM     27  H   UNL     1      19.524  29.439  51.561  1.00  0.00     0.211 HD
ENDBRANCH   6  26
BRANCH   5  28
ATOM     28  O   UNL     1      16.370  27.881  54.197  1.00  0.00    -0.385 OA
ATOM     29  H   UNL     1      15.828  28.643  54.665  1.00  0.00     0.211 HD
ENDBRANCH   5  28
BRANCH   4  30
ATOM     30  O   UNL     1      15.164  28.931  50.658  1.00  0.00    -0.341 OA
BRANCH  30  31
ATOM     31  C   UNL     1      15.368  27.610  49.988  1.00  0.00     0.184 C 
ATOM     32  C   UNL     1      14.274  26.423  50.255  1.00  0.00     0.178 C 
ATOM     33  C   UNL     1      15.627  27.756  48.385  1.00  0.00     0.180 C 
ATOM     34  O   UNL     1      13.855  25.568  49.212  1.00  0.00    -0.342 OA
ATOM     35  C   UNL     1      15.803  26.437  47.636  1.00  0.00     0.201 C 
ATOM     36  C   UNL     1      14.655  25.377  48.021  1.00  0.00     0.279 C 
BRANCH  32  37
ATOM     37  C   UNL     1      14.623  25.416  51.385  1.00  0.00     0.191 C 
BRANCH  37  38
ATOM     38  O   UNL     1      13.768  25.305  52.501  1.00  0.00    -0.394 OA
ATOM     39  H   UNL     1      12.741  25.575  52.400  1.00  0.00     0.210 HD
ENDBRANCH  37  38
ENDBRANCH  32  37
BRANCH  33  40
ATOM     40  O   UNL     1      14.590  28.494  47.815  1.00  0.00    -0.387 OA
ATOM     41  H   UNL     1      13.836  28.481  48.454  1.00  0.00     0.211 HD
ENDBRANCH  33  40
BRANCH  35  42
ATOM     42  O   UNL     1      17.168  25.974  47.624  1.00  0.00    -0.385 OA
ATOM     43  H   UNL     1      17.765  26.651  48.064  1.00  0.00     0.211 HD
ENDBRANCH  35  42
BRANCH  36  44
ATOM     44  O   UNL     1      13.767  25.344  46.950  1.00  0.00    -0.366 OA
ATOM     45  H   UNL     1      13.737  26.256  46.643  1.00  0.00     0.213 HD
ENDBRANCH  36  44
ENDBRANCH  30  31
ENDBRANCH   4  30
TORSDOF 18
ENDMDL
MODEL 6
REMARK VINA RESULT:    -6.879      1.862      2.698
REMARK INTER + INTRA:         -13.285
REMARK INTER:                 -11.291
REMARK INTRA:                  -1.994
REMARK UNBOUND:                -1.982
REMARK SMILES OC[C@@H]1O[C@@H](O)[C@H](O)[C@@H](O)[C@H]1O[C@@H]1O[C@@H](CO)[C@@H](O[C@@H]2O[C@H](CO)[C@H](O)[C@@H](O)[C@H]2O)[C@H](O)[C@H]1O
REMARK SMILES IDX 18 1 15 2 14 3 13 4 33 5 31 6 19 7 20 8 22 9 25 10 21 11
REMARK SMILES IDX 27 12 29 13 23 14 24 15 26 17 28 19 30 21 16 23 17 24 32 26
REMARK SMILES IDX 34 28 12 30 11 31 3 32 9 33 4 34 7 35 5 36 2 37 1 38 10 40
REMARK SMILES IDX 8 42 6 44
REMARK H PARENT 24 16 26 18 28 20 30 22 17 25 32 27 34 29 1 39 10 41 8 43 6 45
REMARK Flexibility Score: inf
ROOT
ATOM      1  C   UNL     1      17.423  28.504  51.850  1.00  0.00     0.184 C 
ATOM      2  C   UNL     1      18.706  27.838  52.457  1.00  0.00     0.178 C 
ATOM      3  O   UNL     1      19.552  28.923  52.952  1.00  0.00    -0.341 OA
ATOM      4  C   UNL     1      18.949  30.132  53.662  1.00  0.00     0.282 C 
ATOM      5  C   UNL     1      17.398  29.924  53.836  1.00  0.00     0.202 C 
ATOM      6  C   UNL     1      16.672  29.784  52.509  1.00  0.00     0.180 C 
ENDROOT
BRANCH   1   7
ATOM      7  O   UNL     1      16.481  27.481  51.644  1.00  0.00    -0.341 OA
BRANCH   7   8
ATOM      8  C   UNL     1      16.172  26.717  50.469  1.00  0.00     0.282 C 
ATOM      9  C   UNL     1      14.566  25.165  50.760  1.00  0.00     0.178 C 
ATOM     10  C   UNL     1      14.551  25.005  49.163  1.00  0.00     0.177 C 
ATOM     11  O   UNL     1      15.817  25.570  51.163  1.00  0.00    -0.341 OA
ATOM     12  C   UNL     1      16.058  24.824  48.738  1.00  0.00     0.179 C 
ATOM     13  C   UNL     1      16.835  26.166  49.097  1.00  0.00     0.202 C 
BRANCH   9  14
ATOM     14  C   UNL     1      14.374  23.880  51.637  1.00  0.00     0.191 C 
BRANCH  14  15
ATOM     15  O   UNL     1      14.930  23.988  52.932  1.00  0.00    -0.394 OA
ATOM     16  H   UNL     1      14.853  24.939  53.163  1.00  0.00     0.210 HD
ENDBRANCH  14  15
ENDBRANCH   9  14
BRANCH  10  17
ATOM     17  O   UNL     1      13.484  24.176  48.847  1.00  0.00    -0.387 OA
ATOM     18  H   UNL     1      12.977  24.825  48.261  1.00  0.00     0.211 HD
ENDBRANCH  10  17
BRANCH  12  19
ATOM     19  O   UNL     1      16.297  24.388  47.446  1.00  0.00    -0.387 OA
ATOM     20  H   UNL     1      17.158  23.979  47.407  1.00  0.00     0.211 HD
ENDBRANCH  12  19
BRANCH  13  21
ATOM     21  O   UNL     1      16.661  27.089  48.036  1.00  0.00    -0.385 OA
ATOM     22  H   UNL     1      15.972  26.750  47.411  1.00  0.00     0.211 HD
ENDBRANCH  13  21
ENDBRANCH   7   8
ENDBRANCH   1   7
BRANCH   2  23
ATOM     23  C   UNL     1      18.601  26.271  53.242  1.00  0.00     0.191 C 
BRANCH  23  24
ATOM     24  O   UNL     1      17.776  24.999  53.104  1.00  0.00    -0.394 OA
ATOM     25  H   UNL     1      16.811  24.920  53.530  1.00  0.00     0.210 HD
ENDBRANCH  23  24
ENDBRANCH   2  23
BRANCH   6  26
ATOM     26  O   UNL     1      16.382  30.557  51.390  1.00  0.00    -0.387 OA
ATOM     27  H   UNL     1      15.522  31.104  51.412  1.00  0.00     0.211 HD
ENDBRANCH   6  26
BRANCH   5  28
ATOM     28  O   UNL     1      17.159  28.746  54.600  1.00  0.00    -0.385 OA
ATOM     29  H   UNL     1      17.882  28.480  55.308  1.00  0.00     0.211 HD
ENDBRANCH   5  28
BRANCH   4  30
ATOM     30  O   UNL     1      19.525  31.527  53.278  1.00  0.00    -0.341 OA
BRANCH  30  31
ATOM     31  C   UNL     1      21.014  31.643  53.346  1.00  0.00     0.184 C 
ATOM     32  C   UNL     1      21.812  30.774  54.479  1.00  0.00     0.178 C 
ATOM     33  C   UNL     1      21.724  31.422  51.896  1.00  0.00     0.180 C 
ATOM     34  O   UNL     1      23.045  30.149  54.187  1.00  0.00    -0.342 OA
ATOM     35  C   UNL     1      23.250  31.488  51.906  1.00  0.00     0.201 C 
ATOM     36  C   UNL     1      23.876  30.590  53.087  1.00  0.00     0.279 C 
BRANCH  32  37
ATOM     37  C   UNL     1      22.127  31.513  55.809  1.00  0.00     0.191 C 
BRANCH  37  38
ATOM     38  O   UNL     1      21.191  32.431  56.328  1.00  0.00    -0.394 OA
ATOM     39  H   UNL     1      20.167  32.349  56.043  1.00  0.00     0.210 HD
ENDBRANCH  37  38
ENDBRANCH  32  37
BRANCH  33  40
ATOM     40  O   UNL     1      21.303  30.208  51.355  1.00  0.00    -0.387 OA
ATOM     41  H   UNL     1      21.354  29.533  52.076  1.00  0.00     0.211 HD
ENDBRANCH  33  40
BRANCH  35  42
ATOM     42  O   UNL     1      23.757  32.828  51.741  1.00  0.00    -0.385 OA
ATOM     43  H   UNL     1      23.202  33.324  51.067  1.00  0.00     0.211 HD
ENDBRANCH  35  42
BRANCH  36  44
ATOM     44  O   UNL     1      24.380  29.440  52.488  1.00  0.00    -0.366 OA
ATOM     45  H   UNL     1      23.845  29.335  51.695  1.00  0.00     0.213 HD
ENDBRANCH  36  44
ENDBRANCH  30  31
ENDBRANCH   4  30
TORSDOF 18
ENDMDL
MODEL 7
REMARK VINA RESULT:    -6.857      1.899      3.023
REMARK INTER + INTRA:         -13.248
REMARK INTER:                 -11.767
REMARK INTRA:                  -1.481
REMARK UNBOUND:                -1.982
REMARK SMILES OC[C@@H]1O[C@@H](O)[C@H](O)[C@@H](O)[C@H]1O[C@@H]1O[C@@H](CO)[C@@H](O[C@@H]2O[C@H](CO)[C@H](O)[C@@H](O)[C@H]2O)[C@H](O)[C@H]1O
REMARK SMILES IDX 18 1 15 2 14 3 13 4 33 5 31 6 19 7 20 8 22 9 25 10 21 11
REMARK SMILES IDX 27 12 29 13 23 14 24 15 26 17 28 19 30 21 16 23 17 24 32 26
REMARK SMILES IDX 34 28 12 30 11 31 3 32 9 33 4 34 7 35 5 36 2 37 1 38 10 40
REMARK SMILES IDX 8 42 6 44
REMARK H PARENT 24 16 26 18 28 20 30 22 17 25 32 27 34 29 1 39 10 41 8 43 6 45
REMARK Flexibility Score: inf
ROOT
ATOM      1  C   UNL     1      17.301  29.351  54.616  1.00  0.00     0.184 C 
ATOM      2  C   UNL     1      17.150  30.529  55.640  1.00  0.00     0.178 C 
ATOM      3  O   UNL     1      18.481  31.104  55.824  1.00  0.00    -0.341 OA
ATOM      4  C   UNL     1      19.435  31.277  54.645  1.00  0.00     0.282 C 
ATOM      5  C   UNL     1      18.710  30.859  53.311  1.00  0.00     0.202 C 
ATOM      6  C   UNL     1      18.269  29.406  53.313  1.00  0.00     0.180 C 
ENDROOT
BRANCH   1   7
ATOM      7  O   UNL     1      16.007  28.985  54.207  1.00  0.00    -0.341 OA
BRANCH   7   8
ATOM      8  C   UNL     1      15.522  28.528  52.938  1.00  0.00     0.282 C 
ATOM      9  C   UNL     1      15.020  26.333  52.865  1.00  0.00     0.178 C 
ATOM     10  C   UNL     1      14.325  26.626  51.449  1.00  0.00     0.177 C 
ATOM     11  O   UNL     1      16.030  27.244  53.072  1.00  0.00    -0.341 OA
ATOM     12  C   UNL     1      15.384  27.443  50.614  1.00  0.00     0.179 C 
ATOM     13  C   UNL     1      15.622  28.834  51.350  1.00  0.00     0.202 C 
BRANCH   9  14
ATOM     14  C   UNL     1      15.797  24.984  53.046  1.00  0.00     0.191 C 
BRANCH  14  15
ATOM     15  O   UNL     1      14.990  23.922  53.514  1.00  0.00    -0.394 OA
ATOM     16  H   UNL     1      14.588  24.257  54.345  1.00  0.00     0.210 HD
ENDBRANCH  14  15
ENDBRANCH   9  14
BRANCH  10  17
ATOM     17  O   UNL     1      13.673  25.463  51.066  1.00  0.00    -0.387 OA
ATOM     18  H   UNL     1      14.487  24.943  50.766  1.00  0.00     0.211 HD
ENDBRANCH  10  17
BRANCH  12  19
ATOM     19  O   UNL     1      15.143  27.580  49.258  1.00  0.00    -0.387 OA
ATOM     20  H   UNL     1      15.755  27.032  48.772  1.00  0.00     0.211 HD
ENDBRANCH  12  19
BRANCH  13  21
ATOM     21  O   UNL     1      14.618  29.744  50.937  1.00  0.00    -0.385 OA
ATOM     22  H   UNL     1      13.919  29.259  50.430  1.00  0.00     0.211 HD
ENDBRANCH  13  21
ENDBRANCH   7   8
ENDBRANCH   1   7
BRANCH   2  23
ATOM     23  C   UNL     1      15.679  31.488  55.671  1.00  0.00     0.191 C 
BRANCH  23  24
ATOM     24  O   UNL     1      15.005  32.539  54.801  1.00  0.00    -0.394 OA
ATOM     25  H   UNL     1      14.919  33.544  55.120  1.00  0.00     0.210 HD
ENDBRANCH  23  24
ENDBRANCH   2  23
BRANCH   6  26
ATOM     26  O   UNL     1      18.844  28.140  53.326  1.00  0.00    -0.387 OA
ATOM     27  H   UNL     1      19.078  27.726  52.425  1.00  0.00     0.211 HD
ENDBRANCH   6  26
BRANCH   5  28
ATOM     28  O   UNL     1      17.556  31.674  53.122  1.00  0.00    -0.385 OA
ATOM     29  H   UNL     1      16.943  31.835  53.954  1.00  0.00     0.211 HD
ENDBRANCH   5  28
BRANCH   4  30
ATOM     30  O   UNL     1      20.926  30.897  54.889  1.00  0.00    -0.341 OA
BRANCH  30  31
ATOM     31  C   UNL     1      21.821  31.032  53.699  1.00  0.00     0.184 C 
ATOM     32  C   UNL     1      23.368  31.506  53.939  1.00  0.00     0.178 C 
ATOM     33  C   UNL     1      21.802  29.707  52.751  1.00  0.00     0.180 C 
ATOM     34  O   UNL     1      24.431  30.930  53.208  1.00  0.00    -0.342 OA
ATOM     35  C   UNL     1      22.730  29.767  51.538  1.00  0.00     0.201 C 
ATOM     36  C   UNL     1      24.206  30.263  51.943  1.00  0.00     0.279 C 
BRANCH  32  37
ATOM     37  C   UNL     1      23.649  33.026  53.781  1.00  0.00     0.191 C 
BRANCH  37  38
ATOM     38  O   UNL     1      24.977  33.471  53.619  1.00  0.00    -0.394 OA
ATOM     39  H   UNL     1      25.580  33.044  52.851  1.00  0.00     0.210 HD
ENDBRANCH  37  38
ENDBRANCH  32  37
BRANCH  33  40
ATOM     40  O   UNL     1      22.097  28.582  53.521  1.00  0.00    -0.387 OA
ATOM     41  H   UNL     1      21.399  27.908  53.332  1.00  0.00     0.211 HD
ENDBRANCH  33  40
BRANCH  35  42
ATOM     42  O   UNL     1      22.111  30.372  50.385  1.00  0.00    -0.385 OA
ATOM     43  H   UNL     1      22.232  31.368  50.413  1.00  0.00     0.211 HD
ENDBRANCH  35  42
BRANCH  36  44
ATOM     44  O   UNL     1      25.020  29.134  51.942  1.00  0.00    -0.366 OA
ATOM     45  H   UNL     1      24.705  28.618  52.691  1.00  0.00     0.213 HD
ENDBRANCH  36  44
ENDBRANCH  30  31
ENDBRANCH   4  30
TORSDOF 18
ENDMDL
MODEL 8
REMARK VINA RESULT:    -6.813      2.492      8.500
REMARK INTER + INTRA:         -13.176
REMARK INTER:                 -11.159
REMARK INTRA:                  -2.017
REMARK UNBOUND:                -1.982
REMARK SMILES OC[C@@H]1O[C@@H](O)[C@H](O)[C@@H](O)[C@H]1O[C@@H]1O[C@@H](CO)[C@@H](O[C@@H]2O[C@H](CO)[C@H](O)[C@@H](O)[C@H]2O)[C@H](O)[C@H]1O
REMARK SMILES IDX 18 1 15 2 14 3 13 4 33 5 31 6 19 7 20 8 22 9 25 10 21 11
REMARK SMILES IDX 27 12 29 13 23 14 24 15 26 17 28 19 30 21 16 23 17 24 32 26
REMARK SMILES IDX 34 28 12 30 11 31 3 32 9 33 4 34 7 35 5 36 2 37 1 38 10 40
REMARK SMILES IDX 8 42 6 44
REMARK H PARENT 24 16 26 18 28 20 30 22 17 25 32 27 34 29 1 39 10 41 8 43 6 45
REMARK Flexibility Score: inf
ROOT
ATOM      1  C   UNL     1      20.159  26.591  52.859  1.00  0.00     0.184 C 
ATOM      2  C   UNL     1      21.014  25.538  52.074  1.00  0.00     0.178 C 
ATOM      3  O   UNL     1      20.074  24.602  51.460  1.00  0.00    -0.341 OA
ATOM      4  C   UNL     1      18.767  25.090  50.842  1.00  0.00     0.282 C 
ATOM      5  C   UNL     1      18.710  26.662  50.895  1.00  0.00     0.202 C 
ATOM      6  C   UNL     1      18.758  27.204  52.314  1.00  0.00     0.180 C 
ENDROOT
BRANCH   1   7
ATOM      7  O   UNL     1      21.016  27.651  53.203  1.00  0.00    -0.341 OA
BRANCH   7   8
ATOM      8  C   UNL     1      20.781  29.065  53.253  1.00  0.00     0.282 C 
ATOM      9  C   UNL     1      22.389  30.314  52.289  1.00  0.00     0.178 C 
ATOM     10  C   UNL     1      21.384  31.558  52.423  1.00  0.00     0.177 C 
ATOM     11  O   UNL     1      22.125  29.408  53.290  1.00  0.00    -0.341 OA
ATOM     12  C   UNL     1      20.884  31.544  53.918  1.00  0.00     0.179 C 
ATOM     13  C   UNL     1      20.053  30.205  54.145  1.00  0.00     0.202 C 
BRANCH   9  14
ATOM     14  C   UNL     1      23.919  30.568  52.516  1.00  0.00     0.191 C 
BRANCH  14  15
ATOM     15  O   UNL     1      24.728  29.440  52.248  1.00  0.00    -0.394 OA
ATOM     16  H   UNL     1      24.264  28.687  52.675  1.00  0.00     0.210 HD
ENDBRANCH  14  15
ENDBRANCH   9  14
BRANCH  10  17
ATOM     17  O   UNL     1      21.958  32.621  51.741  1.00  0.00    -0.387 OA
ATOM     18  H   UNL     1      21.739  33.346  52.411  1.00  0.00     0.211 HD
ENDBRANCH  10  17
BRANCH  12  19
ATOM     19  O   UNL     1      20.225  32.674  54.369  1.00  0.00    -0.387 OA
ATOM     20  H   UNL     1      20.480  33.422  53.832  1.00  0.00     0.211 HD
ENDBRANCH  12  19
BRANCH  13  21
ATOM     21  O   UNL     1      18.720  30.419  53.717  1.00  0.00    -0.385 OA
ATOM     22  H   UNL     1      18.721  30.960  52.887  1.00  0.00     0.211 HD
ENDBRANCH  13  21
ENDBRANCH   7   8
ENDBRANCH   1   7
BRANCH   2  23
ATOM     23  C   UNL     1      22.524  26.015  51.316  1.00  0.00     0.191 C 
BRANCH  23  24
ATOM     24  O   UNL     1      23.463  27.213  51.338  1.00  0.00    -0.394 OA
ATOM     25  H   UNL     1      24.513  27.089  51.371  1.00  0.00     0.210 HD
ENDBRANCH  23  24
ENDBRANCH   2  23
BRANCH   6  26
ATOM     26  O   UNL     1      17.972  27.197  53.461  1.00  0.00    -0.387 OA
ATOM     27  H   UNL     1      17.764  28.099  53.888  1.00  0.00     0.211 HD
ENDBRANCH   6  26
BRANCH   5  28
ATOM     28  O   UNL     1      19.815  27.202  50.176  1.00  0.00    -0.385 OA
ATOM     29  H   UNL     1      20.711  27.331  50.701  1.00  0.00     0.211 HD
ENDBRANCH   5  28
BRANCH   4  30
ATOM     30  O   UNL     1      17.494  24.240  51.135  1.00  0.00    -0.341 OA
BRANCH  30  31
ATOM     31  C   UNL     1      16.205  24.998  51.125  1.00  0.00     0.184 C 
ATOM     32  C   UNL     1      15.045  24.547  50.064  1.00  0.00     0.178 C 
ATOM     33  C   UNL     1      15.553  25.140  52.613  1.00  0.00     0.180 C 
ATOM     34  O   UNL     1      13.682  24.534  50.434  1.00  0.00    -0.342 OA
ATOM     35  C   UNL     1      14.213  25.870  52.663  1.00  0.00     0.201 C 
ATOM     36  C   UNL     1      13.191  25.317  51.549  1.00  0.00     0.279 C 
BRANCH  32  37
ATOM     37  C   UNL     1      15.011  25.323  48.719  1.00  0.00     0.191 C 
BRANCH  37  38
ATOM     38  O   UNL     1      14.519  24.683  47.563  1.00  0.00    -0.394 OA
ATOM     39  H   UNL     1      13.808  23.896  47.666  1.00  0.00     0.210 HD
ENDBRANCH  37  38
ENDBRANCH  32  37
BRANCH  33  40
ATOM     40  O   UNL     1      15.429  23.875  53.185  1.00  0.00    -0.387 OA
ATOM     41  H   UNL     1      15.382  23.222  52.445  1.00  0.00     0.211 HD
ENDBRANCH  33  40
BRANCH  35  42
ATOM     42  O   UNL     1      14.354  27.299  52.793  1.00  0.00    -0.385 OA
ATOM     43  H   UNL     1      13.909  27.613  53.637  1.00  0.00     0.211 HD
ENDBRANCH  35  42
BRANCH  36  44
ATOM     44  O   UNL     1      12.268  24.518  52.217  1.00  0.00    -0.366 OA
ATOM     45  H   UNL     1      11.468  24.593  51.687  1.00  0.00     0.213 HD
ENDBRANCH  36  44
ENDBRANCH  30  31
ENDBRANCH   4  30
TORSDOF 18
ENDMDL
MODEL 9
REMARK VINA RESULT:    -6.788      2.455      4.148
REMARK INTER + INTRA:         -13.134
REMARK INTER:                 -12.182
REMARK INTRA:                  -0.952
REMARK UNBOUND:                -1.982
REMARK SMILES OC[C@@H]1O[C@@H](O)[C@H](O)[C@@H](O)[C@H]1O[C@@H]1O[C@@H](CO)[C@@H](O[C@@H]2O[C@H](CO)[C@H](O)[C@@H](O)[C@H]2O)[C@H](O)[C@H]1O
REMARK SMILES IDX 18 1 15 2 14 3 13 4 33 5 31 6 19 7 20 8 22 9 25 10 21 11
REMARK SMILES IDX 27 12 29 13 23 14 24 15 26 17 28 19 30 21 16 23 17 24 32 26
REMARK SMILES IDX 34 28 12 30 11 31 3 32 9 33 4 34 7 35 5 36 2 37 1 38 10 40
REMARK SMILES IDX 8 42 6 44
REMARK H PARENT 24 16 26 18 28 20 30 22 17 25 32 27 34 29 1 39 10 41 8 43 6 45
REMARK Flexibility Score: inf
ROOT
ATOM      1  C   UNL     1      18.898  26.972  51.850  1.00  0.00     0.184 C 
ATOM      2  C   UNL     1      20.047  26.080  51.264  1.00  0.00     0.178 C 
ATOM      3  O   UNL     1      21.079  26.990  50.771  1.00  0.00    -0.341 OA
ATOM      4  C   UNL     1      21.455  28.251  51.545  1.00  0.00     0.282 C 
ATOM      5  C   UNL     1      20.661  28.293  52.904  1.00  0.00     0.202 C 
ATOM      6  C   UNL     1      19.155  28.330  52.704  1.00  0.00     0.180 C 
ENDROOT
BRANCH   1   7
ATOM      7  O   UNL     1      18.048  26.127  52.585  1.00  0.00    -0.341 OA
BRANCH   7   8
ATOM      8  C   UNL     1      16.755  25.595  52.266  1.00  0.00     0.282 C 
ATOM      9  C   UNL     1      16.133  25.879  50.120  1.00  0.00     0.178 C 
ATOM     10  C   UNL     1      14.926  24.866  50.425  1.00  0.00     0.177 C 
ATOM     11  O   UNL     1      16.482  26.531  51.279  1.00  0.00    -0.341 OA
ATOM     12  C   UNL     1      14.247  25.397  51.746  1.00  0.00     0.179 C 
ATOM     13  C   UNL     1      15.310  25.276  52.926  1.00  0.00     0.202 C 
BRANCH   9  14
ATOM     14  C   UNL     1      15.860  27.093  49.167  1.00  0.00     0.191 C 
BRANCH  14  15
ATOM     15  O   UNL     1      16.874  27.298  48.204  1.00  0.00    -0.394 OA
ATOM     16  H   UNL     1      16.564  28.060  47.667  1.00  0.00     0.210 HD
ENDBRANCH  14  15
ENDBRANCH   9  14
BRANCH  10  17
ATOM     17  O   UNL     1      14.305  24.595  49.214  1.00  0.00    -0.387 OA
ATOM     18  H   UNL     1      13.388  24.372  49.579  1.00  0.00     0.211 HD
ENDBRANCH  10  17
BRANCH  12  19
ATOM     19  O   UNL     1      13.012  24.866  52.073  1.00  0.00    -0.387 OA
ATOM     20  H   UNL     1      12.325  25.434  51.730  1.00  0.00     0.211 HD
ENDBRANCH  12  19
BRANCH  13  21
ATOM     21  O   UNL     1      15.263  23.960  53.447  1.00  0.00    -0.385 OA
ATOM     22  H   UNL     1      14.336  23.616  53.396  1.00  0.00     0.211 HD
ENDBRANCH  13  21
ENDBRANCH   7   8
ENDBRANCH   1   7
BRANCH   2  23
ATOM     23  C   UNL     1      20.407  24.521  51.984  1.00  0.00     0.191 C 
BRANCH  23  24
ATOM     24  O   UNL     1      20.572  23.939  53.381  1.00  0.00    -0.394 OA
ATOM     25  H   UNL     1      19.781  23.426  53.861  1.00  0.00     0.210 HD
ENDBRANCH  23  24
ENDBRANCH   2  23
BRANCH   6  26
ATOM     26  O   UNL     1      18.191  29.187  52.183  1.00  0.00    -0.387 OA
ATOM     27  H   UNL     1      18.183  29.319  51.173  1.00  0.00     0.211 HD
ENDBRANCH   6  26
BRANCH   5  28
ATOM     28  O   UNL     1      20.978  27.140  53.677  1.00  0.00    -0.385 OA
ATOM     29  H   UNL     1      20.189  26.660  54.168  1.00  0.00     0.211 HD
ENDBRANCH   5  28
BRANCH   4  30
ATOM     30  O   UNL     1      21.667  29.548  50.709  1.00  0.00    -0.341 OA
BRANCH  30  31
ATOM     31  C   UNL     1      22.241  30.705  51.463  1.00  0.00     0.184 C 
ATOM     32  C   UNL     1      21.469  31.216  52.811  1.00  0.00     0.178 C 
ATOM     33  C   UNL     1      23.827  30.512  51.788  1.00  0.00     0.180 C 
ATOM     34  O   UNL     1      22.189  31.619  53.958  1.00  0.00    -0.342 OA
ATOM     35  C   UNL     1      24.463  31.644  52.593  1.00  0.00     0.201 C 
ATOM     36  C   UNL     1      23.573  32.035  53.875  1.00  0.00     0.279 C 
BRANCH  32  37
ATOM     37  C   UNL     1      20.472  32.392  52.621  1.00  0.00     0.191 C 
BRANCH  37  38
ATOM     38  O   UNL     1      19.093  32.168  52.816  1.00  0.00    -0.394 OA
ATOM     39  H   UNL     1      18.660  32.380  53.766  1.00  0.00     0.210 HD
ENDBRANCH  37  38
ENDBRANCH  32  37
BRANCH  33  40
ATOM     40  O   UNL     1      24.022  29.296  52.440  1.00  0.00    -0.387 OA
ATOM     41  H   UNL     1      23.153  28.824  52.444  1.00  0.00     0.211 HD
ENDBRANCH  33  40
BRANCH  35  42
ATOM     42  O   UNL     1      24.955  32.718  51.764  1.00  0.00    -0.385 OA
ATOM     43  H   UNL     1      24.985  32.424  50.804  1.00  0.00     0.211 HD
ENDBRANCH  35  42
BRANCH  36  44
ATOM     44  O   UNL     1      24.215  31.494  54.985  1.00  0.00    -0.366 OA
ATOM     45  H   UNL     1      24.246  30.550  54.800  1.00  0.00     0.213 HD
ENDBRANCH  36  44
ENDBRANCH  30  31
ENDBRANCH   4  30
TORSDOF 18
ENDMDL
