MODEL 1
REMARK VINA RESULT:    -3.699      0.000      0.000
REMARK INTER + INTRA:          -7.590
REMARK INTER:                  -6.944
REMARK INTRA:                  -0.647
REMARK UNBOUND:                -0.647
REMARK SMILES O=C([O-])CCCCCCCCCCCCCCC(=O)[O-]
REMARK SMILES IDX 10 1 9 2 8 3 7 4 6 5 5 6 4 7 2 8 1 9 3 10 11 11 12 12 13 13
REMARK SMILES IDX 14 14 15 15 16 16 17 17 18 18 19 19 20 20
REMARK H PARENT
REMARK Flexibility Score: inf
ROOT
ATOM      1  C   UNL     1      -3.089   5.071  -1.320  1.00  0.00     0.000 C 
ENDROOT
BRANCH   1   2
ATOM      2  C   UNL     1      -3.139   4.208  -0.049  1.00  0.00     0.000 C 
BRANCH   2   3
ATOM      3  C   UNL     1      -2.473   2.833  -0.233  1.00  0.00     0.000 C 
BRANCH   3   4
ATOM      4  C   UNL     1      -3.405   1.620  -0.033  1.00  0.00     0.000 C 
BRANCH   4   5
ATOM      5  C   UNL     1      -2.941   0.319  -0.718  1.00  0.00     0.000 C 
BRANCH   5   6
ATOM      6  C   UNL     1      -4.069  -0.675  -1.060  1.00  0.00     0.006 C 
BRANCH   6   7
ATOM      7  C   UNL     1      -3.833  -1.484  -2.346  1.00  0.00     0.053 C 
BRANCH   7   8
ATOM      8  C   UNL     1      -3.821  -2.960  -2.086  1.00  0.00     0.041 C 
ATOM      9  O   UNL     1      -3.844  -3.772  -3.048  1.00  0.00    -0.550 OA
ATOM     10  O   UNL     1      -3.748  -3.437  -0.784  1.00  0.00    -0.550 OA
ENDBRANCH   7   8
ENDBRANCH   6   7
ENDBRANCH   5   6
ENDBRANCH   4   5
ENDBRANCH   3   4
ENDBRANCH   2   3
ENDBRANCH   1   2
BRANCH   1  11
ATOM     11  C   UNL     1      -3.381   4.263  -2.594  1.00  0.00     0.000 C 
BRANCH  11  12
ATOM     12  C   UNL     1      -3.772   5.152  -3.790  1.00  0.00     0.000 C 
BRANCH  12  13
ATOM     13  C   UNL     1      -5.202   5.715  -3.652  1.00  0.00     0.000 C 
BRANCH  13  14
ATOM     14  C   UNL     1      -5.691   6.471  -4.900  1.00  0.00     0.000 C 
BRANCH  14  15
ATOM     15  C   UNL     1      -6.852   5.758  -5.611  1.00  0.00     0.000 C 
BRANCH  15  16
ATOM     16  C   UNL     1      -6.698   5.763  -7.141  1.00  0.00     0.006 C 
BRANCH  16  17
ATOM     17  C   UNL     1      -7.818   6.539  -7.846  1.00  0.00     0.053 C 
BRANCH  17  18
ATOM     18  C   UNL     1      -7.369   7.931  -8.161  1.00  0.00     0.041 C 
ATOM     19  O   UNL     1      -7.540   8.856  -7.324  1.00  0.00    -0.550 OA
ATOM     20  O   UNL     1      -6.806   8.217  -9.398  1.00  0.00    -0.550 OA
ENDBRANCH  17  18
ENDBRANCH  16  17
ENDBRANCH  15  16
ENDBRANCH  14  15
ENDBRANCH  13  14
ENDBRANCH  12  13
ENDBRANCH  11  12
ENDBRANCH   1  11
TORSDOF 15
ENDMDL
MODEL 2
REMARK VINA RESULT:    -3.684      0.751      1.388
REMARK INTER + INTRA:          -7.562
REMARK INTER:                  -6.814
REMARK INTRA:                  -0.748
REMARK UNBOUND:                -0.647
REMARK SMILES O=C([O-])CCCCCCCCCCCCCCC(=O)[O-]
REMARK SMILES IDX 10 1 9 2 8 3 7 4 6 5 5 6 4 7 2 8 1 9 3 10 11 11 12 12 13 13
REMARK SMILES IDX 14 14 15 15 16 16 17 17 18 18 19 19 20 20
REMARK H PARENT
REMARK Flexibility Score: inf
ROOT
ATOM      1  C   UNL     1      -2.961   4.852  -0.027  1.00  0.00     0.000 C 
ENDROOT
BRANCH   1   2
ATOM      2  C   UNL     1      -2.888   3.316  -0.007  1.00  0.00     0.000 C 
BRANCH   2   3
ATOM      3  C   UNL     1      -4.091   2.671   0.704  1.00  0.00     0.000 C 
BRANCH   3   4
ATOM      4  C   UNL     1      -4.249   1.153   0.479  1.00  0.00     0.000 C 
BRANCH   4   5
ATOM      5  C   UNL     1      -3.550   0.602  -0.779  1.00  0.00     0.000 C 
BRANCH   5   6
ATOM      6  C   UNL     1      -3.506  -0.936  -0.880  1.00  0.00     0.006 C 
BRANCH   6   7
ATOM      7  C   UNL     1      -3.858  -1.490  -2.270  1.00  0.00     0.053 C 
BRANCH   7   8
ATOM      8  C   UNL     1      -3.793  -2.987  -2.310  1.00  0.00     0.041 C 
ATOM      9  O   UNL     1      -3.759  -3.589  -3.415  1.00  0.00    -0.550 OA
ATOM     10  O   UNL     1      -3.732  -3.713  -1.128  1.00  0.00    -0.550 OA
ENDBRANCH   7   8
ENDBRANCH   6   7
ENDBRANCH   5   6
ENDBRANCH   4   5
ENDBRANCH   3   4
ENDBRANCH   2   3
ENDBRANCH   1   2
BRANCH   1  11
ATOM     11  C   UNL     1      -3.610   5.396  -1.309  1.00  0.00     0.000 C 
BRANCH  11  12
ATOM     12  C   UNL     1      -2.930   4.879  -2.590  1.00  0.00     0.000 C 
BRANCH  12  13
ATOM     13  C   UNL     1      -3.938   4.676  -3.741  1.00  0.00     0.000 C 
BRANCH  13  14
ATOM     14  C   UNL     1      -5.053   5.736  -3.780  1.00  0.00     0.000 C 
BRANCH  14  15
ATOM     15  C   UNL     1      -5.527   6.050  -5.208  1.00  0.00     0.000 C 
BRANCH  15  16
ATOM     16  C   UNL     1      -7.059   6.044  -5.335  1.00  0.00     0.006 C 
BRANCH  16  17
ATOM     17  C   UNL     1      -7.532   5.930  -6.791  1.00  0.00     0.053 C 
BRANCH  17  18
ATOM     18  C   UNL     1      -7.198   7.178  -7.546  1.00  0.00     0.041 C 
ATOM     19  O   UNL     1      -6.470   7.122  -8.571  1.00  0.00    -0.550 OA
ATOM     20  O   UNL     1      -7.652   8.409  -7.090  1.00  0.00    -0.550 OA
ENDBRANCH  17  18
ENDBRANCH  16  17
ENDBRANCH  15  16
ENDBRANCH  14  15
ENDBRANCH  13  14
ENDBRANCH  12  13
ENDBRANCH  11  12
ENDBRANCH   1  11
TORSDOF 15
ENDMDL
MODEL 3
REMARK VINA RESULT:    -3.657      0.541      9.845
REMARK INTER + INTRA:          -7.510
REMARK INTER:                  -6.978
REMARK INTRA:                  -0.532
REMARK UNBOUND:                -0.647
REMARK SMILES O=C([O-])CCCCCCCCCCCCCCC(=O)[O-]
REMARK SMILES IDX 10 1 9 2 8 3 7 4 6 5 5 6 4 7 2 8 1 9 3 10 11 11 12 12 13 13
REMARK SMILES IDX 14 14 15 15 16 16 17 17 18 18 19 19 20 20
REMARK H PARENT
REMARK Flexibility Score: inf
ROOT
ATOM      1  C   UNL     1      -3.393   4.267  -2.579  1.00  0.00     0.000 C 
ENDROOT
BRANCH   1   2
ATOM      2  C   UNL     1      -3.768   5.201  -3.741  1.00  0.00     0.000 C 
BRANCH   2   3
ATOM      3  C   UNL     1      -5.262   5.571  -3.752  1.00  0.00     0.000 C 
BRANCH   3   4
ATOM      4  C   UNL     1      -5.717   6.426  -4.953  1.00  0.00     0.000 C 
BRANCH   4   5
ATOM      5  C   UNL     1      -6.997   5.936  -5.658  1.00  0.00     0.000 C 
BRANCH   5   6
ATOM      6  C   UNL     1      -7.017   6.136  -7.187  1.00  0.00     0.006 C 
BRANCH   6   7
ATOM      7  C   UNL     1      -6.793   7.587  -7.639  1.00  0.00     0.053 C 
BRANCH   7   8
ATOM      8  C   UNL     1      -7.949   8.111  -8.437  1.00  0.00     0.041 C 
ATOM      9  O   UNL     1      -8.843   8.799  -7.878  1.00  0.00    -0.550 OA
ATOM     10  O   UNL     1      -8.018   7.870  -9.803  1.00  0.00    -0.550 OA
ENDBRANCH   7   8
ENDBRANCH   6   7
ENDBRANCH   5   6
ENDBRANCH   4   5
ENDBRANCH   3   4
ENDBRANCH   2   3
ENDBRANCH   1   2
BRANCH   1  11
ATOM     11  C   UNL     1      -3.029   5.034  -1.298  1.00  0.00     0.000 C 
BRANCH  11  12
ATOM     12  C   UNL     1      -3.098   4.157  -0.035  1.00  0.00     0.000 C 
BRANCH  12  13
ATOM     13  C   UNL     1      -2.479   2.762  -0.262  1.00  0.00     0.000 C 
BRANCH  13  14
ATOM     14  C   UNL     1      -3.490   1.609  -0.134  1.00  0.00     0.000 C 
BRANCH  14  15
ATOM     15  C   UNL     1      -2.942   0.275  -0.665  1.00  0.00     0.000 C 
BRANCH  15  16
ATOM     16  C   UNL     1      -4.058  -0.721  -1.022  1.00  0.00     0.006 C 
BRANCH  16  17
ATOM     17  C   UNL     1      -3.774  -1.488  -2.320  1.00  0.00     0.053 C 
BRANCH  17  18
ATOM     18  C   UNL     1      -3.818  -2.963  -2.074  1.00  0.00     0.041 C 
ATOM     19  O   UNL     1      -3.948  -3.763  -3.037  1.00  0.00    -0.550 OA
ATOM     20  O   UNL     1      -3.763  -3.454  -0.775  1.00  0.00    -0.550 OA
ENDBRANCH  17  18
ENDBRANCH  16  17
ENDBRANCH  15  16
ENDBRANCH  14  15
ENDBRANCH  13  14
ENDBRANCH  12  13
ENDBRANCH  11  12
ENDBRANCH   1  11
TORSDOF 15
ENDMDL
MODEL 4
REMARK VINA RESULT:    -3.594      0.915      1.324
REMARK INTER + INTRA:          -7.393
REMARK INTER:                  -6.865
REMARK INTRA:                  -0.528
REMARK UNBOUND:                -0.647
REMARK SMILES O=C([O-])CCCCCCCCCCCCCCC(=O)[O-]
REMARK SMILES IDX 10 1 9 2 8 3 7 4 6 5 5 6 4 7 2 8 1 9 3 10 11 11 12 12 13 13
REMARK SMILES IDX 14 14 15 15 16 16 17 17 18 18 19 19 20 20
REMARK H PARENT
REMARK Flexibility Score: inf
ROOT
ATOM      1  C   UNL     1      -3.106   4.896  -1.778  1.00  0.00     0.000 C 
ENDROOT
BRANCH   1   2
ATOM      2  C   UNL     1      -2.780   3.487  -1.256  1.00  0.00     0.000 C 
BRANCH   2   3
ATOM      3  C   UNL     1      -3.368   3.216   0.140  1.00  0.00     0.000 C 
BRANCH   3   4
ATOM      4  C   UNL     1      -3.957   1.804   0.341  1.00  0.00     0.000 C 
BRANCH   4   5
ATOM      5  C   UNL     1      -3.225   0.677  -0.414  1.00  0.00     0.000 C 
BRANCH   5   6
ATOM      6  C   UNL     1      -4.135  -0.450  -0.944  1.00  0.00     0.006 C 
BRANCH   6   7
ATOM      7  C   UNL     1      -3.507  -1.299  -2.061  1.00  0.00     0.053 C 
BRANCH   7   8
ATOM      8  C   UNL     1      -3.796  -2.759  -1.885  1.00  0.00     0.041 C 
ATOM      9  O   UNL     1      -3.747  -3.280  -0.741  1.00  0.00    -0.550 OA
ATOM     10  O   UNL     1      -4.154  -3.534  -2.981  1.00  0.00    -0.550 OA
ENDBRANCH   7   8
ENDBRANCH   6   7
ENDBRANCH   5   6
ENDBRANCH   4   5
ENDBRANCH   3   4
ENDBRANCH   2   3
ENDBRANCH   1   2
BRANCH   1  11
ATOM     11  C   UNL     1      -3.567   4.891  -3.244  1.00  0.00     0.000 C 
BRANCH  11  12
ATOM     12  C   UNL     1      -4.887   5.654  -3.459  1.00  0.00     0.000 C 
BRANCH  12  13
ATOM     13  C   UNL     1      -5.330   5.644  -4.938  1.00  0.00     0.000 C 
BRANCH  13  14
ATOM     14  C   UNL     1      -6.624   6.433  -5.200  1.00  0.00     0.000 C 
BRANCH  14  15
ATOM     15  C   UNL     1      -7.493   5.803  -6.300  1.00  0.00     0.000 C 
BRANCH  15  16
ATOM     16  C   UNL     1      -7.168   6.356  -7.698  1.00  0.00     0.006 C 
BRANCH  16  17
ATOM     17  C   UNL     1      -7.183   7.889  -7.746  1.00  0.00     0.053 C 
BRANCH  17  18
ATOM     18  C   UNL     1      -6.793   8.372  -9.107  1.00  0.00     0.041 C 
ATOM     19  O   UNL     1      -7.662   8.494 -10.010  1.00  0.00    -0.550 OA
ATOM     20  O   UNL     1      -5.461   8.641  -9.394  1.00  0.00    -0.550 OA
ENDBRANCH  17  18
ENDBRANCH  16  17
ENDBRANCH  15  16
ENDBRANCH  14  15
ENDBRANCH  13  14
ENDBRANCH  12  13
ENDBRANCH  11  12
ENDBRANCH   1  11
TORSDOF 15
ENDMDL
MODEL 5
REMARK VINA RESULT:    -3.421      0.697      9.436
REMARK INTER + INTRA:          -7.068
REMARK INTER:                  -6.347
REMARK INTRA:                  -0.721
REMARK UNBOUND:                -0.647
REMARK SMILES O=C([O-])CCCCCCCCCCCCCCC(=O)[O-]
REMARK SMILES IDX 10 1 9 2 8 3 7 4 6 5 5 6 4 7 2 8 1 9 3 10 11 11 12 12 13 13
REMARK SMILES IDX 14 14 15 15 16 16 17 17 18 18 19 19 20 20
REMARK H PARENT
REMARK Flexibility Score: inf
ROOT
ATOM      1  C   UNL     1      -3.035   4.789  -1.307  1.00  0.00     0.000 C 
ENDROOT
BRANCH   1   2
ATOM      2  C   UNL     1      -3.459   4.189  -2.658  1.00  0.00     0.000 C 
BRANCH   2   3
ATOM      3  C   UNL     1      -3.757   5.261  -3.721  1.00  0.00     0.000 C 
BRANCH   3   4
ATOM      4  C   UNL     1      -5.242   5.656  -3.857  1.00  0.00     0.000 C 
BRANCH   4   5
ATOM      5  C   UNL     1      -5.658   6.167  -5.251  1.00  0.00     0.000 C 
BRANCH   5   6
ATOM      6  C   UNL     1      -7.155   6.010  -5.583  1.00  0.00     0.006 C 
BRANCH   6   7
ATOM      7  C   UNL     1      -7.476   6.022  -7.085  1.00  0.00     0.053 C 
BRANCH   7   8
ATOM      8  C   UNL     1      -7.200   7.357  -7.708  1.00  0.00     0.041 C 
ATOM      9  O   UNL     1      -6.470   7.440  -8.730  1.00  0.00    -0.550 OA
ATOM     10  O   UNL     1      -7.779   8.504  -7.180  1.00  0.00    -0.550 OA
ENDBRANCH   7   8
ENDBRANCH   6   7
ENDBRANCH   5   6
ENDBRANCH   4   5
ENDBRANCH   3   4
ENDBRANCH   2   3
ENDBRANCH   1   2
BRANCH   1  11
ATOM     11  C   UNL     1      -2.672   3.714  -0.271  1.00  0.00     0.000 C 
BRANCH  11  12
ATOM     12  C   UNL     1      -3.789   3.475   0.761  1.00  0.00     0.000 C 
BRANCH  12  13
ATOM     13  C   UNL     1      -4.280   2.012   0.757  1.00  0.00     0.000 C 
BRANCH  13  14
ATOM     14  C   UNL     1      -3.384   1.062  -0.057  1.00  0.00     0.000 C 
BRANCH  14  15
ATOM     15  C   UNL     1      -4.170   0.245  -1.096  1.00  0.00     0.000 C 
BRANCH  15  16
ATOM     16  C   UNL     1      -3.807  -1.248  -1.068  1.00  0.00     0.006 C 
BRANCH  16  17
ATOM     17  C   UNL     1      -3.545  -1.820  -2.468  1.00  0.00     0.053 C 
BRANCH  17  18
ATOM     18  C   UNL     1      -3.763  -3.300  -2.476  1.00  0.00     0.041 C 
ATOM     19  O   UNL     1      -3.953  -3.906  -3.563  1.00  0.00    -0.550 OA
ATOM     20  O   UNL     1      -3.803  -4.004  -1.280  1.00  0.00    -0.550 OA
ENDBRANCH  17  18
ENDBRANCH  16  17
ENDBRANCH  15  16
ENDBRANCH  14  15
ENDBRANCH  13  14
ENDBRANCH  12  13
ENDBRANCH  11  12
ENDBRANCH   1  11
TORSDOF 15
ENDMDL
MODEL 6
REMARK VINA RESULT:    -2.911      1.516      3.082
REMARK INTER + INTRA:          -6.110
REMARK INTER:                  -5.552
REMARK INTRA:                  -0.558
REMARK UNBOUND:                -0.647
REMARK SMILES O=C([O-])CCCCCCCCCCCCCCC(=O)[O-]
REMARK SMILES IDX 10 1 9 2 8 3 7 4 6 5 5 6 4 7 2 8 1 9 3 10 11 11 12 12 13 13
REMARK SMILES IDX 14 14 15 15 16 16 17 17 18 18 19 19 20 20
REMARK H PARENT
REMARK Flexibility Score: inf
ROOT
ATOM      1  C   UNL     1      -3.729   2.318   0.071  1.00  0.00     0.000 C 
ENDROOT
BRANCH   1   2
ATOM      2  C   UNL     1      -3.057   0.962  -0.198  1.00  0.00     0.000 C 
BRANCH   2   3
ATOM      3  C   UNL     1      -3.937   0.014  -1.032  1.00  0.00     0.000 C 
BRANCH   3   4
ATOM      4  C   UNL     1      -3.187  -1.153  -1.708  1.00  0.00     0.000 C 
BRANCH   4   5
ATOM      5  C   UNL     1      -4.081  -2.150  -2.472  1.00  0.00     0.000 C 
BRANCH   5   6
ATOM      6  C   UNL     1      -3.985  -3.613  -1.993  1.00  0.00     0.006 C 
BRANCH   6   7
ATOM      7  C   UNL     1      -3.596  -3.771  -0.515  1.00  0.00     0.053 C 
BRANCH   7   8
ATOM      8  C   UNL     1      -4.614  -4.558   0.252  1.00  0.00     0.041 C 
ATOM      9  O   UNL     1      -5.113  -4.089   1.308  1.00  0.00    -0.550 OA
ATOM     10  O   UNL     1      -5.039  -5.794  -0.220  1.00  0.00    -0.550 OA
ENDBRANCH   7   8
ENDBRANCH   6   7
ENDBRANCH   5   6
ENDBRANCH   4   5
ENDBRANCH   3   4
ENDBRANCH   2   3
ENDBRANCH   1   2
BRANCH   1  11
ATOM     11  C   UNL     1      -2.768   3.502  -0.125  1.00  0.00     0.000 C 
BRANCH  11  12
ATOM     12  C   UNL     1      -3.469   4.754  -0.684  1.00  0.00     0.000 C 
BRANCH  12  13
ATOM     13  C   UNL     1      -2.807   5.258  -1.983  1.00  0.00     0.000 C 
BRANCH  13  14
ATOM     14  C   UNL     1      -3.566   4.855  -3.260  1.00  0.00     0.000 C 
BRANCH  14  15
ATOM     15  C   UNL     1      -4.864   5.655  -3.458  1.00  0.00     0.000 C 
BRANCH  15  16
ATOM     16  C   UNL     1      -5.283   5.741  -4.935  1.00  0.00     0.006 C 
BRANCH  16  17
ATOM     17  C   UNL     1      -6.777   6.045  -5.109  1.00  0.00     0.053 C 
BRANCH  17  18
ATOM     18  C   UNL     1      -7.064   6.461  -6.517  1.00  0.00     0.041 C 
ATOM     19  O   UNL     1      -6.989   5.622  -7.453  1.00  0.00    -0.550 OA
ATOM     20  O   UNL     1      -7.366   7.786  -6.803  1.00  0.00    -0.550 OA
ENDBRANCH  17  18
ENDBRANCH  16  17
ENDBRANCH  15  16
ENDBRANCH  14  15
ENDBRANCH  13  14
ENDBRANCH  12  13
ENDBRANCH  11  12
ENDBRANCH   1  11
TORSDOF 15
ENDMDL
MODEL 7
REMARK VINA RESULT:    -2.700      1.377      9.651
REMARK INTER + INTRA:          -5.714
REMARK INTER:                  -5.075
REMARK INTRA:                  -0.639
REMARK UNBOUND:                -0.647
REMARK SMILES O=C([O-])CCCCCCCCCCCCCCC(=O)[O-]
REMARK SMILES IDX 10 1 9 2 8 3 7 4 6 5 5 6 4 7 2 8 1 9 3 10 11 11 12 12 13 13
REMARK SMILES IDX 14 14 15 15 16 16 17 17 18 18 19 19 20 20
REMARK H PARENT
REMARK Flexibility Score: inf
ROOT
ATOM      1  C   UNL     1      -2.912   3.608  -0.076  1.00  0.00     0.000 C 
ENDROOT
BRANCH   1   2
ATOM      2  C   UNL     1      -3.286   4.868  -0.875  1.00  0.00     0.000 C 
BRANCH   2   3
ATOM      3  C   UNL     1      -2.635   4.908  -2.268  1.00  0.00     0.000 C 
BRANCH   3   4
ATOM      4  C   UNL     1      -3.582   4.594  -3.445  1.00  0.00     0.000 C 
BRANCH   4   5
ATOM      5  C   UNL     1      -4.778   5.555  -3.597  1.00  0.00     0.000 C 
BRANCH   5   6
ATOM      6  C   UNL     1      -5.288   5.738  -5.041  1.00  0.00     0.006 C 
BRANCH   6   7
ATOM      7  C   UNL     1      -6.766   6.146  -5.144  1.00  0.00     0.053 C 
BRANCH   7   8
ATOM      8  C   UNL     1      -7.139   6.556  -6.536  1.00  0.00     0.041 C 
ATOM      9  O   UNL     1      -7.634   7.693  -6.750  1.00  0.00    -0.550 OA
ATOM     10  O   UNL     1      -6.906   5.695  -7.601  1.00  0.00    -0.550 OA
ENDBRANCH   7   8
ENDBRANCH   6   7
ENDBRANCH   5   6
ENDBRANCH   4   5
ENDBRANCH   3   4
ENDBRANCH   2   3
ENDBRANCH   1   2
BRANCH   1  11
ATOM     11  C   UNL     1      -4.126   2.961   0.609  1.00  0.00     0.000 C 
BRANCH  11  12
ATOM     12  C   UNL     1      -3.956   1.445   0.819  1.00  0.00     0.000 C 
BRANCH  12  13
ATOM     13  C   UNL     1      -3.454   0.735  -0.456  1.00  0.00     0.000 C 
BRANCH  13  14
ATOM     14  C   UNL     1      -4.159  -0.604  -0.735  1.00  0.00     0.000 C 
BRANCH  14  15
ATOM     15  C   UNL     1      -3.743  -1.228  -2.077  1.00  0.00     0.000 C 
BRANCH  15  16
ATOM     16  C   UNL     1      -3.957  -2.750  -2.110  1.00  0.00     0.006 C 
BRANCH  16  17
ATOM     17  C   UNL     1      -3.366  -3.459  -0.884  1.00  0.00     0.053 C 
BRANCH  17  18
ATOM     18  C   UNL     1      -4.383  -4.365  -0.265  1.00  0.00     0.041 C 
ATOM     19  O   UNL     1      -4.847  -5.337  -0.918  1.00  0.00    -0.550 OA
ATOM     20  O   UNL     1      -4.856  -4.109   1.016  1.00  0.00    -0.550 OA
ENDBRANCH  17  18
ENDBRANCH  16  17
ENDBRANCH  15  16
ENDBRANCH  14  15
ENDBRANCH  13  14
ENDBRANCH  12  13
ENDBRANCH  11  12
ENDBRANCH   1  11
TORSDOF 15
ENDMDL
MODEL 8
REMARK VINA RESULT:    -2.435      3.752      5.566
REMARK INTER + INTRA:          -5.217
REMARK INTER:                  -4.087
REMARK INTRA:                  -1.130
REMARK UNBOUND:                -0.647
REMARK SMILES O=C([O-])CCCCCCCCCCCCCCC(=O)[O-]
REMARK SMILES IDX 10 1 9 2 8 3 7 4 6 5 5 6 4 7 2 8 1 9 3 10 11 11 12 12 13 13
REMARK SMILES IDX 14 14 15 15 16 16 17 17 18 18 19 19 20 20
REMARK H PARENT
REMARK Flexibility Score: inf
ROOT
ATOM      1  C   UNL     1      -2.694   0.063  -0.747  1.00  0.00     0.000 C 
ENDROOT
BRANCH   1   2
ATOM      2  C   UNL     1      -4.119  -0.363  -1.136  1.00  0.00     0.000 C 
BRANCH   2   3
ATOM      3  C   UNL     1      -4.207  -0.920  -2.568  1.00  0.00     0.000 C 
BRANCH   3   4
ATOM      4  C   UNL     1      -3.310  -2.142  -2.853  1.00  0.00     0.000 C 
BRANCH   4   5
ATOM      5  C   UNL     1      -4.052  -3.489  -2.956  1.00  0.00     0.000 C 
BRANCH   5   6
ATOM      6  C   UNL     1      -3.766  -4.481  -1.811  1.00  0.00     0.006 C 
BRANCH   6   7
ATOM      7  C   UNL     1      -3.734  -3.844  -0.413  1.00  0.00     0.053 C 
BRANCH   7   8
ATOM      8  C   UNL     1      -4.729  -4.475   0.513  1.00  0.00     0.041 C 
ATOM      9  O   UNL     1      -5.206  -3.816   1.473  1.00  0.00    -0.550 OA
ATOM     10  O   UNL     1      -5.155  -5.779   0.294  1.00  0.00    -0.550 OA
ENDBRANCH   7   8
ENDBRANCH   6   7
ENDBRANCH   5   6
ENDBRANCH   4   5
ENDBRANCH   3   4
ENDBRANCH   2   3
ENDBRANCH   1   2
BRANCH   1  11
ATOM     11  C   UNL     1      -2.663   1.397   0.013  1.00  0.00     0.000 C 
BRANCH  11  12
ATOM     12  C   UNL     1      -4.050   1.824   0.529  1.00  0.00     0.000 C 
BRANCH  12  13
ATOM     13  C   UNL     1      -4.090   3.317   0.918  1.00  0.00     0.000 C 
BRANCH  13  14
ATOM     14  C   UNL     1      -2.723   4.017   0.824  1.00  0.00     0.000 C 
BRANCH  14  15
ATOM     15  C   UNL     1      -2.814   5.420   0.202  1.00  0.00     0.000 C 
BRANCH  15  16
ATOM     16  C   UNL     1      -3.324   5.390  -1.248  1.00  0.00     0.006 C 
BRANCH  16  17
ATOM     17  C   UNL     1      -2.572   4.374  -2.118  1.00  0.00     0.053 C 
BRANCH  17  18
ATOM     18  C   UNL     1      -2.980   4.512  -3.551  1.00  0.00     0.041 C 
ATOM     19  O   UNL     1      -2.291   3.979  -4.460  1.00  0.00    -0.550 OA
ATOM     20  O   UNL     1      -4.094   5.270  -3.887  1.00  0.00    -0.550 OA
ENDBRANCH  17  18
ENDBRANCH  16  17
ENDBRANCH  15  16
ENDBRANCH  14  15
ENDBRANCH  13  14
ENDBRANCH  12  13
ENDBRANCH  11  12
ENDBRANCH   1  11
TORSDOF 15
ENDMDL
MODEL 9
REMARK VINA RESULT:    -2.127      3.775      9.282
REMARK INTER + INTRA:          -4.639
REMARK INTER:                  -3.695
REMARK INTRA:                  -0.944
REMARK UNBOUND:                -0.647
REMARK SMILES O=C([O-])CCCCCCCCCCCCCCC(=O)[O-]
REMARK SMILES IDX 10 1 9 2 8 3 7 4 6 5 5 6 4 7 2 8 1 9 3 10 11 11 12 12 13 13
REMARK SMILES IDX 14 14 15 15 16 16 17 17 18 18 19 19 20 20
REMARK H PARENT
REMARK Flexibility Score: inf
ROOT
ATOM      1  C   UNL     1      -2.513   1.391   0.018  1.00  0.00     0.000 C 
ENDROOT
BRANCH   1   2
ATOM      2  C   UNL     1      -3.958   1.802   0.343  1.00  0.00     0.000 C 
BRANCH   2   3
ATOM      3  C   UNL     1      -4.061   3.230   0.906  1.00  0.00     0.000 C 
BRANCH   3   4
ATOM      4  C   UNL     1      -2.763   4.062   0.827  1.00  0.00     0.000 C 
BRANCH   4   5
ATOM      5  C   UNL     1      -2.939   5.499   0.298  1.00  0.00     0.000 C 
BRANCH   5   6
ATOM      6  C   UNL     1      -3.105   5.617  -1.230  1.00  0.00     0.006 C 
BRANCH   6   7
ATOM      7  C   UNL     1      -2.685   4.362  -2.012  1.00  0.00     0.053 C 
BRANCH   7   8
ATOM      8  C   UNL     1      -3.023   4.469  -3.467  1.00  0.00     0.041 C 
ATOM      9  O   UNL     1      -2.257   3.969  -4.333  1.00  0.00    -0.550 OA
ATOM     10  O   UNL     1      -4.201   5.087  -3.865  1.00  0.00    -0.550 OA
ENDBRANCH   7   8
ENDBRANCH   6   7
ENDBRANCH   5   6
ENDBRANCH   4   5
ENDBRANCH   3   4
ENDBRANCH   2   3
ENDBRANCH   1   2
BRANCH   1  11
ATOM     11  C   UNL     1      -2.425  -0.002  -0.626  1.00  0.00     0.000 C 
BRANCH  11  12
ATOM     12  C   UNL     1      -3.804  -0.575  -1.001  1.00  0.00     0.000 C 
BRANCH  12  13
ATOM     13  C   UNL     1      -3.985  -0.700  -2.529  1.00  0.00     0.000 C 
BRANCH  13  14
ATOM     14  C   UNL     1      -4.525  -2.071  -2.976  1.00  0.00     0.000 C 
BRANCH  14  15
ATOM     15  C   UNL     1      -3.484  -3.194  -2.837  1.00  0.00     0.000 C 
BRANCH  15  16
ATOM     16  C   UNL     1      -3.935  -4.298  -1.866  1.00  0.00     0.006 C 
BRANCH  16  17
ATOM     17  C   UNL     1      -3.705  -3.922  -0.396  1.00  0.00     0.053 C 
BRANCH  17  18
ATOM     18  C   UNL     1      -4.735  -4.570   0.474  1.00  0.00     0.041 C 
ATOM     19  O   UNL     1      -5.249  -3.931   1.430  1.00  0.00    -0.550 OA
ATOM     20  O   UNL     1      -5.094  -5.894   0.260  1.00  0.00    -0.550 OA
ENDBRANCH  17  18
ENDBRANCH  16  17
ENDBRANCH  15  16
ENDBRANCH  14  15
ENDBRANCH  13  14
ENDBRANCH  12  13
ENDBRANCH  11  12
ENDBRANCH   1  11
TORSDOF 15
ENDMDL
