MODEL 1
REMARK VINA RESULT:    -3.922      0.000      0.000
REMARK INTER + INTRA:          -8.534
REMARK INTER:                  -7.132
REMARK INTRA:                  -1.402
REMARK UNBOUND:                -1.402
REMARK SMILES CCCCCC=CCC=CCCCCCCCC(=O)[O-]
REMARK SMILES IDX 11 1 12 2 13 3 14 4 15 5 16 6 17 7 18 8 19 9 20 10 10 11
REMARK SMILES IDX 9 12 8 13 7 14 6 15 5 16 4 17 3 18 2 19 1 20
REMARK H PARENT
REMARK Flexibility Score: inf
ROOT
ATOM      1  C   UNL     1      13.065   1.961 -19.256  1.00  0.00     0.027 C 
ENDROOT
BRANCH   1   2
ATOM      2  C   UNL     1      12.883   3.397 -19.765  1.00  0.00     0.004 C 
BRANCH   2   3
ATOM      3  C   UNL     1      14.069   3.861 -20.625  1.00  0.00     0.000 C 
BRANCH   3   4
ATOM      4  C   UNL     1      14.192   5.389 -20.613  1.00  0.00     0.000 C 
BRANCH   4   5
ATOM      5  C   UNL     1      15.660   5.823 -20.731  1.00  0.00     0.000 C 
BRANCH   5   6
ATOM      6  C   UNL     1      16.203   5.735 -22.169  1.00  0.00     0.006 C 
BRANCH   6   7
ATOM      7  C   UNL     1      17.730   5.563 -22.252  1.00  0.00     0.053 C 
BRANCH   7   8
ATOM      8  C   UNL     1      18.221   5.413 -23.660  1.00  0.00     0.041 C 
ATOM      9  O   UNL     1      19.420   5.672 -23.946  1.00  0.00    -0.550 OA
ATOM     10  O   UNL     1      17.359   4.966 -24.652  1.00  0.00    -0.550 OA
ENDBRANCH   7   8
ENDBRANCH   6   7
ENDBRANCH   5   6
ENDBRANCH   4   5
ENDBRANCH   3   4
ENDBRANCH   2   3
ENDBRANCH   1   2
BRANCH   1  11
ATOM     11  C   UNL     1      13.094   1.912 -17.747  1.00  0.00    -0.031 C 
ATOM     12  C   UNL     1      12.694   0.867 -17.000  1.00  0.00    -0.027 C 
BRANCH  12  13
ATOM     13  C   UNL     1      12.106  -0.410 -17.545  1.00  0.00     0.054 C 
BRANCH  13  14
ATOM     14  C   UNL     1      10.682  -0.213 -18.000  1.00  0.00    -0.027 C 
ATOM     15  C   UNL     1      10.137  -0.793 -19.085  1.00  0.00    -0.031 C 
BRANCH  15  16
ATOM     16  C   UNL     1      10.883  -1.675 -20.056  1.00  0.00     0.027 C 
BRANCH  16  17
ATOM     17  C   UNL     1      11.399  -0.886 -21.268  1.00  0.00     0.004 C 
BRANCH  17  18
ATOM     18  C   UNL     1      12.801  -1.347 -21.703  1.00  0.00     0.000 C 
BRANCH  18  19
ATOM     19  C   UNL     1      13.916  -0.725 -20.849  1.00  0.00    -0.003 C 
ATOM     20  C   UNL     1      14.531  -1.722 -19.867  1.00  0.00     0.004 C 
ENDBRANCH  18  19
ENDBRANCH  17  18
ENDBRANCH  16  17
ENDBRANCH  15  16
ENDBRANCH  13  14
ENDBRANCH  12  13
ENDBRANCH   1  11
TORSDOF 14
ENDMDL
MODEL 2
REMARK VINA RESULT:    -3.834      1.017      1.816
REMARK INTER + INTRA:          -8.373
REMARK INTER:                  -7.179
REMARK INTRA:                  -1.194
REMARK UNBOUND:                -1.402
REMARK SMILES CCCCCC=CCC=CCCCCCCCC(=O)[O-]
REMARK SMILES IDX 11 1 12 2 13 3 14 4 15 5 16 6 17 7 18 8 19 9 20 10 10 11
REMARK SMILES IDX 9 12 8 13 7 14 6 15 5 16 4 17 3 18 2 19 1 20
REMARK H PARENT
REMARK Flexibility Score: inf
ROOT
ATOM      1  C   UNL     1      12.809   2.564 -19.632  1.00  0.00     0.027 C 
ENDROOT
BRANCH   1   2
ATOM      2  C   UNL     1      13.776   3.583 -20.248  1.00  0.00     0.004 C 
BRANCH   2   3
ATOM      3  C   UNL     1      13.078   4.904 -20.603  1.00  0.00     0.000 C 
BRANCH   3   4
ATOM      4  C   UNL     1      14.095   6.038 -20.769  1.00  0.00     0.000 C 
BRANCH   4   5
ATOM      5  C   UNL     1      15.511   5.481 -20.980  1.00  0.00     0.000 C 
BRANCH   5   6
ATOM      6  C   UNL     1      16.241   6.124 -22.173  1.00  0.00     0.006 C 
BRANCH   6   7
ATOM      7  C   UNL     1      16.359   5.206 -23.403  1.00  0.00     0.053 C 
BRANCH   7   8
ATOM      8  C   UNL     1      17.679   5.338 -24.099  1.00  0.00     0.041 C 
ATOM      9  O   UNL     1      18.749   5.370 -23.434  1.00  0.00    -0.550 OA
ATOM     10  O   UNL     1      17.730   5.403 -25.485  1.00  0.00    -0.550 OA
ENDBRANCH   7   8
ENDBRANCH   6   7
ENDBRANCH   5   6
ENDBRANCH   4   5
ENDBRANCH   3   4
ENDBRANCH   2   3
ENDBRANCH   1   2
BRANCH   1  11
ATOM     11  C   UNL     1      13.245   2.161 -18.243  1.00  0.00    -0.031 C 
ATOM     12  C   UNL     1      12.707   1.159 -17.524  1.00  0.00    -0.027 C 
BRANCH  12  13
ATOM     13  C   UNL     1      11.547   0.304 -17.967  1.00  0.00     0.054 C 
BRANCH  13  14
ATOM     14  C   UNL     1      11.857  -1.165 -17.825  1.00  0.00    -0.027 C 
ATOM     15  C   UNL     1      12.944  -1.771 -18.339  1.00  0.00    -0.031 C 
BRANCH  15  16
ATOM     16  C   UNL     1      13.984  -1.092 -19.196  1.00  0.00     0.027 C 
BRANCH  16  17
ATOM     17  C   UNL     1      13.804  -1.422 -20.685  1.00  0.00     0.004 C 
BRANCH  17  18
ATOM     18  C   UNL     1      12.872  -0.422 -21.390  1.00  0.00     0.000 C 
BRANCH  18  19
ATOM     19  C   UNL     1      11.511  -1.038 -21.749  1.00  0.00    -0.003 C 
ATOM     20  C   UNL     1      11.611  -2.075 -22.867  1.00  0.00     0.004 C 
ENDBRANCH  18  19
ENDBRANCH  17  18
ENDBRANCH  16  17
ENDBRANCH  15  16
ENDBRANCH  13  14
ENDBRANCH  12  13
ENDBRANCH   1  11
TORSDOF 14
ENDMDL
MODEL 3
REMARK VINA RESULT:    -3.707      3.417      5.619
REMARK INTER + INTRA:          -8.144
REMARK INTER:                  -6.177
REMARK INTRA:                  -1.967
REMARK UNBOUND:                -1.402
REMARK SMILES CCCCCC=CCC=CCCCCCCCC(=O)[O-]
REMARK SMILES IDX 11 1 12 2 13 3 14 4 15 5 16 6 17 7 18 8 19 9 20 10 10 11
REMARK SMILES IDX 9 12 8 13 7 14 6 15 5 16 4 17 3 18 2 19 1 20
REMARK H PARENT
REMARK Flexibility Score: inf
ROOT
ATOM      1  C   UNL     1      10.488  -1.313 -18.788  1.00  0.00     0.027 C 
ENDROOT
BRANCH   1   2
ATOM      2  C   UNL     1      11.604  -2.118 -18.110  1.00  0.00     0.004 C 
BRANCH   2   3
ATOM      3  C   UNL     1      12.208  -1.374 -16.911  1.00  0.00     0.000 C 
BRANCH   3   4
ATOM      4  C   UNL     1      11.764   0.093 -16.893  1.00  0.00     0.000 C 
BRANCH   4   5
ATOM      5  C   UNL     1      12.936   1.019 -16.536  1.00  0.00     0.000 C 
BRANCH   5   6
ATOM      6  C   UNL     1      13.257   2.040 -17.642  1.00  0.00     0.006 C 
BRANCH   6   7
ATOM      7  C   UNL     1      12.578   1.736 -18.990  1.00  0.00     0.053 C 
BRANCH   7   8
ATOM      8  C   UNL     1      13.190   2.491 -20.131  1.00  0.00     0.041 C 
ATOM      9  O   UNL     1      13.378   1.925 -21.240  1.00  0.00    -0.550 OA
ATOM     10  O   UNL     1      13.531   3.828 -19.975  1.00  0.00    -0.550 OA
ENDBRANCH   7   8
ENDBRANCH   6   7
ENDBRANCH   5   6
ENDBRANCH   4   5
ENDBRANCH   3   4
ENDBRANCH   2   3
ENDBRANCH   1   2
BRANCH   1  11
ATOM     11  C   UNL     1       9.846  -2.097 -19.908  1.00  0.00    -0.031 C 
ATOM     12  C   UNL     1      10.173  -1.996 -21.210  1.00  0.00    -0.027 C 
BRANCH  12  13
ATOM     13  C   UNL     1      11.203  -1.049 -21.770  1.00  0.00     0.054 C 
BRANCH  13  14
ATOM     14  C   UNL     1      12.418  -1.788 -22.272  1.00  0.00    -0.027 C 
ATOM     15  C   UNL     1      13.571  -1.918 -21.591  1.00  0.00    -0.031 C 
BRANCH  15  16
ATOM     16  C   UNL     1      13.855  -1.285 -20.250  1.00  0.00     0.027 C 
BRANCH  16  17
ATOM     17  C   UNL     1      15.131  -1.848 -19.609  1.00  0.00     0.004 C 
BRANCH  17  18
ATOM     18  C   UNL     1      16.341  -1.760 -20.554  1.00  0.00     0.000 C 
BRANCH  18  19
ATOM     19  C   UNL     1      17.676  -1.691 -19.797  1.00  0.00    -0.003 C 
ATOM     20  C   UNL     1      18.825  -1.196 -20.675  1.00  0.00     0.004 C 
ENDBRANCH  18  19
ENDBRANCH  17  18
ENDBRANCH  16  17
ENDBRANCH  15  16
ENDBRANCH  13  14
ENDBRANCH  12  13
ENDBRANCH   1  11
TORSDOF 14
ENDMDL
MODEL 4
REMARK VINA RESULT:    -3.615      4.240      6.731
REMARK INTER + INTRA:          -7.975
REMARK INTER:                  -6.582
REMARK INTRA:                  -1.393
REMARK UNBOUND:                -1.402
REMARK SMILES CCCCCC=CCC=CCCCCCCCC(=O)[O-]
REMARK SMILES IDX 11 1 12 2 13 3 14 4 15 5 16 6 17 7 18 8 19 9 20 10 10 11
REMARK SMILES IDX 9 12 8 13 7 14 6 15 5 16 4 17 3 18 2 19 1 20
REMARK H PARENT
REMARK Flexibility Score: inf
ROOT
ATOM      1  C   UNL     1      12.055   0.415 -16.628  1.00  0.00     0.027 C 
ENDROOT
BRANCH   1   2
ATOM      2  C   UNL     1      12.496  -1.055 -16.662  1.00  0.00     0.004 C 
BRANCH   2   3
ATOM      3  C   UNL     1      12.009  -1.775 -17.928  1.00  0.00     0.000 C 
BRANCH   3   4
ATOM      4  C   UNL     1      10.728  -1.131 -18.470  1.00  0.00     0.000 C 
BRANCH   4   5
ATOM      5  C   UNL     1       9.770  -2.195 -19.025  1.00  0.00     0.000 C 
BRANCH   5   6
ATOM      6  C   UNL     1       9.580  -2.100 -20.550  1.00  0.00     0.006 C 
BRANCH   6   7
ATOM      7  C   UNL     1      10.785  -1.496 -21.294  1.00  0.00     0.053 C 
BRANCH   7   8
ATOM      8  C   UNL     1      11.067  -2.183 -22.595  1.00  0.00     0.041 C 
ATOM      9  O   UNL     1      10.228  -2.986 -23.085  1.00  0.00    -0.550 OA
ATOM     10  O   UNL     1      12.246  -1.920 -23.279  1.00  0.00    -0.550 OA
ENDBRANCH   7   8
ENDBRANCH   6   7
ENDBRANCH   5   6
ENDBRANCH   4   5
ENDBRANCH   3   4
ENDBRANCH   2   3
ENDBRANCH   1   2
BRANCH   1  11
ATOM     11  C   UNL     1      13.196   1.340 -16.978  1.00  0.00    -0.031 C 
ATOM     12  C   UNL     1      13.336   1.986 -18.150  1.00  0.00    -0.027 C 
BRANCH  12  13
ATOM     13  C   UNL     1      12.400   1.857 -19.325  1.00  0.00     0.054 C 
BRANCH  13  14
ATOM     14  C   UNL     1      13.156   1.659 -20.615  1.00  0.00    -0.027 C 
ATOM     15  C   UNL     1      13.689   0.491 -21.018  1.00  0.00    -0.031 C 
BRANCH  15  16
ATOM     16  C   UNL     1      13.677  -0.786 -20.213  1.00  0.00     0.027 C 
BRANCH  16  17
ATOM     17  C   UNL     1      14.730  -1.787 -20.708  1.00  0.00     0.004 C 
BRANCH  17  18
ATOM     18  C   UNL     1      16.008  -1.752 -19.854  1.00  0.00     0.000 C 
BRANCH  18  19
ATOM     19  C   UNL     1      17.263  -1.439 -20.683  1.00  0.00    -0.003 C 
ATOM     20  C   UNL     1      18.536  -1.412 -19.838  1.00  0.00     0.004 C 
ENDBRANCH  18  19
ENDBRANCH  17  18
ENDBRANCH  16  17
ENDBRANCH  15  16
ENDBRANCH  13  14
ENDBRANCH  12  13
ENDBRANCH   1  11
TORSDOF 14
ENDMDL
MODEL 5
REMARK VINA RESULT:    -3.606      1.007      2.905
REMARK INTER + INTRA:          -7.960
REMARK INTER:                  -6.250
REMARK INTRA:                  -1.711
REMARK UNBOUND:                -1.402
REMARK SMILES CCCCCC=CCC=CCCCCCCCC(=O)[O-]
REMARK SMILES IDX 11 1 12 2 13 3 14 4 15 5 16 6 17 7 18 8 19 9 20 10 10 11
REMARK SMILES IDX 9 12 8 13 7 14 6 15 5 16 4 17 3 18 2 19 1 20
REMARK H PARENT
REMARK Flexibility Score: inf
ROOT
ATOM      1  C   UNL     1      12.822   1.427 -20.452  1.00  0.00     0.027 C 
ENDROOT
BRANCH   1   2
ATOM      2  C   UNL     1      13.601   2.612 -21.037  1.00  0.00     0.004 C 
BRANCH   2   3
ATOM      3  C   UNL     1      13.588   3.831 -20.104  1.00  0.00     0.000 C 
BRANCH   3   4
ATOM      4  C   UNL     1      13.589   5.138 -20.904  1.00  0.00     0.000 C 
BRANCH   4   5
ATOM      5  C   UNL     1      14.808   6.001 -20.550  1.00  0.00     0.000 C 
BRANCH   5   6
ATOM      6  C   UNL     1      16.091   5.560 -21.278  1.00  0.00     0.006 C 
BRANCH   6   7
ATOM      7  C   UNL     1      16.049   5.769 -22.802  1.00  0.00     0.053 C 
BRANCH   7   8
ATOM      8  C   UNL     1      17.121   5.009 -23.522  1.00  0.00     0.041 C 
ATOM      9  O   UNL     1      16.897   4.519 -24.661  1.00  0.00    -0.550 OA
ATOM     10  O   UNL     1      18.374   4.861 -22.944  1.00  0.00    -0.550 OA
ENDBRANCH   7   8
ENDBRANCH   6   7
ENDBRANCH   5   6
ENDBRANCH   4   5
ENDBRANCH   3   4
ENDBRANCH   2   3
ENDBRANCH   1   2
BRANCH   1  11
ATOM     11  C   UNL     1      13.504   0.115 -20.759  1.00  0.00    -0.031 C 
ATOM     12  C   UNL     1      12.903  -0.963 -21.297  1.00  0.00    -0.027 C 
BRANCH  12  13
ATOM     13  C   UNL     1      11.437  -1.052 -21.639  1.00  0.00     0.054 C 
BRANCH  13  14
ATOM     14  C   UNL     1      10.725  -2.051 -20.761  1.00  0.00    -0.027 C 
ATOM     15  C   UNL     1      10.049  -1.740 -19.639  1.00  0.00    -0.031 C 
BRANCH  15  16
ATOM     16  C   UNL     1       9.958  -0.355 -19.045  1.00  0.00     0.027 C 
BRANCH  16  17
ATOM     17  C   UNL     1      10.434  -0.325 -17.586  1.00  0.00     0.004 C 
BRANCH  17  18
ATOM     18  C   UNL     1      11.957  -0.507 -17.471  1.00  0.00     0.000 C 
BRANCH  18  19
ATOM     19  C   UNL     1      12.586   0.437 -16.434  1.00  0.00    -0.003 C 
ATOM     20  C   UNL     1      13.317   1.615 -17.078  1.00  0.00     0.004 C 
ENDBRANCH  18  19
ENDBRANCH  17  18
ENDBRANCH  16  17
ENDBRANCH  15  16
ENDBRANCH  13  14
ENDBRANCH  12  13
ENDBRANCH   1  11
TORSDOF 14
ENDMDL
MODEL 6
REMARK VINA RESULT:    -3.567      1.577      2.972
REMARK INTER + INTRA:          -7.888
REMARK INTER:                  -6.383
REMARK INTRA:                  -1.505
REMARK UNBOUND:                -1.402
REMARK SMILES CCCCCC=CCC=CCCCCCCCC(=O)[O-]
REMARK SMILES IDX 11 1 12 2 13 3 14 4 15 5 16 6 17 7 18 8 19 9 20 10 10 11
REMARK SMILES IDX 9 12 8 13 7 14 6 15 5 16 4 17 3 18 2 19 1 20
REMARK H PARENT
REMARK Flexibility Score: inf
ROOT
ATOM      1  C   UNL     1      11.755   1.200 -18.080  1.00  0.00     0.027 C 
ENDROOT
BRANCH   1   2
ATOM      2  C   UNL     1      12.930   2.106 -18.470  1.00  0.00     0.004 C 
BRANCH   2   3
ATOM      3  C   UNL     1      12.880   2.515 -19.949  1.00  0.00     0.000 C 
BRANCH   3   4
ATOM      4  C   UNL     1      13.852   3.665 -20.235  1.00  0.00     0.000 C 
BRANCH   4   5
ATOM      5  C   UNL     1      13.093   4.959 -20.563  1.00  0.00     0.000 C 
BRANCH   5   6
ATOM      6  C   UNL     1      14.022   6.114 -20.980  1.00  0.00     0.006 C 
BRANCH   6   7
ATOM      7  C   UNL     1      15.506   5.874 -20.650  1.00  0.00     0.053 C 
BRANCH   7   8
ATOM      8  C   UNL     1      16.379   5.884 -21.868  1.00  0.00     0.041 C 
ATOM      9  O   UNL     1      15.870   6.005 -23.014  1.00  0.00    -0.550 OA
ATOM     10  O   UNL     1      17.757   5.782 -21.736  1.00  0.00    -0.550 OA
ENDBRANCH   7   8
ENDBRANCH   6   7
ENDBRANCH   5   6
ENDBRANCH   4   5
ENDBRANCH   3   4
ENDBRANCH   2   3
ENDBRANCH   1   2
BRANCH   1  11
ATOM     11  C   UNL     1      12.128   0.268 -16.952  1.00  0.00    -0.031 C 
ATOM     12  C   UNL     1      12.517  -1.012 -17.102  1.00  0.00    -0.027 C 
BRANCH  12  13
ATOM     13  C   UNL     1      12.598  -1.741 -18.419  1.00  0.00     0.054 C 
BRANCH  13  14
ATOM     14  C   UNL     1      13.893  -1.447 -19.134  1.00  0.00    -0.027 C 
ATOM     15  C   UNL     1      13.987  -1.056 -20.419  1.00  0.00    -0.031 C 
BRANCH  15  16
ATOM     16  C   UNL     1      12.819  -0.920 -21.365  1.00  0.00     0.027 C 
BRANCH  16  17
ATOM     17  C   UNL     1      12.808  -2.030 -22.426  1.00  0.00     0.004 C 
BRANCH  17  18
ATOM     18  C   UNL     1      11.521  -2.011 -23.268  1.00  0.00     0.000 C 
BRANCH  18  19
ATOM     19  C   UNL     1      10.278  -2.396 -22.452  1.00  0.00    -0.003 C 
ATOM     20  C   UNL     1       9.617  -3.679 -22.954  1.00  0.00     0.004 C 
ENDBRANCH  18  19
ENDBRANCH  17  18
ENDBRANCH  16  17
ENDBRANCH  15  16
ENDBRANCH  13  14
ENDBRANCH  12  13
ENDBRANCH   1  11
TORSDOF 14
ENDMDL
MODEL 7
REMARK VINA RESULT:    -3.556      3.044      6.457
REMARK INTER + INTRA:          -7.869
REMARK INTER:                  -6.430
REMARK INTRA:                  -1.439
REMARK UNBOUND:                -1.402
REMARK SMILES CCCCCC=CCC=CCCCCCCCC(=O)[O-]
REMARK SMILES IDX 11 1 12 2 13 3 14 4 15 5 16 6 17 7 18 8 19 9 20 10 10 11
REMARK SMILES IDX 9 12 8 13 7 14 6 15 5 16 4 17 3 18 2 19 1 20
REMARK H PARENT
REMARK Flexibility Score: inf
ROOT
ATOM      1  C   UNL     1      10.740  -1.485 -19.181  1.00  0.00     0.027 C 
ENDROOT
BRANCH   1   2
ATOM      2  C   UNL     1       9.662  -2.214 -19.994  1.00  0.00     0.004 C 
BRANCH   2   3
ATOM      3  C   UNL     1      10.062  -2.382 -21.467  1.00  0.00     0.000 C 
BRANCH   3   4
ATOM      4  C   UNL     1      11.005  -1.258 -21.913  1.00  0.00     0.000 C 
BRANCH   4   5
ATOM      5  C   UNL     1      12.134  -1.806 -22.798  1.00  0.00     0.000 C 
BRANCH   5   6
ATOM      6  C   UNL     1      13.430  -2.089 -22.017  1.00  0.00     0.006 C 
BRANCH   6   7
ATOM      7  C   UNL     1      13.706  -1.089 -20.880  1.00  0.00     0.053 C 
BRANCH   7   8
ATOM      8  C   UNL     1      14.645  -1.632 -19.846  1.00  0.00     0.041 C 
ATOM      9  O   UNL     1      14.214  -1.979 -18.715  1.00  0.00    -0.550 OA
ATOM     10  O   UNL     1      15.995  -1.775 -20.140  1.00  0.00    -0.550 OA
ENDBRANCH   7   8
ENDBRANCH   6   7
ENDBRANCH   5   6
ENDBRANCH   4   5
ENDBRANCH   3   4
ENDBRANCH   2   3
ENDBRANCH   1   2
BRANCH   1  11
ATOM     11  C   UNL     1      10.126  -0.531 -18.184  1.00  0.00    -0.031 C 
ATOM     12  C   UNL     1      10.802   0.119 -17.219  1.00  0.00    -0.027 C 
BRANCH  12  13
ATOM     13  C   UNL     1      12.276  -0.035 -16.944  1.00  0.00     0.054 C 
BRANCH  13  14
ATOM     14  C   UNL     1      12.981   1.299 -16.951  1.00  0.00    -0.027 C 
ATOM     15  C   UNL     1      13.193   2.048 -18.049  1.00  0.00    -0.031 C 
BRANCH  15  16
ATOM     16  C   UNL     1      12.823   1.639 -19.454  1.00  0.00     0.027 C 
BRANCH  16  17
ATOM     17  C   UNL     1      13.232   2.700 -20.486  1.00  0.00     0.004 C 
BRANCH  17  18
ATOM     18  C   UNL     1      13.211   4.120 -19.894  1.00  0.00     0.000 C 
BRANCH  18  19
ATOM     19  C   UNL     1      13.677   5.183 -20.900  1.00  0.00    -0.003 C 
ATOM     20  C   UNL     1      15.193   5.380 -20.889  1.00  0.00     0.004 C 
ENDBRANCH  18  19
ENDBRANCH  17  18
ENDBRANCH  16  17
ENDBRANCH  15  16
ENDBRANCH  13  14
ENDBRANCH  12  13
ENDBRANCH   1  11
TORSDOF 14
ENDMDL
MODEL 8
REMARK VINA RESULT:    -3.554      2.913      6.849
REMARK INTER + INTRA:          -7.865
REMARK INTER:                  -6.375
REMARK INTRA:                  -1.490
REMARK UNBOUND:                -1.402
REMARK SMILES CCCCCC=CCC=CCCCCCCCC(=O)[O-]
REMARK SMILES IDX 11 1 12 2 13 3 14 4 15 5 16 6 17 7 18 8 19 9 20 10 10 11
REMARK SMILES IDX 9 12 8 13 7 14 6 15 5 16 4 17 3 18 2 19 1 20
REMARK H PARENT
REMARK Flexibility Score: inf
ROOT
ATOM      1  C   UNL     1      11.082   0.267 -17.978  1.00  0.00     0.027 C 
ENDROOT
BRANCH   1   2
ATOM      2  C   UNL     1      10.877  -1.194 -18.397  1.00  0.00     0.004 C 
BRANCH   2   3
ATOM      3  C   UNL     1       9.982  -1.321 -19.638  1.00  0.00     0.000 C 
BRANCH   3   4
ATOM      4  C   UNL     1      10.729  -2.008 -20.787  1.00  0.00     0.000 C 
BRANCH   4   5
ATOM      5  C   UNL     1      11.428  -0.976 -21.684  1.00  0.00     0.000 C 
BRANCH   5   6
ATOM      6  C   UNL     1      12.822  -0.574 -21.169  1.00  0.00     0.006 C 
BRANCH   6   7
ATOM      7  C   UNL     1      13.862  -1.707 -21.227  1.00  0.00     0.053 C 
BRANCH   7   8
ATOM      8  C   UNL     1      14.727  -1.764 -20.005  1.00  0.00     0.041 C 
ATOM      9  O   UNL     1      14.207  -1.878 -18.863  1.00  0.00    -0.550 OA
ATOM     10  O   UNL     1      16.109  -1.713 -20.129  1.00  0.00    -0.550 OA
ENDBRANCH   7   8
ENDBRANCH   6   7
ENDBRANCH   5   6
ENDBRANCH   4   5
ENDBRANCH   3   4
ENDBRANCH   2   3
ENDBRANCH   1   2
BRANCH   1  11
ATOM     11  C   UNL     1      12.502   0.518 -17.529  1.00  0.00    -0.031 C 
ATOM     12  C   UNL     1      13.231   1.606 -17.837  1.00  0.00    -0.027 C 
BRANCH  12  13
ATOM     13  C   UNL     1      12.765   2.735 -18.722  1.00  0.00     0.054 C 
BRANCH  13  14
ATOM     14  C   UNL     1      13.306   2.597 -20.123  1.00  0.00    -0.027 C 
ATOM     15  C   UNL     1      13.773   3.617 -20.867  1.00  0.00    -0.031 C 
BRANCH  15  16
ATOM     16  C   UNL     1      13.762   5.066 -20.445  1.00  0.00     0.027 C 
BRANCH  16  17
ATOM     17  C   UNL     1      15.147   5.714 -20.587  1.00  0.00     0.004 C 
BRANCH  17  18
ATOM     18  C   UNL     1      15.506   5.996 -22.056  1.00  0.00     0.000 C 
BRANCH  18  19
ATOM     19  C   UNL     1      16.763   5.238 -22.510  1.00  0.00    -0.003 C 
ATOM     20  C   UNL     1      16.618   4.644 -23.911  1.00  0.00     0.004 C 
ENDBRANCH  18  19
ENDBRANCH  17  18
ENDBRANCH  16  17
ENDBRANCH  15  16
ENDBRANCH  13  14
ENDBRANCH  12  13
ENDBRANCH   1  11
TORSDOF 14
ENDMDL
MODEL 9
REMARK VINA RESULT:    -3.443      1.223      2.248
REMARK INTER + INTRA:          -7.663
REMARK INTER:                  -5.585
REMARK INTRA:                  -2.078
REMARK UNBOUND:                -1.402
REMARK SMILES CCCCCC=CCC=CCCCCCCCC(=O)[O-]
REMARK SMILES IDX 11 1 12 2 13 3 14 4 15 5 16 6 17 7 18 8 19 9 20 10 10 11
REMARK SMILES IDX 9 12 8 13 7 14 6 15 5 16 4 17 3 18 2 19 1 20
REMARK H PARENT
REMARK Flexibility Score: inf
ROOT
ATOM      1  C   UNL     1      12.899   0.684 -17.472  1.00  0.00     0.027 C 
ENDROOT
BRANCH   1   2
ATOM      2  C   UNL     1      13.281   1.979 -18.201  1.00  0.00     0.004 C 
BRANCH   2   3
ATOM      3  C   UNL     1      12.623   2.080 -19.584  1.00  0.00     0.000 C 
BRANCH   3   4
ATOM      4  C   UNL     1      13.537   2.807 -20.577  1.00  0.00     0.000 C 
BRANCH   4   5
ATOM      5  C   UNL     1      13.386   4.330 -20.451  1.00  0.00     0.000 C 
BRANCH   5   6
ATOM      6  C   UNL     1      14.736   5.067 -20.383  1.00  0.00     0.006 C 
BRANCH   6   7
ATOM      7  C   UNL     1      15.009   5.986 -21.586  1.00  0.00     0.053 C 
BRANCH   7   8
ATOM      8  C   UNL     1      16.259   5.618 -22.326  1.00  0.00     0.041 C 
ATOM      9  O   UNL     1      16.234   5.454 -23.574  1.00  0.00    -0.550 OA
ATOM     10  O   UNL     1      17.457   5.478 -21.638  1.00  0.00    -0.550 OA
ENDBRANCH   7   8
ENDBRANCH   6   7
ENDBRANCH   5   6
ENDBRANCH   4   5
ENDBRANCH   3   4
ENDBRANCH   2   3
ENDBRANCH   1   2
BRANCH   1  11
ATOM     11  C   UNL     1      11.407   0.594 -17.255  1.00  0.00    -0.031 C 
ATOM     12  C   UNL     1      10.619  -0.403 -17.699  1.00  0.00    -0.027 C 
BRANCH  12  13
ATOM     13  C   UNL     1      11.091  -1.572 -18.527  1.00  0.00     0.054 C 
BRANCH  13  14
ATOM     14  C   UNL     1      10.086  -1.934 -19.592  1.00  0.00    -0.027 C 
ATOM     15  C   UNL     1      10.221  -1.651 -20.901  1.00  0.00    -0.031 C 
BRANCH  15  16
ATOM     16  C   UNL     1      11.363  -0.864 -21.498  1.00  0.00     0.027 C 
BRANCH  16  17
ATOM     17  C   UNL     1      12.227  -1.725 -22.429  1.00  0.00     0.004 C 
BRANCH  17  18
ATOM     18  C   UNL     1      13.662  -1.889 -21.899  1.00  0.00     0.000 C 
BRANCH  18  19
ATOM     19  C   UNL     1      13.931  -1.030 -20.654  1.00  0.00    -0.003 C 
ATOM     20  C   UNL     1      14.711  -1.783 -19.577  1.00  0.00     0.004 C 
ENDBRANCH  18  19
ENDBRANCH  17  18
ENDBRANCH  16  17
ENDBRANCH  15  16
ENDBRANCH  13  14
ENDBRANCH  12  13
ENDBRANCH   1  11
TORSDOF 14
ENDMDL
