MODEL 1
REMARK VINA RESULT:    -4.268      0.000      0.000
REMARK INTER + INTRA:          -6.599
REMARK INTER:                  -5.889
REMARK INTRA:                  -0.710
REMARK UNBOUND:                -0.710
REMARK SMILES OC[C@H](O)C(O)[C@@H](O)CO
REMARK SMILES IDX 5 1 7 2 9 3 10 4 8 6 3 8 2 9 1 10 4 12 6 14
REMARK H PARENT 10 5 8 7 1 11 4 13 6 15
REMARK Flexibility Score: inf
ROOT
ATOM      1  C   UNL     1      20.462   2.706  24.287  1.00  0.00     0.176 C 
ENDROOT
BRANCH   1   2
ATOM      2  C   UNL     1      19.933   3.618  25.428  1.00  0.00     0.171 C 
BRANCH   2   3
ATOM      3  C   UNL     1      20.200   5.107  25.158  1.00  0.00     0.190 C 
BRANCH   3   4
ATOM      4  O   UNL     1      21.524   5.280  24.734  1.00  0.00    -0.394 OA
ATOM      5  H   UNL     1      21.984   4.418  24.903  1.00  0.00     0.210 HD
ENDBRANCH   3   4
ENDBRANCH   2   3
BRANCH   2   6
ATOM      6  O   UNL     1      20.501   3.245  26.659  1.00  0.00    -0.388 OA
ATOM      7  H   UNL     1      20.991   2.396  26.507  1.00  0.00     0.211 HD
ENDBRANCH   2   6
ENDBRANCH   1   2
BRANCH   1   8
ATOM      8  C   UNL     1      20.125   1.196  24.458  1.00  0.00     0.171 C 
BRANCH   8   9
ATOM      9  C   UNL     1      18.610   0.921  24.352  1.00  0.00     0.190 C 
BRANCH   9  10
ATOM     10  O   UNL     1      18.194   0.918  23.013  1.00  0.00    -0.394 OA
ATOM     11  H   UNL     1      18.908   1.367  22.491  1.00  0.00     0.210 HD
ENDBRANCH   9  10
ENDBRANCH   8   9
BRANCH   8  12
ATOM     12  O   UNL     1      20.636   0.682  25.664  1.00  0.00    -0.388 OA
ATOM     13  H   UNL     1      21.187  -0.114  25.449  1.00  0.00     0.211 HD
ENDBRANCH   8  12
ENDBRANCH   1   8
BRANCH   1  14
ATOM     14  O   UNL     1      20.038   3.186  23.033  1.00  0.00    -0.388 OA
ATOM     15  H   UNL     1      19.140   3.592  23.146  1.00  0.00     0.211 HD
ENDBRANCH   1  14
TORSDOF 9
ENDMDL
MODEL 2
REMARK VINA RESULT:    -4.244      1.913      2.945
REMARK INTER + INTRA:          -6.567
REMARK INTER:                  -5.906
REMARK INTRA:                  -0.661
REMARK UNBOUND:                -0.710
REMARK SMILES OC[C@H](O)C(O)[C@@H](O)CO
REMARK SMILES IDX 5 1 7 2 9 3 10 4 8 6 3 8 2 9 1 10 4 12 6 14
REMARK H PARENT 10 5 8 7 1 11 4 13 6 15
REMARK Flexibility Score: inf
ROOT
ATOM      1  C   UNL     1      19.474   2.229  23.324  1.00  0.00     0.176 C 
ENDROOT
BRANCH   1   2
ATOM      2  C   UNL     1      18.839   3.644  23.424  1.00  0.00     0.171 C 
BRANCH   2   3
ATOM      3  C   UNL     1      17.575   3.779  22.562  1.00  0.00     0.190 C 
BRANCH   3   4
ATOM      4  O   UNL     1      17.910   3.652  21.208  1.00  0.00    -0.394 OA
ATOM      5  H   UNL     1      18.781   3.176  21.182  1.00  0.00     0.210 HD
ENDBRANCH   3   4
ENDBRANCH   2   3
BRANCH   2   6
ATOM      6  O   UNL     1      19.775   4.629  23.062  1.00  0.00    -0.388 OA
ATOM      7  H   UNL     1      20.376   4.759  23.840  1.00  0.00     0.211 HD
ENDBRANCH   2   6
ENDBRANCH   1   2
BRANCH   1   8
ATOM      8  C   UNL     1      20.290   1.798  24.578  1.00  0.00     0.171 C 
BRANCH   8   9
ATOM      9  C   UNL     1      19.500   0.831  25.485  1.00  0.00     0.190 C 
BRANCH   9  10
ATOM     10  O   UNL     1      19.398  -0.438  24.896  1.00  0.00    -0.394 OA
ATOM     11  H   UNL     1      20.093  -0.481  24.189  1.00  0.00     0.210 HD
ENDBRANCH   9  10
ENDBRANCH   8   9
BRANCH   8  12
ATOM     12  O   UNL     1      20.738   2.910  25.315  1.00  0.00    -0.388 OA
ATOM     13  H   UNL     1      21.683   3.083  25.066  1.00  0.00     0.211 HD
ENDBRANCH   8  12
ENDBRANCH   1   8
BRANCH   1  14
ATOM     14  O   UNL     1      18.497   1.270  22.996  1.00  0.00    -0.388 OA
ATOM     15  H   UNL     1      18.961   0.448  22.692  1.00  0.00     0.211 HD
ENDBRANCH   1  14
TORSDOF 9
ENDMDL
MODEL 3
REMARK VINA RESULT:    -4.204      2.111      3.765
REMARK INTER + INTRA:          -6.511
REMARK INTER:                  -5.915
REMARK INTRA:                  -0.596
REMARK UNBOUND:                -0.710
REMARK SMILES OC[C@H](O)C(O)[C@@H](O)CO
REMARK SMILES IDX 5 1 7 2 9 3 10 4 8 6 3 8 2 9 1 10 4 12 6 14
REMARK H PARENT 10 5 8 7 1 11 4 13 6 15
REMARK Flexibility Score: inf
ROOT
ATOM      1  C   UNL     1      18.640   2.166  23.584  1.00  0.00     0.176 C 
ENDROOT
BRANCH   1   2
ATOM      2  C   UNL     1      20.062   1.721  24.028  1.00  0.00     0.171 C 
BRANCH   2   3
ATOM      3  C   UNL     1      20.029   0.799  25.256  1.00  0.00     0.190 C 
BRANCH   3   4
ATOM      4  O   UNL     1      19.381  -0.400  24.930  1.00  0.00    -0.394 OA
ATOM      5  H   UNL     1      18.489  -0.145  24.577  1.00  0.00     0.210 HD
ENDBRANCH   3   4
ENDBRANCH   2   3
BRANCH   2   6
ATOM      6  O   UNL     1      20.868   2.842  24.290  1.00  0.00    -0.388 OA
ATOM      7  H   UNL     1      20.897   3.381  23.458  1.00  0.00     0.211 HD
ENDBRANCH   2   6
ENDBRANCH   1   2
BRANCH   1   8
ATOM      8  C   UNL     1      18.588   3.555  22.884  1.00  0.00     0.171 C 
BRANCH   8   9
ATOM      9  C   UNL     1      17.218   3.828  22.230  1.00  0.00     0.190 C 
BRANCH   9  10
ATOM     10  O   UNL     1      17.290   3.684  20.836  1.00  0.00    -0.394 OA
ATOM     11  H   UNL     1      18.254   3.649  20.603  1.00  0.00     0.210 HD
ENDBRANCH   9  10
ENDBRANCH   8   9
BRANCH   8  12
ATOM     12  O   UNL     1      19.622   3.702  21.941  1.00  0.00    -0.388 OA
ATOM     13  H   UNL     1      19.782   2.818  21.520  1.00  0.00     0.211 HD
ENDBRANCH   8  12
ENDBRANCH   1   8
BRANCH   1  14
ATOM     14  O   UNL     1      18.035   1.171  22.793  1.00  0.00    -0.388 OA
ATOM     15  H   UNL     1      17.453   0.622  23.379  1.00  0.00     0.211 HD
ENDBRANCH   1  14
TORSDOF 9
ENDMDL
MODEL 4
REMARK VINA RESULT:    -4.126      9.559     10.543
REMARK INTER + INTRA:          -6.403
REMARK INTER:                  -6.183
REMARK INTRA:                  -0.220
REMARK UNBOUND:                -0.710
REMARK SMILES OC[C@H](O)C(O)[C@@H](O)CO
REMARK SMILES IDX 5 1 7 2 9 3 10 4 8 6 3 8 2 9 1 10 4 12 6 14
REMARK H PARENT 10 5 8 7 1 11 4 13 6 15
REMARK Flexibility Score: inf
ROOT
ATOM      1  C   UNL     1      17.888   5.490  15.632  1.00  0.00     0.176 C 
ENDROOT
BRANCH   1   2
ATOM      2  C   UNL     1      18.138   6.686  14.671  1.00  0.00     0.171 C 
BRANCH   2   3
ATOM      3  C   UNL     1      16.843   7.192  14.017  1.00  0.00     0.190 C 
BRANCH   3   4
ATOM      4  O   UNL     1      17.086   7.517  12.676  1.00  0.00    -0.394 OA
ATOM      5  H   UNL     1      17.974   7.960  12.655  1.00  0.00     0.210 HD
ENDBRANCH   3   4
ENDBRANCH   2   3
BRANCH   2   6
ATOM      6  O   UNL     1      19.069   6.331  13.679  1.00  0.00    -0.388 OA
ATOM      7  H   UNL     1      18.992   7.004  12.954  1.00  0.00     0.211 HD
ENDBRANCH   2   6
ENDBRANCH   1   2
BRANCH   1   8
ATOM      8  C   UNL     1      18.577   4.162  15.203  1.00  0.00     0.171 C 
BRANCH   8   9
ATOM      9  C   UNL     1      17.724   2.923  15.548  1.00  0.00     0.190 C 
BRANCH   9  10
ATOM     10  O   UNL     1      18.172   1.795  14.845  1.00  0.00    -0.394 OA
ATOM     11  H   UNL     1      18.718   2.129  14.087  1.00  0.00     0.210 HD
ENDBRANCH   9  10
ENDBRANCH   8   9
BRANCH   8  12
ATOM     12  O   UNL     1      19.866   4.042  15.756  1.00  0.00    -0.388 OA
ATOM     13  H   UNL     1      20.185   4.952  15.991  1.00  0.00     0.211 HD
ENDBRANCH   8  12
ENDBRANCH   1   8
BRANCH   1  14
ATOM     14  O   UNL     1      18.226   5.839  16.953  1.00  0.00    -0.388 OA
ATOM     15  H   UNL     1      17.434   6.263  17.373  1.00  0.00     0.211 HD
ENDBRANCH   1  14
TORSDOF 9
ENDMDL
MODEL 5
REMARK VINA RESULT:    -4.123      1.391      4.133
REMARK INTER + INTRA:          -6.399
REMARK INTER:                  -5.887
REMARK INTRA:                  -0.512
REMARK UNBOUND:                -0.710
REMARK SMILES OC[C@H](O)C(O)[C@@H](O)CO
REMARK SMILES IDX 5 1 7 2 9 3 10 4 8 6 3 8 2 9 1 10 4 12 6 14
REMARK H PARENT 10 5 8 7 1 11 4 13 6 15
REMARK Flexibility Score: inf
ROOT
ATOM      1  C   UNL     1      19.542   2.640  23.289  1.00  0.00     0.176 C 
ENDROOT
BRANCH   1   2
ATOM      2  C   UNL     1      18.509   1.690  23.956  1.00  0.00     0.171 C 
BRANCH   2   3
ATOM      3  C   UNL     1      19.074   0.996  25.205  1.00  0.00     0.190 C 
BRANCH   3   4
ATOM      4  O   UNL     1      19.542  -0.280  24.865  1.00  0.00    -0.394 OA
ATOM      5  H   UNL     1      19.187  -0.898  25.555  1.00  0.00     0.210 HD
ENDBRANCH   3   4
ENDBRANCH   2   3
BRANCH   2   6
ATOM      6  O   UNL     1      18.059   0.729  23.035  1.00  0.00    -0.388 OA
ATOM      7  H   UNL     1      18.406   0.995  22.145  1.00  0.00     0.211 HD
ENDBRANCH   2   6
ENDBRANCH   1   2
BRANCH   1   8
ATOM      8  C   UNL     1      19.275   4.155  23.531  1.00  0.00     0.171 C 
BRANCH   8   9
ATOM      9  C   UNL     1      19.835   4.638  24.885  1.00  0.00     0.190 C 
BRANCH   9  10
ATOM     10  O   UNL     1      21.216   4.872  24.802  1.00  0.00    -0.394 OA
ATOM     11  H   UNL     1      21.556   4.310  24.058  1.00  0.00     0.210 HD
ENDBRANCH   9  10
ENDBRANCH   8   9
BRANCH   8  12
ATOM     12  O   UNL     1      17.907   4.467  23.424  1.00  0.00    -0.388 OA
ATOM     13  H   UNL     1      17.482   4.285  24.302  1.00  0.00     0.211 HD
ENDBRANCH   8  12
ENDBRANCH   1   8
BRANCH   1  14
ATOM     14  O   UNL     1      20.853   2.286  23.662  1.00  0.00    -0.388 OA
ATOM     15  H   UNL     1      21.380   3.120  23.765  1.00  0.00     0.211 HD
ENDBRANCH   1  14
TORSDOF 9
ENDMDL
MODEL 6
REMARK VINA RESULT:    -4.052      1.432      4.120
REMARK INTER + INTRA:          -6.301
REMARK INTER:                  -5.640
REMARK INTRA:                  -0.661
REMARK UNBOUND:                -0.710
REMARK SMILES OC[C@H](O)C(O)[C@@H](O)CO
REMARK SMILES IDX 5 1 7 2 9 3 10 4 8 6 3 8 2 9 1 10 4 12 6 14
REMARK H PARENT 10 5 8 7 1 11 4 13 6 15
REMARK Flexibility Score: inf
ROOT
ATOM      1  C   UNL     1      20.414   3.454  25.009  1.00  0.00     0.176 C 
ENDROOT
BRANCH   1   2
ATOM      2  C   UNL     1      19.691   2.378  24.152  1.00  0.00     0.171 C 
BRANCH   2   3
ATOM      3  C   UNL     1      19.987   0.950  24.637  1.00  0.00     0.190 C 
BRANCH   3   4
ATOM      4  O   UNL     1      21.372   0.757  24.719  1.00  0.00    -0.394 OA
ATOM      5  H   UNL     1      21.692   1.350  25.448  1.00  0.00     0.210 HD
ENDBRANCH   3   4
ENDBRANCH   2   3
BRANCH   2   6
ATOM      6  O   UNL     1      20.045   2.508  22.798  1.00  0.00    -0.388 OA
ATOM      7  H   UNL     1      20.521   3.374  22.705  1.00  0.00     0.211 HD
ENDBRANCH   2   6
ENDBRANCH   1   2
BRANCH   1   8
ATOM      8  C   UNL     1      19.881   4.903  24.808  1.00  0.00     0.171 C 
BRANCH   8   9
ATOM      9  C   UNL     1      19.779   5.677  26.139  1.00  0.00     0.190 C 
BRANCH   9  10
ATOM     10  O   UNL     1      18.500   5.545  26.699  1.00  0.00    -0.394 OA
ATOM     11  H   UNL     1      17.850   5.691  25.964  1.00  0.00     0.210 HD
ENDBRANCH   9  10
ENDBRANCH   8   9
BRANCH   8  12
ATOM     12  O   UNL     1      18.646   4.915  24.135  1.00  0.00    -0.388 OA
ATOM     13  H   UNL     1      18.792   5.298  23.232  1.00  0.00     0.211 HD
ENDBRANCH   8  12
ENDBRANCH   1   8
BRANCH   1  14
ATOM     14  O   UNL     1      20.407   3.091  26.369  1.00  0.00    -0.388 OA
ATOM     15  H   UNL     1      21.278   2.666  26.579  1.00  0.00     0.211 HD
ENDBRANCH   1  14
TORSDOF 9
ENDMDL
MODEL 7
REMARK VINA RESULT:    -4.035      2.066      3.278
REMARK INTER + INTRA:          -6.279
REMARK INTER:                  -5.304
REMARK INTRA:                  -0.974
REMARK UNBOUND:                -0.710
REMARK SMILES OC[C@H](O)C(O)[C@@H](O)CO
REMARK SMILES IDX 5 1 7 2 9 3 10 4 8 6 3 8 2 9 1 10 4 12 6 14
REMARK H PARENT 10 5 8 7 1 11 4 13 6 15
REMARK Flexibility Score: inf
ROOT
ATOM      1  C   UNL     1      18.327   2.035  24.425  1.00  0.00     0.176 C 
ENDROOT
BRANCH   1   2
ATOM      2  C   UNL     1      19.559   1.910  23.486  1.00  0.00     0.171 C 
BRANCH   2   3
ATOM      3  C   UNL     1      20.885   1.884  24.262  1.00  0.00     0.190 C 
BRANCH   3   4
ATOM      4  O   UNL     1      20.906   0.780  25.125  1.00  0.00    -0.394 OA
ATOM      5  H   UNL     1      20.204   0.160  24.798  1.00  0.00     0.210 HD
ENDBRANCH   3   4
ENDBRANCH   2   3
BRANCH   2   6
ATOM      6  O   UNL     1      19.571   2.958  22.550  1.00  0.00    -0.388 OA
ATOM      7  H   UNL     1      19.112   3.729  22.971  1.00  0.00     0.211 HD
ENDBRANCH   2   6
ENDBRANCH   1   2
BRANCH   1   8
ATOM      8  C   UNL     1      17.607   0.688  24.728  1.00  0.00     0.171 C 
BRANCH   8   9
ATOM      9  C   UNL     1      17.409   0.460  26.240  1.00  0.00     0.190 C 
BRANCH   9  10
ATOM     10  O   UNL     1      18.585  -0.022  26.833  1.00  0.00    -0.394 OA
ATOM     11  H   UNL     1      19.098   0.772  27.135  1.00  0.00     0.210 HD
ENDBRANCH   9  10
ENDBRANCH   8   9
BRANCH   8  12
ATOM     12  O   UNL     1      18.279  -0.403  24.148  1.00  0.00    -0.388 OA
ATOM     13  H   UNL     1      19.219  -0.132  23.980  1.00  0.00     0.211 HD
ENDBRANCH   8  12
ENDBRANCH   1   8
BRANCH   1  14
ATOM     14  O   UNL     1      18.676   2.707  25.612  1.00  0.00    -0.388 OA
ATOM     15  H   UNL     1      19.174   3.528  25.367  1.00  0.00     0.211 HD
ENDBRANCH   1  14
TORSDOF 9
ENDMDL
MODEL 8
REMARK VINA RESULT:    -4.035      1.494      2.413
REMARK INTER + INTRA:          -6.278
REMARK INTER:                  -5.801
REMARK INTRA:                  -0.477
REMARK UNBOUND:                -0.710
REMARK SMILES OC[C@H](O)C(O)[C@@H](O)CO
REMARK SMILES IDX 5 1 7 2 9 3 10 4 8 6 3 8 2 9 1 10 4 12 6 14
REMARK H PARENT 10 5 8 7 1 11 4 13 6 15
REMARK Flexibility Score: inf
ROOT
ATOM      1  C   UNL     1      19.821   3.303  25.671  1.00  0.00     0.176 C 
ENDROOT
BRANCH   1   2
ATOM      2  C   UNL     1      20.375   4.659  25.150  1.00  0.00     0.171 C 
BRANCH   2   3
ATOM      3  C   UNL     1      20.001   5.833  26.067  1.00  0.00     0.190 C 
BRANCH   3   4
ATOM      4  O   UNL     1      18.742   5.603  26.639  1.00  0.00    -0.394 OA
ATOM      5  H   UNL     1      18.911   5.333  27.579  1.00  0.00     0.210 HD
ENDBRANCH   3   4
ENDBRANCH   2   3
BRANCH   2   6
ATOM      6  O   UNL     1      19.919   4.906  23.844  1.00  0.00    -0.388 OA
ATOM      7  H   UNL     1      18.938   4.760  23.845  1.00  0.00     0.211 HD
ENDBRANCH   2   6
ENDBRANCH   1   2
BRANCH   1   8
ATOM      8  C   UNL     1      19.978   2.117  24.674  1.00  0.00     0.171 C 
BRANCH   8   9
ATOM      9  C   UNL     1      19.984   0.750  25.390  1.00  0.00     0.190 C 
BRANCH   9  10
ATOM     10  O   UNL     1      19.317  -0.219  24.625  1.00  0.00    -0.394 OA
ATOM     11  H   UNL     1      18.859  -0.822  25.266  1.00  0.00     0.210 HD
ENDBRANCH   9  10
ENDBRANCH   8   9
BRANCH   8  12
ATOM     12  O   UNL     1      21.125   2.259  23.872  1.00  0.00    -0.388 OA
ATOM     13  H   UNL     1      21.320   3.227  23.784  1.00  0.00     0.211 HD
ENDBRANCH   8  12
ENDBRANCH   1   8
BRANCH   1  14
ATOM     14  O   UNL     1      20.375   2.992  26.927  1.00  0.00    -0.388 OA
ATOM     15  H   UNL     1      20.744   3.826  27.317  1.00  0.00     0.211 HD
ENDBRANCH   1  14
TORSDOF 9
ENDMDL
MODEL 9
REMARK VINA RESULT:    -4.019      2.489      3.844
REMARK INTER + INTRA:          -6.256
REMARK INTER:                  -5.591
REMARK INTRA:                  -0.665
REMARK UNBOUND:                -0.710
REMARK SMILES OC[C@H](O)C(O)[C@@H](O)CO
REMARK SMILES IDX 5 1 7 2 9 3 10 4 8 6 3 8 2 9 1 10 4 12 6 14
REMARK H PARENT 10 5 8 7 1 11 4 13 6 15
REMARK Flexibility Score: inf
ROOT
ATOM      1  C   UNL     1      19.704   1.080  26.605  1.00  0.00     0.176 C 
ENDROOT
BRANCH   1   2
ATOM      2  C   UNL     1      18.205   0.978  27.002  1.00  0.00     0.171 C 
BRANCH   2   3
ATOM      3  C   UNL     1      17.915   1.629  28.363  1.00  0.00     0.190 C 
BRANCH   3   4
ATOM      4  O   UNL     1      18.868   1.209  29.300  1.00  0.00    -0.394 OA
ATOM      5  H   UNL     1      19.746   1.526  28.964  1.00  0.00     0.210 HD
ENDBRANCH   3   4
ENDBRANCH   2   3
BRANCH   2   6
ATOM      6  O   UNL     1      17.791  -0.365  27.015  1.00  0.00    -0.388 OA
ATOM      7  H   UNL     1      17.479  -0.582  26.099  1.00  0.00     0.211 HD
ENDBRANCH   2   6
ENDBRANCH   1   2
BRANCH   1   8
ATOM      8  C   UNL     1      20.012   0.671  25.135  1.00  0.00     0.171 C 
BRANCH   8   9
ATOM      9  C   UNL     1      19.809   1.840  24.149  1.00  0.00     0.190 C 
BRANCH   9  10
ATOM     10  O   UNL     1      21.006   2.543  23.950  1.00  0.00    -0.394 OA
ATOM     11  H   UNL     1      20.786   3.508  24.023  1.00  0.00     0.210 HD
ENDBRANCH   9  10
ENDBRANCH   8   9
BRANCH   8  12
ATOM     12  O   UNL     1      19.256  -0.446  24.736  1.00  0.00    -0.388 OA
ATOM     13  H   UNL     1      19.373  -0.563  23.758  1.00  0.00     0.211 HD
ENDBRANCH   8  12
ENDBRANCH   1   8
BRANCH   1  14
ATOM     14  O   UNL     1      20.206   2.364  26.895  1.00  0.00    -0.388 OA
ATOM     15  H   UNL     1      19.491   3.024  26.707  1.00  0.00     0.211 HD
ENDBRANCH   1  14
TORSDOF 9
ENDMDL
