MODEL 1
REMARK VINA RESULT:    -5.873      0.000      0.000
REMARK INTER + INTRA:         -10.320
REMARK INTER:                  -9.135
REMARK INTRA:                  -1.185
REMARK UNBOUND:                -1.185
REMARK SMILES COc1cc(CNC(=O)CCCCC=CC(C)C)ccc1O
REMARK SMILES IDX 11 1 12 2 13 3 14 4 15 5 16 6 17 7 18 8 10 9 8 10 9 11 7 12
REMARK SMILES IDX 6 14 5 15 4 16 19 17 3 18 20 19 21 20 2 21 1 22 22 23
REMARK H PARENT 7 13 22 24
REMARK Flexibility Score: inf
ROOT
ATOM      1  C   UNL     1     -22.551 -10.249   7.735  1.00  0.00     0.010 C 
ENDROOT
BRANCH   1   2
ATOM      2  C   UNL     1     -22.507  -9.137   8.789  1.00  0.00     0.005 C 
BRANCH   2   3
ATOM      3  C   UNL     1     -22.928  -7.791   8.185  1.00  0.00     0.027 C 
BRANCH   3   4
ATOM      4  C   UNL     1     -21.732  -6.995   7.731  1.00  0.00    -0.031 C 
ATOM      5  C   UNL     1     -21.252  -6.963   6.473  1.00  0.00    -0.028 C 
BRANCH   5   6
ATOM      6  C   UNL     1     -21.830  -7.722   5.295  1.00  0.00     0.005 C 
ATOM      7  C   UNL     1     -20.896  -8.874   4.917  1.00  0.00     0.012 C 
ATOM      8  C   UNL     1     -22.017  -6.769   4.111  1.00  0.00     0.012 C 
ENDBRANCH   5   6
ENDBRANCH   3   4
ENDBRANCH   2   3
ENDBRANCH   1   2
BRANCH   1   9
ATOM      9  C   UNL     1     -23.552 -11.340   8.128  1.00  0.00     0.100 C 
BRANCH   9  10
ATOM     10  C   UNL     1     -22.841 -12.631   8.397  1.00  0.00     0.220 C 
ATOM     11  O   UNL     1     -23.438 -13.723   8.200  1.00  0.00    -0.275 OA
ATOM     12  N   UNL     1     -21.475 -12.622   8.834  1.00  0.00    -0.352 N 
ATOM     13  H   UNL     1     -21.000 -11.700   8.970  1.00  0.00     0.163 HD
BRANCH  12  14
ATOM     14  C   UNL     1     -20.742 -13.864   9.071  1.00  0.00     0.151 C 
BRANCH  14  15
ATOM     15  C   UNL     1     -19.660 -14.045   8.039  1.00  0.00    -0.025 A 
ATOM     16  C   UNL     1     -19.233 -12.954   7.265  1.00  0.00     0.056 A 
ATOM     17  C   UNL     1     -19.122 -15.317   7.797  1.00  0.00     0.009 A 
ATOM     18  C   UNL     1     -18.249 -13.125   6.271  1.00  0.00     0.160 A 
ATOM     19  C   UNL     1     -18.146 -15.491   6.814  1.00  0.00     0.050 A 
ATOM     20  C   UNL     1     -17.707 -14.400   6.052  1.00  0.00     0.157 A 
BRANCH  18  21
ATOM     21  O   UNL     1     -17.787 -12.058   5.484  1.00  0.00    -0.493 OA
ATOM     22  C   UNL     1     -18.394 -11.629   4.269  1.00  0.00     0.278 C 
ENDBRANCH  18  21
BRANCH  20  23
ATOM     23  O   UNL     1     -16.733 -14.575   5.071  1.00  0.00    -0.504 OA
ATOM     24  H   UNL     1     -16.172 -15.418   5.024  1.00  0.00     0.293 HD
ENDBRANCH  20  23
ENDBRANCH  14  15
ENDBRANCH  12  14
ENDBRANCH   9  10
ENDBRANCH   1   9
TORSDOF 10
ENDMDL
MODEL 2
REMARK VINA RESULT:    -5.617     12.042     15.404
REMARK INTER + INTRA:          -9.921
REMARK INTER:                  -8.735
REMARK INTRA:                  -1.186
REMARK UNBOUND:                -1.185
REMARK SMILES COc1cc(CNC(=O)CCCCC=CC(C)C)ccc1O
REMARK SMILES IDX 11 1 12 2 13 3 14 4 15 5 16 6 17 7 18 8 10 9 8 10 9 11 7 12
REMARK SMILES IDX 6 14 5 15 4 16 19 17 3 18 20 19 21 20 2 21 1 22 22 23
REMARK H PARENT 7 13 22 24
REMARK Flexibility Score: inf
ROOT
ATOM      1  C   UNL     1     -18.795 -16.231  -7.474  1.00  0.00     0.010 C 
ENDROOT
BRANCH   1   2
ATOM      2  C   UNL     1     -17.876 -17.024  -8.411  1.00  0.00     0.005 C 
BRANCH   2   3
ATOM      3  C   UNL     1     -16.745 -17.701  -7.628  1.00  0.00     0.027 C 
BRANCH   3   4
ATOM      4  C   UNL     1     -15.652 -16.721  -7.283  1.00  0.00    -0.031 C 
ATOM      5  C   UNL     1     -15.460 -16.168  -6.070  1.00  0.00    -0.028 C 
BRANCH   5   6
ATOM      6  C   UNL     1     -16.307 -16.432  -4.842  1.00  0.00     0.005 C 
ATOM      7  C   UNL     1     -17.073 -15.162  -4.462  1.00  0.00     0.012 C 
ATOM      8  C   UNL     1     -15.410 -16.885  -3.686  1.00  0.00     0.012 C 
ENDBRANCH   5   6
ENDBRANCH   3   4
ENDBRANCH   2   3
ENDBRANCH   1   2
BRANCH   1   9
ATOM      9  C   UNL     1     -20.248 -16.696  -7.606  1.00  0.00     0.100 C 
BRANCH   9  10
ATOM     10  C   UNL     1     -21.149 -15.528  -7.868  1.00  0.00     0.220 C 
ATOM     11  O   UNL     1     -22.385 -15.632  -7.640  1.00  0.00    -0.275 OA
ATOM     12  N   UNL     1     -20.602 -14.287  -8.332  1.00  0.00    -0.352 N 
ATOM     13  H   UNL     1     -19.571 -14.225  -8.494  1.00  0.00     0.163 HD
BRANCH  12  14
ATOM     14  C   UNL     1     -21.449 -13.117  -8.563  1.00  0.00     0.151 C 
BRANCH  14  15
ATOM     15  C   UNL     1     -21.139 -12.035  -7.563  1.00  0.00    -0.025 A 
ATOM     16  C   UNL     1     -19.977 -12.109  -6.779  1.00  0.00     0.056 A 
ATOM     17  C   UNL     1     -22.043 -10.982  -7.361  1.00  0.00     0.009 A 
ATOM     18  C   UNL     1     -19.701 -11.119  -5.814  1.00  0.00     0.160 A 
ATOM     19  C   UNL     1     -21.774  -9.999  -6.407  1.00  0.00     0.050 A 
ATOM     20  C   UNL     1     -20.607 -10.063  -5.636  1.00  0.00     0.157 A 
BRANCH  18  21
ATOM     21  O   UNL     1     -18.545 -11.151  -5.019  1.00  0.00    -0.493 OA
ATOM     22  C   UNL     1     -18.457 -11.790  -3.749  1.00  0.00     0.278 C 
ENDBRANCH  18  21
BRANCH  20  23
ATOM     23  O   UNL     1     -20.339  -9.080  -4.684  1.00  0.00    -0.504 OA
ATOM     24  H   UNL     1     -19.509  -8.501  -4.739  1.00  0.00     0.293 HD
ENDBRANCH  20  23
ENDBRANCH  14  15
ENDBRANCH  12  14
ENDBRANCH   9  10
ENDBRANCH   1   9
TORSDOF 10
ENDMDL
MODEL 3
REMARK VINA RESULT:    -5.489      1.023      2.184
REMARK INTER + INTRA:          -9.722
REMARK INTER:                  -8.647
REMARK INTRA:                  -1.075
REMARK UNBOUND:                -1.185
REMARK SMILES COc1cc(CNC(=O)CCCCC=CC(C)C)ccc1O
REMARK SMILES IDX 11 1 12 2 13 3 14 4 15 5 16 6 17 7 18 8 10 9 8 10 9 11 7 12
REMARK SMILES IDX 6 14 5 15 4 16 19 17 3 18 20 19 21 20 2 21 1 22 22 23
REMARK H PARENT 7 13 22 24
REMARK Flexibility Score: inf
ROOT
ATOM      1  C   UNL     1     -22.530 -10.073   7.907  1.00  0.00     0.010 C 
ENDROOT
BRANCH   1   2
ATOM      2  C   UNL     1     -22.749  -8.927   8.902  1.00  0.00     0.005 C 
BRANCH   2   3
ATOM      3  C   UNL     1     -23.008  -7.605   8.169  1.00  0.00     0.027 C 
BRANCH   3   4
ATOM      4  C   UNL     1     -21.717  -6.948   7.748  1.00  0.00    -0.031 C 
ATOM      5  C   UNL     1     -21.217  -6.951   6.498  1.00  0.00    -0.028 C 
BRANCH   5   6
ATOM      6  C   UNL     1     -21.861  -7.612   5.297  1.00  0.00     0.005 C 
ATOM      7  C   UNL     1     -21.066  -8.861   4.909  1.00  0.00     0.012 C 
ATOM      8  C   UNL     1     -21.911  -6.622   4.129  1.00  0.00     0.012 C 
ENDBRANCH   5   6
ENDBRANCH   3   4
ENDBRANCH   2   3
ENDBRANCH   1   2
BRANCH   1   9
ATOM      9  C   UNL     1     -23.581 -11.170   8.093  1.00  0.00     0.100 C 
BRANCH   9  10
ATOM     10  C   UNL     1     -22.930 -12.456   8.501  1.00  0.00     0.220 C 
ATOM     11  O   UNL     1     -23.542 -13.545   8.333  1.00  0.00    -0.275 OA
ATOM     12  N   UNL     1     -21.600 -12.450   9.039  1.00  0.00    -0.352 N 
ATOM     13  H   UNL     1     -21.110 -11.533   9.149  1.00  0.00     0.163 HD
BRANCH  12  14
ATOM     14  C   UNL     1     -20.923 -13.690   9.414  1.00  0.00     0.151 C 
BRANCH  14  15
ATOM     15  C   UNL     1     -19.855 -14.034   8.409  1.00  0.00    -0.025 A 
ATOM     16  C   UNL     1     -19.237 -15.294   8.439  1.00  0.00     0.056 A 
ATOM     17  C   UNL     1     -19.423 -13.074   7.483  1.00  0.00     0.009 A 
ATOM     18  C   UNL     1     -18.210 -15.608   7.526  1.00  0.00     0.160 A 
ATOM     19  C   UNL     1     -18.407 -13.380   6.576  1.00  0.00     0.050 A 
ATOM     20  C   UNL     1     -17.801 -14.643   6.593  1.00  0.00     0.157 A 
BRANCH  18  21
ATOM     21  O   UNL     1     -17.576 -16.860   7.516  1.00  0.00    -0.493 OA
ATOM     22  C   UNL     1     -16.474 -17.213   8.347  1.00  0.00     0.278 C 
ENDBRANCH  18  21
BRANCH  20  23
ATOM     23  O   UNL     1     -16.786 -14.948   5.688  1.00  0.00    -0.504 OA
ATOM     24  H   UNL     1     -16.893 -15.685   5.000  1.00  0.00     0.293 HD
ENDBRANCH  20  23
ENDBRANCH  14  15
ENDBRANCH  12  14
ENDBRANCH   9  10
ENDBRANCH   1   9
TORSDOF 10
ENDMDL
MODEL 4
REMARK VINA RESULT:    -5.457     12.961     15.906
REMARK INTER + INTRA:          -9.673
REMARK INTER:                  -8.532
REMARK INTRA:                  -1.140
REMARK UNBOUND:                -1.185
REMARK SMILES COc1cc(CNC(=O)CCCCC=CC(C)C)ccc1O
REMARK SMILES IDX 11 1 12 2 13 3 14 4 15 5 16 6 17 7 18 8 10 9 8 10 9 11 7 12
REMARK SMILES IDX 6 14 5 15 4 16 19 17 3 18 20 19 21 20 2 21 1 22 22 23
REMARK H PARENT 7 13 22 24
REMARK Flexibility Score: inf
ROOT
ATOM      1  C   UNL     1     -18.883 -16.330  -7.354  1.00  0.00     0.010 C 
ENDROOT
BRANCH   1   2
ATOM      2  C   UNL     1     -17.707 -16.604  -8.299  1.00  0.00     0.005 C 
BRANCH   2   3
ATOM      3  C   UNL     1     -16.650 -17.484  -7.620  1.00  0.00     0.027 C 
BRANCH   3   4
ATOM      4  C   UNL     1     -15.476 -16.666  -7.147  1.00  0.00    -0.031 C 
ATOM      5  C   UNL     1     -15.302 -16.212  -5.890  1.00  0.00    -0.028 C 
BRANCH   5   6
ATOM      6  C   UNL     1     -16.254 -16.444  -4.735  1.00  0.00     0.005 C 
ATOM      7  C   UNL     1     -17.032 -15.159  -4.444  1.00  0.00     0.012 C 
ATOM      8  C   UNL     1     -15.465 -16.887  -3.499  1.00  0.00     0.012 C 
ENDBRANCH   5   6
ENDBRANCH   3   4
ENDBRANCH   2   3
ENDBRANCH   1   2
BRANCH   1   9
ATOM      9  C   UNL     1     -20.199 -16.834  -7.954  1.00  0.00     0.100 C 
BRANCH   9  10
ATOM     10  C   UNL     1     -21.086 -15.680  -8.312  1.00  0.00     0.220 C 
ATOM     11  O   UNL     1     -22.328 -15.766  -8.114  1.00  0.00    -0.275 OA
ATOM     12  N   UNL     1     -20.518 -14.472  -8.836  1.00  0.00    -0.352 N 
ATOM     13  H   UNL     1     -19.483 -14.424  -8.972  1.00  0.00     0.163 HD
BRANCH  12  14
ATOM     14  C   UNL     1     -21.352 -13.316  -9.162  1.00  0.00     0.151 C 
BRANCH  14  15
ATOM     15  C   UNL     1     -21.216 -12.252  -8.106  1.00  0.00    -0.025 A 
ATOM     16  C   UNL     1     -22.125 -11.183  -8.060  1.00  0.00     0.056 A 
ATOM     17  C   UNL     1     -20.142 -12.285  -7.205  1.00  0.00     0.009 A 
ATOM     18  C   UNL     1     -21.980 -10.163  -7.098  1.00  0.00     0.160 A 
ATOM     19  C   UNL     1     -19.995 -11.278  -6.250  1.00  0.00     0.050 A 
ATOM     20  C   UNL     1     -20.910 -10.219  -6.192  1.00  0.00     0.157 A 
BRANCH  18  21
ATOM     21  O   UNL     1     -22.873  -9.083  -7.012  1.00  0.00    -0.493 OA
ATOM     22  C   UNL     1     -22.810  -7.917  -7.827  1.00  0.00     0.278 C 
ENDBRANCH  18  21
BRANCH  20  23
ATOM     23  O   UNL     1     -20.762  -9.213  -5.238  1.00  0.00    -0.504 OA
ATOM     24  H   UNL     1     -19.883  -9.064  -4.756  1.00  0.00     0.293 HD
ENDBRANCH  20  23
ENDBRANCH  14  15
ENDBRANCH  12  14
ENDBRANCH   9  10
ENDBRANCH   1   9
TORSDOF 10
ENDMDL
MODEL 5
REMARK VINA RESULT:    -5.450      1.025      1.544
REMARK INTER + INTRA:          -9.662
REMARK INTER:                  -8.708
REMARK INTRA:                  -0.954
REMARK UNBOUND:                -1.185
REMARK SMILES COc1cc(CNC(=O)CCCCC=CC(C)C)ccc1O
REMARK SMILES IDX 11 1 12 2 13 3 14 4 15 5 16 6 17 7 18 8 10 9 8 10 9 11 7 12
REMARK SMILES IDX 6 14 5 15 4 16 19 17 3 18 20 19 21 20 2 21 1 22 22 23
REMARK H PARENT 7 13 22 24
REMARK Flexibility Score: inf
ROOT
ATOM      1  C   UNL     1     -22.116  -9.668   7.374  1.00  0.00     0.010 C 
ENDROOT
BRANCH   1   2
ATOM      2  C   UNL     1     -22.189  -8.221   7.874  1.00  0.00     0.005 C 
BRANCH   2   3
ATOM      3  C   UNL     1     -21.538  -7.260   6.872  1.00  0.00     0.027 C 
BRANCH   3   4
ATOM      4  C   UNL     1     -22.106  -7.441   5.487  1.00  0.00    -0.031 C 
ATOM      5  C   UNL     1     -21.586  -6.919   4.360  1.00  0.00    -0.028 C 
BRANCH   5   6
ATOM      6  C   UNL     1     -20.342  -6.058   4.285  1.00  0.00     0.005 C 
ATOM      7  C   UNL     1     -20.597  -4.863   3.363  1.00  0.00     0.012 C 
ATOM      8  C   UNL     1     -19.167  -6.895   3.770  1.00  0.00     0.012 C 
ENDBRANCH   5   6
ENDBRANCH   3   4
ENDBRANCH   2   3
ENDBRANCH   1   2
BRANCH   1   9
ATOM      9  C   UNL     1     -23.181 -10.537   8.048  1.00  0.00     0.100 C 
BRANCH   9  10
ATOM     10  C   UNL     1     -22.658 -11.922   8.280  1.00  0.00     0.220 C 
ATOM     11  O   UNL     1     -23.410 -12.913   8.078  1.00  0.00    -0.275 OA
ATOM     12  N   UNL     1     -21.297 -12.118   8.687  1.00  0.00    -0.352 N 
ATOM     13  H   UNL     1     -20.692 -11.277   8.828  1.00  0.00     0.163 HD
BRANCH  12  14
ATOM     14  C   UNL     1     -20.745 -13.457   8.887  1.00  0.00     0.151 C 
BRANCH  14  15
ATOM     15  C   UNL     1     -19.647 -13.730   7.894  1.00  0.00    -0.025 A 
ATOM     16  C   UNL     1     -19.134 -12.688   7.103  1.00  0.00     0.056 A 
ATOM     17  C   UNL     1     -19.178 -15.037   7.703  1.00  0.00     0.009 A 
ATOM     18  C   UNL     1     -18.134 -12.945   6.145  1.00  0.00     0.160 A 
ATOM     19  C   UNL     1     -18.186 -15.296   6.755  1.00  0.00     0.050 A 
ATOM     20  C   UNL     1     -17.662 -14.256   5.978  1.00  0.00     0.157 A 
BRANCH  18  21
ATOM     21  O   UNL     1     -17.587 -11.930   5.344  1.00  0.00    -0.493 OA
ATOM     22  C   UNL     1     -18.316 -11.193   4.367  1.00  0.00     0.278 C 
ENDBRANCH  18  21
BRANCH  20  23
ATOM     23  O   UNL     1     -16.671 -14.515   5.032  1.00  0.00    -0.504 OA
ATOM     24  H   UNL     1     -16.711 -15.332   4.433  1.00  0.00     0.293 HD
ENDBRANCH  20  23
ENDBRANCH  14  15
ENDBRANCH  12  14
ENDBRANCH   9  10
ENDBRANCH   1   9
TORSDOF 10
ENDMDL
MODEL 6
REMARK VINA RESULT:    -5.358      3.097      7.361
REMARK INTER + INTRA:          -9.519
REMARK INTER:                  -8.787
REMARK INTRA:                  -0.732
REMARK UNBOUND:                -1.185
REMARK SMILES COc1cc(CNC(=O)CCCCC=CC(C)C)ccc1O
REMARK SMILES IDX 11 1 12 2 13 3 14 4 15 5 16 6 17 7 18 8 10 9 8 10 9 11 7 12
REMARK SMILES IDX 6 14 5 15 4 16 19 17 3 18 20 19 21 20 2 21 1 22 22 23
REMARK H PARENT 7 13 22 24
REMARK Flexibility Score: inf
ROOT
ATOM      1  C   UNL     1     -23.192 -12.048   9.108  1.00  0.00     0.010 C 
ENDROOT
BRANCH   1   2
ATOM      2  C   UNL     1     -22.690 -13.436   8.691  1.00  0.00     0.005 C 
BRANCH   2   3
ATOM      3  C   UNL     1     -21.345 -13.755   9.356  1.00  0.00     0.027 C 
BRANCH   3   4
ATOM      4  C   UNL     1     -20.196 -13.145   8.593  1.00  0.00    -0.031 C 
ATOM      5  C   UNL     1     -19.257 -13.837   7.920  1.00  0.00    -0.028 C 
BRANCH   5   6
ATOM      6  C   UNL     1     -19.189 -15.347   7.811  1.00  0.00     0.005 C 
ATOM      7  C   UNL     1     -18.314 -15.905   8.936  1.00  0.00     0.012 C 
ATOM      8  C   UNL     1     -18.623 -15.740   6.443  1.00  0.00     0.012 C 
ENDBRANCH   5   6
ENDBRANCH   3   4
ENDBRANCH   2   3
ENDBRANCH   1   2
BRANCH   1   9
ATOM      9  C   UNL     1     -23.365 -11.138   7.888  1.00  0.00     0.100 C 
BRANCH   9  10
ATOM     10  C   UNL     1     -22.765  -9.790   8.152  1.00  0.00     0.220 C 
ATOM     11  O   UNL     1     -22.925  -9.249   9.279  1.00  0.00    -0.275 OA
ATOM     12  N   UNL     1     -21.978  -9.143   7.144  1.00  0.00    -0.352 N 
ATOM     13  H   UNL     1     -21.848  -9.626   6.225  1.00  0.00     0.163 HD
BRANCH  12  14
ATOM     14  C   UNL     1     -21.350  -7.845   7.382  1.00  0.00     0.151 C 
BRANCH  14  15
ATOM     15  C   UNL     1     -21.217  -7.077   6.094  1.00  0.00    -0.025 A 
ATOM     16  C   UNL     1     -20.306  -6.013   5.996  1.00  0.00     0.056 A 
ATOM     17  C   UNL     1     -22.050  -7.376   5.006  1.00  0.00     0.009 A 
ATOM     18  C   UNL     1     -20.205  -5.266   4.805  1.00  0.00     0.160 A 
ATOM     19  C   UNL     1     -21.953  -6.639   3.824  1.00  0.00     0.050 A 
ATOM     20  C   UNL     1     -21.033  -5.588   3.719  1.00  0.00     0.157 A 
BRANCH  18  21
ATOM     21  O   UNL     1     -19.300  -4.202   4.664  1.00  0.00    -0.493 OA
ATOM     22  C   UNL     1     -19.339  -3.002   5.430  1.00  0.00     0.278 C 
ENDBRANCH  18  21
BRANCH  20  23
ATOM     23  O   UNL     1     -20.937  -4.853   2.539  1.00  0.00    -0.504 OA
ATOM     24  H   UNL     1     -20.627  -5.279   1.673  1.00  0.00     0.293 HD
ENDBRANCH  20  23
ENDBRANCH  14  15
ENDBRANCH  12  14
ENDBRANCH   9  10
ENDBRANCH   1   9
TORSDOF 10
ENDMDL
MODEL 7
REMARK VINA RESULT:    -5.331      1.607      2.906
REMARK INTER + INTRA:          -9.476
REMARK INTER:                  -8.561
REMARK INTRA:                  -0.916
REMARK UNBOUND:                -1.185
REMARK SMILES COc1cc(CNC(=O)CCCCC=CC(C)C)ccc1O
REMARK SMILES IDX 11 1 12 2 13 3 14 4 15 5 16 6 17 7 18 8 10 9 8 10 9 11 7 12
REMARK SMILES IDX 6 14 5 15 4 16 19 17 3 18 20 19 21 20 2 21 1 22 22 23
REMARK H PARENT 7 13 22 24
REMARK Flexibility Score: inf
ROOT
ATOM      1  C   UNL     1     -21.860  -8.397   8.204  1.00  0.00     0.010 C 
ENDROOT
BRANCH   1   2
ATOM      2  C   UNL     1     -22.045  -7.452   7.011  1.00  0.00     0.005 C 
BRANCH   2   3
ATOM      3  C   UNL     1     -21.537  -8.097   5.715  1.00  0.00     0.027 C 
BRANCH   3   4
ATOM      4  C   UNL     1     -22.070  -7.381   4.500  1.00  0.00    -0.031 C 
ATOM      5  C   UNL     1     -21.470  -6.343   3.886  1.00  0.00    -0.028 C 
BRANCH   5   6
ATOM      6  C   UNL     1     -20.158  -5.714   4.307  1.00  0.00     0.005 C 
ATOM      7  C   UNL     1     -20.121  -4.251   3.859  1.00  0.00     0.012 C 
ATOM      8  C   UNL     1     -18.992  -6.494   3.693  1.00  0.00     0.012 C 
ENDBRANCH   5   6
ENDBRANCH   3   4
ENDBRANCH   2   3
ENDBRANCH   1   2
BRANCH   1   9
ATOM      9  C   UNL     1     -23.104  -9.266   8.414  1.00  0.00     0.100 C 
BRANCH   9  10
ATOM     10  C   UNL     1     -22.711 -10.694   8.646  1.00  0.00     0.220 C 
ATOM     11  O   UNL     1     -23.489 -11.618   8.285  1.00  0.00    -0.275 OA
ATOM     12  N   UNL     1     -21.441 -11.005   9.232  1.00  0.00    -0.352 N 
ATOM     13  H   UNL     1     -20.809 -10.217   9.503  1.00  0.00     0.163 HD
BRANCH  12  14
ATOM     14  C   UNL     1     -21.013 -12.387   9.439  1.00  0.00     0.151 C 
BRANCH  14  15
ATOM     15  C   UNL     1     -20.109 -12.833   8.321  1.00  0.00    -0.025 A 
ATOM     16  C   UNL     1     -19.772 -14.190   8.183  1.00  0.00     0.056 A 
ATOM     17  C   UNL     1     -19.542 -11.889   7.453  1.00  0.00     0.009 A 
ATOM     18  C   UNL     1     -18.895 -14.608   7.162  1.00  0.00     0.160 A 
ATOM     19  C   UNL     1     -18.673 -12.299   6.440  1.00  0.00     0.050 A 
ATOM     20  C   UNL     1     -18.350 -13.653   6.290  1.00  0.00     0.157 A 
BRANCH  18  21
ATOM     21  O   UNL     1     -18.543 -15.955   6.984  1.00  0.00    -0.493 OA
ATOM     22  C   UNL     1     -18.019 -16.795   8.008  1.00  0.00     0.278 C 
ENDBRANCH  18  21
BRANCH  20  23
ATOM     23  O   UNL     1     -17.482 -14.062   5.279  1.00  0.00    -0.504 OA
ATOM     24  H   UNL     1     -17.667 -14.890   4.724  1.00  0.00     0.293 HD
ENDBRANCH  20  23
ENDBRANCH  14  15
ENDBRANCH  12  14
ENDBRANCH   9  10
ENDBRANCH   1   9
TORSDOF 10
ENDMDL
MODEL 8
REMARK VINA RESULT:    -5.320     12.810     15.447
REMARK INTER + INTRA:          -9.460
REMARK INTER:                  -8.607
REMARK INTRA:                  -0.853
REMARK UNBOUND:                -1.185
REMARK SMILES COc1cc(CNC(=O)CCCCC=CC(C)C)ccc1O
REMARK SMILES IDX 11 1 12 2 13 3 14 4 15 5 16 6 17 7 18 8 10 9 8 10 9 11 7 12
REMARK SMILES IDX 6 14 5 15 4 16 19 17 3 18 20 19 21 20 2 21 1 22 22 23
REMARK H PARENT 7 13 22 24
REMARK Flexibility Score: inf
ROOT
ATOM      1  C   UNL     1     -17.379 -16.033  -7.543  1.00  0.00     0.010 C 
ENDROOT
BRANCH   1   2
ATOM      2  C   UNL     1     -17.223 -15.828  -6.032  1.00  0.00     0.005 C 
BRANCH   2   3
ATOM      3  C   UNL     1     -15.890 -16.400  -5.534  1.00  0.00     0.027 C 
BRANCH   3   4
ATOM      4  C   UNL     1     -15.974 -16.808  -4.085  1.00  0.00    -0.031 C 
ATOM      5  C   UNL     1     -14.973 -16.704  -3.190  1.00  0.00    -0.028 C 
BRANCH   5   6
ATOM      6  C   UNL     1     -13.590 -16.159  -3.481  1.00  0.00     0.005 C 
ATOM      7  C   UNL     1     -12.571 -16.812  -2.544  1.00  0.00     0.012 C 
ATOM      8  C   UNL     1     -13.588 -14.637  -3.302  1.00  0.00     0.012 C 
ENDBRANCH   5   6
ENDBRANCH   3   4
ENDBRANCH   2   3
ENDBRANCH   1   2
BRANCH   1   9
ATOM      9  C   UNL     1     -18.627 -16.861  -7.860  1.00  0.00     0.100 C 
BRANCH   9  10
ATOM     10  C   UNL     1     -19.792 -15.963  -8.147  1.00  0.00     0.220 C 
ATOM     11  O   UNL     1     -20.965 -16.394  -7.983  1.00  0.00    -0.275 OA
ATOM     12  N   UNL     1     -19.571 -14.609  -8.563  1.00  0.00    -0.352 N 
ATOM     13  H   UNL     1     -18.586 -14.274  -8.672  1.00  0.00     0.163 HD
BRANCH  12  14
ATOM     14  C   UNL     1     -20.685 -13.696  -8.816  1.00  0.00     0.151 C 
BRANCH  14  15
ATOM     15  C   UNL     1     -20.701 -12.587  -7.799  1.00  0.00    -0.025 A 
ATOM     16  C   UNL     1     -21.773 -11.681  -7.759  1.00  0.00     0.056 A 
ATOM     17  C   UNL     1     -19.614 -12.409  -6.931  1.00  0.00     0.009 A 
ATOM     18  C   UNL     1     -21.775 -10.616  -6.835  1.00  0.00     0.160 A 
ATOM     19  C   UNL     1     -19.611 -11.357  -6.013  1.00  0.00     0.050 A 
ATOM     20  C   UNL     1     -20.688 -10.462  -5.961  1.00  0.00     0.157 A 
BRANCH  18  21
ATOM     21  O   UNL     1     -22.833  -9.696  -6.755  1.00  0.00    -0.493 OA
ATOM     22  C   UNL     1     -22.988  -8.569  -7.612  1.00  0.00     0.278 C 
ENDBRANCH  18  21
BRANCH  20  23
ATOM     23  O   UNL     1     -20.685  -9.412  -5.045  1.00  0.00    -0.504 OA
ATOM     24  H   UNL     1     -19.823  -9.061  -4.643  1.00  0.00     0.293 HD
ENDBRANCH  20  23
ENDBRANCH  14  15
ENDBRANCH  12  14
ENDBRANCH   9  10
ENDBRANCH   1   9
TORSDOF 10
ENDMDL
MODEL 9
REMARK VINA RESULT:    -5.314      2.651      4.061
REMARK INTER + INTRA:          -9.450
REMARK INTER:                  -8.721
REMARK INTRA:                  -0.729
REMARK UNBOUND:                -1.185
REMARK SMILES COc1cc(CNC(=O)CCCCC=CC(C)C)ccc1O
REMARK SMILES IDX 11 1 12 2 13 3 14 4 15 5 16 6 17 7 18 8 10 9 8 10 9 11 7 12
REMARK SMILES IDX 6 14 5 15 4 16 19 17 3 18 20 19 21 20 2 21 1 22 22 23
REMARK H PARENT 7 13 22 24
REMARK Flexibility Score: inf
ROOT
ATOM      1  C   UNL     1     -20.910  -9.563   5.967  1.00  0.00     0.010 C 
ENDROOT
BRANCH   1   2
ATOM      2  C   UNL     1     -21.713  -8.604   6.854  1.00  0.00     0.005 C 
BRANCH   2   3
ATOM      3  C   UNL     1     -21.793  -7.208   6.222  1.00  0.00     0.027 C 
BRANCH   3   4
ATOM      4  C   UNL     1     -22.145  -7.287   4.758  1.00  0.00    -0.031 C 
ATOM      5  C   UNL     1     -21.579  -6.550   3.783  1.00  0.00    -0.028 C 
BRANCH   5   6
ATOM      6  C   UNL     1     -20.492  -5.515   3.985  1.00  0.00     0.005 C 
ATOM      7  C   UNL     1     -20.749  -4.314   3.072  1.00  0.00     0.012 C 
ATOM      8  C   UNL     1     -19.126  -6.137   3.685  1.00  0.00     0.012 C 
ENDBRANCH   5   6
ENDBRANCH   3   4
ENDBRANCH   2   3
ENDBRANCH   1   2
BRANCH   1   9
ATOM      9  C   UNL     1     -19.599  -9.970   6.644  1.00  0.00     0.100 C 
BRANCH   9  10
ATOM     10  C   UNL     1     -18.871 -10.981   5.811  1.00  0.00     0.220 C 
ATOM     11  O   UNL     1     -18.388 -10.637   4.698  1.00  0.00    -0.275 OA
ATOM     12  N   UNL     1     -18.688 -12.317   6.297  1.00  0.00    -0.352 N 
ATOM     13  H   UNL     1     -19.084 -12.567   7.232  1.00  0.00     0.163 HD
BRANCH  12  14
ATOM     14  C   UNL     1     -17.953 -13.317   5.525  1.00  0.00     0.151 C 
BRANCH  14  15
ATOM     15  C   UNL     1     -17.665 -14.530   6.368  1.00  0.00    -0.025 A 
ATOM     16  C   UNL     1     -16.340 -14.875   6.680  1.00  0.00     0.056 A 
ATOM     17  C   UNL     1     -18.713 -15.361   6.789  1.00  0.00     0.009 A 
ATOM     18  C   UNL     1     -16.062 -16.032   7.436  1.00  0.00     0.160 A 
ATOM     19  C   UNL     1     -18.443 -16.507   7.540  1.00  0.00     0.050 A 
ATOM     20  C   UNL     1     -17.123 -16.843   7.866  1.00  0.00     0.157 A 
BRANCH  18  21
ATOM     21  O   UNL     1     -14.753 -16.405   7.779  1.00  0.00    -0.493 OA
ATOM     22  C   UNL     1     -13.846 -17.064   6.901  1.00  0.00     0.278 C 
ENDBRANCH  18  21
BRANCH  20  23
ATOM     23  O   UNL     1     -16.854 -17.988   8.615  1.00  0.00    -0.504 OA
ATOM     24  H   UNL     1     -15.912 -18.351   8.708  1.00  0.00     0.293 HD
ENDBRANCH  20  23
ENDBRANCH  14  15
ENDBRANCH  12  14
ENDBRANCH   9  10
ENDBRANCH   1   9
TORSDOF 10
ENDMDL
