MODEL 1
REMARK VINA RESULT:    -4.457      0.000      0.000
REMARK INTER + INTRA:          -5.196
REMARK INTER:                  -4.978
REMARK INTRA:                  -0.218
REMARK UNBOUND:                -0.218
REMARK SMILES CC(C)c1ccc(C(=O)[O-])cc1
REMARK SMILES IDX 7 1 6 2 11 3 5 4 12 5 4 6 8 7 9 8 10 9 2 10 1 11 3 12
REMARK H PARENT
REMARK Flexibility Score: inf
ROOT
ATOM      1  C   UNL     1      58.697  27.726  50.121  1.00  0.00    -0.003 A 
ATOM      2  C   UNL     1      58.237  26.405  49.984  1.00  0.00     0.010 A 
ATOM      3  C   UNL     1      57.759  28.759  50.285  1.00  0.00     0.010 A 
ATOM      4  C   UNL     1      56.868  26.124  50.009  1.00  0.00     0.004 A 
ATOM      5  C   UNL     1      56.391  28.478  50.310  1.00  0.00     0.004 A 
ATOM      6  C   UNL     1      55.930  27.156  50.173  1.00  0.00    -0.045 A 
ENDROOT
BRANCH   1   7
ATOM      7  C   UNL     1      60.145  28.028  50.095  1.00  0.00     0.071 C 
ATOM      8  O   UNL     1      60.617  28.967  50.788  1.00  0.00    -0.545 OA
ATOM      9  O   UNL     1      61.006  27.275  49.304  1.00  0.00    -0.545 OA
ENDBRANCH   1   7
BRANCH   6  10
ATOM     10  C   UNL     1      54.447  26.836  50.198  1.00  0.00     0.013 C 
ATOM     11  C   UNL     1      54.111  25.695  49.229  1.00  0.00     0.012 C 
ATOM     12  C   UNL     1      53.607  28.083  49.893  1.00  0.00     0.012 C 
ENDBRANCH   6  10
TORSDOF 2
ENDMDL
MODEL 2
REMARK VINA RESULT:    -4.450      0.076      1.680
REMARK INTER + INTRA:          -5.188
REMARK INTER:                  -4.970
REMARK INTRA:                  -0.218
REMARK UNBOUND:                -0.218
REMARK SMILES CC(C)c1ccc(C(=O)[O-])cc1
REMARK SMILES IDX 7 1 6 2 11 3 5 4 12 5 4 6 8 7 9 8 10 9 2 10 1 11 3 12
REMARK H PARENT
REMARK Flexibility Score: inf
ROOT
ATOM      1  C   UNL     1      58.672  27.685  50.116  1.00  0.00    -0.003 A 
ATOM      2  C   UNL     1      57.730  28.716  50.284  1.00  0.00     0.010 A 
ATOM      3  C   UNL     1      58.214  26.365  49.970  1.00  0.00     0.010 A 
ATOM      4  C   UNL     1      56.362  28.432  50.305  1.00  0.00     0.004 A 
ATOM      5  C   UNL     1      56.847  26.081  49.991  1.00  0.00     0.004 A 
ATOM      6  C   UNL     1      55.905  27.112  50.159  1.00  0.00    -0.045 A 
ENDROOT
BRANCH   1   7
ATOM      7  C   UNL     1      60.120  27.983  50.093  1.00  0.00     0.071 C 
ATOM      8  O   UNL     1      60.888  27.367  49.307  1.00  0.00    -0.545 OA
ATOM      9  O   UNL     1      60.654  28.948  50.939  1.00  0.00    -0.545 OA
ENDBRANCH   1   7
BRANCH   6  10
ATOM     10  C   UNL     1      54.416  26.818  50.185  1.00  0.00     0.013 C 
ATOM     11  C   UNL     1      54.058  25.687  49.212  1.00  0.00     0.012 C 
ATOM     12  C   UNL     1      53.598  28.081  49.887  1.00  0.00     0.012 C 
ENDBRANCH   6  10
TORSDOF 2
ENDMDL
MODEL 3
REMARK VINA RESULT:    -4.420     12.901     13.870
REMARK INTER + INTRA:          -5.155
REMARK INTER:                  -4.936
REMARK INTRA:                  -0.219
REMARK UNBOUND:                -0.218
REMARK SMILES CC(C)c1ccc(C(=O)[O-])cc1
REMARK SMILES IDX 7 1 6 2 11 3 5 4 12 5 4 6 8 7 9 8 10 9 2 10 1 11 3 12
REMARK H PARENT
REMARK Flexibility Score: inf
ROOT
ATOM      1  C   UNL     1      62.988  31.024  61.240  1.00  0.00    -0.003 A 
ATOM      2  C   UNL     1      64.126  31.842  61.137  1.00  0.00     0.010 A 
ATOM      3  C   UNL     1      61.717  31.608  61.105  1.00  0.00     0.010 A 
ATOM      4  C   UNL     1      63.996  33.215  60.906  1.00  0.00     0.004 A 
ATOM      5  C   UNL     1      61.586  32.979  60.874  1.00  0.00     0.004 A 
ATOM      6  C   UNL     1      62.726  33.799  60.772  1.00  0.00    -0.045 A 
ENDROOT
BRANCH   1   7
ATOM      7  C   UNL     1      63.121  29.571  61.484  1.00  0.00     0.071 C 
ATOM      8  O   UNL     1      64.258  29.034  61.548  1.00  0.00    -0.545 OA
ATOM      9  O   UNL     1      61.991  28.778  61.647  1.00  0.00    -0.545 OA
ENDBRANCH   1   7
BRANCH   6  10
ATOM     10  C   UNL     1      62.600  35.290  60.522  1.00  0.00     0.013 C 
ATOM     11  C   UNL     1      63.431  36.092  61.530  1.00  0.00     0.012 C 
ATOM     12  C   UNL     1      61.131  35.732  60.543  1.00  0.00     0.012 C 
ENDBRANCH   6  10
TORSDOF 2
ENDMDL
MODEL 4
REMARK VINA RESULT:    -4.353     12.539     14.256
REMARK INTER + INTRA:          -5.080
REMARK INTER:                  -4.866
REMARK INTRA:                  -0.214
REMARK UNBOUND:                -0.218
REMARK SMILES CC(C)c1ccc(C(=O)[O-])cc1
REMARK SMILES IDX 7 1 6 2 11 3 5 4 12 5 4 6 8 7 9 8 10 9 2 10 1 11 3 12
REMARK H PARENT
REMARK Flexibility Score: inf
ROOT
ATOM      1  C   UNL     1      62.601  31.883  60.804  1.00  0.00    -0.003 A 
ATOM      2  C   UNL     1      61.582  32.835  60.628  1.00  0.00     0.010 A 
ATOM      3  C   UNL     1      63.911  32.328  61.051  1.00  0.00     0.010 A 
ATOM      4  C   UNL     1      61.867  34.202  60.696  1.00  0.00     0.004 A 
ATOM      5  C   UNL     1      64.197  33.693  61.119  1.00  0.00     0.004 A 
ATOM      6  C   UNL     1      63.177  34.647  60.943  1.00  0.00    -0.045 A 
ENDROOT
BRANCH   1   7
ATOM      7  C   UNL     1      62.303  30.436  60.733  1.00  0.00     0.071 C 
ATOM      8  O   UNL     1      61.950  29.907  59.646  1.00  0.00    -0.545 OA
ATOM      9  O   UNL     1      62.410  29.639  61.867  1.00  0.00    -0.545 OA
ENDBRANCH   1   7
BRANCH   6  10
ATOM     10  C   UNL     1      63.472  36.134  61.014  1.00  0.00     0.013 C 
ATOM     11  C   UNL     1      64.542  36.435  62.070  1.00  0.00     0.012 C 
ATOM     12  C   UNL     1      62.193  36.939  61.279  1.00  0.00     0.012 C 
ENDBRANCH   6  10
TORSDOF 2
ENDMDL
MODEL 5
REMARK VINA RESULT:    -4.164      3.523      5.282
REMARK INTER + INTRA:          -4.869
REMARK INTER:                  -4.670
REMARK INTRA:                  -0.199
REMARK UNBOUND:                -0.218
REMARK SMILES CC(C)c1ccc(C(=O)[O-])cc1
REMARK SMILES IDX 7 1 6 2 11 3 5 4 12 5 4 6 8 7 9 8 10 9 2 10 1 11 3 12
REMARK H PARENT
REMARK Flexibility Score: inf
ROOT
ATOM      1  C   UNL     1      54.818  26.492  49.979  1.00  0.00    -0.003 A 
ATOM      2  C   UNL     1      54.586  27.859  50.208  1.00  0.00     0.010 A 
ATOM      3  C   UNL     1      56.140  26.018  49.975  1.00  0.00     0.010 A 
ATOM      4  C   UNL     1      55.655  28.734  50.427  1.00  0.00     0.004 A 
ATOM      5  C   UNL     1      57.208  26.892  50.194  1.00  0.00     0.004 A 
ATOM      6  C   UNL     1      56.977  28.260  50.423  1.00  0.00    -0.045 A 
ENDROOT
BRANCH   1   7
ATOM      7  C   UNL     1      53.690  25.564  49.747  1.00  0.00     0.071 C 
ATOM      8  O   UNL     1      53.123  25.512  48.624  1.00  0.00    -0.545 OA
ATOM      9  O   UNL     1      53.240  24.734  50.768  1.00  0.00    -0.545 OA
ENDBRANCH   1   7
BRANCH   6  10
ATOM     10  C   UNL     1      58.127  29.221  50.662  1.00  0.00     0.013 C 
ATOM     11  C   UNL     1      59.183  29.107  49.554  1.00  0.00     0.012 C 
ATOM     12  C   UNL     1      58.753  29.001  52.045  1.00  0.00     0.012 C 
ENDBRANCH   6  10
TORSDOF 2
ENDMDL
MODEL 6
REMARK VINA RESULT:    -4.148      1.205      2.067
REMARK INTER + INTRA:          -4.851
REMARK INTER:                  -4.632
REMARK INTRA:                  -0.219
REMARK UNBOUND:                -0.218
REMARK SMILES CC(C)c1ccc(C(=O)[O-])cc1
REMARK SMILES IDX 7 1 6 2 11 3 5 4 12 5 4 6 8 7 9 8 10 9 2 10 1 11 3 12
REMARK H PARENT
REMARK Flexibility Score: inf
ROOT
ATOM      1  C   UNL     1      60.044  27.167  49.807  1.00  0.00    -0.003 A 
ATOM      2  C   UNL     1      59.291  28.354  49.805  1.00  0.00     0.010 A 
ATOM      3  C   UNL     1      59.386  25.946  50.031  1.00  0.00     0.010 A 
ATOM      4  C   UNL     1      57.911  28.320  50.023  1.00  0.00     0.004 A 
ATOM      5  C   UNL     1      58.007  25.911  50.249  1.00  0.00     0.004 A 
ATOM      6  C   UNL     1      57.253  27.099  50.247  1.00  0.00    -0.045 A 
ENDROOT
BRANCH   1   7
ATOM      7  C   UNL     1      61.504  27.199  49.576  1.00  0.00     0.071 C 
ATOM      8  O   UNL     1      62.090  28.284  49.323  1.00  0.00    -0.545 OA
ATOM      9  O   UNL     1      62.252  26.028  49.637  1.00  0.00    -0.545 OA
ENDBRANCH   1   7
BRANCH   6  10
ATOM     10  C   UNL     1      55.754  27.078  50.483  1.00  0.00     0.013 C 
ATOM     11  C   UNL     1      55.057  26.106  49.523  1.00  0.00     0.012 C 
ATOM     12  C   UNL     1      55.157  28.486  50.372  1.00  0.00     0.012 C 
ENDBRANCH   6  10
TORSDOF 2
ENDMDL
MODEL 7
REMARK VINA RESULT:    -4.060      3.379      5.126
REMARK INTER + INTRA:          -4.753
REMARK INTER:                  -4.540
REMARK INTRA:                  -0.213
REMARK UNBOUND:                -0.218
REMARK SMILES CC(C)c1ccc(C(=O)[O-])cc1
REMARK SMILES IDX 7 1 6 2 11 3 5 4 12 5 4 6 8 7 9 8 10 9 2 10 1 11 3 12
REMARK H PARENT
REMARK Flexibility Score: inf
ROOT
ATOM      1  C   UNL     1      55.017  27.417  50.013  1.00  0.00    -0.003 A 
ATOM      2  C   UNL     1      55.704  26.195  49.902  1.00  0.00     0.010 A 
ATOM      3  C   UNL     1      55.745  28.580  50.314  1.00  0.00     0.010 A 
ATOM      4  C   UNL     1      57.088  26.139  50.088  1.00  0.00     0.004 A 
ATOM      5  C   UNL     1      57.129  28.524  50.500  1.00  0.00     0.004 A 
ATOM      6  C   UNL     1      57.816  27.302  50.389  1.00  0.00    -0.045 A 
ENDROOT
BRANCH   1   7
ATOM      7  C   UNL     1      53.553  27.481  49.817  1.00  0.00     0.071 C 
ATOM      8  O   UNL     1      52.875  26.426  49.700  1.00  0.00    -0.545 OA
ATOM      9  O   UNL     1      52.903  28.709  49.760  1.00  0.00    -0.545 OA
ENDBRANCH   1   7
BRANCH   6  10
ATOM     10  C   UNL     1      59.318  27.225  50.589  1.00  0.00     0.013 C 
ATOM     11  C   UNL     1      60.068  27.668  49.326  1.00  0.00     0.012 C 
ATOM     12  C   UNL     1      59.748  25.816  51.019  1.00  0.00     0.012 C 
ENDBRANCH   6  10
TORSDOF 2
ENDMDL
MODEL 8
REMARK VINA RESULT:    -3.878      2.778      5.084
REMARK INTER + INTRA:          -4.550
REMARK INTER:                  -4.331
REMARK INTRA:                  -0.218
REMARK UNBOUND:                -0.218
REMARK SMILES CC(C)c1ccc(C(=O)[O-])cc1
REMARK SMILES IDX 7 1 6 2 11 3 5 4 12 5 4 6 8 7 9 8 10 9 2 10 1 11 3 12
REMARK H PARENT
REMARK Flexibility Score: inf
ROOT
ATOM      1  C   UNL     1      57.053  27.168  50.137  1.00  0.00    -0.003 A 
ATOM      2  C   UNL     1      57.881  26.046  49.958  1.00  0.00     0.010 A 
ATOM      3  C   UNL     1      57.619  28.450  50.051  1.00  0.00     0.010 A 
ATOM      4  C   UNL     1      59.246  26.204  49.700  1.00  0.00     0.004 A 
ATOM      5  C   UNL     1      58.983  28.609  49.794  1.00  0.00     0.004 A 
ATOM      6  C   UNL     1      59.812  27.487  49.615  1.00  0.00    -0.045 A 
ENDROOT
BRANCH   1   7
ATOM      7  C   UNL     1      55.608  27.004  50.409  1.00  0.00     0.071 C 
ATOM      8  O   UNL     1      54.775  27.845  49.981  1.00  0.00    -0.545 OA
ATOM      9  O   UNL     1      55.150  25.916  51.143  1.00  0.00    -0.545 OA
ENDBRANCH   1   7
BRANCH   6  10
ATOM     10  C   UNL     1      61.295  27.644  49.334  1.00  0.00     0.013 C 
ATOM     11  C   UNL     1      62.063  26.363  49.687  1.00  0.00     0.012 C 
ATOM     12  C   UNL     1      61.873  28.855  50.077  1.00  0.00     0.012 C 
ENDBRANCH   6  10
TORSDOF 2
ENDMDL
