MODEL 1
REMARK VINA RESULT:    -2.326      0.000      0.000
REMARK INTER + INTRA:          -2.777
REMARK INTER:                  -2.734
REMARK INTRA:                  -0.043
REMARK UNBOUND:                -0.043
REMARK SMILES CCCCC(=O)[O-]
REMARK SMILES IDX 4 1 5 2 6 3 7 4 3 5 2 6 1 7
REMARK H PARENT
REMARK Flexibility Score: inf
ROOT
ATOM      1  C   UNL     1      75.091  72.657  91.896  1.00  0.00     0.053 C 
ENDROOT
BRANCH   1   2
ATOM      2  C   UNL     1      76.284  73.564  91.913  1.00  0.00     0.041 C 
ATOM      3  O   UNL     1      77.427  73.114  91.638  1.00  0.00    -0.550 OA
ATOM      4  O   UNL     1      76.126  74.913  92.204  1.00  0.00    -0.550 OA
ENDBRANCH   1   2
BRANCH   1   5
ATOM      5  C   UNL     1      74.085  73.013  93.002  1.00  0.00     0.006 C 
BRANCH   5   6
ATOM      6  C   UNL     1      72.666  73.315  92.488  1.00  0.00    -0.003 C 
ATOM      7  C   UNL     1      71.881  72.053  92.135  1.00  0.00     0.004 C 
ENDBRANCH   5   6
ENDBRANCH   1   5
TORSDOF 3
ENDMDL
MODEL 2
REMARK VINA RESULT:    -2.295     15.949     16.572
REMARK INTER + INTRA:          -2.741
REMARK INTER:                  -2.693
REMARK INTRA:                  -0.048
REMARK UNBOUND:                -0.043
REMARK SMILES CCCCC(=O)[O-]
REMARK SMILES IDX 4 1 5 2 6 3 7 4 3 5 2 6 1 7
REMARK H PARENT
REMARK Flexibility Score: inf
ROOT
ATOM      1  C   UNL     1      74.598  90.638  92.969  1.00  0.00     0.053 C 
ENDROOT
BRANCH   1   2
ATOM      2  C   UNL     1      76.062  90.705  92.661  1.00  0.00     0.041 C 
ATOM      3  O   UNL     1      76.849  89.838  93.125  1.00  0.00    -0.550 OA
ATOM      4  O   UNL     1      76.553  91.708  91.835  1.00  0.00    -0.550 OA
ENDBRANCH   1   2
BRANCH   1   5
ATOM      5  C   UNL     1      74.071  89.194  92.944  1.00  0.00     0.006 C 
BRANCH   5   6
ATOM      6  C   UNL     1      74.032  88.563  91.541  1.00  0.00    -0.003 C 
ATOM      7  C   UNL     1      72.905  87.544  91.381  1.00  0.00     0.004 C 
ENDBRANCH   5   6
ENDBRANCH   1   5
TORSDOF 3
ENDMDL
MODEL 3
REMARK VINA RESULT:    -2.269     14.943     15.539
REMARK INTER + INTRA:          -2.710
REMARK INTER:                  -2.685
REMARK INTRA:                  -0.025
REMARK UNBOUND:                -0.043
REMARK SMILES CCCCC(=O)[O-]
REMARK SMILES IDX 4 1 5 2 6 3 7 4 3 5 2 6 1 7
REMARK H PARENT
REMARK Flexibility Score: inf
ROOT
ATOM      1  C   UNL     1      73.816  88.747  92.088  1.00  0.00     0.053 C 
ENDROOT
BRANCH   1   2
ATOM      2  C   UNL     1      74.624  89.830  92.735  1.00  0.00     0.041 C 
ATOM      3  O   UNL     1      75.854  89.663  92.949  1.00  0.00    -0.550 OA
ATOM      4  O   UNL     1      74.024  91.036  93.074  1.00  0.00    -0.550 OA
ENDBRANCH   1   2
BRANCH   1   5
ATOM      5  C   UNL     1      73.208  87.789  93.124  1.00  0.00     0.006 C 
BRANCH   5   6
ATOM      6  C   UNL     1      72.148  86.831  92.551  1.00  0.00    -0.003 C 
ATOM      7  C   UNL     1      72.216  86.714  91.029  1.00  0.00     0.004 C 
ENDBRANCH   5   6
ENDBRANCH   1   5
TORSDOF 3
ENDMDL
MODEL 4
REMARK VINA RESULT:    -2.184     24.487     25.139
REMARK INTER + INTRA:          -2.610
REMARK INTER:                  -2.593
REMARK INTRA:                  -0.017
REMARK UNBOUND:                -0.043
REMARK SMILES CCCCC(=O)[O-]
REMARK SMILES IDX 4 1 5 2 6 3 7 4 3 5 2 6 1 7
REMARK H PARENT
REMARK Flexibility Score: inf
ROOT
ATOM      1  C   UNL     1      73.771  90.276  72.905  1.00  0.00     0.053 C 
ENDROOT
BRANCH   1   2
ATOM      2  C   UNL     1      73.502  91.487  73.744  1.00  0.00     0.041 C 
ATOM      3  O   UNL     1      72.423  92.122  73.615  1.00  0.00    -0.550 OA
ATOM      4  O   UNL     1      74.432  91.896  74.692  1.00  0.00    -0.550 OA
ENDBRANCH   1   2
BRANCH   1   5
ATOM      5  C   UNL     1      74.641  89.247  73.645  1.00  0.00     0.006 C 
BRANCH   5   6
ATOM      6  C   UNL     1      74.513  87.811  73.107  1.00  0.00    -0.003 C 
ATOM      7  C   UNL     1      75.147  86.773  74.031  1.00  0.00     0.004 C 
ENDBRANCH   5   6
ENDBRANCH   1   5
TORSDOF 3
ENDMDL
MODEL 5
REMARK VINA RESULT:    -2.163     15.322     16.072
REMARK INTER + INTRA:          -2.586
REMARK INTER:                  -2.530
REMARK INTRA:                  -0.056
REMARK UNBOUND:                -0.043
REMARK SMILES CCCCC(=O)[O-]
REMARK SMILES IDX 4 1 5 2 6 3 7 4 3 5 2 6 1 7
REMARK H PARENT
REMARK Flexibility Score: inf
ROOT
ATOM      1  C   UNL     1      74.826  88.416  91.821  1.00  0.00     0.053 C 
ENDROOT
BRANCH   1   2
ATOM      2  C   UNL     1      74.186  88.004  90.530  1.00  0.00     0.041 C 
ATOM      3  O   UNL     1      74.865  87.962  89.470  1.00  0.00    -0.550 OA
ATOM      4  O   UNL     1      72.847  87.637  90.505  1.00  0.00    -0.550 OA
ENDBRANCH   1   2
BRANCH   1   5
ATOM      5  C   UNL     1      73.860  89.214  92.710  1.00  0.00     0.006 C 
BRANCH   5   6
ATOM      6  C   UNL     1      74.304  90.663  92.981  1.00  0.00    -0.003 C 
ATOM      7  C   UNL     1      75.758  90.921  92.589  1.00  0.00     0.004 C 
ENDBRANCH   5   6
ENDBRANCH   1   5
TORSDOF 3
ENDMDL
MODEL 6
REMARK VINA RESULT:    -2.161     20.272     20.817
REMARK INTER + INTRA:          -2.584
REMARK INTER:                  -2.479
REMARK INTRA:                  -0.105
REMARK UNBOUND:                -0.043
REMARK SMILES CCCCC(=O)[O-]
REMARK SMILES IDX 4 1 5 2 6 3 7 4 3 5 2 6 1 7
REMARK H PARENT
REMARK Flexibility Score: inf
ROOT
ATOM      1  C   UNL     1      72.995  91.378  80.467  1.00  0.00     0.053 C 
ENDROOT
BRANCH   1   2
ATOM      2  C   UNL     1      74.346  91.114  79.875  1.00  0.00     0.041 C 
ATOM      3  O   UNL     1      74.931  92.005  79.204  1.00  0.00    -0.550 OA
ATOM      4  O   UNL     1      74.971  89.892  80.091  1.00  0.00    -0.550 OA
ENDBRANCH   1   2
BRANCH   1   5
ATOM      5  C   UNL     1      72.242  90.076  80.782  1.00  0.00     0.006 C 
BRANCH   5   6
ATOM      6  C   UNL     1      71.875  89.904  82.266  1.00  0.00    -0.003 C 
ATOM      7  C   UNL     1      72.959  89.183  83.065  1.00  0.00     0.004 C 
ENDBRANCH   5   6
ENDBRANCH   1   5
TORSDOF 3
ENDMDL
MODEL 7
REMARK VINA RESULT:    -2.070     24.250     24.904
REMARK INTER + INTRA:          -2.476
REMARK INTER:                  -2.408
REMARK INTRA:                  -0.069
REMARK UNBOUND:                -0.043
REMARK SMILES CCCCC(=O)[O-]
REMARK SMILES IDX 4 1 5 2 6 3 7 4 3 5 2 6 1 7
REMARK H PARENT
REMARK Flexibility Score: inf
ROOT
ATOM      1  C   UNL     1      75.623  91.461  74.569  1.00  0.00     0.053 C 
ENDROOT
BRANCH   1   2
ATOM      2  C   UNL     1      75.625  91.221  76.047  1.00  0.00     0.041 C 
ATOM      3  O   UNL     1      75.246  92.125  76.838  1.00  0.00    -0.550 OA
ATOM      4  O   UNL     1      76.018  89.987  76.551  1.00  0.00    -0.550 OA
ENDBRANCH   1   2
BRANCH   1   5
ATOM      5  C   UNL     1      74.212  91.756  74.037  1.00  0.00     0.006 C 
BRANCH   5   6
ATOM      6  C   UNL     1      73.752  90.813  72.912  1.00  0.00    -0.003 C 
ATOM      7  C   UNL     1      74.140  89.357  73.162  1.00  0.00     0.004 C 
ENDBRANCH   5   6
ENDBRANCH   1   5
TORSDOF 3
ENDMDL
MODEL 8
REMARK VINA RESULT:    -2.038     25.818     26.518
REMARK INTER + INTRA:          -2.438
REMARK INTER:                  -2.312
REMARK INTRA:                  -0.126
REMARK UNBOUND:                -0.043
REMARK SMILES CCCCC(=O)[O-]
REMARK SMILES IDX 4 1 5 2 6 3 7 4 3 5 2 6 1 7
REMARK H PARENT
REMARK Flexibility Score: inf
ROOT
ATOM      1  C   UNL     1      83.680  91.219  73.455  1.00  0.00     0.053 C 
ENDROOT
BRANCH   1   2
ATOM      2  C   UNL     1      83.292  89.796  73.195  1.00  0.00     0.041 C 
ATOM      3  O   UNL     1      84.169  88.941  72.904  1.00  0.00    -0.550 OA
ATOM      4  O   UNL     1      81.962  89.408  73.303  1.00  0.00    -0.550 OA
ENDBRANCH   1   2
BRANCH   1   5
ATOM      5  C   UNL     1      84.650  91.341  74.641  1.00  0.00     0.006 C 
BRANCH   5   6
ATOM      6  C   UNL     1      84.038  90.950  75.998  1.00  0.00    -0.003 C 
ATOM      7  C   UNL     1      82.764  91.729  76.320  1.00  0.00     0.004 C 
ENDBRANCH   5   6
ENDBRANCH   1   5
TORSDOF 3
ENDMDL
MODEL 9
REMARK VINA RESULT:    -1.620     24.981     25.522
REMARK INTER + INTRA:          -1.947
REMARK INTER:                  -1.906
REMARK INTRA:                  -0.041
REMARK UNBOUND:                -0.043
REMARK SMILES CCCCC(=O)[O-]
REMARK SMILES IDX 4 1 5 2 6 3 7 4 3 5 2 6 1 7
REMARK H PARENT
REMARK Flexibility Score: inf
ROOT
ATOM      1  C   UNL     1      75.088  90.276  74.353  1.00  0.00     0.053 C 
ENDROOT
BRANCH   1   2
ATOM      2  C   UNL     1      76.398  89.887  73.740  1.00  0.00     0.041 C 
ATOM      3  O   UNL     1      76.951  90.639  72.894  1.00  0.00    -0.550 OA
ATOM      4  O   UNL     1      77.024  88.709  74.126  1.00  0.00    -0.550 OA
ENDBRANCH   1   2
BRANCH   1   5
ATOM      5  C   UNL     1      74.003  90.506  73.290  1.00  0.00     0.006 C 
BRANCH   5   6
ATOM      6  C   UNL     1      73.319  91.882  73.375  1.00  0.00    -0.003 C 
ATOM      7  C   UNL     1      71.875  91.859  72.877  1.00  0.00     0.004 C 
ENDBRANCH   5   6
ENDBRANCH   1   5
TORSDOF 3
ENDMDL
