MODEL 1
REMARK VINA RESULT:    -4.573      0.000      0.000
REMARK INTER + INTRA:          -7.657
REMARK INTER:                  -6.711
REMARK INTRA:                  -0.946
REMARK UNBOUND:                -0.946
REMARK SMILES O=C([O-])CCCCCCCC(=O)[O-]
REMARK SMILES IDX 7 1 6 2 5 3 4 4 2 5 1 6 3 7 8 8 9 9 10 10 11 11 12 12 13 13
REMARK H PARENT
REMARK Flexibility Score: inf
ROOT
ATOM      1  C   UNL     1      17.469  -3.435  34.904  1.00  0.00     0.000 C 
ENDROOT
BRANCH   1   2
ATOM      2  C   UNL     1      18.769  -3.760  34.161  1.00  0.00     0.000 C 
BRANCH   2   3
ATOM      3  C   UNL     1      18.523  -4.773  33.037  1.00  0.00     0.006 C 
BRANCH   3   4
ATOM      4  C   UNL     1      19.470  -5.971  33.158  1.00  0.00     0.053 C 
BRANCH   4   5
ATOM      5  C   UNL     1      18.766  -7.135  33.780  1.00  0.00     0.041 C 
ATOM      6  O   UNL     1      18.788  -7.297  35.028  1.00  0.00    -0.550 OA
ATOM      7  O   UNL     1      18.125  -8.070  32.975  1.00  0.00    -0.550 OA
ENDBRANCH   4   5
ENDBRANCH   3   4
ENDBRANCH   2   3
ENDBRANCH   1   2
BRANCH   1   8
ATOM      8  C   UNL     1      17.348  -4.262  36.190  1.00  0.00     0.000 C 
BRANCH   8   9
ATOM      9  C   UNL     1      16.151  -5.222  36.116  1.00  0.00     0.006 C 
BRANCH   9  10
ATOM     10  C   UNL     1      15.311  -5.009  34.850  1.00  0.00     0.053 C 
BRANCH  10  11
ATOM     11  C   UNL     1      15.225  -6.255  34.023  1.00  0.00     0.041 C 
ATOM     12  O   UNL     1      14.999  -7.366  34.573  1.00  0.00    -0.550 OA
ATOM     13  O   UNL     1      15.430  -6.196  32.651  1.00  0.00    -0.550 OA
ENDBRANCH  10  11
ENDBRANCH   9  10
ENDBRANCH   8   9
ENDBRANCH   1   8
TORSDOF 8
ENDMDL
MODEL 2
REMARK VINA RESULT:    -4.571     18.694     19.951
REMARK INTER + INTRA:          -7.654
REMARK INTER:                  -6.897
REMARK INTRA:                  -0.758
REMARK UNBOUND:                -0.946
REMARK SMILES O=C([O-])CCCCCCCC(=O)[O-]
REMARK SMILES IDX 7 1 6 2 5 3 4 4 2 5 1 6 3 7 8 8 9 9 10 10 11 11 12 12 13 13
REMARK H PARENT
REMARK Flexibility Score: inf
ROOT
ATOM      1  C   UNL     1       9.515   4.930  21.095  1.00  0.00     0.000 C 
ENDROOT
BRANCH   1   2
ATOM      2  C   UNL     1      10.867   4.271  20.803  1.00  0.00     0.000 C 
BRANCH   2   3
ATOM      3  C   UNL     1      10.965   3.841  19.334  1.00  0.00     0.006 C 
BRANCH   3   4
ATOM      4  C   UNL     1      11.867   4.791  18.542  1.00  0.00     0.053 C 
BRANCH   4   5
ATOM      5  C   UNL     1      11.062   5.904  17.948  1.00  0.00     0.041 C 
ATOM      6  O   UNL     1      11.450   7.096  18.059  1.00  0.00    -0.550 OA
ATOM      7  O   UNL     1       9.857   5.627  17.312  1.00  0.00    -0.550 OA
ENDBRANCH   4   5
ENDBRANCH   3   4
ENDBRANCH   2   3
ENDBRANCH   1   2
BRANCH   1   8
ATOM      8  C   UNL     1       9.675   6.437  21.325  1.00  0.00     0.000 C 
BRANCH   8   9
ATOM      9  C   UNL     1      11.124   6.788  21.696  1.00  0.00     0.006 C 
BRANCH   9  10
ATOM     10  C   UNL     1      11.484   8.234  21.332  1.00  0.00     0.053 C 
BRANCH  10  11
ATOM     11  C   UNL     1      12.965   8.456  21.332  1.00  0.00     0.041 C 
ATOM     12  O   UNL     1      13.593   8.529  22.421  1.00  0.00    -0.550 OA
ATOM     13  O   UNL     1      13.646   8.619  20.133  1.00  0.00    -0.550 OA
ENDBRANCH  10  11
ENDBRANCH   9  10
ENDBRANCH   8   9
ENDBRANCH   1   8
TORSDOF 8
ENDMDL
MODEL 3
REMARK VINA RESULT:    -4.539      1.462      3.399
REMARK INTER + INTRA:          -7.608
REMARK INTER:                  -6.781
REMARK INTRA:                  -0.828
REMARK UNBOUND:                -0.946
REMARK SMILES O=C([O-])CCCCCCCC(=O)[O-]
REMARK SMILES IDX 7 1 6 2 5 3 4 4 2 5 1 6 3 7 8 8 9 9 10 10 11 11 12 12 13 13
REMARK H PARENT
REMARK Flexibility Score: inf
ROOT
ATOM      1  C   UNL     1      18.770  -4.635  33.052  1.00  0.00     0.000 C 
ENDROOT
BRANCH   1   2
ATOM      2  C   UNL     1      19.101  -3.866  34.336  1.00  0.00     0.000 C 
BRANCH   2   3
ATOM      3  C   UNL     1      17.840  -3.240  34.944  1.00  0.00     0.006 C 
BRANCH   3   4
ATOM      4  C   UNL     1      16.596  -4.065  34.601  1.00  0.00     0.053 C 
BRANCH   4   5
ATOM      5  C   UNL     1      16.083  -4.770  35.817  1.00  0.00     0.041 C 
ATOM      6  O   UNL     1      16.884  -5.331  36.609  1.00  0.00    -0.550 OA
ATOM      7  O   UNL     1      14.715  -4.848  36.049  1.00  0.00    -0.550 OA
ENDBRANCH   4   5
ENDBRANCH   3   4
ENDBRANCH   2   3
ENDBRANCH   1   2
BRANCH   1   8
ATOM      8  C   UNL     1      19.436  -6.016  33.050  1.00  0.00     0.000 C 
BRANCH   8   9
ATOM      9  C   UNL     1      18.625  -7.021  33.881  1.00  0.00     0.006 C 
BRANCH   9  10
ATOM     10  C   UNL     1      17.725  -7.905  33.009  1.00  0.00     0.053 C 
BRANCH  10  11
ATOM     11  C   UNL     1      16.299  -7.449  33.037  1.00  0.00     0.041 C 
ATOM     12  O   UNL     1      15.861  -6.686  32.135  1.00  0.00    -0.550 OA
ATOM     13  O   UNL     1      15.464  -7.835  34.077  1.00  0.00    -0.550 OA
ENDBRANCH  10  11
ENDBRANCH   9  10
ENDBRANCH   8   9
ENDBRANCH   1   8
TORSDOF 8
ENDMDL
MODEL 4
REMARK VINA RESULT:    -4.515      1.594      3.045
REMARK INTER + INTRA:          -7.572
REMARK INTER:                  -6.683
REMARK INTRA:                  -0.889
REMARK UNBOUND:                -0.946
REMARK SMILES O=C([O-])CCCCCCCC(=O)[O-]
REMARK SMILES IDX 7 1 6 2 5 3 4 4 2 5 1 6 3 7 8 8 9 9 10 10 11 11 12 12 13 13
REMARK H PARENT
REMARK Flexibility Score: inf
ROOT
ATOM      1  C   UNL     1      18.740  -4.956  33.045  1.00  0.00     0.000 C 
ENDROOT
BRANCH   1   2
ATOM      2  C   UNL     1      19.217  -6.285  33.641  1.00  0.00     0.000 C 
BRANCH   2   3
ATOM      3  C   UNL     1      18.149  -7.374  33.483  1.00  0.00     0.006 C 
BRANCH   3   4
ATOM      4  C   UNL     1      16.798  -6.768  33.093  1.00  0.00     0.053 C 
BRANCH   4   5
ATOM      5  C   UNL     1      15.689  -7.729  33.384  1.00  0.00     0.041 C 
ATOM      6  O   UNL     1      15.092  -7.692  34.491  1.00  0.00    -0.550 OA
ATOM      7  O   UNL     1      15.347  -8.699  32.449  1.00  0.00    -0.550 OA
ENDBRANCH   4   5
ENDBRANCH   3   4
ENDBRANCH   2   3
ENDBRANCH   1   2
BRANCH   1   8
ATOM      8  C   UNL     1      19.052  -3.787  33.987  1.00  0.00     0.000 C 
BRANCH   8   9
ATOM      9  C   UNL     1      18.846  -4.191  35.454  1.00  0.00     0.006 C 
BRANCH   9  10
ATOM     10  C   UNL     1      17.481  -3.743  35.995  1.00  0.00     0.053 C 
BRANCH  10  11
ATOM     11  C   UNL     1      16.608  -4.910  36.339  1.00  0.00     0.041 C 
ATOM     12  O   UNL     1      17.121  -5.987  36.743  1.00  0.00    -0.550 OA
ATOM     13  O   UNL     1      15.231  -4.821  36.181  1.00  0.00    -0.550 OA
ENDBRANCH  10  11
ENDBRANCH   9  10
ENDBRANCH   8   9
ENDBRANCH   1   8
TORSDOF 8
ENDMDL
MODEL 5
REMARK VINA RESULT:    -4.510      1.240      2.193
REMARK INTER + INTRA:          -7.565
REMARK INTER:                  -6.716
REMARK INTRA:                  -0.849
REMARK UNBOUND:                -0.946
REMARK SMILES O=C([O-])CCCCCCCC(=O)[O-]
REMARK SMILES IDX 7 1 6 2 5 3 4 4 2 5 1 6 3 7 8 8 9 9 10 10 11 11 12 12 13 13
REMARK H PARENT
REMARK Flexibility Score: inf
ROOT
ATOM      1  C   UNL     1      16.742  -4.820  36.436  1.00  0.00     0.000 C 
ENDROOT
BRANCH   1   2
ATOM      2  C   UNL     1      17.427  -3.621  35.771  1.00  0.00     0.000 C 
BRANCH   2   3
ATOM      3  C   UNL     1      18.816  -4.000  35.247  1.00  0.00     0.006 C 
BRANCH   3   4
ATOM      4  C   UNL     1      18.763  -4.366  33.761  1.00  0.00     0.053 C 
BRANCH   4   5
ATOM      5  C   UNL     1      19.277  -5.754  33.543  1.00  0.00     0.041 C 
ATOM      6  O   UNL     1      19.916  -6.036  32.496  1.00  0.00    -0.550 OA
ATOM      7  O   UNL     1      19.008  -6.748  34.476  1.00  0.00    -0.550 OA
ENDBRANCH   4   5
ENDBRANCH   3   4
ENDBRANCH   2   3
ENDBRANCH   1   2
BRANCH   1   8
ATOM      8  C   UNL     1      15.268  -4.913  36.022  1.00  0.00     0.000 C 
BRANCH   8   9
ATOM      9  C   UNL     1      15.135  -5.191  34.517  1.00  0.00     0.006 C 
BRANCH   9  10
ATOM     10  C   UNL     1      15.492  -6.640  34.160  1.00  0.00     0.053 C 
BRANCH  10  11
ATOM     11  C   UNL     1      15.819  -6.791  32.706  1.00  0.00     0.041 C 
ATOM     12  O   UNL     1      15.845  -5.780  31.955  1.00  0.00    -0.550 OA
ATOM     13  O   UNL     1      16.060  -8.050  32.173  1.00  0.00    -0.550 OA
ENDBRANCH  10  11
ENDBRANCH   9  10
ENDBRANCH   8   9
ENDBRANCH   1   8
TORSDOF 8
ENDMDL
MODEL 6
REMARK VINA RESULT:    -4.499     18.618     19.812
REMARK INTER + INTRA:          -7.550
REMARK INTER:                  -6.925
REMARK INTRA:                  -0.625
REMARK UNBOUND:                -0.946
REMARK SMILES O=C([O-])CCCCCCCC(=O)[O-]
REMARK SMILES IDX 7 1 6 2 5 3 4 4 2 5 1 6 3 7 8 8 9 9 10 10 11 11 12 12 13 13
REMARK H PARENT
REMARK Flexibility Score: inf
ROOT
ATOM      1  C   UNL     1      11.717   5.125  19.479  1.00  0.00     0.000 C 
ENDROOT
BRANCH   1   2
ATOM      2  C   UNL     1      11.653   4.983  21.003  1.00  0.00     0.000 C 
BRANCH   2   3
ATOM      3  C   UNL     1      11.647   6.357  21.684  1.00  0.00     0.006 C 
BRANCH   3   4
ATOM      4  C   UNL     1      11.832   7.480  20.660  1.00  0.00     0.053 C 
BRANCH   4   5
ATOM      5  C   UNL     1      13.046   8.291  20.984  1.00  0.00     0.041 C 
ATOM      6  O   UNL     1      13.752   8.772  20.060  1.00  0.00    -0.550 OA
ATOM      7  O   UNL     1      13.425   8.475  22.309  1.00  0.00    -0.550 OA
ENDBRANCH   4   5
ENDBRANCH   3   4
ENDBRANCH   2   3
ENDBRANCH   1   2
BRANCH   1   8
ATOM      8  C   UNL     1      10.941   3.997  18.787  1.00  0.00     0.000 C 
BRANCH   8   9
ATOM      9  C   UNL     1       9.794   3.492  19.675  1.00  0.00     0.006 C 
BRANCH   9  10
ATOM     10  C   UNL     1       8.416   3.818  19.086  1.00  0.00     0.053 C 
BRANCH  10  11
ATOM     11  C   UNL     1       8.036   5.249  19.315  1.00  0.00     0.041 C 
ATOM     12  O   UNL     1       7.835   6.015  18.336  1.00  0.00    -0.550 OA
ATOM     13  O   UNL     1       7.939   5.745  20.609  1.00  0.00    -0.550 OA
ENDBRANCH  10  11
ENDBRANCH   9  10
ENDBRANCH   8   9
ENDBRANCH   1   8
TORSDOF 8
ENDMDL
MODEL 7
REMARK VINA RESULT:    -4.499      1.972      3.337
REMARK INTER + INTRA:          -7.549
REMARK INTER:                  -6.697
REMARK INTRA:                  -0.852
REMARK UNBOUND:                -0.946
REMARK SMILES O=C([O-])CCCCCCCC(=O)[O-]
REMARK SMILES IDX 7 1 6 2 5 3 4 4 2 5 1 6 3 7 8 8 9 9 10 10 11 11 12 12 13 13
REMARK H PARENT
REMARK Flexibility Score: inf
ROOT
ATOM      1  C   UNL     1      15.200  -5.301  34.537  1.00  0.00     0.000 C 
ENDROOT
BRANCH   1   2
ATOM      2  C   UNL     1      15.096  -6.824  34.406  1.00  0.00     0.000 C 
BRANCH   2   3
ATOM      3  C   UNL     1      16.130  -7.364  33.411  1.00  0.00     0.006 C 
BRANCH   3   4
ATOM      4  C   UNL     1      17.155  -6.287  33.043  1.00  0.00     0.053 C 
BRANCH   4   5
ATOM      5  C   UNL     1      18.512  -6.663  33.546  1.00  0.00     0.041 C 
ATOM      6  O   UNL     1      18.635  -7.521  34.459  1.00  0.00    -0.550 OA
ATOM      7  O   UNL     1      19.641  -6.028  33.040  1.00  0.00    -0.550 OA
ENDBRANCH   4   5
ENDBRANCH   3   4
ENDBRANCH   2   3
ENDBRANCH   1   2
BRANCH   1   8
ATOM      8  C   UNL     1      15.340  -4.882  36.005  1.00  0.00     0.000 C 
BRANCH   8   9
ATOM      9  C   UNL     1      16.818  -4.789  36.413  1.00  0.00     0.006 C 
BRANCH   9  10
ATOM     10  C   UNL     1      17.367  -3.362  36.286  1.00  0.00     0.053 C 
BRANCH  10  11
ATOM     11  C   UNL     1      18.237  -3.206  35.076  1.00  0.00     0.041 C 
ATOM     12  O   UNL     1      19.481  -3.377  35.165  1.00  0.00    -0.550 OA
ATOM     13  O   UNL     1      17.678  -2.837  33.859  1.00  0.00    -0.550 OA
ENDBRANCH  10  11
ENDBRANCH   9  10
ENDBRANCH   8   9
ENDBRANCH   1   8
TORSDOF 8
ENDMDL
MODEL 8
REMARK VINA RESULT:    -4.497      1.976      3.966
REMARK INTER + INTRA:          -7.546
REMARK INTER:                  -6.680
REMARK INTRA:                  -0.866
REMARK UNBOUND:                -0.946
REMARK SMILES O=C([O-])CCCCCCCC(=O)[O-]
REMARK SMILES IDX 7 1 6 2 5 3 4 4 2 5 1 6 3 7 8 8 9 9 10 10 11 11 12 12 13 13
REMARK H PARENT
REMARK Flexibility Score: inf
ROOT
ATOM      1  C   UNL     1      15.177  -5.279  34.543  1.00  0.00     0.000 C 
ENDROOT
BRANCH   1   2
ATOM      2  C   UNL     1      15.381  -4.880  36.009  1.00  0.00     0.000 C 
BRANCH   2   3
ATOM      3  C   UNL     1      16.873  -4.780  36.350  1.00  0.00     0.006 C 
BRANCH   3   4
ATOM      4  C   UNL     1      17.370  -3.336  36.226  1.00  0.00     0.053 C 
BRANCH   4   5
ATOM      5  C   UNL     1      18.238  -3.183  35.018  1.00  0.00     0.041 C 
ATOM      6  O   UNL     1      17.739  -2.826  33.919  1.00  0.00    -0.550 OA
ATOM      7  O   UNL     1      19.594  -3.482  35.094  1.00  0.00    -0.550 OA
ENDBRANCH   4   5
ENDBRANCH   3   4
ENDBRANCH   2   3
ENDBRANCH   1   2
BRANCH   1   8
ATOM      8  C   UNL     1      15.112  -6.803  34.390  1.00  0.00     0.000 C 
BRANCH   8   9
ATOM      9  C   UNL     1      16.096  -7.293  33.318  1.00  0.00     0.006 C 
BRANCH   9  10
ATOM     10  C   UNL     1      17.144  -6.230  32.963  1.00  0.00     0.053 C 
BRANCH  10  11
ATOM     11  C   UNL     1      18.510  -6.613  33.443  1.00  0.00     0.041 C 
ATOM     12  O   UNL     1      18.643  -7.467  34.359  1.00  0.00    -0.550 OA
ATOM     13  O   UNL     1      19.635  -6.000  32.906  1.00  0.00    -0.550 OA
ENDBRANCH  10  11
ENDBRANCH   9  10
ENDBRANCH   8   9
ENDBRANCH   1   8
TORSDOF 8
ENDMDL
MODEL 9
REMARK VINA RESULT:    -4.445     18.539     19.902
REMARK INTER + INTRA:          -7.470
REMARK INTER:                  -6.882
REMARK INTRA:                  -0.589
REMARK UNBOUND:                -0.946
REMARK SMILES O=C([O-])CCCCCCCC(=O)[O-]
REMARK SMILES IDX 7 1 6 2 5 3 4 4 2 5 1 6 3 7 8 8 9 9 10 10 11 11 12 12 13 13
REMARK H PARENT
REMARK Flexibility Score: inf
ROOT
ATOM      1  C   UNL     1      10.984   4.691  21.351  1.00  0.00     0.000 C 
ENDROOT
BRANCH   1   2
ATOM      2  C   UNL     1      10.271   3.436  20.837  1.00  0.00     0.000 C 
BRANCH   2   3
ATOM      3  C   UNL     1       9.936   3.563  19.347  1.00  0.00     0.006 C 
BRANCH   3   4
ATOM      4  C   UNL     1       8.424   3.677  19.131  1.00  0.00     0.053 C 
BRANCH   4   5
ATOM      5  C   UNL     1       7.983   5.101  19.253  1.00  0.00     0.041 C 
ATOM      6  O   UNL     1       7.622   5.559  20.368  1.00  0.00    -0.550 OA
ATOM      7  O   UNL     1       7.924   5.909  18.124  1.00  0.00    -0.550 OA
ENDBRANCH   4   5
ENDBRANCH   3   4
ENDBRANCH   2   3
ENDBRANCH   1   2
BRANCH   1   8
ATOM      8  C   UNL     1      11.755   5.388  20.224  1.00  0.00     0.000 C 
BRANCH   8   9
ATOM      9  C   UNL     1      11.325   6.857  20.088  1.00  0.00     0.006 C 
BRANCH   9  10
ATOM     10  C   UNL     1      11.579   7.658  21.372  1.00  0.00     0.053 C 
BRANCH  10  11
ATOM     11  C   UNL     1      12.957   8.244  21.400  1.00  0.00     0.041 C 
ATOM     12  O   UNL     1      13.546   8.423  22.498  1.00  0.00    -0.550 OA
ATOM     13  O   UNL     1      13.576   8.626  20.216  1.00  0.00    -0.550 OA
ENDBRANCH  10  11
ENDBRANCH   9  10
ENDBRANCH   8   9
ENDBRANCH   1   8
TORSDOF 8
ENDMDL
