MODEL 1
REMARK VINA RESULT:    -5.270      0.000      0.000
REMARK INTER + INTRA:          -7.292
REMARK INTER:                  -6.811
REMARK INTRA:                  -0.481
REMARK UNBOUND:                -0.481
REMARK SMILES C=CC(=O)CCCCC
REMARK SMILES IDX 6 1 7 2 8 3 9 4 5 5 3 6 4 7 2 8 1 9
REMARK H PARENT
REMARK Flexibility Score: inf
ROOT
ATOM      1  C   UNL     1     107.718  49.908  64.115  1.00  0.00     0.008 C 
ENDROOT
BRANCH   1   2
ATOM      2  C   UNL     1     107.699  48.607  64.933  1.00  0.00     0.000 C 
BRANCH   2   3
ATOM      3  C   UNL     1     109.105  48.033  65.164  1.00  0.00    -0.003 C 
ATOM      4  C   UNL     1     109.227  46.629  64.579  1.00  0.00     0.004 C 
ENDBRANCH   2   3
ENDBRANCH   1   2
BRANCH   1   5
ATOM      5  C   UNL     1     109.119  50.252  63.580  1.00  0.00     0.080 C 
BRANCH   5   6
ATOM      6  C   UNL     1     109.204  50.197  62.072  1.00  0.00     0.155 C 
ATOM      7  O   UNL     1     110.178  50.729  61.474  1.00  0.00    -0.295 OA
BRANCH   6   8
ATOM      8  C   UNL     1     108.158  49.547  61.255  1.00  0.00     0.039 C 
ATOM      9  C   UNL     1     108.283  48.327  60.733  1.00  0.00     0.012 C 
ENDBRANCH   6   8
ENDBRANCH   5   6
ENDBRANCH   1   5
TORSDOF 5
ENDMDL
MODEL 2
REMARK VINA RESULT:    -5.183      2.174      4.349
REMARK INTER + INTRA:          -7.179
REMARK INTER:                  -6.705
REMARK INTRA:                  -0.474
REMARK UNBOUND:                -0.481
REMARK SMILES C=CC(=O)CCCCC
REMARK SMILES IDX 6 1 7 2 8 3 9 4 5 5 3 6 4 7 2 8 1 9
REMARK H PARENT
REMARK Flexibility Score: inf
ROOT
ATOM      1  C   UNL     1     109.073  47.510  61.186  1.00  0.00     0.008 C 
ENDROOT
BRANCH   1   2
ATOM      2  C   UNL     1     108.061  48.650  60.982  1.00  0.00     0.000 C 
BRANCH   2   3
ATOM      3  C   UNL     1     108.631  50.022  61.368  1.00  0.00    -0.003 C 
ATOM      4  C   UNL     1     107.603  51.127  61.141  1.00  0.00     0.004 C 
ENDBRANCH   2   3
ENDBRANCH   1   2
BRANCH   1   5
ATOM      5  C   UNL     1     109.967  47.724  62.419  1.00  0.00     0.080 C 
BRANCH   5   6
ATOM      6  C   UNL     1     109.450  47.017  63.651  1.00  0.00     0.155 C 
ATOM      7  O   UNL     1     109.396  45.757  63.681  1.00  0.00    -0.295 OA
BRANCH   6   8
ATOM      8  C   UNL     1     108.979  47.761  64.837  1.00  0.00     0.039 C 
ATOM      9  C   UNL     1     107.917  48.566  64.830  1.00  0.00     0.012 C 
ENDBRANCH   6   8
ENDBRANCH   5   6
ENDBRANCH   1   5
TORSDOF 5
ENDMDL
MODEL 3
REMARK VINA RESULT:    -5.174      2.331      3.648
REMARK INTER + INTRA:          -7.168
REMARK INTER:                  -6.640
REMARK INTRA:                  -0.527
REMARK UNBOUND:                -0.481
REMARK SMILES C=CC(=O)CCCCC
REMARK SMILES IDX 6 1 7 2 8 3 9 4 5 5 3 6 4 7 2 8 1 9
REMARK H PARENT
REMARK Flexibility Score: inf
ROOT
ATOM      1  C   UNL     1     107.661  48.781  64.864  1.00  0.00     0.008 C 
ENDROOT
BRANCH   1   2
ATOM      2  C   UNL     1     107.701  50.113  64.096  1.00  0.00     0.000 C 
BRANCH   2   3
ATOM      3  C   UNL     1     106.934  50.053  62.768  1.00  0.00    -0.003 C 
ATOM      4  C   UNL     1     107.625  50.894  61.697  1.00  0.00     0.004 C 
ENDBRANCH   2   3
ENDBRANCH   1   2
BRANCH   1   5
ATOM      5  C   UNL     1     109.051  48.141  65.015  1.00  0.00     0.080 C 
BRANCH   5   6
ATOM      6  C   UNL     1     109.269  46.977  64.076  1.00  0.00     0.155 C 
ATOM      7  O   UNL     1     109.151  45.794  64.497  1.00  0.00    -0.295 OA
BRANCH   6   8
ATOM      8  C   UNL     1     109.641  47.176  62.659  1.00  0.00     0.039 C 
ATOM      9  C   UNL     1     110.273  48.259  62.208  1.00  0.00     0.012 C 
ENDBRANCH   6   8
ENDBRANCH   5   6
ENDBRANCH   1   5
TORSDOF 5
ENDMDL
MODEL 4
REMARK VINA RESULT:    -5.138      1.724      2.624
REMARK INTER + INTRA:          -7.122
REMARK INTER:                  -6.748
REMARK INTRA:                  -0.374
REMARK UNBOUND:                -0.481
REMARK SMILES C=CC(=O)CCCCC
REMARK SMILES IDX 6 1 7 2 8 3 9 4 5 5 3 6 4 7 2 8 1 9
REMARK H PARENT
REMARK Flexibility Score: inf
ROOT
ATOM      1  C   UNL     1     109.565  46.413  63.234  1.00  0.00     0.008 C 
ENDROOT
BRANCH   1   2
ATOM      2  C   UNL     1     109.192  46.705  64.698  1.00  0.00     0.000 C 
BRANCH   2   3
ATOM      3  C   UNL     1     109.127  48.208  65.002  1.00  0.00    -0.003 C 
ATOM      4  C   UNL     1     107.681  48.691  65.071  1.00  0.00     0.004 C 
ENDBRANCH   2   3
ENDBRANCH   1   2
BRANCH   1   5
ATOM      5  C   UNL     1     109.924  47.685  62.449  1.00  0.00     0.080 C 
BRANCH   5   6
ATOM      6  C   UNL     1     108.960  47.973  61.321  1.00  0.00     0.155 C 
ATOM      7  O   UNL     1     109.042  47.331  60.239  1.00  0.00    -0.295 OA
BRANCH   6   8
ATOM      8  C   UNL     1     107.915  49.012  61.434  1.00  0.00     0.039 C 
ATOM      9  C   UNL     1     108.080  50.270  61.026  1.00  0.00     0.012 C 
ENDBRANCH   6   8
ENDBRANCH   5   6
ENDBRANCH   1   5
TORSDOF 5
ENDMDL
MODEL 5
REMARK VINA RESULT:    -4.986      1.979      3.850
REMARK INTER + INTRA:          -6.924
REMARK INTER:                  -6.456
REMARK INTRA:                  -0.468
REMARK UNBOUND:                -0.481
REMARK SMILES C=CC(=O)CCCCC
REMARK SMILES IDX 6 1 7 2 8 3 9 4 5 5 3 6 4 7 2 8 1 9
REMARK H PARENT
REMARK Flexibility Score: inf
ROOT
ATOM      1  C   UNL     1     108.504  49.919  64.074  1.00  0.00     0.008 C 
ENDROOT
BRANCH   1   2
ATOM      2  C   UNL     1     109.175  49.924  62.690  1.00  0.00     0.000 C 
BRANCH   2   3
ATOM      3  C   UNL     1     108.159  49.977  61.540  1.00  0.00    -0.003 C 
ATOM      4  C   UNL     1     108.152  48.670  60.753  1.00  0.00     0.004 C 
ENDBRANCH   2   3
ENDBRANCH   1   2
BRANCH   1   5
ATOM      5  C   UNL     1     107.945  48.538  64.456  1.00  0.00     0.080 C 
BRANCH   5   6
ATOM      6  C   UNL     1     108.969  47.655  65.132  1.00  0.00     0.155 C 
ATOM      7  O   UNL     1     109.439  47.977  66.256  1.00  0.00    -0.295 OA
BRANCH   6   8
ATOM      8  C   UNL     1     109.464  46.412  64.503  1.00  0.00     0.039 C 
ATOM      9  C   UNL     1     109.611  46.259  63.187  1.00  0.00     0.012 C 
ENDBRANCH   6   8
ENDBRANCH   5   6
ENDBRANCH   1   5
TORSDOF 5
ENDMDL
MODEL 6
REMARK VINA RESULT:    -4.982      1.246      3.381
REMARK INTER + INTRA:          -6.919
REMARK INTER:                  -6.457
REMARK INTRA:                  -0.462
REMARK UNBOUND:                -0.481
REMARK SMILES C=CC(=O)CCCCC
REMARK SMILES IDX 6 1 7 2 8 3 9 4 5 5 3 6 4 7 2 8 1 9
REMARK H PARENT
REMARK Flexibility Score: inf
ROOT
ATOM      1  C   UNL     1     106.998  50.014  62.258  1.00  0.00     0.008 C 
ENDROOT
BRANCH   1   2
ATOM      2  C   UNL     1     108.097  49.737  61.217  1.00  0.00     0.000 C 
BRANCH   2   3
ATOM      3  C   UNL     1     107.964  48.351  60.572  1.00  0.00    -0.003 C 
ATOM      4  C   UNL     1     109.120  47.442  60.982  1.00  0.00     0.004 C 
ENDBRANCH   2   3
ENDBRANCH   1   2
BRANCH   1   5
ATOM      5  C   UNL     1     107.568  50.407  63.631  1.00  0.00     0.080 C 
BRANCH   5   6
ATOM      6  C   UNL     1     108.626  49.448  64.126  1.00  0.00     0.155 C 
ATOM      7  O   UNL     1     109.848  49.716  63.965  1.00  0.00    -0.295 OA
BRANCH   6   8
ATOM      8  C   UNL     1     108.276  48.174  64.789  1.00  0.00     0.039 C 
ATOM      9  C   UNL     1     109.046  47.087  64.751  1.00  0.00     0.012 C 
ENDBRANCH   6   8
ENDBRANCH   5   6
ENDBRANCH   1   5
TORSDOF 5
ENDMDL
MODEL 7
REMARK VINA RESULT:    -4.879      1.541      3.346
REMARK INTER + INTRA:          -6.786
REMARK INTER:                  -6.209
REMARK INTRA:                  -0.578
REMARK UNBOUND:                -0.481
REMARK SMILES C=CC(=O)CCCCC
REMARK SMILES IDX 6 1 7 2 8 3 9 4 5 5 3 6 4 7 2 8 1 9
REMARK H PARENT
REMARK Flexibility Score: inf
ROOT
ATOM      1  C   UNL     1     110.240  49.613  61.991  1.00  0.00     0.008 C 
ENDROOT
BRANCH   1   2
ATOM      2  C   UNL     1     110.174  48.080  62.087  1.00  0.00     0.000 C 
BRANCH   2   3
ATOM      3  C   UNL     1     109.090  47.478  61.181  1.00  0.00    -0.003 C 
ATOM      4  C   UNL     1     108.133  48.556  60.681  1.00  0.00     0.004 C 
ENDBRANCH   2   3
ENDBRANCH   1   2
BRANCH   1   5
ATOM      5  C   UNL     1     110.159  50.298  63.365  1.00  0.00     0.080 C 
BRANCH   5   6
ATOM      6  C   UNL     1     108.789  50.865  63.661  1.00  0.00     0.155 C 
ATOM      7  O   UNL     1     108.567  52.096  63.502  1.00  0.00    -0.295 OA
BRANCH   6   8
ATOM      8  C   UNL     1     107.684  50.018  64.155  1.00  0.00     0.039 C 
ATOM      9  C   UNL     1     107.869  48.887  64.835  1.00  0.00     0.012 C 
ENDBRANCH   6   8
ENDBRANCH   5   6
ENDBRANCH   1   5
TORSDOF 5
ENDMDL
MODEL 8
REMARK VINA RESULT:    -4.829      1.901      2.842
REMARK INTER + INTRA:          -6.722
REMARK INTER:                  -6.479
REMARK INTRA:                  -0.243
REMARK UNBOUND:                -0.481
REMARK SMILES C=CC(=O)CCCCC
REMARK SMILES IDX 6 1 7 2 8 3 9 4 5 5 3 6 4 7 2 8 1 9
REMARK H PARENT
REMARK Flexibility Score: inf
ROOT
ATOM      1  C   UNL     1     109.180  48.139  65.148  1.00  0.00     0.008 C 
ENDROOT
BRANCH   1   2
ATOM      2  C   UNL     1     109.313  46.607  65.119  1.00  0.00     0.000 C 
BRANCH   2   3
ATOM      3  C   UNL     1     109.371  46.046  63.692  1.00  0.00    -0.003 C 
ATOM      4  C   UNL     1     109.953  47.071  62.722  1.00  0.00     0.004 C 
ENDBRANCH   2   3
ENDBRANCH   1   2
BRANCH   1   5
ATOM      5  C   UNL     1     107.740  48.615  64.893  1.00  0.00     0.080 C 
BRANCH   5   6
ATOM      6  C   UNL     1     107.636  49.588  63.741  1.00  0.00     0.155 C 
ATOM      7  O   UNL     1     106.981  49.278  62.709  1.00  0.00    -0.295 OA
BRANCH   6   8
ATOM      8  C   UNL     1     108.301  50.907  63.771  1.00  0.00     0.039 C 
ATOM      9  C   UNL     1     109.466  51.159  63.175  1.00  0.00     0.012 C 
ENDBRANCH   6   8
ENDBRANCH   5   6
ENDBRANCH   1   5
TORSDOF 5
ENDMDL
MODEL 9
REMARK VINA RESULT:    -4.709      1.478      1.939
REMARK INTER + INTRA:          -6.566
REMARK INTER:                  -6.341
REMARK INTRA:                  -0.226
REMARK UNBOUND:                -0.481
REMARK SMILES C=CC(=O)CCCCC
REMARK SMILES IDX 6 1 7 2 8 3 9 4 5 5 3 6 4 7 2 8 1 9
REMARK H PARENT
REMARK Flexibility Score: inf
ROOT
ATOM      1  C   UNL     1     109.488  49.522  63.668  1.00  0.00     0.008 C 
ENDROOT
BRANCH   1   2
ATOM      2  C   UNL     1     108.499  48.615  64.419  1.00  0.00     0.000 C 
BRANCH   2   3
ATOM      3  C   UNL     1     109.202  47.616  65.348  1.00  0.00    -0.003 C 
ATOM      4  C   UNL     1     109.529  46.319  64.612  1.00  0.00     0.004 C 
ENDBRANCH   2   3
ENDBRANCH   1   2
BRANCH   1   5
ATOM      5  C   UNL     1     109.673  49.110  62.198  1.00  0.00     0.080 C 
BRANCH   5   6
ATOM      6  C   UNL     1     108.446  49.373  61.354  1.00  0.00     0.155 C 
ATOM      7  O   UNL     1     108.136  48.579  60.426  1.00  0.00    -0.295 OA
BRANCH   6   8
ATOM      8  C   UNL     1     107.591  50.559  61.569  1.00  0.00     0.039 C 
ATOM      9  C   UNL     1     107.958  51.800  61.249  1.00  0.00     0.012 C 
ENDBRANCH   6   8
ENDBRANCH   5   6
ENDBRANCH   1   5
TORSDOF 5
ENDMDL
