MODEL 1
REMARK VINA RESULT:    -6.380      0.000      0.000
REMARK INTER + INTRA:         -12.813
REMARK INTER:                 -11.975
REMARK INTRA:                  -0.838
REMARK UNBOUND:                -0.838
REMARK SMILES O=C([O-])CCCCCCCCCCCCCCC(=O)[O-]
REMARK SMILES IDX 10 1 9 2 8 3 7 4 6 5 5 6 4 7 2 8 1 9 3 10 11 11 12 12 13 13
REMARK SMILES IDX 14 14 15 15 16 16 17 17 18 18 19 19 20 20
REMARK H PARENT
REMARK Flexibility Score: inf
ROOT
ATOM      1  C   UNL     1      32.289  -8.179  21.635  1.00  0.00     0.000 C 
ENDROOT
BRANCH   1   2
ATOM      2  C   UNL     1      33.641  -8.046  20.914  1.00  0.00     0.000 C 
BRANCH   2   3
ATOM      3  C   UNL     1      33.951  -9.253  20.014  1.00  0.00     0.000 C 
BRANCH   3   4
ATOM      4  C   UNL     1      35.172 -10.057  20.497  1.00  0.00     0.000 C 
BRANCH   4   5
ATOM      5  C   UNL     1      35.996  -9.303  21.553  1.00  0.00     0.000 C 
BRANCH   5   6
ATOM      6  C   UNL     1      37.435  -9.835  21.670  1.00  0.00     0.006 C 
BRANCH   6   7
ATOM      7  C   UNL     1      37.623 -11.164  20.928  1.00  0.00     0.053 C 
BRANCH   7   8
ATOM      8  C   UNL     1      38.590 -12.064  21.636  1.00  0.00     0.041 C 
ATOM      9  O   UNL     1      38.936 -13.157  21.117  1.00  0.00    -0.550 OA
ATOM     10  O   UNL     1      39.087 -11.706  22.883  1.00  0.00    -0.550 OA
ENDBRANCH   7   8
ENDBRANCH   6   7
ENDBRANCH   5   6
ENDBRANCH   4   5
ENDBRANCH   3   4
ENDBRANCH   2   3
ENDBRANCH   1   2
BRANCH   1  11
ATOM     11  C   UNL     1      31.317  -9.125  20.909  1.00  0.00     0.000 C 
BRANCH  11  12
ATOM     12  C   UNL     1      29.830  -8.834  21.207  1.00  0.00     0.000 C 
BRANCH  12  13
ATOM     13  C   UNL     1      29.256  -9.788  22.269  1.00  0.00     0.000 C 
BRANCH  13  14
ATOM     14  C   UNL     1      28.083 -10.629  21.742  1.00  0.00     0.000 C 
BRANCH  14  15
ATOM     15  C   UNL     1      27.168  -9.862  20.763  1.00  0.00     0.000 C 
BRANCH  15  16
ATOM     16  C   UNL     1      26.534 -10.791  19.713  1.00  0.00     0.006 C 
BRANCH  16  17
ATOM     17  C   UNL     1      27.197 -12.174  19.682  1.00  0.00     0.053 C 
BRANCH  17  18
ATOM     18  C   UNL     1      26.645 -13.031  18.584  1.00  0.00     0.041 C 
ATOM     19  O   UNL     1      26.144 -12.501  17.558  1.00  0.00    -0.550 OA
ATOM     20  O   UNL     1      26.653 -14.415  18.711  1.00  0.00    -0.550 OA
ENDBRANCH  17  18
ENDBRANCH  16  17
ENDBRANCH  15  16
ENDBRANCH  14  15
ENDBRANCH  13  14
ENDBRANCH  12  13
ENDBRANCH  11  12
ENDBRANCH   1  11
TORSDOF 15
ENDMDL
MODEL 2
REMARK VINA RESULT:    -6.282      1.084      9.580
REMARK INTER + INTRA:         -12.629
REMARK INTER:                 -11.776
REMARK INTRA:                  -0.852
REMARK UNBOUND:                -0.838
REMARK SMILES O=C([O-])CCCCCCCCCCCCCCC(=O)[O-]
REMARK SMILES IDX 10 1 9 2 8 3 7 4 6 5 5 6 4 7 2 8 1 9 3 10 11 11 12 12 13 13
REMARK SMILES IDX 14 14 15 15 16 16 17 17 18 18 19 19 20 20
REMARK H PARENT
REMARK Flexibility Score: inf
ROOT
ATOM      1  C   UNL     1      31.628  -8.667  21.870  1.00  0.00     0.000 C 
ENDROOT
BRANCH   1   2
ATOM      2  C   UNL     1      30.118  -8.829  22.116  1.00  0.00     0.000 C 
BRANCH   2   3
ATOM      3  C   UNL     1      29.267  -8.129  21.045  1.00  0.00     0.000 C 
BRANCH   3   4
ATOM      4  C   UNL     1      28.077  -8.986  20.579  1.00  0.00     0.000 C 
BRANCH   4   5
ATOM      5  C   UNL     1      28.210 -10.460  20.995  1.00  0.00     0.000 C 
BRANCH   5   6
ATOM      6  C   UNL     1      27.137 -11.355  20.351  1.00  0.00     0.006 C 
BRANCH   6   7
ATOM      7  C   UNL     1      27.717 -12.680  19.843  1.00  0.00     0.053 C 
BRANCH   7   8
ATOM      8  C   UNL     1      26.984 -13.181  18.634  1.00  0.00     0.041 C 
ATOM      9  O   UNL     1      27.039 -14.397  18.318  1.00  0.00    -0.550 OA
ATOM     10  O   UNL     1      26.265 -12.295  17.842  1.00  0.00    -0.550 OA
ENDBRANCH   7   8
ENDBRANCH   6   7
ENDBRANCH   5   6
ENDBRANCH   4   5
ENDBRANCH   3   4
ENDBRANCH   2   3
ENDBRANCH   1   2
BRANCH   1  11
ATOM     11  C   UNL     1      32.078  -9.252  20.520  1.00  0.00     0.000 C 
BRANCH  11  12
ATOM     12  C   UNL     1      33.551  -8.944  20.172  1.00  0.00     0.000 C 
BRANCH  12  13
ATOM     13  C   UNL     1      34.225  -8.062  21.237  1.00  0.00     0.000 C 
BRANCH  13  14
ATOM     14  C   UNL     1      35.504  -8.692  21.810  1.00  0.00     0.000 C 
BRANCH  14  15
ATOM     15  C   UNL     1      35.964  -9.951  21.044  1.00  0.00     0.000 C 
BRANCH  15  16
ATOM     16  C   UNL     1      37.088 -10.701  21.783  1.00  0.00     0.006 C 
BRANCH  16  17
ATOM     17  C   UNL     1      37.925 -11.573  20.838  1.00  0.00     0.053 C 
BRANCH  17  18
ATOM     18  C   UNL     1      39.352 -11.119  20.781  1.00  0.00     0.041 C 
ATOM     19  O   UNL     1      39.895 -10.610  21.796  1.00  0.00    -0.550 OA
ATOM     20  O   UNL     1      40.070 -11.227  19.597  1.00  0.00    -0.550 OA
ENDBRANCH  17  18
ENDBRANCH  16  17
ENDBRANCH  15  16
ENDBRANCH  14  15
ENDBRANCH  13  14
ENDBRANCH  12  13
ENDBRANCH  11  12
ENDBRANCH   1  11
TORSDOF 15
ENDMDL
MODEL 3
REMARK VINA RESULT:    -6.177      4.178      5.138
REMARK INTER + INTRA:         -12.431
REMARK INTER:                 -11.083
REMARK INTRA:                  -1.347
REMARK UNBOUND:                -0.838
REMARK SMILES O=C([O-])CCCCCCCCCCCCCCC(=O)[O-]
REMARK SMILES IDX 10 1 9 2 8 3 7 4 6 5 5 6 4 7 2 8 1 9 3 10 11 11 12 12 13 13
REMARK SMILES IDX 14 14 15 15 16 16 17 17 18 18 19 19 20 20
REMARK H PARENT
REMARK Flexibility Score: inf
ROOT
ATOM      1  C   UNL     1      29.396  -8.848  21.828  1.00  0.00     0.000 C 
ENDROOT
BRANCH   1   2
ATOM      2  C   UNL     1      30.449  -9.450  20.883  1.00  0.00     0.000 C 
BRANCH   2   3
ATOM      3  C   UNL     1      31.861  -8.907  21.152  1.00  0.00     0.000 C 
BRANCH   3   4
ATOM      4  C   UNL     1      32.846  -9.224  20.011  1.00  0.00     0.000 C 
BRANCH   4   5
ATOM      5  C   UNL     1      34.282  -9.441  20.514  1.00  0.00     0.000 C 
BRANCH   5   6
ATOM      6  C   UNL     1      34.474  -8.983  21.970  1.00  0.00     0.006 C 
BRANCH   6   7
ATOM      7  C   UNL     1      35.536  -7.884  22.097  1.00  0.00     0.053 C 
BRANCH   7   8
ATOM      8  C   UNL     1      34.918  -6.533  22.296  1.00  0.00     0.041 C 
ATOM      9  O   UNL     1      34.092  -6.084  21.459  1.00  0.00    -0.550 OA
ATOM     10  O   UNL     1      35.276  -5.760  23.392  1.00  0.00    -0.550 OA
ENDBRANCH   7   8
ENDBRANCH   6   7
ENDBRANCH   5   6
ENDBRANCH   4   5
ENDBRANCH   3   4
ENDBRANCH   2   3
ENDBRANCH   1   2
BRANCH   1  11
ATOM     11  C   UNL     1      28.233  -9.813  22.118  1.00  0.00     0.000 C 
BRANCH  11  12
ATOM     12  C   UNL     1      28.283 -11.112  21.283  1.00  0.00     0.000 C 
BRANCH  12  13
ATOM     13  C   UNL     1      27.292 -11.081  20.107  1.00  0.00     0.000 C 
BRANCH  13  14
ATOM     14  C   UNL     1      26.228  -9.981  20.252  1.00  0.00     0.000 C 
BRANCH  14  15
ATOM     15  C   UNL     1      26.203  -8.992  19.067  1.00  0.00     0.000 C 
BRANCH  15  16
ATOM     16  C   UNL     1      26.483  -7.545  19.513  1.00  0.00     0.006 C 
BRANCH  16  17
ATOM     17  C   UNL     1      27.581  -6.879  18.674  1.00  0.00     0.053 C 
BRANCH  17  18
ATOM     18  C   UNL     1      27.384  -5.397  18.576  1.00  0.00     0.041 C 
ATOM     19  O   UNL     1      28.063  -4.720  17.761  1.00  0.00    -0.550 OA
ATOM     20  O   UNL     1      26.474  -4.760  19.411  1.00  0.00    -0.550 OA
ENDBRANCH  17  18
ENDBRANCH  16  17
ENDBRANCH  15  16
ENDBRANCH  14  15
ENDBRANCH  13  14
ENDBRANCH  12  13
ENDBRANCH  11  12
ENDBRANCH   1  11
TORSDOF 15
ENDMDL
MODEL 4
REMARK VINA RESULT:    -6.171      2.362     10.281
REMARK INTER + INTRA:         -12.421
REMARK INTER:                 -11.668
REMARK INTRA:                  -0.753
REMARK UNBOUND:                -0.838
REMARK SMILES O=C([O-])CCCCCCCCCCCCCCC(=O)[O-]
REMARK SMILES IDX 10 1 9 2 8 3 7 4 6 5 5 6 4 7 2 8 1 9 3 10 11 11 12 12 13 13
REMARK SMILES IDX 14 14 15 15 16 16 17 17 18 18 19 19 20 20
REMARK H PARENT
REMARK Flexibility Score: inf
ROOT
ATOM      1  C   UNL     1      31.043  -8.830  22.063  1.00  0.00     0.000 C 
ENDROOT
BRANCH   1   2
ATOM      2  C   UNL     1      30.041  -9.457  21.079  1.00  0.00     0.000 C 
BRANCH   2   3
ATOM      3  C   UNL     1      28.873 -10.156  21.792  1.00  0.00     0.000 C 
BRANCH   3   4
ATOM      4  C   UNL     1      28.134 -11.155  20.883  1.00  0.00     0.000 C 
BRANCH   4   5
ATOM      5  C   UNL     1      26.657 -10.782  20.673  1.00  0.00     0.000 C 
BRANCH   5   6
ATOM      6  C   UNL     1      26.439  -9.917  19.420  1.00  0.00     0.006 C 
BRANCH   6   7
ATOM      7  C   UNL     1      26.513  -8.417  19.732  1.00  0.00     0.053 C 
BRANCH   7   8
ATOM      8  C   UNL     1      25.173  -7.756  19.602  1.00  0.00     0.041 C 
ATOM      9  O   UNL     1      24.220  -8.103  20.346  1.00  0.00    -0.550 OA
ATOM     10  O   UNL     1      24.973  -6.776  18.637  1.00  0.00    -0.550 OA
ENDBRANCH   7   8
ENDBRANCH   6   7
ENDBRANCH   5   6
ENDBRANCH   4   5
ENDBRANCH   3   4
ENDBRANCH   2   3
ENDBRANCH   1   2
BRANCH   1  11
ATOM     11  C   UNL     1      32.149  -8.027  21.357  1.00  0.00     0.000 C 
BRANCH  11  12
ATOM     12  C   UNL     1      33.541  -8.693  21.430  1.00  0.00     0.000 C 
BRANCH  12  13
ATOM     13  C   UNL     1      33.859  -9.507  20.163  1.00  0.00     0.000 C 
BRANCH  13  14
ATOM     14  C   UNL     1      35.228 -10.203  20.231  1.00  0.00     0.000 C 
BRANCH  14  15
ATOM     15  C   UNL     1      36.128  -9.678  21.370  1.00  0.00     0.000 C 
BRANCH  15  16
ATOM     16  C   UNL     1      37.106 -10.752  21.880  1.00  0.00     0.006 C 
BRANCH  16  17
ATOM     17  C   UNL     1      37.906 -11.398  20.741  1.00  0.00     0.053 C 
BRANCH  17  18
ATOM     18  C   UNL     1      39.350 -11.000  20.781  1.00  0.00     0.041 C 
ATOM     19  O   UNL     1      39.746 -10.136  21.607  1.00  0.00    -0.550 OA
ATOM     20  O   UNL     1      40.251 -11.558  19.882  1.00  0.00    -0.550 OA
ENDBRANCH  17  18
ENDBRANCH  16  17
ENDBRANCH  15  16
ENDBRANCH  14  15
ENDBRANCH  13  14
ENDBRANCH  12  13
ENDBRANCH  11  12
ENDBRANCH   1  11
TORSDOF 15
ENDMDL
MODEL 5
REMARK VINA RESULT:    -6.147      1.419      1.985
REMARK INTER + INTRA:         -12.375
REMARK INTER:                 -11.679
REMARK INTRA:                  -0.696
REMARK UNBOUND:                -0.838
REMARK SMILES O=C([O-])CCCCCCCCCCCCCCC(=O)[O-]
REMARK SMILES IDX 10 1 9 2 8 3 7 4 6 5 5 6 4 7 2 8 1 9 3 10 11 11 12 12 13 13
REMARK SMILES IDX 14 14 15 15 16 16 17 17 18 18 19 19 20 20
REMARK H PARENT
REMARK Flexibility Score: inf
ROOT
ATOM      1  C   UNL     1      33.505  -8.943  20.275  1.00  0.00     0.000 C 
ENDROOT
BRANCH   1   2
ATOM      2  C   UNL     1      34.128  -8.736  21.666  1.00  0.00     0.000 C 
BRANCH   2   3
ATOM      3  C   UNL     1      35.349  -9.637  21.905  1.00  0.00     0.000 C 
BRANCH   3   4
ATOM      4  C   UNL     1      35.971 -10.155  20.595  1.00  0.00     0.000 C 
BRANCH   4   5
ATOM      5  C   UNL     1      37.098 -11.171  20.836  1.00  0.00     0.000 C 
BRANCH   5   6
ATOM      6  C   UNL     1      37.679 -11.082  22.258  1.00  0.00     0.006 C 
BRANCH   6   7
ATOM      7  C   UNL     1      38.933 -10.201  22.317  1.00  0.00     0.053 C 
BRANCH   7   8
ATOM      8  C   UNL     1      39.495 -10.125  23.705  1.00  0.00     0.041 C 
ATOM      9  O   UNL     1      40.725 -10.300  23.901  1.00  0.00    -0.550 OA
ATOM     10  O   UNL     1      38.652  -9.890  24.783  1.00  0.00    -0.550 OA
ENDBRANCH   7   8
ENDBRANCH   6   7
ENDBRANCH   5   6
ENDBRANCH   4   5
ENDBRANCH   3   4
ENDBRANCH   2   3
ENDBRANCH   1   2
BRANCH   1  11
ATOM     11  C   UNL     1      31.995  -9.230  20.335  1.00  0.00     0.000 C 
BRANCH  11  12
ATOM     12  C   UNL     1      31.290  -8.593  21.552  1.00  0.00     0.000 C 
BRANCH  12  13
ATOM     13  C   UNL     1      30.161  -9.484  22.099  1.00  0.00     0.000 C 
BRANCH  13  14
ATOM     14  C   UNL     1      29.015  -9.676  21.094  1.00  0.00     0.000 C 
BRANCH  14  15
ATOM     15  C   UNL     1      27.921 -10.646  21.589  1.00  0.00     0.000 C 
BRANCH  15  16
ATOM     16  C   UNL     1      27.126 -11.266  20.425  1.00  0.00     0.006 C 
BRANCH  16  17
ATOM     17  C   UNL     1      27.714 -12.608  19.968  1.00  0.00     0.053 C 
BRANCH  17  18
ATOM     18  C   UNL     1      26.934 -13.198  18.833  1.00  0.00     0.041 C 
ATOM     19  O   UNL     1      26.910 -14.445  18.662  1.00  0.00    -0.550 OA
ATOM     20  O   UNL     1      26.262 -12.368  17.944  1.00  0.00    -0.550 OA
ENDBRANCH  17  18
ENDBRANCH  16  17
ENDBRANCH  15  16
ENDBRANCH  14  15
ENDBRANCH  13  14
ENDBRANCH  12  13
ENDBRANCH  11  12
ENDBRANCH   1  11
TORSDOF 15
ENDMDL
MODEL 6
REMARK VINA RESULT:    -6.145      3.204      9.665
REMARK INTER + INTRA:         -12.370
REMARK INTER:                 -10.882
REMARK INTRA:                  -1.488
REMARK UNBOUND:                -0.838
REMARK SMILES O=C([O-])CCCCCCCCCCCCCCC(=O)[O-]
REMARK SMILES IDX 10 1 9 2 8 3 7 4 6 5 5 6 4 7 2 8 1 9 3 10 11 11 12 12 13 13
REMARK SMILES IDX 14 14 15 15 16 16 17 17 18 18 19 19 20 20
REMARK H PARENT
REMARK Flexibility Score: inf
ROOT
ATOM      1  C   UNL     1      28.213 -10.395  22.076  1.00  0.00     0.000 C 
ENDROOT
BRANCH   1   2
ATOM      2  C   UNL     1      28.047 -11.020  20.681  1.00  0.00     0.000 C 
BRANCH   2   3
ATOM      3  C   UNL     1      26.641 -10.803  20.101  1.00  0.00     0.000 C 
BRANCH   3   4
ATOM      4  C   UNL     1      26.175  -9.339  20.205  1.00  0.00     0.000 C 
BRANCH   4   5
ATOM      5  C   UNL     1      26.315  -8.578  18.877  1.00  0.00     0.000 C 
BRANCH   5   6
ATOM      6  C   UNL     1      27.433  -7.523  18.917  1.00  0.00     0.006 C 
BRANCH   6   7
ATOM      7  C   UNL     1      27.533  -6.835  20.284  1.00  0.00     0.053 C 
BRANCH   7   8
ATOM      8  C   UNL     1      26.514  -5.745  20.434  1.00  0.00     0.041 C 
ATOM      9  O   UNL     1      25.548  -5.886  21.227  1.00  0.00    -0.550 OA
ATOM     10  O   UNL     1      26.620  -4.587  19.674  1.00  0.00    -0.550 OA
ENDBRANCH   7   8
ENDBRANCH   6   7
ENDBRANCH   5   6
ENDBRANCH   4   5
ENDBRANCH   3   4
ENDBRANCH   2   3
ENDBRANCH   1   2
BRANCH   1  11
ATOM     11  C   UNL     1      29.452  -9.490  22.181  1.00  0.00     0.000 C 
BRANCH  11  12
ATOM     12  C   UNL     1      30.237  -9.359  20.857  1.00  0.00     0.000 C 
BRANCH  12  13
ATOM     13  C   UNL     1      31.704  -8.960  21.092  1.00  0.00     0.000 C 
BRANCH  13  14
ATOM     14  C   UNL     1      32.617  -9.322  19.909  1.00  0.00     0.000 C 
BRANCH  14  15
ATOM     15  C   UNL     1      34.112  -9.393  20.286  1.00  0.00     0.000 C 
BRANCH  15  16
ATOM     16  C   UNL     1      34.346  -9.118  21.783  1.00  0.00     0.006 C 
BRANCH  16  17
ATOM     17  C   UNL     1      35.552  -8.199  22.024  1.00  0.00     0.053 C 
BRANCH  17  18
ATOM     18  C   UNL     1      36.749  -8.967  22.494  1.00  0.00     0.041 C 
ATOM     19  O   UNL     1      37.522  -9.509  21.661  1.00  0.00    -0.550 OA
ATOM     20  O   UNL     1      36.993  -9.112  23.854  1.00  0.00    -0.550 OA
ENDBRANCH  17  18
ENDBRANCH  16  17
ENDBRANCH  15  16
ENDBRANCH  14  15
ENDBRANCH  13  14
ENDBRANCH  12  13
ENDBRANCH  11  12
ENDBRANCH   1  11
TORSDOF 15
ENDMDL
MODEL 7
REMARK VINA RESULT:    -6.142      2.606      3.013
REMARK INTER + INTRA:         -12.366
REMARK INTER:                 -11.400
REMARK INTRA:                  -0.966
REMARK UNBOUND:                -0.838
REMARK SMILES O=C([O-])CCCCCCCCCCCCCCC(=O)[O-]
REMARK SMILES IDX 10 1 9 2 8 3 7 4 6 5 5 6 4 7 2 8 1 9 3 10 11 11 12 12 13 13
REMARK SMILES IDX 14 14 15 15 16 16 17 17 18 18 19 19 20 20
REMARK H PARENT
REMARK Flexibility Score: inf
ROOT
ATOM      1  C   UNL     1      32.272  -8.833  21.077  1.00  0.00     0.000 C 
ENDROOT
BRANCH   1   2
ATOM      2  C   UNL     1      33.169  -9.179  19.877  1.00  0.00     0.000 C 
BRANCH   2   3
ATOM      3  C   UNL     1      34.540  -9.727  20.304  1.00  0.00     0.000 C 
BRANCH   3   4
ATOM      4  C   UNL     1      35.235  -8.838  21.351  1.00  0.00     0.000 C 
BRANCH   4   5
ATOM      5  C   UNL     1      36.606  -9.386  21.776  1.00  0.00     0.000 C 
BRANCH   5   6
ATOM      6  C   UNL     1      36.990 -10.668  21.018  1.00  0.00     0.006 C 
BRANCH   6   7
ATOM      7  C   UNL     1      37.992 -11.527  21.800  1.00  0.00     0.053 C 
BRANCH   7   8
ATOM      8  C   UNL     1      39.099 -12.029  20.922  1.00  0.00     0.041 C 
ATOM      9  O   UNL     1      39.710 -11.239  20.157  1.00  0.00    -0.550 OA
ATOM     10  O   UNL     1      39.434 -13.377  20.930  1.00  0.00    -0.550 OA
ENDBRANCH   7   8
ENDBRANCH   6   7
ENDBRANCH   5   6
ENDBRANCH   4   5
ENDBRANCH   3   4
ENDBRANCH   2   3
ENDBRANCH   1   2
BRANCH   1  11
ATOM     11  C   UNL     1      30.831  -9.346  20.911  1.00  0.00     0.000 C 
BRANCH  11  12
ATOM     12  C   UNL     1      29.936  -9.087  22.143  1.00  0.00     0.000 C 
BRANCH  12  13
ATOM     13  C   UNL     1      28.688  -9.986  22.150  1.00  0.00     0.000 C 
BRANCH  13  14
ATOM     14  C   UNL     1      28.344 -10.539  20.758  1.00  0.00     0.000 C 
BRANCH  14  15
ATOM     15  C   UNL     1      26.836 -10.801  20.557  1.00  0.00     0.000 C 
BRANCH  15  16
ATOM     16  C   UNL     1      26.067  -9.518  20.195  1.00  0.00     0.006 C 
BRANCH  16  17
ATOM     17  C   UNL     1      26.866  -8.606  19.255  1.00  0.00     0.053 C 
BRANCH  17  18
ATOM     18  C   UNL     1      26.942  -7.202  19.775  1.00  0.00     0.041 C 
ATOM     19  O   UNL     1      25.913  -6.477  19.793  1.00  0.00    -0.550 OA
ATOM     20  O   UNL     1      28.156  -6.685  20.207  1.00  0.00    -0.550 OA
ENDBRANCH  17  18
ENDBRANCH  16  17
ENDBRANCH  15  16
ENDBRANCH  14  15
ENDBRANCH  13  14
ENDBRANCH  12  13
ENDBRANCH  11  12
ENDBRANCH   1  11
TORSDOF 15
ENDMDL
MODEL 8
REMARK VINA RESULT:    -6.125      1.474      2.535
REMARK INTER + INTRA:         -12.334
REMARK INTER:                 -11.596
REMARK INTRA:                  -0.738
REMARK UNBOUND:                -0.838
REMARK SMILES O=C([O-])CCCCCCCCCCCCCCC(=O)[O-]
REMARK SMILES IDX 10 1 9 2 8 3 7 4 6 5 5 6 4 7 2 8 1 9 3 10 11 11 12 12 13 13
REMARK SMILES IDX 14 14 15 15 16 16 17 17 18 18 19 19 20 20
REMARK H PARENT
REMARK Flexibility Score: inf
ROOT
ATOM      1  C   UNL     1      34.229  -8.887  20.947  1.00  0.00     0.000 C 
ENDROOT
BRANCH   1   2
ATOM      2  C   UNL     1      35.540  -9.686  20.857  1.00  0.00     0.000 C 
BRANCH   2   3
ATOM      3  C   UNL     1      36.594  -9.205  21.866  1.00  0.00     0.000 C 
BRANCH   3   4
ATOM      4  C   UNL     1      37.931  -9.957  21.733  1.00  0.00     0.000 C 
BRANCH   4   5
ATOM      5  C   UNL     1      37.778 -11.314  21.028  1.00  0.00     0.000 C 
BRANCH   5   6
ATOM      6  C   UNL     1      38.941 -12.274  21.336  1.00  0.00     0.006 C 
BRANCH   6   7
ATOM      7  C   UNL     1      40.302 -11.570  21.284  1.00  0.00     0.053 C 
BRANCH   7   8
ATOM      8  C   UNL     1      41.019 -11.647  22.599  1.00  0.00     0.041 C 
ATOM      9  O   UNL     1      41.780 -12.617  22.850  1.00  0.00    -0.550 OA
ATOM     10  O   UNL     1      40.821 -10.660  23.556  1.00  0.00    -0.550 OA
ENDBRANCH   7   8
ENDBRANCH   6   7
ENDBRANCH   5   6
ENDBRANCH   4   5
ENDBRANCH   3   4
ENDBRANCH   2   3
ENDBRANCH   1   2
BRANCH   1  11
ATOM     11  C   UNL     1      33.233  -9.247  19.831  1.00  0.00     0.000 C 
BRANCH  11  12
ATOM     12  C   UNL     1      31.768  -9.333  20.311  1.00  0.00     0.000 C 
BRANCH  12  13
ATOM     13  C   UNL     1      31.625  -8.963  21.798  1.00  0.00     0.000 C 
BRANCH  13  14
ATOM     14  C   UNL     1      30.168  -9.012  22.286  1.00  0.00     0.000 C 
BRANCH  14  15
ATOM     15  C   UNL     1      29.171  -9.462  21.197  1.00  0.00     0.000 C 
BRANCH  15  16
ATOM     16  C   UNL     1      28.287 -10.632  21.667  1.00  0.00     0.006 C 
BRANCH  16  17
ATOM     17  C   UNL     1      28.186 -11.744  20.615  1.00  0.00     0.053 C 
BRANCH  17  18
ATOM     18  C   UNL     1      26.897 -11.674  19.854  1.00  0.00     0.041 C 
ATOM     19  O   UNL     1      26.305 -10.573  19.712  1.00  0.00    -0.550 OA
ATOM     20  O   UNL     1      26.334 -12.832  19.333  1.00  0.00    -0.550 OA
ENDBRANCH  17  18
ENDBRANCH  16  17
ENDBRANCH  15  16
ENDBRANCH  14  15
ENDBRANCH  13  14
ENDBRANCH  12  13
ENDBRANCH  11  12
ENDBRANCH   1  11
TORSDOF 15
ENDMDL
MODEL 9
REMARK VINA RESULT:    -6.089      3.228      4.376
REMARK INTER + INTRA:         -12.266
REMARK INTER:                 -11.230
REMARK INTRA:                  -1.036
REMARK UNBOUND:                -0.838
REMARK SMILES O=C([O-])CCCCCCCCCCCCCCC(=O)[O-]
REMARK SMILES IDX 10 1 9 2 8 3 7 4 6 5 5 6 4 7 2 8 1 9 3 10 11 11 12 12 13 13
REMARK SMILES IDX 14 14 15 15 16 16 17 17 18 18 19 19 20 20
REMARK H PARENT
REMARK Flexibility Score: inf
ROOT
ATOM      1  C   UNL     1      29.267  -8.751  22.118  1.00  0.00     0.000 C 
ENDROOT
BRANCH   1   2
ATOM      2  C   UNL     1      30.649  -8.102  21.931  1.00  0.00     0.000 C 
BRANCH   2   3
ATOM      3  C   UNL     1      31.775  -9.140  21.802  1.00  0.00     0.000 C 
BRANCH   3   4
ATOM      4  C   UNL     1      32.695  -8.872  20.597  1.00  0.00     0.000 C 
BRANCH   4   5
ATOM      5  C   UNL     1      33.814  -7.870  20.919  1.00  0.00     0.000 C 
BRANCH   5   6
ATOM      6  C   UNL     1      34.962  -8.504  21.723  1.00  0.00     0.006 C 
BRANCH   6   7
ATOM      7  C   UNL     1      35.622  -9.667  20.972  1.00  0.00     0.053 C 
BRANCH   7   8
ATOM      8  C   UNL     1      36.990  -9.968  21.506  1.00  0.00     0.041 C 
ATOM      9  O   UNL     1      37.661  -9.068  22.075  1.00  0.00    -0.550 OA
ATOM     10  O   UNL     1      37.534 -11.236  21.348  1.00  0.00    -0.550 OA
ENDBRANCH   7   8
ENDBRANCH   6   7
ENDBRANCH   5   6
ENDBRANCH   4   5
ENDBRANCH   3   4
ENDBRANCH   2   3
ENDBRANCH   1   2
BRANCH   1  11
ATOM     11  C   UNL     1      28.912  -9.735  20.990  1.00  0.00     0.000 C 
BRANCH  11  12
ATOM     12  C   UNL     1      27.897 -10.820  21.411  1.00  0.00     0.000 C 
BRANCH  12  13
ATOM     13  C   UNL     1      26.617 -10.776  20.558  1.00  0.00     0.000 C 
BRANCH  13  14
ATOM     14  C   UNL     1      26.603  -9.603  19.565  1.00  0.00     0.000 C 
BRANCH  14  15
ATOM     15  C   UNL     1      25.504  -8.560  19.863  1.00  0.00     0.000 C 
BRANCH  15  16
ATOM     16  C   UNL     1      25.647  -7.301  18.989  1.00  0.00     0.006 C 
BRANCH  16  17
ATOM     17  C   UNL     1      27.115  -6.931  18.736  1.00  0.00     0.053 C 
BRANCH  17  18
ATOM     18  C   UNL     1      27.332  -5.450  18.795  1.00  0.00     0.041 C 
ATOM     19  O   UNL     1      28.032  -4.877  17.920  1.00  0.00    -0.550 OA
ATOM     20  O   UNL     1      26.789  -4.708  19.837  1.00  0.00    -0.550 OA
ENDBRANCH  17  18
ENDBRANCH  16  17
ENDBRANCH  15  16
ENDBRANCH  14  15
ENDBRANCH  13  14
ENDBRANCH  12  13
ENDBRANCH  11  12
ENDBRANCH   1  11
TORSDOF 15
ENDMDL
