MODEL 1
REMARK VINA RESULT:    -5.922      0.000      0.000
REMARK INTER + INTRA:          -7.751
REMARK INTER:                  -7.480
REMARK INTRA:                  -0.271
REMARK UNBOUND:                -0.271
REMARK SMILES CC(C)=CCCC(C)=CCO
REMARK SMILES IDX 7 1 9 2 8 3 6 4 5 5 4 6 1 7 2 8 3 9 10 10 11 11
REMARK H PARENT 11 12
REMARK Flexibility Score: inf
ROOT
ATOM      1  C   UNL     1      17.844  -1.118  31.372  1.00  0.00    -0.075 C 
ATOM      2  C   UNL     1      18.835  -1.082  30.452  1.00  0.00    -0.000 C 
ATOM      3  C   UNL     1      16.532  -0.462  31.033  1.00  0.00     0.039 C 
ENDROOT
BRANCH   1   4
ATOM      4  C   UNL     1      17.978  -1.828  32.709  1.00  0.00     0.034 C 
BRANCH   4   5
ATOM      5  C   UNL     1      17.419  -3.257  32.660  1.00  0.00     0.032 C 
BRANCH   5   6
ATOM      6  C   UNL     1      17.926  -4.106  33.800  1.00  0.00    -0.028 C 
ATOM      7  C   UNL     1      19.490  -5.549  35.027  1.00  0.00     0.039 C 
ATOM      8  C   UNL     1      19.142  -4.696  33.836  1.00  0.00    -0.080 C 
ATOM      9  C   UNL     1      20.150  -4.517  32.727  1.00  0.00     0.039 C 
ENDBRANCH   5   6
ENDBRANCH   4   5
ENDBRANCH   1   4
BRANCH   2  10
ATOM     10  C   UNL     1      20.206  -1.678  30.642  1.00  0.00     0.183 C 
BRANCH  10  11
ATOM     11  O   UNL     1      21.037  -0.790  31.340  1.00  0.00    -0.392 OA
ATOM     12  H   UNL     1      21.408  -1.294  32.110  1.00  0.00     0.210 HD
ENDBRANCH  10  11
ENDBRANCH   2  10
TORSDOF 5
ENDMDL
MODEL 2
REMARK VINA RESULT:    -5.768      2.206      4.870
REMARK INTER + INTRA:          -7.557
REMARK INTER:                  -7.379
REMARK INTRA:                  -0.177
REMARK UNBOUND:                -0.271
REMARK SMILES CC(C)=CCCC(C)=CCO
REMARK SMILES IDX 7 1 9 2 8 3 6 4 5 5 4 6 1 7 2 8 3 9 10 10 11 11
REMARK H PARENT 11 12
REMARK Flexibility Score: inf
ROOT
ATOM      1  C   UNL     1      19.754  -3.803  33.162  1.00  0.00    -0.075 C 
ATOM      2  C   UNL     1      20.182  -4.620  34.152  1.00  0.00    -0.000 C 
ATOM      3  C   UNL     1      20.290  -4.027  31.773  1.00  0.00     0.039 C 
ENDROOT
BRANCH   1   4
ATOM      4  C   UNL     1      18.727  -2.705  33.378  1.00  0.00     0.034 C 
BRANCH   4   5
ATOM      5  C   UNL     1      17.461  -2.930  32.538  1.00  0.00     0.032 C 
BRANCH   5   6
ATOM      6  C   UNL     1      16.924  -1.641  31.964  1.00  0.00    -0.028 C 
ATOM      7  C   UNL     1      16.859   0.335  30.506  1.00  0.00     0.039 C 
ATOM      8  C   UNL     1      17.488  -0.962  30.941  1.00  0.00    -0.080 C 
ATOM      9  C   UNL     1      18.718  -1.470  30.226  1.00  0.00     0.039 C 
ENDBRANCH   5   6
ENDBRANCH   4   5
ENDBRANCH   1   4
BRANCH   2  10
ATOM     10  C   UNL     1      19.752  -4.521  35.593  1.00  0.00     0.183 C 
BRANCH  10  11
ATOM     11  O   UNL     1      20.845  -4.727  36.448  1.00  0.00    -0.392 OA
ATOM     12  H   UNL     1      21.493  -5.290  35.950  1.00  0.00     0.210 HD
ENDBRANCH  10  11
ENDBRANCH   2  10
TORSDOF 5
ENDMDL
MODEL 3
REMARK VINA RESULT:    -5.718      1.400      2.176
REMARK INTER + INTRA:          -7.493
REMARK INTER:                  -7.071
REMARK INTRA:                  -0.422
REMARK UNBOUND:                -0.271
REMARK SMILES CC(C)=CCCC(C)=CCO
REMARK SMILES IDX 7 1 9 2 8 3 6 4 5 5 4 6 1 7 2 8 3 9 10 10 11 11
REMARK H PARENT 11 12
REMARK Flexibility Score: inf
ROOT
ATOM      1  C   UNL     1      17.796  -2.281  32.321  1.00  0.00    -0.075 C 
ATOM      2  C   UNL     1      17.344  -1.593  31.248  1.00  0.00    -0.000 C 
ATOM      3  C   UNL     1      16.850  -3.228  33.011  1.00  0.00     0.039 C 
ENDROOT
BRANCH   1   4
ATOM      4  C   UNL     1      19.223  -2.176  32.834  1.00  0.00     0.034 C 
BRANCH   4   5
ATOM      5  C   UNL     1      19.918  -3.545  32.880  1.00  0.00     0.032 C 
BRANCH   5   6
ATOM      6  C   UNL     1      20.185  -3.999  34.295  1.00  0.00    -0.028 C 
ATOM      7  C   UNL     1      20.003  -5.423  36.288  1.00  0.00     0.039 C 
ATOM      8  C   UNL     1      19.681  -5.125  34.847  1.00  0.00    -0.080 C 
ATOM      9  C   UNL     1      18.818  -6.084  34.063  1.00  0.00     0.039 C 
ENDBRANCH   5   6
ENDBRANCH   4   5
ENDBRANCH   1   4
BRANCH   2  10
ATOM     10  C   UNL     1      18.159  -0.602  30.457  1.00  0.00     0.183 C 
BRANCH  10  11
ATOM     11  O   UNL     1      19.094  -1.266  29.650  1.00  0.00    -0.392 OA
ATOM     12  H   UNL     1      18.654  -2.096  29.329  1.00  0.00     0.210 HD
ENDBRANCH  10  11
ENDBRANCH   2  10
TORSDOF 5
ENDMDL
MODEL 4
REMARK VINA RESULT:    -5.648      1.757      2.425
REMARK INTER + INTRA:          -7.405
REMARK INTER:                  -7.124
REMARK INTRA:                  -0.281
REMARK UNBOUND:                -0.271
REMARK SMILES CC(C)=CCCC(C)=CCO
REMARK SMILES IDX 7 1 9 2 8 3 6 4 5 5 4 6 1 7 2 8 3 9 10 10 11 11
REMARK H PARENT 11 12
REMARK Flexibility Score: inf
ROOT
ATOM      1  C   UNL     1      18.431  -1.461  30.982  1.00  0.00    -0.075 C 
ATOM      2  C   UNL     1      18.213  -0.305  30.313  1.00  0.00    -0.000 C 
ATOM      3  C   UNL     1      19.779  -2.119  30.846  1.00  0.00     0.039 C 
ENDROOT
BRANCH   1   4
ATOM      4  C   UNL     1      17.398  -2.099  31.895  1.00  0.00     0.034 C 
BRANCH   4   5
ATOM      5  C   UNL     1      17.995  -2.482  33.257  1.00  0.00     0.032 C 
BRANCH   5   6
ATOM      6  C   UNL     1      18.141  -3.976  33.414  1.00  0.00    -0.028 C 
ATOM      7  C   UNL     1      19.057  -6.084  34.282  1.00  0.00     0.039 C 
ATOM      8  C   UNL     1      18.995  -4.579  34.271  1.00  0.00    -0.080 C 
ATOM      9  C   UNL     1      19.874  -3.790  35.211  1.00  0.00     0.039 C 
ENDBRANCH   5   6
ENDBRANCH   4   5
ENDBRANCH   1   4
BRANCH   2  10
ATOM     10  C   UNL     1      16.919   0.469  30.335  1.00  0.00     0.183 C 
BRANCH  10  11
ATOM     11  O   UNL     1      17.149   1.819  30.031  1.00  0.00    -0.392 OA
ATOM     12  H   UNL     1      17.910   2.112  30.595  1.00  0.00     0.210 HD
ENDBRANCH  10  11
ENDBRANCH   2  10
TORSDOF 5
ENDMDL
MODEL 5
REMARK VINA RESULT:    -5.546      2.589      5.201
REMARK INTER + INTRA:          -7.276
REMARK INTER:                  -6.733
REMARK INTRA:                  -0.543
REMARK UNBOUND:                -0.271
REMARK SMILES CC(C)=CCCC(C)=CCO
REMARK SMILES IDX 7 1 9 2 8 3 6 4 5 5 4 6 1 7 2 8 3 9 10 10 11 11
REMARK H PARENT 11 12
REMARK Flexibility Score: inf
ROOT
ATOM      1  C   UNL     1      18.881  -4.954  34.166  1.00  0.00    -0.075 C 
ATOM      2  C   UNL     1      19.147  -5.288  35.450  1.00  0.00    -0.000 C 
ATOM      3  C   UNL     1      17.440  -4.842  33.743  1.00  0.00     0.039 C 
ENDROOT
BRANCH   1   4
ATOM      4  C   UNL     1      19.964  -4.644  33.147  1.00  0.00     0.034 C 
BRANCH   4   5
ATOM      5  C   UNL     1      20.233  -3.136  33.036  1.00  0.00     0.032 C 
BRANCH   5   6
ATOM      6  C   UNL     1      19.643  -2.545  31.778  1.00  0.00    -0.028 C 
ATOM      7  C   UNL     1      18.033  -1.305  30.398  1.00  0.00     0.039 C 
ATOM      8  C   UNL     1      18.524  -1.788  31.738  1.00  0.00    -0.080 C 
ATOM      9  C   UNL     1      17.766  -1.414  32.988  1.00  0.00     0.039 C 
ENDBRANCH   5   6
ENDBRANCH   4   5
ENDBRANCH   1   4
BRANCH   2  10
ATOM     10  C   UNL     1      20.530  -5.451  36.026  1.00  0.00     0.183 C 
BRANCH  10  11
ATOM     11  O   UNL     1      20.795  -6.803  36.291  1.00  0.00    -0.392 OA
ATOM     12  H   UNL     1      21.678  -6.835  36.744  1.00  0.00     0.210 HD
ENDBRANCH  10  11
ENDBRANCH   2  10
TORSDOF 5
ENDMDL
MODEL 6
REMARK VINA RESULT:    -5.545      1.666      4.525
REMARK INTER + INTRA:          -7.275
REMARK INTER:                  -7.156
REMARK INTRA:                  -0.119
REMARK UNBOUND:                -0.271
REMARK SMILES CC(C)=CCCC(C)=CCO
REMARK SMILES IDX 7 1 9 2 8 3 6 4 5 5 4 6 1 7 2 8 3 9 10 10 11 11
REMARK H PARENT 11 12
REMARK Flexibility Score: inf
ROOT
ATOM      1  C   UNL     1      19.422  -4.056  33.998  1.00  0.00    -0.075 C 
ATOM      2  C   UNL     1      20.239  -4.738  33.163  1.00  0.00    -0.000 C 
ATOM      3  C   UNL     1      19.253  -4.568  35.404  1.00  0.00     0.039 C 
ENDROOT
BRANCH   1   4
ATOM      4  C   UNL     1      18.706  -2.778  33.599  1.00  0.00     0.034 C 
BRANCH   4   5
ATOM      5  C   UNL     1      17.520  -3.052  32.661  1.00  0.00     0.032 C 
BRANCH   5   6
ATOM      6  C   UNL     1      16.928  -1.779  32.108  1.00  0.00    -0.028 C 
ATOM      7  C   UNL     1      16.764   0.203  30.665  1.00  0.00     0.039 C 
ATOM      8  C   UNL     1      17.447  -1.075  31.078  1.00  0.00    -0.080 C 
ATOM      9  C   UNL     1      18.678  -1.536  30.334  1.00  0.00     0.039 C 
ENDBRANCH   5   6
ENDBRANCH   4   5
ENDBRANCH   1   4
BRANCH   2  10
ATOM     10  C   UNL     1      20.504  -4.365  31.727  1.00  0.00     0.183 C 
BRANCH  10  11
ATOM     11  O   UNL     1      21.211  -5.387  31.075  1.00  0.00    -0.392 OA
ATOM     12  H   UNL     1      22.075  -4.994  30.785  1.00  0.00     0.210 HD
ENDBRANCH  10  11
ENDBRANCH   2  10
TORSDOF 5
ENDMDL
MODEL 7
REMARK VINA RESULT:    -5.503      2.310      4.992
REMARK INTER + INTRA:          -7.222
REMARK INTER:                  -6.956
REMARK INTRA:                  -0.266
REMARK UNBOUND:                -0.271
REMARK SMILES CC(C)=CCCC(C)=CCO
REMARK SMILES IDX 7 1 9 2 8 3 6 4 5 5 4 6 1 7 2 8 3 9 10 10 11 11
REMARK H PARENT 11 12
REMARK Flexibility Score: inf
ROOT
ATOM      1  C   UNL     1      18.477  -2.979  32.411  1.00  0.00    -0.075 C 
ATOM      2  C   UNL     1      18.610  -3.869  33.420  1.00  0.00    -0.000 C 
ATOM      3  C   UNL     1      17.283  -2.060  32.424  1.00  0.00     0.039 C 
ENDROOT
BRANCH   1   4
ATOM      4  C   UNL     1      19.495  -2.832  31.293  1.00  0.00     0.034 C 
BRANCH   4   5
ATOM      5  C   UNL     1      19.525  -1.404  30.727  1.00  0.00     0.032 C 
BRANCH   5   6
ATOM      6  C   UNL     1      20.884  -0.764  30.873  1.00  0.00    -0.028 C 
ATOM      7  C   UNL     1      22.645   0.915  30.531  1.00  0.00     0.039 C 
ATOM      8  C   UNL     1      21.234   0.426  30.335  1.00  0.00    -0.080 C 
ATOM      9  C   UNL     1      20.254   1.270  29.555  1.00  0.00     0.039 C 
ENDBRANCH   5   6
ENDBRANCH   4   5
ENDBRANCH   1   4
BRANCH   2  10
ATOM     10  C   UNL     1      19.738  -4.862  33.547  1.00  0.00     0.183 C 
BRANCH  10  11
ATOM     11  O   UNL     1      20.575  -4.522  34.619  1.00  0.00    -0.392 OA
ATOM     12  H   UNL     1      20.750  -5.360  35.120  1.00  0.00     0.210 HD
ENDBRANCH  10  11
ENDBRANCH   2  10
TORSDOF 5
ENDMDL
MODEL 8
REMARK VINA RESULT:    -5.335      3.979      7.371
REMARK INTER + INTRA:          -7.009
REMARK INTER:                  -6.623
REMARK INTRA:                  -0.386
REMARK UNBOUND:                -0.271
REMARK SMILES CC(C)=CCCC(C)=CCO
REMARK SMILES IDX 7 1 9 2 8 3 6 4 5 5 4 6 1 7 2 8 3 9 10 10 11 11
REMARK H PARENT 11 12
REMARK Flexibility Score: inf
ROOT
ATOM      1  C   UNL     1      21.457  -6.722  38.649  1.00  0.00    -0.075 C 
ATOM      2  C   UNL     1      22.541  -6.049  39.097  1.00  0.00    -0.000 C 
ATOM      3  C   UNL     1      20.555  -7.377  39.662  1.00  0.00     0.039 C 
ENDROOT
BRANCH   1   4
ATOM      4  C   UNL     1      21.083  -6.809  37.179  1.00  0.00     0.034 C 
BRANCH   4   5
ATOM      5  C   UNL     1      19.862  -5.939  36.844  1.00  0.00     0.032 C 
BRANCH   5   6
ATOM      6  C   UNL     1      20.176  -4.897  35.798  1.00  0.00    -0.028 C 
ATOM      7  C   UNL     1      20.121  -3.811  33.595  1.00  0.00     0.039 C 
ATOM      8  C   UNL     1      19.680  -4.898  34.541  1.00  0.00    -0.080 C 
ATOM      9  C   UNL     1      18.701  -5.945  34.068  1.00  0.00     0.039 C 
ENDBRANCH   5   6
ENDBRANCH   4   5
ENDBRANCH   1   4
BRANCH   2  10
ATOM     10  C   UNL     1      23.545  -5.351  38.216  1.00  0.00     0.183 C 
BRANCH  10  11
ATOM     11  O   UNL     1      23.181  -4.011  38.020  1.00  0.00    -0.392 OA
ATOM     12  H   UNL     1      22.631  -3.984  37.194  1.00  0.00     0.210 HD
ENDBRANCH  10  11
ENDBRANCH   2  10
TORSDOF 5
ENDMDL
MODEL 9
REMARK VINA RESULT:    -5.318      4.140      6.152
REMARK INTER + INTRA:          -6.988
REMARK INTER:                  -6.727
REMARK INTRA:                  -0.261
REMARK UNBOUND:                -0.271
REMARK SMILES CC(C)=CCCC(C)=CCO
REMARK SMILES IDX 7 1 9 2 8 3 6 4 5 5 4 6 1 7 2 8 3 9 10 10 11 11
REMARK H PARENT 11 12
REMARK Flexibility Score: inf
ROOT
ATOM      1  C   UNL     1      24.068   1.165  30.118  1.00  0.00    -0.075 C 
ATOM      2  C   UNL     1      24.968   2.152  30.328  1.00  0.00    -0.000 C 
ATOM      3  C   UNL     1      24.487  -0.016  29.282  1.00  0.00     0.039 C 
ENDROOT
BRANCH   1   4
ATOM      4  C   UNL     1      22.674   1.169  30.723  1.00  0.00     0.034 C 
BRANCH   4   5
ATOM      5  C   UNL     1      22.057  -0.237  30.754  1.00  0.00     0.032 C 
BRANCH   5   6
ATOM      6  C   UNL     1      20.594  -0.223  30.383  1.00  0.00    -0.028 C 
ATOM      7  C   UNL     1      18.275  -1.029  30.282  1.00  0.00     0.039 C 
ATOM      8  C   UNL     1      19.695  -1.155  30.770  1.00  0.00    -0.080 C 
ATOM      9  C   UNL     1      20.073  -2.304  31.673  1.00  0.00     0.039 C 
ENDBRANCH   5   6
ENDBRANCH   4   5
ENDBRANCH   1   4
BRANCH   2  10
ATOM     10  C   UNL     1      24.703   3.401  31.130  1.00  0.00     0.183 C 
BRANCH  10  11
ATOM     11  O   UNL     1      25.125   3.234  32.456  1.00  0.00    -0.392 OA
ATOM     12  H   UNL     1      25.876   3.867  32.597  1.00  0.00     0.210 HD
ENDBRANCH  10  11
ENDBRANCH   2  10
TORSDOF 5
ENDMDL
