MODEL 1
REMARK VINA RESULT:    -5.100      0.000      0.000
REMARK INTER + INTRA:          -9.271
REMARK INTER:                  -7.783
REMARK INTRA:                  -1.488
REMARK UNBOUND:                -1.488
REMARK SMILES CCCCCCCCCC=CC(=O)[O-]
REMARK SMILES IDX 7 1 8 2 9 3 10 4 11 5 12 6 13 7 14 8 6 9 5 10 4 11 3 12 2 13
REMARK SMILES IDX 1 14
REMARK H PARENT
REMARK Flexibility Score: inf
ROOT
ATOM      1  C   UNL     1      19.048  22.214   6.130  1.00  0.00     0.000 C 
ENDROOT
BRANCH   1   2
ATOM      2  C   UNL     1      17.965  23.303   6.181  1.00  0.00     0.004 C 
BRANCH   2   3
ATOM      3  C   UNL     1      17.296  23.409   7.560  1.00  0.00     0.027 C 
BRANCH   3   4
ATOM      4  C   UNL     1      17.192  24.840   8.002  1.00  0.00    -0.025 C 
ATOM      5  C   UNL     1      18.262  25.520   8.430  1.00  0.00     0.020 C 
BRANCH   5   6
ATOM      6  C   UNL     1      18.185  26.927   8.854  1.00  0.00     0.064 C 
ATOM      7  O   UNL     1      17.074  27.502   9.005  1.00  0.00    -0.545 OA
ATOM      8  O   UNL     1      19.357  27.632   9.093  1.00  0.00    -0.545 OA
ENDBRANCH   5   6
ENDBRANCH   3   4
ENDBRANCH   2   3
ENDBRANCH   1   2
BRANCH   1   9
ATOM      9  C   UNL     1      20.422  22.725   6.587  1.00  0.00     0.000 C 
BRANCH   9  10
ATOM     10  C   UNL     1      20.804  22.131   7.949  1.00  0.00     0.000 C 
BRANCH  10  11
ATOM     11  C   UNL     1      21.082  23.240   8.975  1.00  0.00    -0.000 C 
BRANCH  11  12
ATOM     12  C   UNL     1      20.405  22.977  10.329  1.00  0.00    -0.000 C 
BRANCH  12  13
ATOM     13  C   UNL     1      19.235  21.988  10.224  1.00  0.00    -0.003 C 
ATOM     14  C   UNL     1      18.032  22.470  11.029  1.00  0.00     0.004 C 
ENDBRANCH  12  13
ENDBRANCH  11  12
ENDBRANCH  10  11
ENDBRANCH   9  10
ENDBRANCH   1   9
TORSDOF 9
ENDMDL
MODEL 2
REMARK VINA RESULT:    -4.940      1.063      3.184
REMARK INTER + INTRA:          -9.028
REMARK INTER:                  -7.537
REMARK INTRA:                  -1.491
REMARK UNBOUND:                -1.488
REMARK SMILES CCCCCCCCCC=CC(=O)[O-]
REMARK SMILES IDX 7 1 8 2 9 3 10 4 11 5 12 6 13 7 14 8 6 9 5 10 4 11 3 12 2 13
REMARK SMILES IDX 1 14
REMARK H PARENT
REMARK Flexibility Score: inf
ROOT
ATOM      1  C   UNL     1      21.518  22.359   8.829  1.00  0.00     0.000 C 
ENDROOT
BRANCH   1   2
ATOM      2  C   UNL     1      20.887  23.116  10.009  1.00  0.00     0.004 C 
BRANCH   2   3
ATOM      3  C   UNL     1      19.373  22.875  10.125  1.00  0.00     0.027 C 
BRANCH   3   4
ATOM      4  C   UNL     1      18.609  24.159   9.988  1.00  0.00    -0.025 C 
ATOM      5  C   UNL     1      19.150  25.237   9.408  1.00  0.00     0.020 C 
BRANCH   5   6
ATOM      6  C   UNL     1      18.415  26.501   9.250  1.00  0.00     0.064 C 
ATOM      7  O   UNL     1      19.020  27.605   9.205  1.00  0.00    -0.545 OA
ATOM      8  O   UNL     1      17.030  26.477   9.146  1.00  0.00    -0.545 OA
ENDBRANCH   5   6
ENDBRANCH   3   4
ENDBRANCH   2   3
ENDBRANCH   1   2
BRANCH   1   9
ATOM      9  C   UNL     1      21.314  23.080   7.489  1.00  0.00     0.000 C 
BRANCH   9  10
ATOM     10  C   UNL     1      20.870  22.096   6.398  1.00  0.00     0.000 C 
BRANCH  10  11
ATOM     11  C   UNL     1      19.445  22.413   5.919  1.00  0.00    -0.000 C 
BRANCH  11  12
ATOM     12  C   UNL     1      18.372  21.654   6.713  1.00  0.00    -0.000 C 
BRANCH  12  13
ATOM     13  C   UNL     1      17.120  22.503   6.979  1.00  0.00    -0.003 C 
ATOM     14  C   UNL     1      17.285  23.914   6.424  1.00  0.00     0.004 C 
ENDBRANCH  12  13
ENDBRANCH  11  12
ENDBRANCH  10  11
ENDBRANCH   9  10
ENDBRANCH   1   9
TORSDOF 9
ENDMDL
MODEL 3
REMARK VINA RESULT:    -4.903      0.894      3.011
REMARK INTER + INTRA:          -8.970
REMARK INTER:                  -7.697
REMARK INTRA:                  -1.273
REMARK UNBOUND:                -1.488
REMARK SMILES CCCCCCCCCC=CC(=O)[O-]
REMARK SMILES IDX 7 1 8 2 9 3 10 4 11 5 12 6 13 7 14 8 6 9 5 10 4 11 3 12 2 13
REMARK SMILES IDX 1 14
REMARK H PARENT
REMARK Flexibility Score: inf
ROOT
ATOM      1  C   UNL     1      19.399  22.067  10.279  1.00  0.00     0.000 C 
ENDROOT
BRANCH   1   2
ATOM      2  C   UNL     1      18.086  22.791  10.617  1.00  0.00     0.004 C 
BRANCH   2   3
ATOM      3  C   UNL     1      17.343  23.286   9.367  1.00  0.00     0.027 C 
BRANCH   3   4
ATOM      4  C   UNL     1      17.305  24.786   9.319  1.00  0.00    -0.025 C 
ATOM      5  C   UNL     1      18.350  25.499   8.883  1.00  0.00     0.020 C 
BRANCH   5   6
ATOM      6  C   UNL     1      18.329  26.969   8.814  1.00  0.00     0.064 C 
ATOM      7  O   UNL     1      19.373  27.623   8.552  1.00  0.00    -0.545 OA
ATOM      8  O   UNL     1      17.138  27.646   9.040  1.00  0.00    -0.545 OA
ENDBRANCH   5   6
ENDBRANCH   3   4
ENDBRANCH   2   3
ENDBRANCH   1   2
BRANCH   1   9
ATOM      9  C   UNL     1      20.607  23.014  10.260  1.00  0.00     0.000 C 
BRANCH   9  10
ATOM     10  C   UNL     1      21.629  22.580   9.202  1.00  0.00     0.000 C 
BRANCH  10  11
ATOM     11  C   UNL     1      21.336  23.245   7.848  1.00  0.00    -0.000 C 
BRANCH  11  12
ATOM     12  C   UNL     1      21.362  22.246   6.681  1.00  0.00    -0.000 C 
BRANCH  12  13
ATOM     13  C   UNL     1      19.957  21.783   6.267  1.00  0.00    -0.003 C 
ATOM     14  C   UNL     1      19.013  22.969   6.100  1.00  0.00     0.004 C 
ENDBRANCH  12  13
ENDBRANCH  11  12
ENDBRANCH  10  11
ENDBRANCH   9  10
ENDBRANCH   1   9
TORSDOF 9
ENDMDL
MODEL 4
REMARK VINA RESULT:    -4.897      2.651      4.126
REMARK INTER + INTRA:          -8.962
REMARK INTER:                  -7.357
REMARK INTRA:                  -1.605
REMARK UNBOUND:                -1.488
REMARK SMILES CCCCCCCCCC=CC(=O)[O-]
REMARK SMILES IDX 7 1 8 2 9 3 10 4 11 5 12 6 13 7 14 8 6 9 5 10 4 11 3 12 2 13
REMARK SMILES IDX 1 14
REMARK H PARENT
REMARK Flexibility Score: inf
ROOT
ATOM      1  C   UNL     1      17.129  23.911   6.510  1.00  0.00     0.000 C 
ENDROOT
BRANCH   1   2
ATOM      2  C   UNL     1      17.749  22.512   6.365  1.00  0.00     0.004 C 
BRANCH   2   3
ATOM      3  C   UNL     1      19.167  22.551   5.774  1.00  0.00     0.027 C 
BRANCH   3   4
ATOM      4  C   UNL     1      20.166  21.962   6.727  1.00  0.00    -0.025 C 
ATOM      5  C   UNL     1      20.902  22.735   7.535  1.00  0.00     0.020 C 
BRANCH   5   6
ATOM      6  C   UNL     1      21.876  22.179   8.487  1.00  0.00     0.064 C 
ATOM      7  O   UNL     1      22.143  22.771   9.567  1.00  0.00    -0.545 OA
ATOM      8  O   UNL     1      22.512  20.980   8.191  1.00  0.00    -0.545 OA
ENDBRANCH   5   6
ENDBRANCH   3   4
ENDBRANCH   2   3
ENDBRANCH   1   2
BRANCH   1   9
ATOM      9  C   UNL     1      17.068  24.380   7.971  1.00  0.00     0.000 C 
BRANCH   9  10
ATOM     10  C   UNL     1      18.374  25.071   8.383  1.00  0.00     0.000 C 
BRANCH  10  11
ATOM     11  C   UNL     1      18.700  24.799   9.859  1.00  0.00    -0.000 C 
BRANCH  11  12
ATOM     12  C   UNL     1      17.937  23.589  10.420  1.00  0.00    -0.000 C 
BRANCH  12  13
ATOM     13  C   UNL     1      18.844  22.370  10.643  1.00  0.00    -0.003 C 
ATOM     14  C   UNL     1      18.309  21.145   9.908  1.00  0.00     0.004 C 
ENDBRANCH  12  13
ENDBRANCH  11  12
ENDBRANCH  10  11
ENDBRANCH   9  10
ENDBRANCH   1   9
TORSDOF 9
ENDMDL
MODEL 5
REMARK VINA RESULT:    -4.890      2.770      4.653
REMARK INTER + INTRA:          -8.951
REMARK INTER:                  -7.743
REMARK INTRA:                  -1.208
REMARK UNBOUND:                -1.488
REMARK SMILES CCCCCCCCCC=CC(=O)[O-]
REMARK SMILES IDX 7 1 8 2 9 3 10 4 11 5 12 6 13 7 14 8 6 9 5 10 4 11 3 12 2 13
REMARK SMILES IDX 1 14
REMARK H PARENT
REMARK Flexibility Score: inf
ROOT
ATOM      1  C   UNL     1      17.410  24.265   7.210  1.00  0.00     0.000 C 
ENDROOT
BRANCH   1   2
ATOM      2  C   UNL     1      17.403  23.003   6.333  1.00  0.00     0.004 C 
BRANCH   2   3
ATOM      3  C   UNL     1      18.762  22.735   5.669  1.00  0.00     0.027 C 
BRANCH   3   4
ATOM      4  C   UNL     1      19.690  22.018   6.605  1.00  0.00    -0.025 C 
ATOM      5  C   UNL     1      20.825  22.582   7.034  1.00  0.00     0.020 C 
BRANCH   5   6
ATOM      6  C   UNL     1      21.742  21.903   7.963  1.00  0.00     0.064 C 
ATOM      7  O   UNL     1      22.290  20.811   7.655  1.00  0.00    -0.545 OA
ATOM      8  O   UNL     1      22.009  22.477   9.199  1.00  0.00    -0.545 OA
ENDBRANCH   5   6
ENDBRANCH   3   4
ENDBRANCH   2   3
ENDBRANCH   1   2
BRANCH   1   9
ATOM      9  C   UNL     1      16.970  23.983   8.654  1.00  0.00     0.000 C 
BRANCH   9  10
ATOM     10  C   UNL     1      18.182  23.714   9.556  1.00  0.00     0.000 C 
BRANCH  10  11
ATOM     11  C   UNL     1      19.282  24.761   9.325  1.00  0.00    -0.000 C 
BRANCH  11  12
ATOM     12  C   UNL     1      18.978  26.100  10.013  1.00  0.00    -0.000 C 
BRANCH  12  13
ATOM     13  C   UNL     1      18.831  27.259   9.016  1.00  0.00    -0.003 C 
ATOM     14  C   UNL     1      17.377  27.704   8.901  1.00  0.00     0.004 C 
ENDBRANCH  12  13
ENDBRANCH  11  12
ENDBRANCH  10  11
ENDBRANCH   9  10
ENDBRANCH   1   9
TORSDOF 9
ENDMDL
MODEL 6
REMARK VINA RESULT:    -4.862      2.903      5.010
REMARK INTER + INTRA:          -8.909
REMARK INTER:                  -7.525
REMARK INTRA:                  -1.384
REMARK UNBOUND:                -1.488
REMARK SMILES CCCCCCCCCC=CC(=O)[O-]
REMARK SMILES IDX 7 1 8 2 9 3 10 4 11 5 12 6 13 7 14 8 6 9 5 10 4 11 3 12 2 13
REMARK SMILES IDX 1 14
REMARK H PARENT
REMARK Flexibility Score: inf
ROOT
ATOM      1  C   UNL     1      20.326  23.226  10.476  1.00  0.00     0.000 C 
ENDROOT
BRANCH   1   2
ATOM      2  C   UNL     1      21.381  22.829   9.431  1.00  0.00     0.004 C 
BRANCH   2   3
ATOM      3  C   UNL     1      21.148  23.502   8.069  1.00  0.00     0.027 C 
BRANCH   3   4
ATOM      4  C   UNL     1      20.551  22.539   7.084  1.00  0.00    -0.025 C 
ATOM      5  C   UNL     1      19.482  22.864   6.348  1.00  0.00     0.020 C 
BRANCH   5   6
ATOM      6  C   UNL     1      18.889  21.942   5.367  1.00  0.00     0.064 C 
ATOM      7  O   UNL     1      19.423  21.758   4.240  1.00  0.00    -0.545 OA
ATOM      8  O   UNL     1      17.722  21.262   5.688  1.00  0.00    -0.545 OA
ENDBRANCH   5   6
ENDBRANCH   3   4
ENDBRANCH   2   3
ENDBRANCH   1   2
BRANCH   1   9
ATOM      9  C   UNL     1      19.115  22.282  10.481  1.00  0.00     0.000 C 
BRANCH   9  10
ATOM     10  C   UNL     1      17.805  23.069  10.616  1.00  0.00     0.000 C 
BRANCH  10  11
ATOM     11  C   UNL     1      17.389  23.679   9.269  1.00  0.00    -0.000 C 
BRANCH  11  12
ATOM     12  C   UNL     1      17.297  25.212   9.316  1.00  0.00    -0.000 C 
BRANCH  12  13
ATOM     13  C   UNL     1      18.342  25.895   8.421  1.00  0.00    -0.003 C 
ATOM     14  C   UNL     1      19.020  27.050   9.151  1.00  0.00     0.004 C 
ENDBRANCH  12  13
ENDBRANCH  11  12
ENDBRANCH  10  11
ENDBRANCH   9  10
ENDBRANCH   1   9
TORSDOF 9
ENDMDL
MODEL 7
REMARK VINA RESULT:    -4.825      1.064      1.542
REMARK INTER + INTRA:          -8.852
REMARK INTER:                  -7.409
REMARK INTRA:                  -1.442
REMARK UNBOUND:                -1.488
REMARK SMILES CCCCCCCCCC=CC(=O)[O-]
REMARK SMILES IDX 7 1 8 2 9 3 10 4 11 5 12 6 13 7 14 8 6 9 5 10 4 11 3 12 2 13
REMARK SMILES IDX 1 14
REMARK H PARENT
REMARK Flexibility Score: inf
ROOT
ATOM      1  C   UNL     1      18.927  21.346   6.395  1.00  0.00     0.000 C 
ENDROOT
BRANCH   1   2
ATOM      2  C   UNL     1      17.528  21.961   6.561  1.00  0.00     0.004 C 
BRANCH   2   3
ATOM      3  C   UNL     1      17.506  23.469   6.265  1.00  0.00     0.027 C 
BRANCH   3   4
ATOM      4  C   UNL     1      16.958  24.240   7.431  1.00  0.00    -0.025 C 
ATOM      5  C   UNL     1      17.734  25.051   8.160  1.00  0.00     0.020 C 
BRANCH   5   6
ATOM      6  C   UNL     1      17.216  25.828   9.297  1.00  0.00     0.064 C 
ATOM      7  O   UNL     1      16.941  25.271  10.394  1.00  0.00    -0.545 OA
ATOM      8  O   UNL     1      17.029  27.197   9.160  1.00  0.00    -0.545 OA
ENDBRANCH   5   6
ENDBRANCH   3   4
ENDBRANCH   2   3
ENDBRANCH   1   2
BRANCH   1   9
ATOM      9  C   UNL     1      19.990  22.389   6.021  1.00  0.00     0.000 C 
BRANCH   9  10
ATOM     10  C   UNL     1      21.353  22.024   6.623  1.00  0.00     0.000 C 
BRANCH  10  11
ATOM     11  C   UNL     1      21.275  21.943   8.154  1.00  0.00    -0.000 C 
BRANCH  11  12
ATOM     12  C   UNL     1      20.947  23.297   8.803  1.00  0.00    -0.000 C 
BRANCH  12  13
ATOM     13  C   UNL     1      20.453  23.156  10.250  1.00  0.00    -0.003 C 
ATOM     14  C   UNL     1      19.135  22.390  10.310  1.00  0.00     0.004 C 
ENDBRANCH  12  13
ENDBRANCH  11  12
ENDBRANCH  10  11
ENDBRANCH   9  10
ENDBRANCH   1   9
TORSDOF 9
ENDMDL
MODEL 8
REMARK VINA RESULT:    -4.759      2.636      4.505
REMARK INTER + INTRA:          -8.752
REMARK INTER:                  -7.181
REMARK INTRA:                  -1.571
REMARK UNBOUND:                -1.488
REMARK SMILES CCCCCCCCCC=CC(=O)[O-]
REMARK SMILES IDX 7 1 8 2 9 3 10 4 11 5 12 6 13 7 14 8 6 9 5 10 4 11 3 12 2 13
REMARK SMILES IDX 1 14
REMARK H PARENT
REMARK Flexibility Score: inf
ROOT
ATOM      1  C   UNL     1      21.064  22.753   6.959  1.00  0.00     0.000 C 
ENDROOT
BRANCH   1   2
ATOM      2  C   UNL     1      21.240  21.963   8.266  1.00  0.00     0.004 C 
BRANCH   2   3
ATOM      3  C   UNL     1      21.111  22.849   9.515  1.00  0.00     0.027 C 
BRANCH   3   4
ATOM      4  C   UNL     1      19.869  22.514  10.289  1.00  0.00    -0.025 C 
ATOM      5  C   UNL     1      19.006  21.585   9.860  1.00  0.00     0.020 C 
BRANCH   5   6
ATOM      6  C   UNL     1      17.790  21.231  10.609  1.00  0.00     0.064 C 
ATOM      7  O   UNL     1      17.274  20.086  10.509  1.00  0.00    -0.545 OA
ATOM      8  O   UNL     1      17.203  22.174  11.442  1.00  0.00    -0.545 OA
ENDBRANCH   5   6
ENDBRANCH   3   4
ENDBRANCH   2   3
ENDBRANCH   1   2
BRANCH   1   9
ATOM      9  C   UNL     1      20.242  21.986   5.912  1.00  0.00     0.000 C 
BRANCH   9  10
ATOM     10  C   UNL     1      18.746  22.027   6.250  1.00  0.00     0.000 C 
BRANCH  10  11
ATOM     11  C   UNL     1      18.257  23.474   6.409  1.00  0.00    -0.000 C 
BRANCH  11  12
ATOM     12  C   UNL     1      17.080  23.597   7.389  1.00  0.00    -0.000 C 
BRANCH  12  13
ATOM     13  C   UNL     1      17.178  24.844   8.280  1.00  0.00    -0.003 C 
ATOM     14  C   UNL     1      18.616  25.344   8.369  1.00  0.00     0.004 C 
ENDBRANCH  12  13
ENDBRANCH  11  12
ENDBRANCH  10  11
ENDBRANCH   9  10
ENDBRANCH   1   9
TORSDOF 9
ENDMDL
MODEL 9
REMARK VINA RESULT:    -4.645      2.858      4.396
REMARK INTER + INTRA:          -8.577
REMARK INTER:                  -7.294
REMARK INTRA:                  -1.283
REMARK UNBOUND:                -1.488
REMARK SMILES CCCCCCCCCC=CC(=O)[O-]
REMARK SMILES IDX 7 1 8 2 9 3 10 4 11 5 12 6 13 7 14 8 6 9 5 10 4 11 3 12 2 13
REMARK SMILES IDX 1 14
REMARK H PARENT
REMARK Flexibility Score: inf
ROOT
ATOM      1  C   UNL     1      18.135  25.292   8.390  1.00  0.00     0.000 C 
ENDROOT
BRANCH   1   2
ATOM      2  C   UNL     1      17.039  24.513   7.646  1.00  0.00     0.004 C 
BRANCH   2   3
ATOM      3  C   UNL     1      17.608  23.563   6.580  1.00  0.00     0.027 C 
BRANCH   3   4
ATOM      4  C   UNL     1      19.060  23.278   6.829  1.00  0.00    -0.025 C 
ATOM      5  C   UNL     1      19.712  22.325   6.152  1.00  0.00     0.020 C 
BRANCH   5   6
ATOM      6  C   UNL     1      21.138  22.038   6.370  1.00  0.00     0.064 C 
ATOM      7  O   UNL     1      21.729  22.427   7.413  1.00  0.00    -0.545 OA
ATOM      8  O   UNL     1      21.845  21.324   5.411  1.00  0.00    -0.545 OA
ENDBRANCH   5   6
ENDBRANCH   3   4
ENDBRANCH   2   3
ENDBRANCH   1   2
BRANCH   1   9
ATOM      9  C   UNL     1      18.102  25.053   9.907  1.00  0.00     0.000 C 
BRANCH   9  10
ATOM     10  C   UNL     1      16.900  24.186  10.301  1.00  0.00     0.000 C 
BRANCH  10  11
ATOM     11  C   UNL     1      17.333  23.026  11.210  1.00  0.00    -0.000 C 
BRANCH  11  12
ATOM     12  C   UNL     1      18.664  22.396  10.772  1.00  0.00    -0.000 C 
BRANCH  12  13
ATOM     13  C   UNL     1      18.475  21.233   9.788  1.00  0.00    -0.003 C 
ATOM     14  C   UNL     1      17.222  20.429  10.121  1.00  0.00     0.004 C 
ENDBRANCH  12  13
ENDBRANCH  11  12
ENDBRANCH  10  11
ENDBRANCH   9  10
ENDBRANCH   1   9
TORSDOF 9
ENDMDL
