MODEL 1
REMARK VINA RESULT:    -3.233      0.000      0.000
REMARK INTER + INTRA:         -11.114
REMARK INTER:                  -7.391
REMARK INTRA:                  -3.722
REMARK UNBOUND:                -3.722
REMARK SMILES CCCCCCCCCCCCCCCCCCCCCCCC(=O)[O-]
REMARK SMILES IDX 13 1 14 2 15 3 16 4 17 5 18 6 19 7 20 8 21 9 22 10 23 11
REMARK SMILES IDX 24 12 25 13 26 14 12 15 11 16 10 17 9 18 8 19 7 20 6 21 5 22
REMARK SMILES IDX 4 23 3 24 2 25 1 26
REMARK H PARENT
REMARK Flexibility Score: inf
ROOT
ATOM      1  C   UNL     1      -2.285   5.912  36.000  1.00  0.00     0.000 C 
ENDROOT
BRANCH   1   2
ATOM      2  C   UNL     1      -1.348   5.489  34.855  1.00  0.00     0.000 C 
BRANCH   2   3
ATOM      3  C   UNL     1      -1.044   3.983  34.869  1.00  0.00     0.000 C 
BRANCH   3   4
ATOM      4  C   UNL     1      -0.832   3.434  36.289  1.00  0.00     0.000 C 
BRANCH   4   5
ATOM      5  C   UNL     1       0.596   3.663  36.813  1.00  0.00     0.000 C 
BRANCH   5   6
ATOM      6  C   UNL     1       1.693   3.400  35.760  1.00  0.00     0.000 C 
BRANCH   6   7
ATOM      7  C   UNL     1       2.494   4.672  35.425  1.00  0.00     0.000 C 
BRANCH   7   8
ATOM      8  C   UNL     1       3.022   4.677  33.981  1.00  0.00     0.000 C 
BRANCH   8   9
ATOM      9  C   UNL     1       1.896   4.838  32.945  1.00  0.00     0.000 C 
BRANCH   9  10
ATOM     10  C   UNL     1       1.732   6.293  32.462  1.00  0.00     0.006 C 
BRANCH  10  11
ATOM     11  C   UNL     1       0.398   6.582  31.752  1.00  0.00     0.053 C 
BRANCH  11  12
ATOM     12  C   UNL     1       0.067   5.538  30.729  1.00  0.00     0.041 C 
ATOM     13  O   UNL     1       0.742   5.452  29.670  1.00  0.00    -0.550 OA
ATOM     14  O   UNL     1      -0.957   4.630  30.969  1.00  0.00    -0.550 OA
ENDBRANCH  11  12
ENDBRANCH  10  11
ENDBRANCH   9  10
ENDBRANCH   8   9
ENDBRANCH   7   8
ENDBRANCH   6   7
ENDBRANCH   5   6
ENDBRANCH   4   5
ENDBRANCH   3   4
ENDBRANCH   2   3
ENDBRANCH   1   2
BRANCH   1  15
ATOM     15  C   UNL     1      -1.799   7.182  36.718  1.00  0.00     0.000 C 
BRANCH  15  16
ATOM     16  C   UNL     1      -2.000   7.117  38.242  1.00  0.00     0.000 C 
BRANCH  16  17
ATOM     17  C   UNL     1      -2.400   5.714  38.728  1.00  0.00     0.000 C 
BRANCH  17  18
ATOM     18  C   UNL     1      -3.345   5.759  39.941  1.00  0.00    -0.000 C 
BRANCH  18  19
ATOM     19  C   UNL     1      -3.710   7.193  40.366  1.00  0.00    -0.000 C 
BRANCH  19  20
ATOM     20  C   UNL     1      -3.357   7.559  41.819  1.00  0.00    -0.000 C 
BRANCH  20  21
ATOM     21  C   UNL     1      -1.883   7.958  42.000  1.00  0.00    -0.000 C 
BRANCH  21  22
ATOM     22  C   UNL     1      -1.034   6.844  42.636  1.00  0.00    -0.000 C 
BRANCH  22  23
ATOM     23  C   UNL     1      -0.045   6.138  41.684  1.00  0.00    -0.000 C 
BRANCH  23  24
ATOM     24  C   UNL     1       0.697   7.067  40.705  1.00  0.00    -0.000 C 
BRANCH  24  25
ATOM     25  C   UNL     1       1.629   6.304  39.753  1.00  0.00    -0.003 C 
ATOM     26  C   UNL     1       1.549   6.866  38.336  1.00  0.00     0.004 C 
ENDBRANCH  24  25
ENDBRANCH  23  24
ENDBRANCH  22  23
ENDBRANCH  21  22
ENDBRANCH  20  21
ENDBRANCH  19  20
ENDBRANCH  18  19
ENDBRANCH  17  18
ENDBRANCH  16  17
ENDBRANCH  15  16
ENDBRANCH   1  15
TORSDOF 22
ENDMDL
MODEL 2
REMARK VINA RESULT:    -3.121      1.656      4.477
REMARK INTER + INTRA:         -10.857
REMARK INTER:                  -6.825
REMARK INTRA:                  -4.032
REMARK UNBOUND:                -3.722
REMARK SMILES CCCCCCCCCCCCCCCCCCCCCCCC(=O)[O-]
REMARK SMILES IDX 13 1 14 2 15 3 16 4 17 5 18 6 19 7 20 8 21 9 22 10 23 11
REMARK SMILES IDX 24 12 25 13 26 14 12 15 11 16 10 17 9 18 8 19 7 20 6 21 5 22
REMARK SMILES IDX 4 23 3 24 2 25 1 26
REMARK H PARENT
REMARK Flexibility Score: inf
ROOT
ATOM      1  C   UNL     1      -3.737   5.269  41.651  1.00  0.00     0.000 C 
ENDROOT
BRANCH   1   2
ATOM      2  C   UNL     1      -2.544   4.299  41.623  1.00  0.00     0.000 C 
BRANCH   2   3
ATOM      3  C   UNL     1      -1.283   4.894  42.269  1.00  0.00     0.000 C 
BRANCH   3   4
ATOM      4  C   UNL     1      -0.106   4.998  41.285  1.00  0.00     0.000 C 
BRANCH   4   5
ATOM      5  C   UNL     1      -0.513   4.700  39.832  1.00  0.00     0.000 C 
BRANCH   5   6
ATOM      6  C   UNL     1       0.356   3.622  39.153  1.00  0.00     0.000 C 
BRANCH   6   7
ATOM      7  C   UNL     1       1.319   4.222  38.112  1.00  0.00     0.000 C 
BRANCH   7   8
ATOM      8  C   UNL     1       1.437   3.358  36.846  1.00  0.00     0.000 C 
BRANCH   8   9
ATOM      9  C   UNL     1       0.909   4.078  35.592  1.00  0.00     0.000 C 
BRANCH   9  10
ATOM     10  C   UNL     1       1.936   5.054  34.986  1.00  0.00     0.006 C 
BRANCH  10  11
ATOM     11  C   UNL     1       2.031   5.006  33.451  1.00  0.00     0.053 C 
BRANCH  11  12
ATOM     12  C   UNL     1       1.398   6.204  32.811  1.00  0.00     0.041 C 
ATOM     13  O   UNL     1       0.437   6.791  33.374  1.00  0.00    -0.550 OA
ATOM     14  O   UNL     1       1.903   6.701  31.615  1.00  0.00    -0.550 OA
ENDBRANCH  11  12
ENDBRANCH  10  11
ENDBRANCH   9  10
ENDBRANCH   8   9
ENDBRANCH   7   8
ENDBRANCH   6   7
ENDBRANCH   5   6
ENDBRANCH   4   5
ENDBRANCH   3   4
ENDBRANCH   2   3
ENDBRANCH   1   2
BRANCH   1  15
ATOM     15  C   UNL     1      -3.905   6.033  40.328  1.00  0.00     0.000 C 
BRANCH  15  16
ATOM     16  C   UNL     1      -3.871   7.560  40.514  1.00  0.00     0.000 C 
BRANCH  16  17
ATOM     17  C   UNL     1      -2.603   8.202  39.926  1.00  0.00     0.000 C 
BRANCH  17  18
ATOM     18  C   UNL     1      -1.444   8.249  40.936  1.00  0.00    -0.000 C 
BRANCH  18  19
ATOM     19  C   UNL     1      -0.221   9.024  40.413  1.00  0.00    -0.000 C 
BRANCH  19  20
ATOM     20  C   UNL     1       0.853   8.170  39.716  1.00  0.00    -0.000 C 
BRANCH  20  21
ATOM     21  C   UNL     1       1.040   8.529  38.233  1.00  0.00    -0.000 C 
BRANCH  21  22
ATOM     22  C   UNL     1       0.424   7.487  37.282  1.00  0.00    -0.000 C 
BRANCH  22  23
ATOM     23  C   UNL     1      -0.641   8.029  36.305  1.00  0.00    -0.000 C 
BRANCH  23  24
ATOM     24  C   UNL     1      -2.044   7.413  36.460  1.00  0.00    -0.000 C 
BRANCH  24  25
ATOM     25  C   UNL     1      -2.145   6.005  35.855  1.00  0.00    -0.003 C 
ATOM     26  C   UNL     1      -2.554   4.980  36.909  1.00  0.00     0.004 C 
ENDBRANCH  24  25
ENDBRANCH  23  24
ENDBRANCH  22  23
ENDBRANCH  21  22
ENDBRANCH  20  21
ENDBRANCH  19  20
ENDBRANCH  18  19
ENDBRANCH  17  18
ENDBRANCH  16  17
ENDBRANCH  15  16
ENDBRANCH   1  15
TORSDOF 22
ENDMDL
MODEL 3
REMARK VINA RESULT:    -3.080      7.477     12.093
REMARK INTER + INTRA:         -10.763
REMARK INTER:                  -5.730
REMARK INTRA:                  -5.033
REMARK UNBOUND:                -3.722
REMARK SMILES CCCCCCCCCCCCCCCCCCCCCCCC(=O)[O-]
REMARK SMILES IDX 13 1 14 2 15 3 16 4 17 5 18 6 19 7 20 8 21 9 22 10 23 11
REMARK SMILES IDX 24 12 25 13 26 14 12 15 11 16 10 17 9 18 8 19 7 20 6 21 5 22
REMARK SMILES IDX 4 23 3 24 2 25 1 26
REMARK H PARENT
REMARK Flexibility Score: inf
ROOT
ATOM      1  C   UNL     1       4.494   6.860  26.529  1.00  0.00     0.000 C 
ENDROOT
BRANCH   1   2
ATOM      2  C   UNL     1       3.856   5.501  26.867  1.00  0.00     0.000 C 
BRANCH   2   3
ATOM      3  C   UNL     1       4.506   4.338  26.102  1.00  0.00     0.000 C 
BRANCH   3   4
ATOM      4  C   UNL     1       5.179   3.317  27.035  1.00  0.00     0.000 C 
BRANCH   4   5
ATOM      5  C   UNL     1       4.568   1.910  26.922  1.00  0.00     0.000 C 
BRANCH   5   6
ATOM      6  C   UNL     1       3.443   1.804  25.872  1.00  0.00     0.000 C 
BRANCH   6   7
ATOM      7  C   UNL     1       2.087   1.444  26.508  1.00  0.00     0.000 C 
BRANCH   7   8
ATOM      8  C   UNL     1       2.032   1.767  28.010  1.00  0.00     0.000 C 
BRANCH   8   9
ATOM      9  C   UNL     1       0.833   2.659  28.376  1.00  0.00     0.000 C 
BRANCH   9  10
ATOM     10  C   UNL     1       1.241   4.112  28.689  1.00  0.00     0.006 C 
BRANCH  10  11
ATOM     11  C   UNL     1       0.201   4.907  29.496  1.00  0.00     0.053 C 
BRANCH  11  12
ATOM     12  C   UNL     1       0.789   5.505  30.737  1.00  0.00     0.041 C 
ATOM     13  O   UNL     1       0.990   4.788  31.753  1.00  0.00    -0.550 OA
ATOM     14  O   UNL     1       1.160   6.844  30.755  1.00  0.00    -0.550 OA
ENDBRANCH  11  12
ENDBRANCH  10  11
ENDBRANCH   9  10
ENDBRANCH   8   9
ENDBRANCH   7   8
ENDBRANCH   6   7
ENDBRANCH   5   6
ENDBRANCH   4   5
ENDBRANCH   3   4
ENDBRANCH   2   3
ENDBRANCH   1   2
BRANCH   1  15
ATOM     15  C   UNL     1       3.478   8.012  26.566  1.00  0.00     0.000 C 
BRANCH  15  16
ATOM     16  C   UNL     1       2.308   7.743  27.529  1.00  0.00     0.000 C 
BRANCH  16  17
ATOM     17  C   UNL     1       0.937   7.846  26.840  1.00  0.00     0.000 C 
BRANCH  17  18
ATOM     18  C   UNL     1       1.031   8.456  25.431  1.00  0.00    -0.000 C 
BRANCH  18  19
ATOM     19  C   UNL     1      -0.116   8.011  24.505  1.00  0.00    -0.000 C 
BRANCH  19  20
ATOM     20  C   UNL     1       0.283   7.034  23.384  1.00  0.00    -0.000 C 
BRANCH  20  21
ATOM     21  C   UNL     1       1.689   6.441  23.574  1.00  0.00    -0.000 C 
BRANCH  21  22
ATOM     22  C   UNL     1       1.667   4.932  23.877  1.00  0.00    -0.000 C 
BRANCH  22  23
ATOM     23  C   UNL     1       0.781   4.507  25.067  1.00  0.00    -0.000 C 
BRANCH  23  24
ATOM     24  C   UNL     1      -0.378   3.556  24.714  1.00  0.00    -0.000 C 
BRANCH  24  25
ATOM     25  C   UNL     1      -1.590   3.726  25.641  1.00  0.00    -0.003 C 
ATOM     26  C   UNL     1      -1.674   5.151  26.183  1.00  0.00     0.004 C 
ENDBRANCH  24  25
ENDBRANCH  23  24
ENDBRANCH  22  23
ENDBRANCH  21  22
ENDBRANCH  20  21
ENDBRANCH  19  20
ENDBRANCH  18  19
ENDBRANCH  17  18
ENDBRANCH  16  17
ENDBRANCH  15  16
ENDBRANCH   1  15
TORSDOF 22
ENDMDL
MODEL 4
REMARK VINA RESULT:    -3.076      5.813     10.652
REMARK INTER + INTRA:         -10.755
REMARK INTER:                  -6.659
REMARK INTRA:                  -4.096
REMARK UNBOUND:                -3.722
REMARK SMILES CCCCCCCCCCCCCCCCCCCCCCCC(=O)[O-]
REMARK SMILES IDX 13 1 14 2 15 3 16 4 17 5 18 6 19 7 20 8 21 9 22 10 23 11
REMARK SMILES IDX 24 12 25 13 26 14 12 15 11 16 10 17 9 18 8 19 7 20 6 21 5 22
REMARK SMILES IDX 4 23 3 24 2 25 1 26
REMARK H PARENT
REMARK Flexibility Score: inf
ROOT
ATOM      1  C   UNL     1      -1.496   3.858  28.989  1.00  0.00     0.000 C 
ENDROOT
BRANCH   1   2
ATOM      2  C   UNL     1      -0.145   3.124  28.956  1.00  0.00     0.000 C 
BRANCH   2   3
ATOM      3  C   UNL     1       1.050   4.079  29.106  1.00  0.00     0.000 C 
BRANCH   3   4
ATOM      4  C   UNL     1       0.680   5.541  28.807  1.00  0.00     0.000 C 
BRANCH   4   5
ATOM      5  C   UNL     1       1.490   6.546  29.645  1.00  0.00     0.000 C 
BRANCH   5   6
ATOM      6  C   UNL     1       0.848   6.877  31.008  1.00  0.00     0.000 C 
BRANCH   6   7
ATOM      7  C   UNL     1       1.704   6.384  32.189  1.00  0.00     0.000 C 
BRANCH   7   8
ATOM      8  C   UNL     1       1.267   5.001  32.701  1.00  0.00     0.000 C 
BRANCH   8   9
ATOM      9  C   UNL     1      -0.238   4.751  32.504  1.00  0.00     0.000 C 
BRANCH   9  10
ATOM     10  C   UNL     1      -0.738   3.498  33.250  1.00  0.00     0.006 C 
BRANCH  10  11
ATOM     11  C   UNL     1      -1.564   2.529  32.387  1.00  0.00     0.053 C 
BRANCH  11  12
ATOM     12  C   UNL     1      -0.825   1.257  32.106  1.00  0.00     0.041 C 
ATOM     13  O   UNL     1       0.434   1.247  32.077  1.00  0.00    -0.550 OA
ATOM     14  O   UNL     1      -1.526   0.070  31.925  1.00  0.00    -0.550 OA
ENDBRANCH  11  12
ENDBRANCH  10  11
ENDBRANCH   9  10
ENDBRANCH   8   9
ENDBRANCH   7   8
ENDBRANCH   6   7
ENDBRANCH   5   6
ENDBRANCH   4   5
ENDBRANCH   3   4
ENDBRANCH   2   3
ENDBRANCH   1   2
BRANCH   1  15
ATOM     15  C   UNL     1      -2.330   3.612  27.721  1.00  0.00     0.000 C 
BRANCH  15  16
ATOM     16  C   UNL     1      -2.067   4.660  26.625  1.00  0.00     0.000 C 
BRANCH  16  17
ATOM     17  C   UNL     1      -1.121   4.145  25.527  1.00  0.00     0.000 C 
BRANCH  17  18
ATOM     18  C   UNL     1      -0.030   5.166  25.164  1.00  0.00    -0.000 C 
BRANCH  18  19
ATOM     19  C   UNL     1      -0.445   6.620  25.457  1.00  0.00    -0.000 C 
BRANCH  19  20
ATOM     20  C   UNL     1       0.056   7.665  24.443  1.00  0.00    -0.000 C 
BRANCH  20  21
ATOM     21  C   UNL     1       0.970   8.727  25.076  1.00  0.00    -0.000 C 
BRANCH  21  22
ATOM     22  C   UNL     1       1.442   8.347  26.490  1.00  0.00    -0.000 C 
BRANCH  22  23
ATOM     23  C   UNL     1       2.895   8.741  26.833  1.00  0.00    -0.000 C 
BRANCH  23  24
ATOM     24  C   UNL     1       3.954   7.666  26.524  1.00  0.00    -0.000 C 
BRANCH  24  25
ATOM     25  C   UNL     1       3.339   6.351  26.026  1.00  0.00    -0.003 C 
ATOM     26  C   UNL     1       3.790   5.171  26.883  1.00  0.00     0.004 C 
ENDBRANCH  24  25
ENDBRANCH  23  24
ENDBRANCH  22  23
ENDBRANCH  21  22
ENDBRANCH  20  21
ENDBRANCH  19  20
ENDBRANCH  18  19
ENDBRANCH  17  18
ENDBRANCH  16  17
ENDBRANCH  15  16
ENDBRANCH   1  15
TORSDOF 22
ENDMDL
MODEL 5
REMARK VINA RESULT:    -3.062      2.405      5.072
REMARK INTER + INTRA:         -10.723
REMARK INTER:                  -6.246
REMARK INTRA:                  -4.477
REMARK UNBOUND:                -3.722
REMARK SMILES CCCCCCCCCCCCCCCCCCCCCCCC(=O)[O-]
REMARK SMILES IDX 13 1 14 2 15 3 16 4 17 5 18 6 19 7 20 8 21 9 22 10 23 11
REMARK SMILES IDX 24 12 25 13 26 14 12 15 11 16 10 17 9 18 8 19 7 20 6 21 5 22
REMARK SMILES IDX 4 23 3 24 2 25 1 26
REMARK H PARENT
REMARK Flexibility Score: inf
ROOT
ATOM      1  C   UNL     1      -1.103   4.705  40.970  1.00  0.00     0.000 C 
ENDROOT
BRANCH   1   2
ATOM      2  C   UNL     1       0.236   5.393  41.285  1.00  0.00     0.000 C 
BRANCH   2   3
ATOM      3  C   UNL     1       0.444   6.681  40.473  1.00  0.00     0.000 C 
BRANCH   3   4
ATOM      4  C   UNL     1       1.728   6.648  39.629  1.00  0.00     0.000 C 
BRANCH   4   5
ATOM      5  C   UNL     1       1.449   6.577  38.118  1.00  0.00     0.000 C 
BRANCH   5   6
ATOM      6  C   UNL     1       2.059   5.338  37.431  1.00  0.00     0.000 C 
BRANCH   6   7
ATOM      7  C   UNL     1       2.781   4.415  38.430  1.00  0.00     0.000 C 
BRANCH   7   8
ATOM      8  C   UNL     1       1.939   3.189  38.820  1.00  0.00     0.000 C 
BRANCH   8   9
ATOM      9  C   UNL     1       0.668   3.053  37.963  1.00  0.00     0.000 C 
BRANCH   9  10
ATOM     10  C   UNL     1       0.686   1.803  37.061  1.00  0.00     0.006 C 
BRANCH  10  11
ATOM     11  C   UNL     1       1.658   1.890  35.871  1.00  0.00     0.053 C 
BRANCH  11  12
ATOM     12  C   UNL     1       0.946   1.797  34.556  1.00  0.00     0.041 C 
ATOM     13  O   UNL     1       0.119   0.871  34.346  1.00  0.00    -0.550 OA
ATOM     14  O   UNL     1       1.160   2.763  33.580  1.00  0.00    -0.550 OA
ENDBRANCH  11  12
ENDBRANCH  10  11
ENDBRANCH   9  10
ENDBRANCH   8   9
ENDBRANCH   7   8
ENDBRANCH   6   7
ENDBRANCH   5   6
ENDBRANCH   4   5
ENDBRANCH   3   4
ENDBRANCH   2   3
ENDBRANCH   1   2
BRANCH   1  15
ATOM     15  C   UNL     1      -1.906   5.449  39.891  1.00  0.00     0.000 C 
BRANCH  15  16
ATOM     16  C   UNL     1      -3.395   5.592  40.251  1.00  0.00     0.000 C 
BRANCH  16  17
ATOM     17  C   UNL     1      -3.824   7.058  40.432  1.00  0.00     0.000 C 
BRANCH  17  18
ATOM     18  C   UNL     1      -2.640   8.035  40.326  1.00  0.00    -0.000 C 
BRANCH  18  19
ATOM     19  C   UNL     1      -2.732   8.959  39.097  1.00  0.00    -0.000 C 
BRANCH  19  20
ATOM     20  C   UNL     1      -1.482   8.985  38.198  1.00  0.00    -0.000 C 
BRANCH  20  21
ATOM     21  C   UNL     1      -1.757   8.485  36.770  1.00  0.00    -0.000 C 
BRANCH  21  22
ATOM     22  C   UNL     1      -1.780   6.949  36.668  1.00  0.00    -0.000 C 
BRANCH  22  23
ATOM     23  C   UNL     1      -1.102   6.359  35.413  1.00  0.00    -0.000 C 
BRANCH  23  24
ATOM     24  C   UNL     1      -1.165   4.825  35.297  1.00  0.00    -0.000 C 
BRANCH  24  25
ATOM     25  C   UNL     1      -2.309   4.212  36.117  1.00  0.00    -0.003 C 
ATOM     26  C   UNL     1      -2.606   2.784  35.669  1.00  0.00     0.004 C 
ENDBRANCH  24  25
ENDBRANCH  23  24
ENDBRANCH  22  23
ENDBRANCH  21  22
ENDBRANCH  20  21
ENDBRANCH  19  20
ENDBRANCH  18  19
ENDBRANCH  17  18
ENDBRANCH  16  17
ENDBRANCH  15  16
ENDBRANCH   1  15
TORSDOF 22
ENDMDL
MODEL 6
REMARK VINA RESULT:    -3.062      2.434      3.559
REMARK INTER + INTRA:         -10.722
REMARK INTER:                  -8.335
REMARK INTRA:                  -2.387
REMARK UNBOUND:                -3.722
REMARK SMILES CCCCCCCCCCCCCCCCCCCCCCCC(=O)[O-]
REMARK SMILES IDX 13 1 14 2 15 3 16 4 17 5 18 6 19 7 20 8 21 9 22 10 23 11
REMARK SMILES IDX 24 12 25 13 26 14 12 15 11 16 10 17 9 18 8 19 7 20 6 21 5 22
REMARK SMILES IDX 4 23 3 24 2 25 1 26
REMARK H PARENT
REMARK Flexibility Score: inf
ROOT
ATOM      1  C   UNL     1      -2.035   5.994  35.725  1.00  0.00     0.000 C 
ENDROOT
BRANCH   1   2
ATOM      2  C   UNL     1      -1.115   5.836  34.503  1.00  0.00     0.000 C 
BRANCH   2   3
ATOM      3  C   UNL     1      -0.730   4.371  34.239  1.00  0.00     0.000 C 
BRANCH   3   4
ATOM      4  C   UNL     1       0.571   4.237  33.431  1.00  0.00     0.000 C 
BRANCH   4   5
ATOM      5  C   UNL     1       1.549   5.399  33.675  1.00  0.00     0.000 C 
BRANCH   5   6
ATOM      6  C   UNL     1       1.990   6.120  32.385  1.00  0.00     0.000 C 
BRANCH   6   7
ATOM      7  C   UNL     1       0.799   6.731  31.624  1.00  0.00     0.000 C 
BRANCH   7   8
ATOM      8  C   UNL     1       1.043   6.815  30.109  1.00  0.00     0.000 C 
BRANCH   8   9
ATOM      9  C   UNL     1       1.680   8.152  29.689  1.00  0.00     0.000 C 
BRANCH   9  10
ATOM     10  C   UNL     1       1.189   8.643  28.314  1.00  0.00     0.006 C 
BRANCH  10  11
ATOM     11  C   UNL     1       2.306   9.124  27.372  1.00  0.00     0.053 C 
BRANCH  11  12
ATOM     12  C   UNL     1       2.726   8.058  26.407  1.00  0.00     0.041 C 
ATOM     13  O   UNL     1       2.106   7.905  25.321  1.00  0.00    -0.550 OA
ATOM     14  O   UNL     1       3.833   7.265  26.685  1.00  0.00    -0.550 OA
ENDBRANCH  11  12
ENDBRANCH  10  11
ENDBRANCH   9  10
ENDBRANCH   8   9
ENDBRANCH   7   8
ENDBRANCH   6   7
ENDBRANCH   5   6
ENDBRANCH   4   5
ENDBRANCH   3   4
ENDBRANCH   2   3
ENDBRANCH   1   2
BRANCH   1  15
ATOM     15  C   UNL     1      -1.826   7.334  36.449  1.00  0.00     0.000 C 
BRANCH  15  16
ATOM     16  C   UNL     1      -1.508   7.158  37.944  1.00  0.00     0.000 C 
BRANCH  16  17
ATOM     17  C   UNL     1      -0.897   5.782  38.262  1.00  0.00     0.000 C 
BRANCH  17  18
ATOM     18  C   UNL     1      -1.754   4.971  39.248  1.00  0.00    -0.000 C 
BRANCH  18  19
ATOM     19  C   UNL     1      -3.257   5.287  39.139  1.00  0.00    -0.000 C 
BRANCH  19  20
ATOM     20  C   UNL     1      -3.955   5.640  40.465  1.00  0.00    -0.000 C 
BRANCH  20  21
ATOM     21  C   UNL     1      -4.007   7.153  40.734  1.00  0.00    -0.000 C 
BRANCH  21  22
ATOM     22  C   UNL     1      -3.355   7.547  42.071  1.00  0.00    -0.000 C 
BRANCH  22  23
ATOM     23  C   UNL     1      -1.944   8.161  41.965  1.00  0.00    -0.000 C 
BRANCH  23  24
ATOM     24  C   UNL     1      -0.790   7.144  41.902  1.00  0.00    -0.000 C 
BRANCH  24  25
ATOM     25  C   UNL     1       0.466   7.710  41.224  1.00  0.00    -0.003 C 
ATOM     26  C   UNL     1       0.157   9.011  40.489  1.00  0.00     0.004 C 
ENDBRANCH  24  25
ENDBRANCH  23  24
ENDBRANCH  22  23
ENDBRANCH  21  22
ENDBRANCH  20  21
ENDBRANCH  19  20
ENDBRANCH  18  19
ENDBRANCH  17  18
ENDBRANCH  16  17
ENDBRANCH  15  16
ENDBRANCH   1  15
TORSDOF 22
ENDMDL
MODEL 7
REMARK VINA RESULT:    -2.990      4.192     10.455
REMARK INTER + INTRA:         -10.558
REMARK INTER:                  -7.306
REMARK INTRA:                  -3.252
REMARK UNBOUND:                -3.722
REMARK SMILES CCCCCCCCCCCCCCCCCCCCCCCC(=O)[O-]
REMARK SMILES IDX 13 1 14 2 15 3 16 4 17 5 18 6 19 7 20 8 21 9 22 10 23 11
REMARK SMILES IDX 24 12 25 13 26 14 12 15 11 16 10 17 9 18 8 19 7 20 6 21 5 22
REMARK SMILES IDX 4 23 3 24 2 25 1 26
REMARK H PARENT
REMARK Flexibility Score: inf
ROOT
ATOM      1  C   UNL     1      -1.396   3.955  30.225  1.00  0.00     0.000 C 
ENDROOT
BRANCH   1   2
ATOM      2  C   UNL     1      -0.044   3.227  30.138  1.00  0.00     0.000 C 
BRANCH   2   3
ATOM      3  C   UNL     1       0.984   3.991  29.288  1.00  0.00     0.000 C 
BRANCH   3   4
ATOM      4  C   UNL     1       0.532   5.423  28.958  1.00  0.00     0.000 C 
BRANCH   4   5
ATOM      5  C   UNL     1       1.378   6.496  29.666  1.00  0.00     0.000 C 
BRANCH   5   6
ATOM      6  C   UNL     1       0.826   6.911  31.045  1.00  0.00     0.000 C 
BRANCH   6   7
ATOM      7  C   UNL     1       1.724   6.430  32.200  1.00  0.00     0.000 C 
BRANCH   7   8
ATOM      8  C   UNL     1       1.086   5.288  33.009  1.00  0.00     0.000 C 
BRANCH   8   9
ATOM      9  C   UNL     1      -0.391   5.559  33.344  1.00  0.00     0.000 C 
BRANCH   9  10
ATOM     10  C   UNL     1      -0.949   4.596  34.410  1.00  0.00     0.006 C 
BRANCH  10  11
ATOM     11  C   UNL     1      -0.621   4.991  35.860  1.00  0.00     0.053 C 
BRANCH  11  12
ATOM     12  C   UNL     1      -1.805   5.579  36.564  1.00  0.00     0.041 C 
ATOM     13  O   UNL     1      -1.954   6.828  36.620  1.00  0.00    -0.550 OA
ATOM     14  O   UNL     1      -2.770   4.745  37.117  1.00  0.00    -0.550 OA
ENDBRANCH  11  12
ENDBRANCH  10  11
ENDBRANCH   9  10
ENDBRANCH   8   9
ENDBRANCH   7   8
ENDBRANCH   6   7
ENDBRANCH   5   6
ENDBRANCH   4   5
ENDBRANCH   3   4
ENDBRANCH   2   3
ENDBRANCH   1   2
BRANCH   1  15
ATOM     15  C   UNL     1      -2.500   3.241  29.428  1.00  0.00     0.000 C 
BRANCH  15  16
ATOM     16  C   UNL     1      -2.781   3.909  28.071  1.00  0.00     0.000 C 
BRANCH  16  17
ATOM     17  C   UNL     1      -2.499   2.976  26.881  1.00  0.00     0.000 C 
BRANCH  17  18
ATOM     18  C   UNL     1      -1.632   3.646  25.801  1.00  0.00    -0.000 C 
BRANCH  18  19
ATOM     19  C   UNL     1      -1.531   5.173  25.972  1.00  0.00    -0.000 C 
BRANCH  19  20
ATOM     20  C   UNL     1      -0.255   5.817  25.402  1.00  0.00    -0.000 C 
BRANCH  20  21
ATOM     21  C   UNL     1      -0.341   7.350  25.315  1.00  0.00    -0.000 C 
BRANCH  21  22
ATOM     22  C   UNL     1       0.576   8.061  26.326  1.00  0.00    -0.000 C 
BRANCH  22  23
ATOM     23  C   UNL     1       1.683   8.943  25.711  1.00  0.00    -0.000 C 
BRANCH  23  24
ATOM     24  C   UNL     1       3.086   8.748  26.316  1.00  0.00    -0.000 C 
BRANCH  24  25
ATOM     25  C   UNL     1       3.253   7.385  27.003  1.00  0.00    -0.003 C 
ATOM     26  C   UNL     1       4.243   6.504  26.247  1.00  0.00     0.004 C 
ENDBRANCH  24  25
ENDBRANCH  23  24
ENDBRANCH  22  23
ENDBRANCH  21  22
ENDBRANCH  20  21
ENDBRANCH  19  20
ENDBRANCH  18  19
ENDBRANCH  17  18
ENDBRANCH  16  17
ENDBRANCH  15  16
ENDBRANCH   1  15
TORSDOF 22
ENDMDL
MODEL 8
REMARK VINA RESULT:    -2.967      6.163     11.565
REMARK INTER + INTRA:         -10.505
REMARK INTER:                  -6.689
REMARK INTRA:                  -3.816
REMARK UNBOUND:                -3.722
REMARK SMILES CCCCCCCCCCCCCCCCCCCCCCCC(=O)[O-]
REMARK SMILES IDX 13 1 14 2 15 3 16 4 17 5 18 6 19 7 20 8 21 9 22 10 23 11
REMARK SMILES IDX 24 12 25 13 26 14 12 15 11 16 10 17 9 18 8 19 7 20 6 21 5 22
REMARK SMILES IDX 4 23 3 24 2 25 1 26
REMARK H PARENT
REMARK Flexibility Score: inf
ROOT
ATOM      1  C   UNL     1       0.471   8.303  25.001  1.00  0.00     0.000 C 
ENDROOT
BRANCH   1   2
ATOM      2  C   UNL     1       1.852   8.979  25.042  1.00  0.00     0.000 C 
BRANCH   2   3
ATOM      3  C   UNL     1       2.396   9.125  26.472  1.00  0.00     0.000 C 
BRANCH   3   4
ATOM      4  C   UNL     1       1.317   8.893  27.542  1.00  0.00     0.000 C 
BRANCH   4   5
ATOM      5  C   UNL     1       1.904   8.690  28.950  1.00  0.00     0.000 C 
BRANCH   5   6
ATOM      6  C   UNL     1       0.942   9.086  30.087  1.00  0.00     0.000 C 
BRANCH   6   7
ATOM      7  C   UNL     1       0.802   7.976  31.145  1.00  0.00     0.000 C 
BRANCH   7   8
ATOM      8  C   UNL     1       1.426   6.645  30.694  1.00  0.00     0.000 C 
BRANCH   8   9
ATOM      9  C   UNL     1       0.372   5.641  30.196  1.00  0.00     0.000 C 
BRANCH   9  10
ATOM     10  C   UNL     1       0.738   4.180  30.520  1.00  0.00     0.006 C 
BRANCH  10  11
ATOM     11  C   UNL     1       0.885   3.877  32.021  1.00  0.00     0.053 C 
BRANCH  11  12
ATOM     12  C   UNL     1      -0.444   3.739  32.700  1.00  0.00     0.041 C 
ATOM     13  O   UNL     1      -0.702   4.411  33.733  1.00  0.00    -0.550 OA
ATOM     14  O   UNL     1      -1.415   2.902  32.162  1.00  0.00    -0.550 OA
ENDBRANCH  11  12
ENDBRANCH  10  11
ENDBRANCH   9  10
ENDBRANCH   8   9
ENDBRANCH   7   8
ENDBRANCH   6   7
ENDBRANCH   5   6
ENDBRANCH   4   5
ENDBRANCH   3   4
ENDBRANCH   2   3
ENDBRANCH   1   2
BRANCH   1  15
ATOM     15  C   UNL     1       0.104   7.799  23.596  1.00  0.00     0.000 C 
BRANCH  15  16
ATOM     16  C   UNL     1       0.499   6.329  23.370  1.00  0.00     0.000 C 
BRANCH  16  17
ATOM     17  C   UNL     1       0.187   5.438  24.584  1.00  0.00     0.000 C 
BRANCH  17  18
ATOM     18  C   UNL     1       1.458   4.898  25.260  1.00  0.00    -0.000 C 
BRANCH  18  19
ATOM     19  C   UNL     1       1.485   5.148  26.779  1.00  0.00    -0.000 C 
BRANCH  19  20
ATOM     20  C   UNL     1       2.855   5.543  27.359  1.00  0.00    -0.000 C 
BRANCH  20  21
ATOM     21  C   UNL     1       3.894   5.876  26.276  1.00  0.00    -0.000 C 
BRANCH  21  22
ATOM     22  C   UNL     1       5.176   5.033  26.396  1.00  0.00    -0.000 C 
BRANCH  22  23
ATOM     23  C   UNL     1       4.993   3.632  27.019  1.00  0.00    -0.000 C 
BRANCH  23  24
ATOM     24  C   UNL     1       4.565   2.530  26.033  1.00  0.00    -0.000 C 
BRANCH  24  25
ATOM     25  C   UNL     1       3.239   1.863  26.426  1.00  0.00    -0.003 C 
ATOM     26  C   UNL     1       3.115   1.733  27.941  1.00  0.00     0.004 C 
ENDBRANCH  24  25
ENDBRANCH  23  24
ENDBRANCH  22  23
ENDBRANCH  21  22
ENDBRANCH  20  21
ENDBRANCH  19  20
ENDBRANCH  18  19
ENDBRANCH  17  18
ENDBRANCH  16  17
ENDBRANCH  15  16
ENDBRANCH   1  15
TORSDOF 22
ENDMDL
MODEL 9
REMARK VINA RESULT:    -1.576      2.621      4.383
REMARK INTER + INTRA:          -7.325
REMARK INTER:                  -3.604
REMARK INTRA:                  -3.721
REMARK UNBOUND:                -3.722
REMARK SMILES CCCCCCCCCCCCCCCCCCCCCCCC(=O)[O-]
REMARK SMILES IDX 13 1 14 2 15 3 16 4 17 5 18 6 19 7 20 8 21 9 22 10 23 11
REMARK SMILES IDX 24 12 25 13 26 14 12 15 11 16 10 17 9 18 8 19 7 20 6 21 5 22
REMARK SMILES IDX 4 23 3 24 2 25 1 26
REMARK H PARENT
REMARK Flexibility Score: inf
ROOT
ATOM      1  C   UNL     1       1.654   4.126  37.962  1.00  0.00     0.000 C 
ENDROOT
BRANCH   1   2
ATOM      2  C   UNL     1       0.146   3.847  38.090  1.00  0.00     0.000 C 
BRANCH   2   3
ATOM      3  C   UNL     1      -0.529   3.617  36.729  1.00  0.00     0.000 C 
BRANCH   3   4
ATOM      4  C   UNL     1      -1.769   4.504  36.526  1.00  0.00     0.000 C 
BRANCH   4   5
ATOM      5  C   UNL     1      -1.567   5.575  35.440  1.00  0.00     0.000 C 
BRANCH   5   6
ATOM      6  C   UNL     1      -0.867   5.047  34.171  1.00  0.00     0.000 C 
BRANCH   6   7
ATOM      7  C   UNL     1       0.351   5.904  33.779  1.00  0.00     0.000 C 
BRANCH   7   8
ATOM      8  C   UNL     1       1.556   5.056  33.340  1.00  0.00     0.000 C 
BRANCH   8   9
ATOM      9  C   UNL     1       2.475   4.688  34.517  1.00  0.00     0.000 C 
BRANCH   9  10
ATOM     10  C   UNL     1       3.945   4.504  34.093  1.00  0.00     0.006 C 
BRANCH  10  11
ATOM     11  C   UNL     1       4.760   3.571  35.006  1.00  0.00     0.053 C 
BRANCH  11  12
ATOM     12  C   UNL     1       5.979   3.036  34.319  1.00  0.00     0.041 C 
ATOM     13  O   UNL     1       7.125   3.265  34.788  1.00  0.00    -0.550 OA
ATOM     14  O   UNL     1       5.846   2.242  33.185  1.00  0.00    -0.550 OA
ENDBRANCH  11  12
ENDBRANCH  10  11
ENDBRANCH   9  10
ENDBRANCH   8   9
ENDBRANCH   7   8
ENDBRANCH   6   7
ENDBRANCH   5   6
ENDBRANCH   4   5
ENDBRANCH   3   4
ENDBRANCH   2   3
ENDBRANCH   1   2
BRANCH   1  15
ATOM     15  C   UNL     1       2.013   5.582  38.299  1.00  0.00     0.000 C 
BRANCH  15  16
ATOM     16  C   UNL     1       1.459   6.584  37.272  1.00  0.00     0.000 C 
BRANCH  16  17
ATOM     17  C   UNL     1       0.804   7.809  37.933  1.00  0.00     0.000 C 
BRANCH  17  18
ATOM     18  C   UNL     1       0.329   8.849  36.904  1.00  0.00    -0.000 C 
BRANCH  18  19
ATOM     19  C   UNL     1      -1.184   9.125  36.982  1.00  0.00    -0.000 C 
BRANCH  19  20
ATOM     20  C   UNL     1      -1.983   8.168  37.885  1.00  0.00    -0.000 C 
BRANCH  20  21
ATOM     21  C   UNL     1      -2.645   8.878  39.078  1.00  0.00    -0.000 C 
BRANCH  21  22
ATOM     22  C   UNL     1      -2.776   7.973  40.316  1.00  0.00    -0.000 C 
BRANCH  22  23
ATOM     23  C   UNL     1      -3.213   6.520  40.032  1.00  0.00    -0.000 C 
BRANCH  23  24
ATOM     24  C   UNL     1      -2.135   5.451  40.290  1.00  0.00    -0.000 C 
BRANCH  24  25
ATOM     25  C   UNL     1      -1.353   5.696  41.589  1.00  0.00    -0.003 C 
ATOM     26  C   UNL     1       0.104   6.045  41.297  1.00  0.00     0.004 C 
ENDBRANCH  24  25
ENDBRANCH  23  24
ENDBRANCH  22  23
ENDBRANCH  21  22
ENDBRANCH  20  21
ENDBRANCH  19  20
ENDBRANCH  18  19
ENDBRANCH  17  18
ENDBRANCH  16  17
ENDBRANCH  15  16
ENDBRANCH   1  15
TORSDOF 22
ENDMDL
