MODEL 1
REMARK VINA RESULT:     7.595      0.000      0.000
REMARK INTER + INTRA:          13.185
REMARK INTER:                  14.255
REMARK INTRA:                  -1.070
REMARK UNBOUND:                -1.070
REMARK SMILES O=C([O-])CCCCCCCCCCCCCCC(=O)[O-]
REMARK SMILES IDX 10 1 9 2 8 3 7 4 6 5 5 6 4 7 2 8 1 9 3 10 11 11 12 12 13 13
REMARK SMILES IDX 14 14 15 15 16 16 17 17 18 18 19 19 20 20
REMARK H PARENT
REMARK Flexibility Score: inf
ROOT
ATOM      1  C   UNL     1      34.716  15.878  43.903  1.00  0.00     0.000 C 
ENDROOT
BRANCH   1   2
ATOM      2  C   UNL     1      34.794  17.322  43.381  1.00  0.00     0.000 C 
BRANCH   2   3
ATOM      3  C   UNL     1      33.705  17.637  42.345  1.00  0.00     0.000 C 
BRANCH   3   4
ATOM      4  C   UNL     1      34.036  17.000  40.990  1.00  0.00     0.000 C 
BRANCH   4   5
ATOM      5  C   UNL     1      34.464  18.063  39.971  1.00  0.00     0.000 C 
BRANCH   5   6
ATOM      6  C   UNL     1      33.526  18.069  38.755  1.00  0.00     0.006 C 
BRANCH   6   7
ATOM      7  C   UNL     1      32.208  18.801  39.041  1.00  0.00     0.053 C 
BRANCH   7   8
ATOM      8  C   UNL     1      31.318  18.832  37.837  1.00  0.00     0.041 C 
ATOM      9  O   UNL     1      31.013  19.930  37.302  1.00  0.00    -0.550 OA
ATOM     10  O   UNL     1      30.852  17.645  37.286  1.00  0.00    -0.550 OA
ENDBRANCH   7   8
ENDBRANCH   6   7
ENDBRANCH   5   6
ENDBRANCH   4   5
ENDBRANCH   3   4
ENDBRANCH   2   3
ENDBRANCH   1   2
BRANCH   1  11
ATOM     11  C   UNL     1      36.098  15.286  44.216  1.00  0.00     0.000 C 
BRANCH  11  12
ATOM     12  C   UNL     1      36.376  14.052  43.348  1.00  0.00     0.000 C 
BRANCH  12  13
ATOM     13  C   UNL     1      35.091  13.545  42.682  1.00  0.00     0.000 C 
BRANCH  13  14
ATOM     14  C   UNL     1      35.383  12.980  41.284  1.00  0.00     0.000 C 
BRANCH  14  15
ATOM     15  C   UNL     1      34.353  13.430  40.235  1.00  0.00     0.000 C 
BRANCH  15  16
ATOM     16  C   UNL     1      33.231  12.398  40.026  1.00  0.00     0.006 C 
BRANCH  16  17
ATOM     17  C   UNL     1      33.361  11.202  40.978  1.00  0.00     0.053 C 
BRANCH  17  18
ATOM     18  C   UNL     1      33.266   9.897  40.248  1.00  0.00     0.041 C 
ATOM     19  O   UNL     1      32.141   9.403  39.975  1.00  0.00    -0.550 OA
ATOM     20  O   UNL     1      34.423   9.212  39.895  1.00  0.00    -0.550 OA
ENDBRANCH  17  18
ENDBRANCH  16  17
ENDBRANCH  15  16
ENDBRANCH  14  15
ENDBRANCH  13  14
ENDBRANCH  12  13
ENDBRANCH  11  12
ENDBRANCH   1  11
TORSDOF 15
ENDMDL
MODEL 2
REMARK VINA RESULT:     7.666      0.431      6.885
REMARK INTER + INTRA:          13.319
REMARK INTER:                  14.378
REMARK INTRA:                  -1.059
REMARK UNBOUND:                -1.070
REMARK SMILES O=C([O-])CCCCCCCCCCCCCCC(=O)[O-]
REMARK SMILES IDX 10 1 9 2 8 3 7 4 6 5 5 6 4 7 2 8 1 9 3 10 11 11 12 12 13 13
REMARK SMILES IDX 14 14 15 15 16 16 17 17 18 18 19 19 20 20
REMARK H PARENT
REMARK Flexibility Score: inf
ROOT
ATOM      1  C   UNL     1      36.505  15.296  44.113  1.00  0.00     0.000 C 
ENDROOT
BRANCH   1   2
ATOM      2  C   UNL     1      36.569  13.956  43.363  1.00  0.00     0.000 C 
BRANCH   2   3
ATOM      3  C   UNL     1      35.232  13.581  42.707  1.00  0.00     0.000 C 
BRANCH   3   4
ATOM      4  C   UNL     1      35.459  12.803  41.405  1.00  0.00     0.000 C 
BRANCH   4   5
ATOM      5  C   UNL     1      34.431  13.201  40.339  1.00  0.00     0.000 C 
BRANCH   5   6
ATOM      6  C   UNL     1      33.159  12.348  40.457  1.00  0.00     0.006 C 
BRANCH   6   7
ATOM      7  C   UNL     1      33.420  11.009  41.160  1.00  0.00     0.053 C 
BRANCH   7   8
ATOM      8  C   UNL     1      33.427   9.866  40.191  1.00  0.00     0.041 C 
ATOM      9  O   UNL     1      34.496   9.248  39.947  1.00  0.00    -0.550 OA
ATOM     10  O   UNL     1      32.245   9.464  39.583  1.00  0.00    -0.550 OA
ENDBRANCH   7   8
ENDBRANCH   6   7
ENDBRANCH   5   6
ENDBRANCH   4   5
ENDBRANCH   3   4
ENDBRANCH   2   3
ENDBRANCH   1   2
BRANCH   1  11
ATOM     11  C   UNL     1      35.066  15.784  44.334  1.00  0.00     0.000 C 
BRANCH  11  12
ATOM     12  C   UNL     1      34.816  17.108  43.602  1.00  0.00     0.000 C 
BRANCH  12  13
ATOM     13  C   UNL     1      33.620  16.994  42.649  1.00  0.00     0.000 C 
BRANCH  13  14
ATOM     14  C   UNL     1      33.777  17.946  41.455  1.00  0.00     0.000 C 
BRANCH  14  15
ATOM     15  C   UNL     1      34.017  17.202  40.131  1.00  0.00     0.000 C 
BRANCH  15  16
ATOM     16  C   UNL     1      33.626  18.041  38.901  1.00  0.00     0.006 C 
BRANCH  16  17
ATOM     17  C   UNL     1      32.313  18.806  39.116  1.00  0.00     0.053 C 
BRANCH  17  18
ATOM     18  C   UNL     1      31.485  18.852  37.870  1.00  0.00     0.041 C 
ATOM     19  O   UNL     1      31.108  17.783  37.318  1.00  0.00    -0.550 OA
ATOM     20  O   UNL     1      31.152  20.075  37.299  1.00  0.00    -0.550 OA
ENDBRANCH  17  18
ENDBRANCH  16  17
ENDBRANCH  15  16
ENDBRANCH  14  15
ENDBRANCH  13  14
ENDBRANCH  12  13
ENDBRANCH  11  12
ENDBRANCH   1  11
TORSDOF 15
ENDMDL
MODEL 3
REMARK VINA RESULT:    10.501      3.623      5.997
REMARK INTER + INTRA:          18.639
REMARK INTER:                  19.354
REMARK INTRA:                  -0.715
REMARK UNBOUND:                -1.070
REMARK SMILES O=C([O-])CCCCCCCCCCCCCCC(=O)[O-]
REMARK SMILES IDX 10 1 9 2 8 3 7 4 6 5 5 6 4 7 2 8 1 9 3 10 11 11 12 12 13 13
REMARK SMILES IDX 14 14 15 15 16 16 17 17 18 18 19 19 20 20
REMARK H PARENT
REMARK Flexibility Score: inf
ROOT
ATOM      1  C   UNL     1      33.323  12.345  40.402  1.00  0.00     0.000 C 
ENDROOT
BRANCH   1   2
ATOM      2  C   UNL     1      34.541  13.282  40.354  1.00  0.00     0.000 C 
BRANCH   2   3
ATOM      3  C   UNL     1      35.594  12.940  41.419  1.00  0.00     0.000 C 
BRANCH   3   4
ATOM      4  C   UNL     1      35.221  13.549  42.776  1.00  0.00     0.000 C 
BRANCH   4   5
ATOM      5  C   UNL     1      36.467  14.052  43.514  1.00  0.00     0.000 C 
BRANCH   5   6
ATOM      6  C   UNL     1      36.238  15.461  44.082  1.00  0.00     0.006 C 
BRANCH   6   7
ATOM      7  C   UNL     1      34.767  15.888  44.002  1.00  0.00     0.053 C 
BRANCH   7   8
ATOM      8  C   UNL     1      34.612  17.226  43.345  1.00  0.00     0.041 C 
ATOM      9  O   UNL     1      35.500  18.107  43.485  1.00  0.00    -0.550 OA
ATOM     10  O   UNL     1      33.502  17.486  42.553  1.00  0.00    -0.550 OA
ENDBRANCH   7   8
ENDBRANCH   6   7
ENDBRANCH   5   6
ENDBRANCH   4   5
ENDBRANCH   3   4
ENDBRANCH   2   3
ENDBRANCH   1   2
BRANCH   1  11
ATOM     11  C   UNL     1      33.628  11.015  41.106  1.00  0.00     0.000 C 
BRANCH  11  12
ATOM     12  C   UNL     1      34.007   9.930  40.090  1.00  0.00     0.000 C 
BRANCH  12  13
ATOM     13  C   UNL     1      32.766   9.173  39.603  1.00  0.00     0.000 C 
BRANCH  13  14
ATOM     14  C   UNL     1      31.757   8.979  40.744  1.00  0.00     0.000 C 
BRANCH  14  15
ATOM     15  C   UNL     1      30.435   8.355  40.269  1.00  0.00     0.000 C 
BRANCH  15  16
ATOM     16  C   UNL     1      29.497   7.996  41.435  1.00  0.00     0.006 C 
BRANCH  16  17
ATOM     17  C   UNL     1      28.878   6.602  41.271  1.00  0.00     0.053 C 
BRANCH  17  18
ATOM     18  C   UNL     1      29.504   5.603  42.196  1.00  0.00     0.041 C 
ATOM     19  O   UNL     1      30.757   5.502  42.267  1.00  0.00    -0.550 OA
ATOM     20  O   UNL     1      28.701   4.764  42.959  1.00  0.00    -0.550 OA
ENDBRANCH  17  18
ENDBRANCH  16  17
ENDBRANCH  15  16
ENDBRANCH  14  15
ENDBRANCH  13  14
ENDBRANCH  12  13
ENDBRANCH  11  12
ENDBRANCH   1  11
TORSDOF 15
ENDMDL
