MODEL 1
REMARK VINA RESULT:    -2.783      0.000      0.000
REMARK INTER + INTRA:          -9.813
REMARK INTER:                  -6.037
REMARK INTRA:                  -3.775
REMARK UNBOUND:                -3.775
REMARK SMILES CCCCCCCCCCCCCCCCCCCCCC(=O)[O-]
REMARK SMILES IDX 12 1 11 2 10 3 9 4 8 5 7 6 6 7 5 8 4 9 3 10 2 11 1 12 13 13
REMARK SMILES IDX 14 14 15 15 16 16 17 17 18 18 19 19 20 20 21 21 22 22 23 23
REMARK SMILES IDX 24 24
REMARK H PARENT
REMARK Flexibility Score: inf
ROOT
ATOM      1  C   UNL     1      24.010   6.580  16.161  1.00  0.00     0.000 C 
ENDROOT
BRANCH   1   2
ATOM      2  C   UNL     1      24.377   7.852  16.940  1.00  0.00     0.000 C 
BRANCH   2   3
ATOM      3  C   UNL     1      25.878   7.893  17.250  1.00  0.00     0.000 C 
BRANCH   3   4
ATOM      4  C   UNL     1      26.145   8.596  18.586  1.00  0.00    -0.000 C 
BRANCH   4   5
ATOM      5  C   UNL     1      26.729   7.622  19.616  1.00  0.00    -0.000 C 
BRANCH   5   6
ATOM      6  C   UNL     1      26.881   6.217  19.019  1.00  0.00    -0.000 C 
BRANCH   6   7
ATOM      7  C   UNL     1      26.100   5.181  19.837  1.00  0.00    -0.000 C 
BRANCH   7   8
ATOM      8  C   UNL     1      24.908   5.834  20.551  1.00  0.00    -0.000 C 
BRANCH   8   9
ATOM      9  C   UNL     1      23.564   5.565  19.847  1.00  0.00    -0.000 C 
BRANCH   9  10
ATOM     10  C   UNL     1      22.508   6.673  20.015  1.00  0.00    -0.000 C 
BRANCH  10  11
ATOM     11  C   UNL     1      23.095   7.985  20.558  1.00  0.00    -0.003 C 
ATOM     12  C   UNL     1      22.500   9.193  19.840  1.00  0.00     0.004 C 
ENDBRANCH  10  11
ENDBRANCH   9  10
ENDBRANCH   8   9
ENDBRANCH   7   8
ENDBRANCH   6   7
ENDBRANCH   5   6
ENDBRANCH   4   5
ENDBRANCH   3   4
ENDBRANCH   2   3
ENDBRANCH   1   2
BRANCH   1  13
ATOM     13  C   UNL     1      22.517   6.229  16.266  1.00  0.00     0.000 C 
BRANCH  13  14
ATOM     14  C   UNL     1      21.642   7.452  16.597  1.00  0.00     0.000 C 
BRANCH  14  15
ATOM     15  C   UNL     1      20.491   7.635  15.593  1.00  0.00     0.000 C 
BRANCH  15  16
ATOM     16  C   UNL     1      19.185   8.077  16.274  1.00  0.00     0.000 C 
BRANCH  16  17
ATOM     17  C   UNL     1      19.353   8.306  17.785  1.00  0.00     0.000 C 
BRANCH  17  18
ATOM     18  C   UNL     1      18.754   9.640  18.254  1.00  0.00     0.000 C 
BRANCH  18  19
ATOM     19  C   UNL     1      18.020  10.345  17.103  1.00  0.00     0.000 C 
BRANCH  19  20
ATOM     20  C   UNL     1      18.577  11.750  16.811  1.00  0.00     0.006 C 
BRANCH  20  21
ATOM     21  C   UNL     1      19.806  12.132  17.651  1.00  0.00     0.053 C 
BRANCH  21  22
ATOM     22  C   UNL     1      21.081  12.011  16.873  1.00  0.00     0.041 C 
ATOM     23  O   UNL     1      21.664  10.900  16.781  1.00  0.00    -0.550 OA
ATOM     24  O   UNL     1      21.604  13.119  16.219  1.00  0.00    -0.550 OA
ENDBRANCH  21  22
ENDBRANCH  20  21
ENDBRANCH  19  20
ENDBRANCH  18  19
ENDBRANCH  17  18
ENDBRANCH  16  17
ENDBRANCH  15  16
ENDBRANCH  14  15
ENDBRANCH  13  14
ENDBRANCH   1  13
TORSDOF 20
ENDMDL
MODEL 2
REMARK VINA RESULT:    -2.765      1.386      4.629
REMARK INTER + INTRA:          -9.773
REMARK INTER:                  -6.435
REMARK INTRA:                  -3.339
REMARK UNBOUND:                -3.775
REMARK SMILES CCCCCCCCCCCCCCCCCCCCCC(=O)[O-]
REMARK SMILES IDX 12 1 11 2 10 3 9 4 8 5 7 6 6 7 5 8 4 9 3 10 2 11 1 12 13 13
REMARK SMILES IDX 14 14 15 15 16 16 17 17 18 18 19 19 20 20 21 21 22 22 23 23
REMARK SMILES IDX 24 24
REMARK H PARENT
REMARK Flexibility Score: inf
ROOT
ATOM      1  C   UNL     1      26.511   8.674  18.770  1.00  0.00     0.000 C 
ENDROOT
BRANCH   1   2
ATOM      2  C   UNL     1      26.009   8.272  17.375  1.00  0.00     0.000 C 
BRANCH   2   3
ATOM      3  C   UNL     1      26.081   6.752  17.182  1.00  0.00     0.000 C 
BRANCH   3   4
ATOM      4  C   UNL     1      24.717   6.184  16.773  1.00  0.00    -0.000 C 
BRANCH   4   5
ATOM      5  C   UNL     1      24.592   6.094  15.247  1.00  0.00    -0.000 C 
BRANCH   5   6
ATOM      6  C   UNL     1      23.219   5.546  14.839  1.00  0.00    -0.000 C 
BRANCH   6   7
ATOM      7  C   UNL     1      22.087   6.354  15.487  1.00  0.00    -0.000 C 
BRANCH   7   8
ATOM      8  C   UNL     1      21.188   5.448  16.341  1.00  0.00    -0.000 C 
BRANCH   8   9
ATOM      9  C   UNL     1      19.801   6.061  16.613  1.00  0.00    -0.000 C 
BRANCH   9  10
ATOM     10  C   UNL     1      19.344   7.118  15.591  1.00  0.00    -0.000 C 
BRANCH  10  11
ATOM     11  C   UNL     1      17.985   7.743  15.940  1.00  0.00    -0.003 C 
ATOM     12  C   UNL     1      18.158   9.118  16.579  1.00  0.00     0.004 C 
ENDBRANCH  10  11
ENDBRANCH   9  10
ENDBRANCH   8   9
ENDBRANCH   7   8
ENDBRANCH   6   7
ENDBRANCH   5   6
ENDBRANCH   4   5
ENDBRANCH   3   4
ENDBRANCH   2   3
ENDBRANCH   1   2
BRANCH   1  13
ATOM     13  C   UNL     1      26.760   7.464  19.684  1.00  0.00     0.000 C 
BRANCH  13  14
ATOM     14  C   UNL     1      25.920   7.512  20.973  1.00  0.00     0.000 C 
BRANCH  14  15
ATOM     15  C   UNL     1      24.469   7.951  20.709  1.00  0.00     0.000 C 
BRANCH  15  16
ATOM     16  C   UNL     1      23.547   6.762  20.390  1.00  0.00     0.000 C 
BRANCH  16  17
ATOM     17  C   UNL     1      22.425   7.130  19.406  1.00  0.00     0.000 C 
BRANCH  17  18
ATOM     18  C   UNL     1      22.373   8.634  19.101  1.00  0.00     0.000 C 
BRANCH  18  19
ATOM     19  C   UNL     1      22.534   8.893  17.594  1.00  0.00     0.000 C 
BRANCH  19  20
ATOM     20  C   UNL     1      21.549   9.950  17.061  1.00  0.00     0.006 C 
BRANCH  20  21
ATOM     21  C   UNL     1      21.165  11.031  18.085  1.00  0.00     0.053 C 
BRANCH  21  22
ATOM     22  C   UNL     1      20.675  12.283  17.425  1.00  0.00     0.041 C 
ATOM     23  O   UNL     1      19.497  12.683  17.621  1.00  0.00    -0.550 OA
ATOM     24  O   UNL     1      21.530  13.029  16.625  1.00  0.00    -0.550 OA
ENDBRANCH  21  22
ENDBRANCH  20  21
ENDBRANCH  19  20
ENDBRANCH  18  19
ENDBRANCH  17  18
ENDBRANCH  16  17
ENDBRANCH  15  16
ENDBRANCH  14  15
ENDBRANCH  13  14
ENDBRANCH   1  13
TORSDOF 20
ENDMDL
MODEL 3
REMARK VINA RESULT:    -2.708      1.448      3.355
REMARK INTER + INTRA:          -9.649
REMARK INTER:                  -5.302
REMARK INTRA:                  -4.347
REMARK UNBOUND:                -3.775
REMARK SMILES CCCCCCCCCCCCCCCCCCCCCC(=O)[O-]
REMARK SMILES IDX 12 1 11 2 10 3 9 4 8 5 7 6 6 7 5 8 4 9 3 10 2 11 1 12 13 13
REMARK SMILES IDX 14 14 15 15 16 16 17 17 18 18 19 19 20 20 21 21 22 22 23 23
REMARK SMILES IDX 24 24
REMARK H PARENT
REMARK Flexibility Score: inf
ROOT
ATOM      1  C   UNL     1      21.379   7.160  16.176  1.00  0.00     0.000 C 
ENDROOT
BRANCH   1   2
ATOM      2  C   UNL     1      21.229   5.662  16.479  1.00  0.00     0.000 C 
BRANCH   2   3
ATOM      3  C   UNL     1      21.566   5.361  17.945  1.00  0.00     0.000 C 
BRANCH   3   4
ATOM      4  C   UNL     1      22.119   6.607  18.649  1.00  0.00    -0.000 C 
BRANCH   4   5
ATOM      5  C   UNL     1      21.937   6.509  20.169  1.00  0.00    -0.000 C 
BRANCH   5   6
ATOM      6  C   UNL     1      22.785   7.563  20.892  1.00  0.00    -0.000 C 
BRANCH   6   7
ATOM      7  C   UNL     1      24.279   7.353  20.621  1.00  0.00    -0.000 C 
BRANCH   7   8
ATOM      8  C   UNL     1      24.921   8.634  20.069  1.00  0.00    -0.000 C 
BRANCH   8   9
ATOM      9  C   UNL     1      25.989   8.357  18.993  1.00  0.00    -0.000 C 
BRANCH   9  10
ATOM     10  C   UNL     1      26.045   6.903  18.490  1.00  0.00    -0.000 C 
BRANCH  10  11
ATOM     11  C   UNL     1      25.466   6.734  17.077  1.00  0.00    -0.003 C 
ATOM     12  C   UNL     1      24.875   8.045  16.564  1.00  0.00     0.004 C 
ENDBRANCH  10  11
ENDBRANCH   9  10
ENDBRANCH   8   9
ENDBRANCH   7   8
ENDBRANCH   6   7
ENDBRANCH   5   6
ENDBRANCH   4   5
ENDBRANCH   3   4
ENDBRANCH   2   3
ENDBRANCH   1   2
BRANCH   1  13
ATOM     13  C   UNL     1      20.140   7.753  15.485  1.00  0.00     0.000 C 
BRANCH  13  14
ATOM     14  C   UNL     1      18.844   7.004  15.847  1.00  0.00     0.000 C 
BRANCH  14  15
ATOM     15  C   UNL     1      18.045   7.719  16.950  1.00  0.00     0.000 C 
BRANCH  15  16
ATOM     16  C   UNL     1      18.286   7.104  18.339  1.00  0.00     0.000 C 
BRANCH  16  17
ATOM     17  C   UNL     1      18.769   8.139  19.369  1.00  0.00     0.000 C 
BRANCH  17  18
ATOM     18  C   UNL     1      19.166   9.475  18.725  1.00  0.00     0.000 C 
BRANCH  18  19
ATOM     19  C   UNL     1      20.476  10.005  19.329  1.00  0.00     0.000 C 
BRANCH  19  20
ATOM     20  C   UNL     1      21.568  10.244  18.271  1.00  0.00     0.006 C 
BRANCH  20  21
ATOM     21  C   UNL     1      21.081  10.982  17.013  1.00  0.00     0.053 C 
BRANCH  21  22
ATOM     22  C   UNL     1      21.257  12.465  17.126  1.00  0.00     0.041 C 
ATOM     23  O   UNL     1      21.630  13.136  16.128  1.00  0.00    -0.550 OA
ATOM     24  O   UNL     1      20.973  13.112  18.322  1.00  0.00    -0.550 OA
ENDBRANCH  21  22
ENDBRANCH  20  21
ENDBRANCH  19  20
ENDBRANCH  18  19
ENDBRANCH  17  18
ENDBRANCH  16  17
ENDBRANCH  15  16
ENDBRANCH  14  15
ENDBRANCH  13  14
ENDBRANCH   1  13
TORSDOF 20
ENDMDL
MODEL 4
REMARK VINA RESULT:    -2.618      2.402      6.999
REMARK INTER + INTRA:          -9.454
REMARK INTER:                  -5.709
REMARK INTRA:                  -3.745
REMARK UNBOUND:                -3.775
REMARK SMILES CCCCCCCCCCCCCCCCCCCCCC(=O)[O-]
REMARK SMILES IDX 12 1 11 2 10 3 9 4 8 5 7 6 6 7 5 8 4 9 3 10 2 11 1 12 13 13
REMARK SMILES IDX 14 14 15 15 16 16 17 17 18 18 19 19 20 20 21 21 22 22 23 23
REMARK SMILES IDX 24 24
REMARK H PARENT
REMARK Flexibility Score: inf
ROOT
ATOM      1  C   UNL     1      21.766   8.886  17.851  1.00  0.00     0.000 C 
ENDROOT
BRANCH   1   2
ATOM      2  C   UNL     1      21.349   7.851  16.796  1.00  0.00     0.000 C 
BRANCH   2   3
ATOM      3  C   UNL     1      20.149   8.350  15.982  1.00  0.00     0.000 C 
BRANCH   3   4
ATOM      4  C   UNL     1      18.945   8.627  16.890  1.00  0.00    -0.000 C 
BRANCH   4   5
ATOM      5  C   UNL     1      18.323   9.995  16.580  1.00  0.00    -0.000 C 
BRANCH   5   6
ATOM      6  C   UNL     1      17.875  10.699  17.868  1.00  0.00    -0.000 C 
BRANCH   6   7
ATOM      7  C   UNL     1      18.425   9.984  19.108  1.00  0.00    -0.000 C 
BRANCH   7   8
ATOM      8  C   UNL     1      19.112  10.980  20.053  1.00  0.00    -0.000 C 
BRANCH   8   9
ATOM      9  C   UNL     1      19.593  12.257  19.337  1.00  0.00    -0.000 C 
BRANCH   9  10
ATOM     10  C   UNL     1      21.081  12.596  19.538  1.00  0.00    -0.000 C 
BRANCH  10  11
ATOM     11  C   UNL     1      21.770  13.066  18.248  1.00  0.00    -0.003 C 
ATOM     12  C   UNL     1      21.187  12.362  17.025  1.00  0.00     0.004 C 
ENDBRANCH  10  11
ENDBRANCH   9  10
ENDBRANCH   8   9
ENDBRANCH   7   8
ENDBRANCH   6   7
ENDBRANCH   5   6
ENDBRANCH   4   5
ENDBRANCH   3   4
ENDBRANCH   2   3
ENDBRANCH   1   2
BRANCH   1  13
ATOM     13  C   UNL     1      22.050   8.255  19.224  1.00  0.00     0.000 C 
BRANCH  13  14
ATOM     14  C   UNL     1      22.358   9.306  20.307  1.00  0.00     0.000 C 
BRANCH  14  15
ATOM     15  C   UNL     1      23.861   9.624  20.400  1.00  0.00     0.000 C 
BRANCH  15  16
ATOM     16  C   UNL     1      24.736   8.367  20.260  1.00  0.00     0.000 C 
BRANCH  16  17
ATOM     17  C   UNL     1      25.812   8.513  19.172  1.00  0.00     0.000 C 
BRANCH  17  18
ATOM     18  C   UNL     1      26.062   7.205  18.406  1.00  0.00     0.000 C 
BRANCH  18  19
ATOM     19  C   UNL     1      25.007   6.148  18.768  1.00  0.00     0.000 C 
BRANCH  19  20
ATOM     20  C   UNL     1      24.194   5.673  17.550  1.00  0.00     0.006 C 
BRANCH  20  21
ATOM     21  C   UNL     1      24.598   6.335  16.222  1.00  0.00     0.053 C 
BRANCH  21  22
ATOM     22  C   UNL     1      24.047   5.604  15.037  1.00  0.00     0.041 C 
ATOM     23  O   UNL     1      22.818   5.337  14.973  1.00  0.00    -0.550 OA
ATOM     24  O   UNL     1      24.882   5.251  13.985  1.00  0.00    -0.550 OA
ENDBRANCH  21  22
ENDBRANCH  20  21
ENDBRANCH  19  20
ENDBRANCH  18  19
ENDBRANCH  17  18
ENDBRANCH  16  17
ENDBRANCH  15  16
ENDBRANCH  14  15
ENDBRANCH  13  14
ENDBRANCH   1  13
TORSDOF 20
ENDMDL
MODEL 5
REMARK VINA RESULT:    -2.609      1.409      3.434
REMARK INTER + INTRA:          -9.436
REMARK INTER:                  -5.657
REMARK INTRA:                  -3.779
REMARK UNBOUND:                -3.775
REMARK SMILES CCCCCCCCCCCCCCCCCCCCCC(=O)[O-]
REMARK SMILES IDX 12 1 11 2 10 3 9 4 8 5 7 6 6 7 5 8 4 9 3 10 2 11 1 12 13 13
REMARK SMILES IDX 14 14 15 15 16 16 17 17 18 18 19 19 20 20 21 21 22 22 23 23
REMARK SMILES IDX 24 24
REMARK H PARENT
REMARK Flexibility Score: inf
ROOT
ATOM      1  C   UNL     1      24.224   9.038  20.111  1.00  0.00     0.000 C 
ENDROOT
BRANCH   1   2
ATOM      2  C   UNL     1      25.402   8.069  19.935  1.00  0.00     0.000 C 
BRANCH   2   3
ATOM      3  C   UNL     1      26.136   8.330  18.614  1.00  0.00     0.000 C 
BRANCH   3   4
ATOM      4  C   UNL     1      25.658   7.367  17.520  1.00  0.00    -0.000 C 
BRANCH   4   5
ATOM      5  C   UNL     1      25.150   6.052  18.125  1.00  0.00    -0.000 C 
BRANCH   5   6
ATOM      6  C   UNL     1      23.927   5.532  17.360  1.00  0.00    -0.000 C 
BRANCH   6   7
ATOM      7  C   UNL     1      23.723   6.306  16.051  1.00  0.00    -0.000 C 
BRANCH   7   8
ATOM      8  C   UNL     1      22.274   6.177  15.560  1.00  0.00    -0.000 C 
BRANCH   8   9
ATOM      9  C   UNL     1      21.498   5.046  16.263  1.00  0.00    -0.000 C 
BRANCH   9  10
ATOM     10  C   UNL     1      20.275   5.506  17.078  1.00  0.00    -0.000 C 
BRANCH  10  11
ATOM     11  C   UNL     1      18.956   5.390  16.299  1.00  0.00    -0.003 C 
ATOM     12  C   UNL     1      18.613   6.701  15.599  1.00  0.00     0.004 C 
ENDBRANCH  10  11
ENDBRANCH   9  10
ENDBRANCH   8   9
ENDBRANCH   7   8
ENDBRANCH   6   7
ENDBRANCH   5   6
ENDBRANCH   4   5
ENDBRANCH   3   4
ENDBRANCH   2   3
ENDBRANCH   1   2
BRANCH   1  13
ATOM     13  C   UNL     1      22.936   8.333  20.567  1.00  0.00     0.000 C 
BRANCH  13  14
ATOM     14  C   UNL     1      22.047   7.903  19.385  1.00  0.00     0.000 C 
BRANCH  14  15
ATOM     15  C   UNL     1      22.154   8.868  18.192  1.00  0.00     0.000 C 
BRANCH  15  16
ATOM     16  C   UNL     1      20.799   9.094  17.499  1.00  0.00     0.000 C 
BRANCH  16  17
ATOM     17  C   UNL     1      19.607   8.881  18.445  1.00  0.00     0.000 C 
BRANCH  17  18
ATOM     18  C   UNL     1      18.398   9.756  18.083  1.00  0.00     0.000 C 
BRANCH  18  19
ATOM     19  C   UNL     1      18.574  10.383  16.691  1.00  0.00     0.000 C 
BRANCH  19  20
ATOM     20  C   UNL     1      18.615  11.921  16.729  1.00  0.00     0.006 C 
BRANCH  20  21
ATOM     21  C   UNL     1      19.383  12.504  17.927  1.00  0.00     0.053 C 
BRANCH  21  22
ATOM     22  C   UNL     1      20.825  12.752  17.605  1.00  0.00     0.041 C 
ATOM     23  O   UNL     1      21.212  12.776  16.408  1.00  0.00    -0.550 OA
ATOM     24  O   UNL     1      21.735  12.992  18.627  1.00  0.00    -0.550 OA
ENDBRANCH  21  22
ENDBRANCH  20  21
ENDBRANCH  19  20
ENDBRANCH  18  19
ENDBRANCH  17  18
ENDBRANCH  16  17
ENDBRANCH  15  16
ENDBRANCH  14  15
ENDBRANCH  13  14
ENDBRANCH   1  13
TORSDOF 20
ENDMDL
MODEL 6
REMARK VINA RESULT:    -2.592      1.860      4.789
REMARK INTER + INTRA:          -9.398
REMARK INTER:                  -5.463
REMARK INTRA:                  -3.935
REMARK UNBOUND:                -3.775
REMARK SMILES CCCCCCCCCCCCCCCCCCCCCC(=O)[O-]
REMARK SMILES IDX 12 1 11 2 10 3 9 4 8 5 7 6 6 7 5 8 4 9 3 10 2 11 1 12 13 13
REMARK SMILES IDX 14 14 15 15 16 16 17 17 18 18 19 19 20 20 21 21 22 22 23 23
REMARK SMILES IDX 24 24
REMARK H PARENT
REMARK Flexibility Score: inf
ROOT
ATOM      1  C   UNL     1      25.751   8.182  17.386  1.00  0.00     0.000 C 
ENDROOT
BRANCH   1   2
ATOM      2  C   UNL     1      25.738   6.765  16.794  1.00  0.00     0.000 C 
BRANCH   2   3
ATOM      3  C   UNL     1      24.841   6.697  15.552  1.00  0.00     0.000 C 
BRANCH   3   4
ATOM      4  C   UNL     1      23.921   5.471  15.604  1.00  0.00    -0.000 C 
BRANCH   4   5
ATOM      5  C   UNL     1      22.862   5.623  16.703  1.00  0.00    -0.000 C 
BRANCH   5   6
ATOM      6  C   UNL     1      21.897   6.771  16.381  1.00  0.00    -0.000 C 
BRANCH   6   7
ATOM      7  C   UNL     1      21.849   7.790  17.527  1.00  0.00    -0.000 C 
BRANCH   7   8
ATOM      8  C   UNL     1      22.284   9.180  17.041  1.00  0.00    -0.000 C 
BRANCH   8   9
ATOM      9  C   UNL     1      21.179  10.243  17.190  1.00  0.00    -0.000 C 
BRANCH   9  10
ATOM     10  C   UNL     1      19.740   9.694  17.172  1.00  0.00    -0.000 C 
BRANCH  10  11
ATOM     11  C   UNL     1      18.713  10.683  17.744  1.00  0.00    -0.003 C 
ATOM     12  C   UNL     1      18.338  11.745  16.714  1.00  0.00     0.004 C 
ENDBRANCH  10  11
ENDBRANCH   9  10
ENDBRANCH   8   9
ENDBRANCH   7   8
ENDBRANCH   6   7
ENDBRANCH   5   6
ENDBRANCH   4   5
ENDBRANCH   3   4
ENDBRANCH   2   3
ENDBRANCH   1   2
BRANCH   1  13
ATOM     13  C   UNL     1      25.409   8.203  18.885  1.00  0.00     0.000 C 
BRANCH  13  14
ATOM     14  C   UNL     1      25.084   6.804  19.438  1.00  0.00     0.000 C 
BRANCH  14  15
ATOM     15  C   UNL     1      23.953   6.837  20.481  1.00  0.00     0.000 C 
BRANCH  15  16
ATOM     16  C   UNL     1      23.584   8.270  20.899  1.00  0.00     0.000 C 
BRANCH  16  17
ATOM     17  C   UNL     1      22.068   8.468  21.062  1.00  0.00     0.000 C 
BRANCH  17  18
ATOM     18  C   UNL     1      21.631   9.922  20.832  1.00  0.00     0.000 C 
BRANCH  18  19
ATOM     19  C   UNL     1      22.846  10.822  20.559  1.00  0.00     0.000 C 
BRANCH  19  20
ATOM     20  C   UNL     1      22.521  12.321  20.692  1.00  0.00     0.006 C 
BRANCH  20  21
ATOM     21  C   UNL     1      22.043  12.983  19.389  1.00  0.00     0.053 C 
BRANCH  21  22
ATOM     22  C   UNL     1      20.615  13.425  19.472  1.00  0.00     0.041 C 
ATOM     23  O   UNL     1      19.853  12.945  20.352  1.00  0.00    -0.550 OA
ATOM     24  O   UNL     1      20.133  14.394  18.601  1.00  0.00    -0.550 OA
ENDBRANCH  21  22
ENDBRANCH  20  21
ENDBRANCH  19  20
ENDBRANCH  18  19
ENDBRANCH  17  18
ENDBRANCH  16  17
ENDBRANCH  15  16
ENDBRANCH  14  15
ENDBRANCH  13  14
ENDBRANCH   1  13
TORSDOF 20
ENDMDL
MODEL 7
REMARK VINA RESULT:    -2.589      2.140      6.641
REMARK INTER + INTRA:          -9.392
REMARK INTER:                  -5.468
REMARK INTRA:                  -3.924
REMARK UNBOUND:                -3.775
REMARK SMILES CCCCCCCCCCCCCCCCCCCCCC(=O)[O-]
REMARK SMILES IDX 12 1 11 2 10 3 9 4 8 5 7 6 6 7 5 8 4 9 3 10 2 11 1 12 13 13
REMARK SMILES IDX 14 14 15 15 16 16 17 17 18 18 19 19 20 20 21 21 22 22 23 23
REMARK SMILES IDX 24 24
REMARK H PARENT
REMARK Flexibility Score: inf
ROOT
ATOM      1  C   UNL     1      22.824   7.722  16.846  1.00  0.00     0.000 C 
ENDROOT
BRANCH   1   2
ATOM      2  C   UNL     1      22.047   6.599  16.145  1.00  0.00     0.000 C 
BRANCH   2   3
ATOM      3  C   UNL     1      20.734   7.126  15.552  1.00  0.00     0.000 C 
BRANCH   3   4
ATOM      4  C   UNL     1      19.523   6.485  16.241  1.00  0.00    -0.000 C 
BRANCH   4   5
ATOM      5  C   UNL     1      18.231   7.235  15.895  1.00  0.00    -0.000 C 
BRANCH   5   6
ATOM      6  C   UNL     1      17.938   8.330  16.928  1.00  0.00    -0.000 C 
BRANCH   6   7
ATOM      7  C   UNL     1      18.350   9.710  16.402  1.00  0.00    -0.000 C 
BRANCH   7   8
ATOM      8  C   UNL     1      18.042  10.804  17.435  1.00  0.00    -0.000 C 
BRANCH   8   9
ATOM      9  C   UNL     1      18.869  12.086  17.220  1.00  0.00    -0.000 C 
BRANCH   9  10
ATOM     10  C   UNL     1      19.692  12.542  18.439  1.00  0.00    -0.000 C 
BRANCH  10  11
ATOM     11  C   UNL     1      21.166  12.811  18.101  1.00  0.00    -0.003 C 
ATOM     12  C   UNL     1      21.404  12.759  16.594  1.00  0.00     0.004 C 
ENDBRANCH  10  11
ENDBRANCH   9  10
ENDBRANCH   8   9
ENDBRANCH   7   8
ENDBRANCH   6   7
ENDBRANCH   5   6
ENDBRANCH   4   5
ENDBRANCH   3   4
ENDBRANCH   2   3
ENDBRANCH   1   2
BRANCH   1  13
ATOM     13  C   UNL     1      21.944   8.938  17.176  1.00  0.00     0.000 C 
BRANCH  13  14
ATOM     14  C   UNL     1      21.963   9.295  18.674  1.00  0.00     0.000 C 
BRANCH  14  15
ATOM     15  C   UNL     1      20.613   9.016  19.358  1.00  0.00     0.000 C 
BRANCH  15  16
ATOM     16  C   UNL     1      20.444   7.535  19.737  1.00  0.00     0.000 C 
BRANCH  16  17
ATOM     17  C   UNL     1      21.709   6.938  20.375  1.00  0.00     0.000 C 
BRANCH  17  18
ATOM     18  C   UNL     1      22.155   5.632  19.702  1.00  0.00     0.000 C 
BRANCH  18  19
ATOM     19  C   UNL     1      23.645   5.363  19.962  1.00  0.00     0.000 C 
BRANCH  19  20
ATOM     20  C   UNL     1      24.482   6.654  20.037  1.00  0.00     0.006 C 
BRANCH  20  21
ATOM     21  C   UNL     1      25.921   6.506  19.519  1.00  0.00     0.053 C 
BRANCH  21  22
ATOM     22  C   UNL     1      26.168   7.332  18.294  1.00  0.00     0.041 C 
ATOM     23  O   UNL     1      26.367   8.571  18.395  1.00  0.00    -0.550 OA
ATOM     24  O   UNL     1      26.214   6.728  17.044  1.00  0.00    -0.550 OA
ENDBRANCH  21  22
ENDBRANCH  20  21
ENDBRANCH  19  20
ENDBRANCH  18  19
ENDBRANCH  17  18
ENDBRANCH  16  17
ENDBRANCH  15  16
ENDBRANCH  14  15
ENDBRANCH  13  14
ENDBRANCH   1  13
TORSDOF 20
ENDMDL
MODEL 8
REMARK VINA RESULT:    -2.535      1.292      3.172
REMARK INTER + INTRA:          -9.275
REMARK INTER:                  -5.625
REMARK INTRA:                  -3.650
REMARK UNBOUND:                -3.775
REMARK SMILES CCCCCCCCCCCCCCCCCCCCCC(=O)[O-]
REMARK SMILES IDX 12 1 11 2 10 3 9 4 8 5 7 6 6 7 5 8 4 9 3 10 2 11 1 12 13 13
REMARK SMILES IDX 14 14 15 15 16 16 17 17 18 18 19 19 20 20 21 21 22 22 23 23
REMARK SMILES IDX 24 24
REMARK H PARENT
REMARK Flexibility Score: inf
ROOT
ATOM      1  C   UNL     1      21.712   8.193  17.716  1.00  0.00     0.000 C 
ENDROOT
BRANCH   1   2
ATOM      2  C   UNL     1      21.547   6.781  18.297  1.00  0.00     0.000 C 
BRANCH   2   3
ATOM      3  C   UNL     1      22.032   6.725  19.750  1.00  0.00     0.000 C 
BRANCH   3   4
ATOM      4  C   UNL     1      22.757   8.019  20.139  1.00  0.00    -0.000 C 
BRANCH   4   5
ATOM      5  C   UNL     1      24.209   7.737  20.546  1.00  0.00    -0.000 C 
BRANCH   5   6
ATOM      6  C   UNL     1      25.182   8.626  19.762  1.00  0.00    -0.000 C 
BRANCH   6   7
ATOM      7  C   UNL     1      26.246   7.784  19.047  1.00  0.00    -0.000 C 
BRANCH   7   8
ATOM      8  C   UNL     1      25.601   6.851  18.012  1.00  0.00    -0.000 C 
BRANCH   8   9
ATOM      9  C   UNL     1      25.162   7.585  16.731  1.00  0.00    -0.000 C 
BRANCH   9  10
ATOM     10  C   UNL     1      24.940   6.680  15.505  1.00  0.00    -0.000 C 
BRANCH  10  11
ATOM     11  C   UNL     1      23.920   5.560  15.762  1.00  0.00    -0.003 C 
ATOM     12  C   UNL     1      23.209   5.156  14.474  1.00  0.00     0.004 C 
ENDBRANCH  10  11
ENDBRANCH   9  10
ENDBRANCH   8   9
ENDBRANCH   7   8
ENDBRANCH   6   7
ENDBRANCH   5   6
ENDBRANCH   4   5
ENDBRANCH   3   4
ENDBRANCH   2   3
ENDBRANCH   1   2
BRANCH   1  13
ATOM     13  C   UNL     1      21.278   8.285  16.244  1.00  0.00     0.000 C 
BRANCH  13  14
ATOM     14  C   UNL     1      20.201   7.247  15.878  1.00  0.00     0.000 C 
BRANCH  14  15
ATOM     15  C   UNL     1      18.777   7.817  15.995  1.00  0.00     0.000 C 
BRANCH  15  16
ATOM     16  C   UNL     1      17.987   7.186  17.155  1.00  0.00     0.000 C 
BRANCH  16  17
ATOM     17  C   UNL     1      17.879   8.118  18.373  1.00  0.00     0.000 C 
BRANCH  17  18
ATOM     18  C   UNL     1      18.113   9.593  18.015  1.00  0.00     0.000 C 
BRANCH  18  19
ATOM     19  C   UNL     1      19.065  10.256  19.022  1.00  0.00     0.000 C 
BRANCH  19  20
ATOM     20  C   UNL     1      19.261  11.761  18.758  1.00  0.00     0.006 C 
BRANCH  20  21
ATOM     21  C   UNL     1      19.722  12.097  17.330  1.00  0.00     0.053 C 
BRANCH  21  22
ATOM     22  C   UNL     1      21.077  12.735  17.311  1.00  0.00     0.041 C 
ATOM     23  O   UNL     1      21.721  12.886  18.382  1.00  0.00    -0.550 OA
ATOM     24  O   UNL     1      21.645  13.128  16.106  1.00  0.00    -0.550 OA
ENDBRANCH  21  22
ENDBRANCH  20  21
ENDBRANCH  19  20
ENDBRANCH  18  19
ENDBRANCH  17  18
ENDBRANCH  16  17
ENDBRANCH  15  16
ENDBRANCH  14  15
ENDBRANCH  13  14
ENDBRANCH   1  13
TORSDOF 20
ENDMDL
MODEL 9
REMARK VINA RESULT:    -2.531      1.240      5.040
REMARK INTER + INTRA:          -9.265
REMARK INTER:                  -5.577
REMARK INTRA:                  -3.688
REMARK UNBOUND:                -3.775
REMARK SMILES CCCCCCCCCCCCCCCCCCCCCC(=O)[O-]
REMARK SMILES IDX 12 1 11 2 10 3 9 4 8 5 7 6 6 7 5 8 4 9 3 10 2 11 1 12 13 13
REMARK SMILES IDX 14 14 15 15 16 16 17 17 18 18 19 19 20 20 21 21 22 22 23 23
REMARK SMILES IDX 24 24
REMARK H PARENT
REMARK Flexibility Score: inf
ROOT
ATOM      1  C   UNL     1      26.112   8.328  17.415  1.00  0.00     0.000 C 
ENDROOT
BRANCH   1   2
ATOM      2  C   UNL     1      24.716   7.869  16.971  1.00  0.00     0.000 C 
BRANCH   2   3
ATOM      3  C   UNL     1      24.679   6.352  16.753  1.00  0.00     0.000 C 
BRANCH   3   4
ATOM      4  C   UNL     1      23.299   5.780  17.097  1.00  0.00    -0.000 C 
BRANCH   4   5
ATOM      5  C   UNL     1      22.214   6.860  17.004  1.00  0.00    -0.000 C 
BRANCH   5   6
ATOM      6  C   UNL     1      21.422   6.732  15.697  1.00  0.00    -0.000 C 
BRANCH   6   7
ATOM      7  C   UNL     1      20.091   7.489  15.780  1.00  0.00    -0.000 C 
BRANCH   7   8
ATOM      8  C   UNL     1      19.663   7.682  17.242  1.00  0.00    -0.000 C 
BRANCH   8   9
ATOM      9  C   UNL     1      18.517   8.701  17.404  1.00  0.00    -0.000 C 
BRANCH   9  10
ATOM     10  C   UNL     1      18.384   9.719  16.258  1.00  0.00    -0.000 C 
BRANCH  10  11
ATOM     11  C   UNL     1      18.266  11.169  16.753  1.00  0.00    -0.003 C 
ATOM     12  C   UNL     1      17.875  11.217  18.228  1.00  0.00     0.004 C 
ENDBRANCH  10  11
ENDBRANCH   9  10
ENDBRANCH   8   9
ENDBRANCH   7   8
ENDBRANCH   6   7
ENDBRANCH   5   6
ENDBRANCH   4   5
ENDBRANCH   3   4
ENDBRANCH   2   3
ENDBRANCH   1   2
BRANCH   1  13
ATOM     13  C   UNL     1      26.174   8.685  18.909  1.00  0.00     0.000 C 
BRANCH  13  14
ATOM     14  C   UNL     1      26.514   7.472  19.794  1.00  0.00     0.000 C 
BRANCH  14  15
ATOM     15  C   UNL     1      25.285   6.936  20.548  1.00  0.00     0.000 C 
BRANCH  15  16
ATOM     16  C   UNL     1      24.228   8.026  20.795  1.00  0.00     0.000 C 
BRANCH  16  17
ATOM     17  C   UNL     1      22.791   7.489  20.700  1.00  0.00     0.000 C 
BRANCH  17  18
ATOM     18  C   UNL     1      21.797   8.541  20.186  1.00  0.00     0.000 C 
BRANCH  18  19
ATOM     19  C   UNL     1      22.505   9.572  19.293  1.00  0.00     0.000 C 
BRANCH  19  20
ATOM     20  C   UNL     1      21.530  10.581  18.657  1.00  0.00     0.006 C 
BRANCH  20  21
ATOM     21  C   UNL     1      21.661  12.014  19.197  1.00  0.00     0.053 C 
BRANCH  21  22
ATOM     22  C   UNL     1      21.130  13.030  18.233  1.00  0.00     0.041 C 
ATOM     23  O   UNL     1      20.267  13.868  18.607  1.00  0.00    -0.550 OA
ATOM     24  O   UNL     1      21.614  13.077  16.932  1.00  0.00    -0.550 OA
ENDBRANCH  21  22
ENDBRANCH  20  21
ENDBRANCH  19  20
ENDBRANCH  18  19
ENDBRANCH  17  18
ENDBRANCH  16  17
ENDBRANCH  15  16
ENDBRANCH  14  15
ENDBRANCH  13  14
ENDBRANCH   1  13
TORSDOF 20
ENDMDL
