MODEL 1
REMARK VINA RESULT:    -6.322      0.000      0.000
REMARK INTER + INTRA:          -6.996
REMARK INTER:                  -6.692
REMARK INTRA:                  -0.304
REMARK UNBOUND:                -0.304
REMARK SMILES CC1=CC[C@@H]2[C@H]3[C@@H](C(C)C)CC[C@]2(C)[C@@H]13
REMARK SMILES IDX 1 1 2 2 3 3 4 4 5 5 6 6 15 7 13 8 12 9 11 10 7 11 14 12 8 13
REMARK SMILES IDX 9 14 10 15
REMARK H PARENT
REMARK Flexibility Score: inf
ROOT
ATOM      1  C   UNL     1       5.073  15.286   3.740  1.00  0.00     0.039 C 
ATOM      2  C   UNL     1       4.051  14.197   3.598  1.00  0.00    -0.073 C 
ATOM      3  C   UNL     1       4.418  12.892   3.516  1.00  0.00    -0.027 C 
ATOM      4  C   UNL     1       3.328  11.823   3.398  1.00  0.00     0.031 C 
ATOM      5  C   UNL     1       1.915  12.487   3.356  1.00  0.00     0.003 C 
ATOM      6  C   UNL     1       1.984  13.669   2.352  1.00  0.00     0.004 C 
ATOM      7  C   UNL     1       2.552  14.505   3.522  1.00  0.00     0.024 C 
ATOM      8  C   UNL     1       1.759  13.565   4.459  1.00  0.00    -0.022 C 
ATOM      9  C   UNL     1       0.281  14.056   4.540  1.00  0.00     0.008 C 
ATOM     10  C   UNL     1      -0.428  14.043   3.160  1.00  0.00     0.005 C 
ATOM     11  C   UNL     1       0.571  14.204   1.972  1.00  0.00    -0.005 C 
ATOM     12  C   UNL     1       2.325  13.282   5.871  1.00  0.00     0.012 C 
ENDROOT
BRANCH  11  13
ATOM     13  C   UNL     1       0.061  13.620   0.620  1.00  0.00    -0.014 C 
ATOM     14  C   UNL     1      -0.756  14.611  -0.227  1.00  0.00     0.007 C 
ATOM     15  C   UNL     1       1.210  13.029  -0.210  1.00  0.00     0.007 C 
ENDBRANCH  11  13
TORSDOF 1
ENDMDL
MODEL 2
REMARK VINA RESULT:    -6.246      1.304      4.494
REMARK INTER + INTRA:          -6.915
REMARK INTER:                  -6.544
REMARK INTRA:                  -0.370
REMARK UNBOUND:                -0.304
REMARK SMILES CC1=CC[C@@H]2[C@H]3[C@@H](C(C)C)CC[C@]2(C)[C@@H]13
REMARK SMILES IDX 1 1 2 2 3 3 4 4 5 5 6 6 15 7 13 8 12 9 11 10 7 11 14 12 8 13
REMARK SMILES IDX 9 14 10 15
REMARK H PARENT
REMARK Flexibility Score: inf
ROOT
ATOM      1  C   UNL     1       0.933  13.239  -1.571  1.00  0.00     0.039 C 
ATOM      2  C   UNL     1       1.256  14.047  -0.349  1.00  0.00    -0.073 C 
ATOM      3  C   UNL     1       2.011  15.173  -0.429  1.00  0.00    -0.027 C 
ATOM      4  C   UNL     1       2.286  15.971   0.849  1.00  0.00     0.031 C 
ATOM      5  C   UNL     1       1.633  15.268   2.082  1.00  0.00     0.003 C 
ATOM      6  C   UNL     1       1.978  13.758   1.995  1.00  0.00     0.004 C 
ATOM      7  C   UNL     1       0.768  13.633   1.042  1.00  0.00     0.024 C 
ATOM      8  C   UNL     1       0.170  14.849   1.789  1.00  0.00    -0.022 C 
ATOM      9  C   UNL     1      -0.528  14.352   3.093  1.00  0.00     0.008 C 
ATOM     10  C   UNL     1       0.455  13.646   4.064  1.00  0.00     0.005 C 
ATOM     11  C   UNL     1       1.670  13.005   3.324  1.00  0.00    -0.005 C 
ATOM     12  C   UNL     1      -0.747  15.817   1.006  1.00  0.00     0.012 C 
ENDROOT
BRANCH  11  13
ATOM     13  C   UNL     1       2.940  12.825   4.211  1.00  0.00    -0.014 C 
ATOM     14  C   UNL     1       4.240  13.325   3.559  1.00  0.00     0.007 C 
ATOM     15  C   UNL     1       2.757  13.463   5.596  1.00  0.00     0.007 C 
ENDBRANCH  11  13
TORSDOF 1
ENDMDL
MODEL 3
REMARK VINA RESULT:    -6.053      1.629      3.691
REMARK INTER + INTRA:          -6.710
REMARK INTER:                  -6.470
REMARK INTRA:                  -0.241
REMARK UNBOUND:                -0.304
REMARK SMILES CC1=CC[C@@H]2[C@H]3[C@@H](C(C)C)CC[C@]2(C)[C@@H]13
REMARK SMILES IDX 1 1 2 2 3 3 4 4 5 5 6 6 15 7 13 8 12 9 11 10 7 11 14 12 8 13
REMARK SMILES IDX 9 14 10 15
REMARK H PARENT
REMARK Flexibility Score: inf
ROOT
ATOM      1  C   UNL     1       2.695  16.421   1.592  1.00  0.00     0.039 C 
ATOM      2  C   UNL     1       2.438  15.039   2.116  1.00  0.00    -0.073 C 
ATOM      3  C   UNL     1       2.337  13.975   1.278  1.00  0.00    -0.027 C 
ATOM      4  C   UNL     1       2.099  12.585   1.873  1.00  0.00     0.031 C 
ATOM      5  C   UNL     1       1.975  12.670   3.428  1.00  0.00     0.003 C 
ATOM      6  C   UNL     1       1.023  13.851   3.755  1.00  0.00     0.004 C 
ATOM      7  C   UNL     1       2.261  14.766   3.613  1.00  0.00     0.024 C 
ATOM      8  C   UNL     1       3.102  13.540   4.042  1.00  0.00    -0.022 C 
ATOM      9  C   UNL     1       3.090  13.434   5.598  1.00  0.00     0.008 C 
ATOM     10  C   UNL     1       1.660  13.241   6.171  1.00  0.00     0.005 C 
ATOM     11  C   UNL     1       0.557  13.839   5.242  1.00  0.00    -0.005 C 
ATOM     12  C   UNL     1       4.540  13.405   3.490  1.00  0.00     0.012 C 
ENDROOT
BRANCH  11  13
ATOM     13  C   UNL     1      -0.849  13.191   5.417  1.00  0.00    -0.014 C 
ATOM     14  C   UNL     1      -0.862  11.943   6.317  1.00  0.00     0.007 C 
ATOM     15  C   UNL     1      -1.887  14.212   5.906  1.00  0.00     0.007 C 
ENDBRANCH  11  13
TORSDOF 1
ENDMDL
MODEL 4
REMARK VINA RESULT:    -5.983      1.375      4.981
REMARK INTER + INTRA:          -6.636
REMARK INTER:                  -6.380
REMARK INTRA:                  -0.256
REMARK UNBOUND:                -0.304
REMARK SMILES CC1=CC[C@@H]2[C@H]3[C@@H](C(C)C)CC[C@]2(C)[C@@H]13
REMARK SMILES IDX 1 1 2 2 3 3 4 4 5 5 6 6 15 7 13 8 12 9 11 10 7 11 14 12 8 13
REMARK SMILES IDX 9 14 10 15
REMARK H PARENT
REMARK Flexibility Score: inf
ROOT
ATOM      1  C   UNL     1      -2.084  15.605   0.691  1.00  0.00     0.039 C 
ATOM      2  C   UNL     1      -0.821  14.801   0.599  1.00  0.00    -0.073 C 
ATOM      3  C   UNL     1      -0.716  13.749  -0.254  1.00  0.00    -0.027 C 
ATOM      4  C   UNL     1       0.607  12.982  -0.322  1.00  0.00     0.031 C 
ATOM      5  C   UNL     1       1.635  13.574   0.694  1.00  0.00     0.003 C 
ATOM      6  C   UNL     1       0.895  13.769   2.045  1.00  0.00     0.004 C 
ATOM      7  C   UNL     1       0.399  15.115   1.471  1.00  0.00     0.024 C 
ATOM      8  C   UNL     1       1.688  15.121   0.615  1.00  0.00    -0.022 C 
ATOM      9  C   UNL     1       2.867  15.673   1.474  1.00  0.00     0.008 C 
ATOM     10  C   UNL     1       3.146  14.806   2.731  1.00  0.00     0.005 C 
ATOM     11  C   UNL     1       1.879  14.040   3.223  1.00  0.00    -0.005 C 
ATOM     12  C   UNL     1       1.648  15.803  -0.773  1.00  0.00     0.012 C 
ENDROOT
BRANCH  11  13
ATOM     13  C   UNL     1       2.187  12.752   4.045  1.00  0.00    -0.014 C 
ATOM     14  C   UNL     1       3.604  12.193   3.835  1.00  0.00     0.007 C 
ATOM     15  C   UNL     1       1.909  12.956   5.542  1.00  0.00     0.007 C 
ENDBRANCH  11  13
TORSDOF 1
ENDMDL
MODEL 5
REMARK VINA RESULT:    -5.539      1.536      4.389
REMARK INTER + INTRA:          -6.167
REMARK INTER:                  -5.911
REMARK INTRA:                  -0.256
REMARK UNBOUND:                -0.304
REMARK SMILES CC1=CC[C@@H]2[C@H]3[C@@H](C(C)C)CC[C@]2(C)[C@@H]13
REMARK SMILES IDX 1 1 2 2 3 3 4 4 5 5 6 6 15 7 13 8 12 9 11 10 7 11 14 12 8 13
REMARK SMILES IDX 9 14 10 15
REMARK H PARENT
REMARK Flexibility Score: inf
ROOT
ATOM      1  C   UNL     1       3.073  16.739   0.778  1.00  0.00     0.039 C 
ATOM      2  C   UNL     1       2.109  15.739   1.344  1.00  0.00    -0.073 C 
ATOM      3  C   UNL     1       0.773  15.845   1.121  1.00  0.00    -0.027 C 
ATOM      4  C   UNL     1      -0.160  14.779   1.703  1.00  0.00     0.031 C 
ATOM      5  C   UNL     1       0.655  13.728   2.522  1.00  0.00     0.003 C 
ATOM      6  C   UNL     1       1.639  14.510   3.434  1.00  0.00     0.004 C 
ATOM      7  C   UNL     1       2.580  14.566   2.209  1.00  0.00     0.024 C 
ATOM      8  C   UNL     1       1.910  13.251   1.748  1.00  0.00    -0.022 C 
ATOM      9  C   UNL     1       2.584  12.051   2.483  1.00  0.00     0.008 C 
ATOM     10  C   UNL     1       2.431  12.136   4.025  1.00  0.00     0.005 C 
ATOM     11  C   UNL     1       2.273  13.603   4.531  1.00  0.00    -0.005 C 
ATOM     12  C   UNL     1       1.795  12.975   0.230  1.00  0.00     0.012 C 
ENDROOT
BRANCH  11  13
ATOM     13  C   UNL     1       1.542  13.734   5.902  1.00  0.00    -0.014 C 
ATOM     14  C   UNL     1       0.274  12.872   6.025  1.00  0.00     0.007 C 
ATOM     15  C   UNL     1       2.491  13.459   7.078  1.00  0.00     0.007 C 
ENDBRANCH  11  13
TORSDOF 1
ENDMDL
MODEL 6
REMARK VINA RESULT:    -5.399      1.738      2.156
REMARK INTER + INTRA:          -6.019
REMARK INTER:                  -5.805
REMARK INTRA:                  -0.213
REMARK UNBOUND:                -0.304
REMARK SMILES CC1=CC[C@@H]2[C@H]3[C@@H](C(C)C)CC[C@]2(C)[C@@H]13
REMARK SMILES IDX 1 1 2 2 3 3 4 4 5 5 6 6 15 7 13 8 12 9 11 10 7 11 14 12 8 13
REMARK SMILES IDX 9 14 10 15
REMARK H PARENT
REMARK Flexibility Score: inf
ROOT
ATOM      1  C   UNL     1       3.725  14.022   6.282  1.00  0.00     0.039 C 
ATOM      2  C   UNL     1       3.221  13.509   4.966  1.00  0.00    -0.073 C 
ATOM      3  C   UNL     1       3.699  12.356   4.430  1.00  0.00    -0.027 C 
ATOM      4  C   UNL     1       3.127  11.869   3.096  1.00  0.00     0.031 C 
ATOM      5  C   UNL     1       2.061  12.877   2.558  1.00  0.00     0.003 C 
ATOM      6  C   UNL     1       2.656  14.303   2.697  1.00  0.00     0.004 C 
ATOM      7  C   UNL     1       2.160  14.265   4.160  1.00  0.00     0.024 C 
ATOM      8  C   UNL     1       1.062  13.294   3.667  1.00  0.00    -0.022 C 
ATOM      9  C   UNL     1      -0.114  14.121   3.061  1.00  0.00     0.008 C 
ATOM     10  C   UNL     1       0.326  14.982   1.847  1.00  0.00     0.005 C 
ATOM     11  C   UNL     1       1.838  15.364   1.901  1.00  0.00    -0.005 C 
ATOM     12  C   UNL     1       0.535  12.220   4.646  1.00  0.00     0.012 C 
ENDROOT
BRANCH  11  13
ATOM     13  C   UNL     1       2.470  15.678   0.511  1.00  0.00    -0.014 C 
ATOM     14  C   UNL     1       1.446  16.007  -0.588  1.00  0.00     0.007 C 
ATOM     15  C   UNL     1       3.526  16.790   0.607  1.00  0.00     0.007 C 
ENDBRANCH  11  13
TORSDOF 1
ENDMDL
MODEL 7
REMARK VINA RESULT:    -5.374      1.799      3.251
REMARK INTER + INTRA:          -5.992
REMARK INTER:                  -5.731
REMARK INTRA:                  -0.261
REMARK UNBOUND:                -0.304
REMARK SMILES CC1=CC[C@@H]2[C@H]3[C@@H](C(C)C)CC[C@]2(C)[C@@H]13
REMARK SMILES IDX 1 1 2 2 3 3 4 4 5 5 6 6 15 7 13 8 12 9 11 10 7 11 14 12 8 13
REMARK SMILES IDX 9 14 10 15
REMARK H PARENT
REMARK Flexibility Score: inf
ROOT
ATOM      1  C   UNL     1       0.801  13.527   6.173  1.00  0.00     0.039 C 
ATOM      2  C   UNL     1       1.884  13.677   5.146  1.00  0.00    -0.073 C 
ATOM      3  C   UNL     1       3.188  13.789   5.508  1.00  0.00    -0.027 C 
ATOM      4  C   UNL     1       4.251  13.914   4.413  1.00  0.00     0.031 C 
ATOM      5  C   UNL     1       3.582  13.925   3.001  1.00  0.00     0.003 C 
ATOM      6  C   UNL     1       2.381  14.906   3.062  1.00  0.00     0.004 C 
ATOM      7  C   UNL     1       1.570  13.728   3.647  1.00  0.00     0.024 C 
ATOM      8  C   UNL     1       2.526  12.799   2.863  1.00  0.00    -0.022 C 
ATOM      9  C   UNL     1       2.033  12.689   1.387  1.00  0.00     0.008 C 
ATOM     10  C   UNL     1       2.016  14.061   0.661  1.00  0.00     0.005 C 
ATOM     11  C   UNL     1       1.834  15.258   1.646  1.00  0.00    -0.005 C 
ATOM     12  C   UNL     1       2.838  11.401   3.446  1.00  0.00     0.012 C 
ENDROOT
BRANCH  11  13
ATOM     13  C   UNL     1       2.390  16.614   1.117  1.00  0.00    -0.014 C 
ATOM     14  C   UNL     1       3.587  17.160   1.913  1.00  0.00     0.007 C 
ATOM     15  C   UNL     1       2.733  16.541  -0.379  1.00  0.00     0.007 C 
ENDBRANCH  11  13
TORSDOF 1
ENDMDL
MODEL 8
REMARK VINA RESULT:    -4.968      1.951      4.152
REMARK INTER + INTRA:          -5.562
REMARK INTER:                  -5.340
REMARK INTRA:                  -0.222
REMARK UNBOUND:                -0.304
REMARK SMILES CC1=CC[C@@H]2[C@H]3[C@@H](C(C)C)CC[C@]2(C)[C@@H]13
REMARK SMILES IDX 1 1 2 2 3 3 4 4 5 5 6 6 15 7 13 8 12 9 11 10 7 11 14 12 8 13
REMARK SMILES IDX 9 14 10 15
REMARK H PARENT
REMARK Flexibility Score: inf
ROOT
ATOM      1  C   UNL     1       2.982  13.289   3.114  1.00  0.00     0.039 C 
ATOM      2  C   UNL     1       2.141  14.170   2.240  1.00  0.00    -0.073 C 
ATOM      3  C   UNL     1       2.597  15.374   1.806  1.00  0.00    -0.027 C 
ATOM      4  C   UNL     1       1.703  16.218   0.894  1.00  0.00     0.031 C 
ATOM      5  C   UNL     1       0.336  15.501   0.654  1.00  0.00     0.003 C 
ATOM      6  C   UNL     1      -0.177  15.000   2.030  1.00  0.00     0.004 C 
ATOM      7  C   UNL     1       0.727  13.765   1.811  1.00  0.00     0.024 C 
ATOM      8  C   UNL     1       0.532  14.007   0.295  1.00  0.00    -0.022 C 
ATOM      9  C   UNL     1      -0.819  13.368  -0.152  1.00  0.00     0.008 C 
ATOM     10  C   UNL     1      -2.041  13.987   0.578  1.00  0.00     0.005 C 
ATOM     11  C   UNL     1      -1.671  14.563   1.980  1.00  0.00    -0.005 C 
ATOM     12  C   UNL     1       1.676  13.609  -0.667  1.00  0.00     0.012 C 
ENDROOT
BRANCH  11  13
ATOM     13  C   UNL     1      -2.632  15.680   2.489  1.00  0.00    -0.014 C 
ATOM     14  C   UNL     1      -3.889  15.873   1.624  1.00  0.00     0.007 C 
ATOM     15  C   UNL     1      -3.023  15.465   3.959  1.00  0.00     0.007 C 
ENDBRANCH  11  13
TORSDOF 1
ENDMDL
MODEL 9
REMARK VINA RESULT:    -4.901      1.519      3.456
REMARK INTER + INTRA:          -5.491
REMARK INTER:                  -5.195
REMARK INTRA:                  -0.296
REMARK UNBOUND:                -0.304
REMARK SMILES CC1=CC[C@@H]2[C@H]3[C@@H](C(C)C)CC[C@]2(C)[C@@H]13
REMARK SMILES IDX 1 1 2 2 3 3 4 4 5 5 6 6 15 7 13 8 12 9 11 10 7 11 14 12 8 13
REMARK SMILES IDX 9 14 10 15
REMARK H PARENT
REMARK Flexibility Score: inf
ROOT
ATOM      1  C   UNL     1       3.269  11.894   3.109  1.00  0.00     0.039 C 
ATOM      2  C   UNL     1       2.249  12.914   2.698  1.00  0.00    -0.073 C 
ATOM      3  C   UNL     1       1.382  13.446   3.598  1.00  0.00    -0.027 C 
ATOM      4  C   UNL     1       0.381  14.503   3.125  1.00  0.00     0.031 C 
ATOM      5  C   UNL     1       0.536  14.753   1.590  1.00  0.00     0.003 C 
ATOM      6  C   UNL     1       0.619  13.367   0.898  1.00  0.00     0.004 C 
ATOM      7  C   UNL     1       2.125  13.388   1.247  1.00  0.00     0.024 C 
ATOM      8  C   UNL     1       2.022  14.931   1.190  1.00  0.00    -0.022 C 
ATOM      9  C   UNL     1       2.138  15.394  -0.295  1.00  0.00     0.008 C 
ATOM     10  C   UNL     1       1.006  14.819  -1.189  1.00  0.00     0.005 C 
ATOM     11  C   UNL     1       0.445  13.467  -0.647  1.00  0.00    -0.005 C 
ATOM     12  C   UNL     1       2.951  15.765   2.102  1.00  0.00     0.012 C 
ENDROOT
BRANCH  11  13
ATOM     13  C   UNL     1      -1.012  13.150  -1.100  1.00  0.00    -0.014 C 
ATOM     14  C   UNL     1      -2.015  13.001   0.057  1.00  0.00     0.007 C 
ATOM     15  C   UNL     1      -1.524  14.178  -2.121  1.00  0.00     0.007 C 
ENDBRANCH  11  13
TORSDOF 1
ENDMDL
