MODEL 1
REMARK VINA RESULT:    -5.903      0.000      0.000
REMARK INTER + INTRA:          -6.851
REMARK INTER:                  -6.593
REMARK INTRA:                  -0.258
REMARK UNBOUND:                -0.258
REMARK SMILES COc1cc2c(cc1C(C)=O)C=CC(C)(C)O2
REMARK SMILES IDX 8 1 3 2 4 3 5 4 6 5 7 6 12 7 13 8 14 9 17 10 15 11 16 12
REMARK SMILES IDX 9 13 10 14 11 15 2 16 1 17
REMARK H PARENT
REMARK Flexibility Score: inf
ROOT
ATOM      1  C   UNL     1     113.071 119.654 108.214  1.00  0.00     0.060 A 
ATOM      2  C   UNL     1     111.778 119.072 108.208  1.00  0.00     0.133 A 
ATOM      3  C   UNL     1     111.650 117.670 108.130  1.00  0.00     0.094 A 
ATOM      4  C   UNL     1     112.780 116.858 108.060  1.00  0.00     0.131 A 
ATOM      5  C   UNL     1     114.054 117.426 108.053  1.00  0.00     0.017 A 
ATOM      6  C   UNL     1     114.201 118.815 108.129  1.00  0.00     0.027 A 
ATOM      7  C   UNL     1     115.223 116.542 107.924  1.00  0.00     0.012 C 
ATOM      8  C   UNL     1     115.077 115.214 107.925  1.00  0.00     0.021 C 
ATOM      9  C   UNL     1     113.732 114.556 108.185  1.00  0.00     0.122 C 
ATOM     10  O   UNL     1     112.643 115.468 107.974  1.00  0.00    -0.483 OA
ATOM     11  C   UNL     1     113.556 113.368 107.234  1.00  0.00     0.061 C 
ATOM     12  C   UNL     1     113.688 114.072 109.639  1.00  0.00     0.061 C 
ENDROOT
BRANCH   1  13
ATOM     13  C   UNL     1     113.249 121.132 108.310  1.00  0.00     0.163 C 
ATOM     14  C   UNL     1     113.497 121.975 107.095  1.00  0.00     0.093 C 
ATOM     15  O   UNL     1     113.230 121.700 109.436  1.00  0.00    -0.294 OA
ENDBRANCH   1  13
BRANCH   2  16
ATOM     16  O   UNL     1     110.646 119.904 108.266  1.00  0.00    -0.496 OA
ATOM     17  C   UNL     1     109.888 120.325 107.136  1.00  0.00     0.278 C 
ENDBRANCH   2  16
TORSDOF 2
ENDMDL
MODEL 2
REMARK VINA RESULT:    -5.882      5.552     10.387
REMARK INTER + INTRA:          -6.827
REMARK INTER:                  -6.561
REMARK INTRA:                  -0.266
REMARK UNBOUND:                -0.258
REMARK SMILES COc1cc2c(cc1C(C)=O)C=CC(C)(C)O2
REMARK SMILES IDX 8 1 3 2 4 3 5 4 6 5 7 6 12 7 13 8 14 9 17 10 15 11 16 12
REMARK SMILES IDX 9 13 10 14 11 15 2 16 1 17
REMARK H PARENT
REMARK Flexibility Score: inf
ROOT
ATOM      1  C   UNL     1     114.336 107.682 108.240  1.00  0.00     0.060 A 
ATOM      2  C   UNL     1     115.628 108.265 108.225  1.00  0.00     0.133 A 
ATOM      3  C   UNL     1     115.755 109.665 108.121  1.00  0.00     0.094 A 
ATOM      4  C   UNL     1     114.624 110.475 108.035  1.00  0.00     0.131 A 
ATOM      5  C   UNL     1     113.350 109.906 108.037  1.00  0.00     0.017 A 
ATOM      6  C   UNL     1     113.205 108.518 108.139  1.00  0.00     0.027 A 
ATOM      7  C   UNL     1     112.181 110.786 107.891  1.00  0.00     0.012 C 
ATOM      8  C   UNL     1     112.326 112.114 107.868  1.00  0.00     0.021 C 
ATOM      9  C   UNL     1     113.670 112.778 108.117  1.00  0.00     0.122 C 
ATOM     10  O   UNL     1     114.760 111.863 107.923  1.00  0.00    -0.483 OA
ATOM     11  C   UNL     1     113.846 113.948 107.144  1.00  0.00     0.061 C 
ATOM     12  C   UNL     1     113.713 113.289 109.562  1.00  0.00     0.061 C 
ENDROOT
BRANCH   1  13
ATOM     13  C   UNL     1     114.159 106.206 108.363  1.00  0.00     0.163 C 
ATOM     14  C   UNL     1     114.006 105.328 107.157  1.00  0.00     0.093 C 
ATOM     15  O   UNL     1     114.096 105.668 109.502  1.00  0.00    -0.294 OA
ENDBRANCH   1  13
BRANCH   2  16
ATOM     16  O   UNL     1     116.760 107.435 108.299  1.00  0.00    -0.496 OA
ATOM     17  C   UNL     1     117.539 107.021 107.181  1.00  0.00     0.278 C 
ENDBRANCH   2  16
TORSDOF 2
ENDMDL
MODEL 3
REMARK VINA RESULT:    -5.862      6.872     10.257
REMARK INTER + INTRA:          -6.805
REMARK INTER:                  -6.557
REMARK INTRA:                  -0.248
REMARK UNBOUND:                -0.258
REMARK SMILES COc1cc2c(cc1C(C)=O)C=CC(C)(C)O2
REMARK SMILES IDX 8 1 3 2 4 3 5 4 6 5 7 6 12 7 13 8 14 9 17 10 15 11 16 12
REMARK SMILES IDX 9 13 10 14 11 15 2 16 1 17
REMARK H PARENT
REMARK Flexibility Score: inf
ROOT
ATOM      1  C   UNL     1     114.201 109.735 107.869  1.00  0.00     0.060 A 
ATOM      2  C   UNL     1     115.547 109.827 107.434  1.00  0.00     0.133 A 
ATOM      3  C   UNL     1     116.379 108.691 107.508  1.00  0.00     0.094 A 
ATOM      4  C   UNL     1     115.888 107.484 108.004  1.00  0.00     0.131 A 
ATOM      5  C   UNL     1     114.568 107.392 108.446  1.00  0.00     0.017 A 
ATOM      6  C   UNL     1     113.728 108.509 108.380  1.00  0.00     0.027 A 
ATOM      7  C   UNL     1     114.099 106.118 109.013  1.00  0.00     0.012 C 
ATOM      8  C   UNL     1     114.884 105.037 109.004  1.00  0.00     0.021 C 
ATOM      9  C   UNL     1     116.233 105.033 108.304  1.00  0.00     0.122 C 
ATOM     10  O   UNL     1     116.723 106.364 108.083  1.00  0.00    -0.483 OA
ATOM     11  C   UNL     1     117.252 104.284 109.170  1.00  0.00     0.061 C 
ATOM     12  C   UNL     1     116.087 104.334 106.947  1.00  0.00     0.061 C 
ENDROOT
BRANCH   1  13
ATOM     13  C   UNL     1     113.286 110.910 107.794  1.00  0.00     0.163 C 
ATOM     14  C   UNL     1     113.326 112.007 108.816  1.00  0.00     0.093 C 
ATOM     15  O   UNL     1     112.425 110.984 106.875  1.00  0.00    -0.294 OA
ENDBRANCH   1  13
BRANCH   2  16
ATOM     16  O   UNL     1     116.033 111.054 106.948  1.00  0.00    -0.496 OA
ATOM     17  C   UNL     1     116.968 111.884 107.629  1.00  0.00     0.278 C 
ENDBRANCH   2  16
TORSDOF 2
ENDMDL
MODEL 4
REMARK VINA RESULT:    -5.842      1.730      5.747
REMARK INTER + INTRA:          -6.782
REMARK INTER:                  -6.563
REMARK INTRA:                  -0.220
REMARK UNBOUND:                -0.258
REMARK SMILES COc1cc2c(cc1C(C)=O)C=CC(C)(C)O2
REMARK SMILES IDX 8 1 3 2 4 3 5 4 6 5 7 6 12 7 13 8 14 9 17 10 15 11 16 12
REMARK SMILES IDX 9 13 10 14 11 15 2 16 1 17
REMARK H PARENT
REMARK Flexibility Score: inf
ROOT
ATOM      1  C   UNL     1     113.199 117.576 107.863  1.00  0.00     0.060 A 
ATOM      2  C   UNL     1     111.844 117.440 107.470  1.00  0.00     0.133 A 
ATOM      3  C   UNL     1     110.985 118.556 107.547  1.00  0.00     0.094 A 
ATOM      4  C   UNL     1     111.458 119.785 108.003  1.00  0.00     0.131 A 
ATOM      5  C   UNL     1     112.788 119.921 108.403  1.00  0.00     0.017 A 
ATOM      6  C   UNL     1     113.654 118.825 108.334  1.00  0.00     0.027 A 
ATOM      7  C   UNL     1     113.239 121.218 108.930  1.00  0.00     0.012 C 
ATOM      8  C   UNL     1     112.426 122.278 108.923  1.00  0.00     0.021 C 
ATOM      9  C   UNL     1     111.057 122.232 108.265  1.00  0.00     0.122 C 
ATOM     10  O   UNL     1     110.596 120.884 108.085  1.00  0.00    -0.483 OA
ATOM     11  C   UNL     1     110.045 122.972 109.146  1.00  0.00     0.061 C 
ATOM     12  C   UNL     1     111.144 122.906 106.890  1.00  0.00     0.061 C 
ENDROOT
BRANCH   1  13
ATOM     13  C   UNL     1     114.143 116.424 107.783  1.00  0.00     0.163 C 
ATOM     14  C   UNL     1     114.113 115.311 108.787  1.00  0.00     0.093 C 
ATOM     15  O   UNL     1     115.020 116.385 106.877  1.00  0.00    -0.294 OA
ENDBRANCH   1  13
BRANCH   2  16
ATOM     16  O   UNL     1     111.377 116.191 107.024  1.00  0.00    -0.496 OA
ATOM     17  C   UNL     1     110.321 115.455 107.633  1.00  0.00     0.278 C 
ENDBRANCH   2  16
TORSDOF 2
ENDMDL
MODEL 5
REMARK VINA RESULT:    -5.827      7.050      9.616
REMARK INTER + INTRA:          -6.766
REMARK INTER:                  -6.599
REMARK INTRA:                  -0.167
REMARK UNBOUND:                -0.258
REMARK SMILES COc1cc2c(cc1C(C)=O)C=CC(C)(C)O2
REMARK SMILES IDX 8 1 3 2 4 3 5 4 6 5 7 6 12 7 13 8 14 9 17 10 15 11 16 12
REMARK SMILES IDX 9 13 10 14 11 15 2 16 1 17
REMARK H PARENT
REMARK Flexibility Score: inf
ROOT
ATOM      1  C   UNL     1     115.272 110.210 107.916  1.00  0.00     0.060 A 
ATOM      2  C   UNL     1     113.939 109.939 107.519  1.00  0.00     0.133 A 
ATOM      3  C   UNL     1     113.507 108.602 107.406  1.00  0.00     0.094 A 
ATOM      4  C   UNL     1     114.379 107.550 107.683  1.00  0.00     0.131 A 
ATOM      5  C   UNL     1     115.696 107.811 108.062  1.00  0.00     0.017 A 
ATOM      6  C   UNL     1     116.142 109.131 108.178  1.00  0.00     0.027 A 
ATOM      7  C   UNL     1     116.603 106.676 108.293  1.00  0.00     0.012 C 
ATOM      8  C   UNL     1     116.150 105.420 108.251  1.00  0.00     0.021 C 
ATOM      9  C   UNL     1     114.671 105.108 108.092  1.00  0.00     0.122 C 
ATOM     10  O   UNL     1     113.944 106.226 107.560  1.00  0.00    -0.483 OA
ATOM     11  C   UNL     1     114.503 103.925 107.132  1.00  0.00     0.061 C 
ATOM     12  C   UNL     1     114.087 104.753 109.464  1.00  0.00     0.061 C 
ENDROOT
BRANCH   1  13
ATOM     13  C   UNL     1     115.763 111.611 108.060  1.00  0.00     0.163 C 
ATOM     14  C   UNL     1     116.884 112.143 107.218  1.00  0.00     0.093 C 
ATOM     15  O   UNL     1     115.261 112.371 108.932  1.00  0.00    -0.294 OA
ENDBRANCH   1  13
BRANCH   2  16
ATOM     16  O   UNL     1     113.074 111.010 107.231  1.00  0.00    -0.496 OA
ATOM     17  C   UNL     1     111.804 111.215 107.842  1.00  0.00     0.278 C 
ENDBRANCH   2  16
TORSDOF 2
ENDMDL
MODEL 6
REMARK VINA RESULT:    -5.822      1.767      6.086
REMARK INTER + INTRA:          -6.760
REMARK INTER:                  -6.566
REMARK INTRA:                  -0.194
REMARK UNBOUND:                -0.258
REMARK SMILES COc1cc2c(cc1C(C)=O)C=CC(C)(C)O2
REMARK SMILES IDX 8 1 3 2 4 3 5 4 6 5 7 6 12 7 13 8 14 9 17 10 15 11 16 12
REMARK SMILES IDX 9 13 10 14 11 15 2 16 1 17
REMARK H PARENT
REMARK Flexibility Score: inf
ROOT
ATOM      1  C   UNL     1     112.172 117.324 107.811  1.00  0.00     0.060 A 
ATOM      2  C   UNL     1     113.519 117.607 107.469  1.00  0.00     0.133 A 
ATOM      3  C   UNL     1     113.951 118.947 107.407  1.00  0.00     0.094 A 
ATOM      4  C   UNL     1     113.067 119.990 107.680  1.00  0.00     0.131 A 
ATOM      5  C   UNL     1     111.738 119.718 108.004  1.00  0.00     0.017 A 
ATOM      6  C   UNL     1     111.291 118.394 108.070  1.00  0.00     0.027 A 
ATOM      7  C   UNL     1     110.821 120.845 108.233  1.00  0.00     0.012 C 
ATOM      8  C   UNL     1     111.272 122.102 108.241  1.00  0.00     0.021 C 
ATOM      9  C   UNL     1     112.755 122.421 108.142  1.00  0.00     0.122 C 
ATOM     10  O   UNL     1     113.503 121.318 107.607  1.00  0.00    -0.483 OA
ATOM     11  C   UNL     1     112.954 123.628 107.220  1.00  0.00     0.061 C 
ATOM     12  C   UNL     1     113.289 122.739 109.543  1.00  0.00     0.061 C 
ENDROOT
BRANCH   1  13
ATOM     13  C   UNL     1     111.680 115.919 107.901  1.00  0.00     0.163 C 
ATOM     14  C   UNL     1     110.634 115.390 106.967  1.00  0.00     0.093 C 
ATOM     15  O   UNL     1     112.116 115.152 108.803  1.00  0.00    -0.294 OA
ENDBRANCH   1  13
BRANCH   2  16
ATOM     16  O   UNL     1     114.396 116.545 107.184  1.00  0.00    -0.496 OA
ATOM     17  C   UNL     1     115.600 116.274 107.894  1.00  0.00     0.278 C 
ENDBRANCH   2  16
TORSDOF 2
ENDMDL
MODEL 7
REMARK VINA RESULT:    -5.468      6.054      8.758
REMARK INTER + INTRA:          -6.365
REMARK INTER:                  -6.212
REMARK INTRA:                  -0.153
REMARK UNBOUND:                -0.258
REMARK SMILES COc1cc2c(cc1C(C)=O)C=CC(C)(C)O2
REMARK SMILES IDX 8 1 3 2 4 3 5 4 6 5 7 6 12 7 13 8 14 9 17 10 15 11 16 12
REMARK SMILES IDX 9 13 10 14 11 15 2 16 1 17
REMARK H PARENT
REMARK Flexibility Score: inf
ROOT
ATOM      1  C   UNL     1     114.719 111.052 108.041  1.00  0.00     0.060 A 
ATOM      2  C   UNL     1     113.347 110.708 107.956  1.00  0.00     0.133 A 
ATOM      3  C   UNL     1     112.977 109.352 107.849  1.00  0.00     0.094 A 
ATOM      4  C   UNL     1     113.948 108.352 107.828  1.00  0.00     0.131 A 
ATOM      5  C   UNL     1     115.301 108.686 107.898  1.00  0.00     0.017 A 
ATOM      6  C   UNL     1     115.686 110.026 108.004  1.00  0.00     0.027 A 
ATOM      7  C   UNL     1     116.300 107.609 107.819  1.00  0.00     0.012 C 
ATOM      8  C   UNL     1     115.922 106.328 107.792  1.00  0.00     0.021 C 
ATOM      9  C   UNL     1     114.470 105.918 107.969  1.00  0.00     0.122 C 
ATOM     10  O   UNL     1     113.572 107.009 107.712  1.00  0.00    -0.483 OA
ATOM     11  C   UNL     1     114.139 104.785 106.990  1.00  0.00     0.061 C 
ATOM     12  C   UNL     1     114.259 105.440 109.410  1.00  0.00     0.061 C 
ENDROOT
BRANCH   1  13
ATOM     13  C   UNL     1     115.150 112.474 108.169  1.00  0.00     0.163 C 
ATOM     14  C   UNL     1     114.928 113.254 109.430  1.00  0.00     0.093 C 
ATOM     15  O   UNL     1     115.684 113.065 107.190  1.00  0.00    -0.294 OA
ENDBRANCH   1  13
BRANCH   2  16
ATOM     16  O   UNL     1     112.379 111.728 107.965  1.00  0.00    -0.496 OA
ATOM     17  C   UNL     1     111.069 111.610 107.418  1.00  0.00     0.278 C 
ENDBRANCH   2  16
TORSDOF 2
ENDMDL
MODEL 8
REMARK VINA RESULT:    -5.174      7.145     11.616
REMARK INTER + INTRA:          -6.037
REMARK INTER:                  -5.888
REMARK INTRA:                  -0.149
REMARK UNBOUND:                -0.258
REMARK SMILES COc1cc2c(cc1C(C)=O)C=CC(C)(C)O2
REMARK SMILES IDX 8 1 3 2 4 3 5 4 6 5 7 6 12 7 13 8 14 9 17 10 15 11 16 12
REMARK SMILES IDX 9 13 10 14 11 15 2 16 1 17
REMARK H PARENT
REMARK Flexibility Score: inf
ROOT
ATOM      1  C   UNL     1     116.112 106.377 108.231  1.00  0.00     0.060 A 
ATOM      2  C   UNL     1     114.766 106.199 108.640  1.00  0.00     0.133 A 
ATOM      3  C   UNL     1     113.935 107.326 108.800  1.00  0.00     0.094 A 
ATOM      4  C   UNL     1     114.426 108.608 108.558  1.00  0.00     0.131 A 
ATOM      5  C   UNL     1     115.753 108.791 108.168  1.00  0.00     0.017 A 
ATOM      6  C   UNL     1     116.592 107.684 108.005  1.00  0.00     0.027 A 
ATOM      7  C   UNL     1     116.251 110.161 107.974  1.00  0.00     0.012 C 
ATOM      8  C   UNL     1     115.424 111.207 108.060  1.00  0.00     0.021 C 
ATOM      9  C   UNL     1     113.925 111.030 108.233  1.00  0.00     0.122 C 
ATOM     10  O   UNL     1     113.596 109.722 108.728  1.00  0.00    -0.483 OA
ATOM     11  C   UNL     1     113.403 112.067 109.234  1.00  0.00     0.061 C 
ATOM     12  C   UNL     1     113.240 111.224 106.875  1.00  0.00     0.061 C 
ENDROOT
BRANCH   1  13
ATOM     13  C   UNL     1     117.019 105.209 108.038  1.00  0.00     0.163 C 
ATOM     14  C   UNL     1     117.500 104.385 109.195  1.00  0.00     0.093 C 
ATOM     15  O   UNL     1     117.433 104.914 106.883  1.00  0.00    -0.294 OA
ENDBRANCH   1  13
BRANCH   2  16
ATOM     16  O   UNL     1     114.289 104.901 108.892  1.00  0.00    -0.496 OA
ATOM     17  C   UNL     1     113.393 104.186 108.047  1.00  0.00     0.278 C 
ENDBRANCH   2  16
TORSDOF 2
ENDMDL
