MODEL 1
REMARK VINA RESULT:    -2.440      0.000      0.000
REMARK INTER + INTRA:          -4.220
REMARK INTER:                  -3.438
REMARK INTRA:                  -0.782
REMARK UNBOUND:                -0.782
REMARK SMILES CCCCCCCCC(=O)[O-]
REMARK SMILES IDX 6 1 7 2 8 3 9 4 10 5 11 6 5 7 4 8 3 9 2 10 1 11
REMARK H PARENT
REMARK Flexibility Score: inf
ROOT
ATOM      1  C   UNL     1      14.020  26.858  21.225  1.00  0.00     0.000 C 
ENDROOT
BRANCH   1   2
ATOM      2  C   UNL     1      14.308  28.012  20.246  1.00  0.00     0.006 C 
BRANCH   2   3
ATOM      3  C   UNL     1      14.022  29.410  20.820  1.00  0.00     0.053 C 
BRANCH   3   4
ATOM      4  C   UNL     1      12.674  29.919  20.414  1.00  0.00     0.041 C 
ATOM      5  O   UNL     1      12.348  29.952  19.198  1.00  0.00    -0.550 OA
ATOM      6  O   UNL     1      11.790  30.391  21.376  1.00  0.00    -0.550 OA
ENDBRANCH   3   4
ENDBRANCH   2   3
ENDBRANCH   1   2
BRANCH   1   7
ATOM      7  C   UNL     1      15.067  26.757  22.348  1.00  0.00     0.000 C 
BRANCH   7   8
ATOM      8  C   UNL     1      14.447  26.886  23.749  1.00  0.00    -0.000 C 
BRANCH   8   9
ATOM      9  C   UNL     1      12.927  27.118  23.702  1.00  0.00    -0.000 C 
BRANCH   9  10
ATOM     10  C   UNL     1      12.528  28.512  24.210  1.00  0.00    -0.003 C 
ATOM     11  C   UNL     1      13.733  29.382  24.567  1.00  0.00     0.004 C 
ENDBRANCH   9  10
ENDBRANCH   8   9
ENDBRANCH   7   8
ENDBRANCH   1   7
TORSDOF 7
ENDMDL
MODEL 2
REMARK VINA RESULT:    -2.408     22.107     23.097
REMARK INTER + INTRA:          -4.175
REMARK INTER:                  -4.019
REMARK INTRA:                  -0.156
REMARK UNBOUND:                -0.782
REMARK SMILES CCCCCCCCC(=O)[O-]
REMARK SMILES IDX 6 1 7 2 8 3 9 4 10 5 11 6 5 7 4 8 3 9 2 10 1 11
REMARK H PARENT
REMARK Flexibility Score: inf
ROOT
ATOM      1  C   UNL     1      -4.807  19.116  11.123  1.00  0.00     0.000 C 
ENDROOT
BRANCH   1   2
ATOM      2  C   UNL     1      -4.800  19.312  12.651  1.00  0.00     0.006 C 
BRANCH   2   3
ATOM      3  C   UNL     1      -4.569  20.764  13.099  1.00  0.00     0.053 C 
BRANCH   3   4
ATOM      4  C   UNL     1      -4.066  20.845  14.507  1.00  0.00     0.041 C 
ATOM      5  O   UNL     1      -4.878  20.924  15.466  1.00  0.00    -0.550 OA
ATOM      6  O   UNL     1      -2.700  20.869  14.758  1.00  0.00    -0.550 OA
ENDBRANCH   3   4
ENDBRANCH   2   3
ENDBRANCH   1   2
BRANCH   1   7
ATOM      7  C   UNL     1      -4.875  17.634  10.715  1.00  0.00     0.000 C 
BRANCH   7   8
ATOM      8  C   UNL     1      -4.193  17.359   9.365  1.00  0.00    -0.000 C 
BRANCH   8   9
ATOM      9  C   UNL     1      -4.052  15.855   9.072  1.00  0.00    -0.000 C 
BRANCH   9  10
ATOM     10  C   UNL     1      -2.627  15.338   9.323  1.00  0.00    -0.003 C 
ATOM     11  C   UNL     1      -2.599  13.895   9.827  1.00  0.00     0.004 C 
ENDBRANCH   9  10
ENDBRANCH   8   9
ENDBRANCH   7   8
ENDBRANCH   1   7
TORSDOF 7
ENDMDL
MODEL 3
REMARK VINA RESULT:    -2.398      2.222      4.696
REMARK INTER + INTRA:          -4.161
REMARK INTER:                  -3.789
REMARK INTRA:                  -0.372
REMARK UNBOUND:                -0.782
REMARK SMILES CCCCCCCCC(=O)[O-]
REMARK SMILES IDX 6 1 7 2 8 3 9 4 10 5 11 6 5 7 4 8 3 9 2 10 1 11
REMARK H PARENT
REMARK Flexibility Score: inf
ROOT
ATOM      1  C   UNL     1      13.970  27.012  21.070  1.00  0.00     0.000 C 
ENDROOT
BRANCH   1   2
ATOM      2  C   UNL     1      14.410  26.929  22.543  1.00  0.00     0.006 C 
BRANCH   2   3
ATOM      3  C   UNL     1      13.251  26.742  23.538  1.00  0.00     0.053 C 
BRANCH   3   4
ATOM      4  C   UNL     1      12.921  28.011  24.261  1.00  0.00     0.041 C 
ATOM      5  O   UNL     1      12.128  28.845  23.749  1.00  0.00    -0.550 OA
ATOM      6  O   UNL     1      13.517  28.291  25.485  1.00  0.00    -0.550 OA
ENDBRANCH   3   4
ENDBRANCH   2   3
ENDBRANCH   1   2
BRANCH   1   7
ATOM      7  C   UNL     1      14.293  28.373  20.429  1.00  0.00     0.000 C 
BRANCH   7   8
ATOM      8  C   UNL     1      13.073  29.306  20.372  1.00  0.00    -0.000 C 
BRANCH   8   9
ATOM      9  C   UNL     1      13.266  30.468  19.383  1.00  0.00    -0.000 C 
BRANCH   9  10
ATOM     10  C   UNL     1      12.368  30.339  18.143  1.00  0.00    -0.003 C 
ATOM     11  C   UNL     1      13.153  30.026  16.869  1.00  0.00     0.004 C 
ENDBRANCH   9  10
ENDBRANCH   8   9
ENDBRANCH   7   8
ENDBRANCH   1   7
TORSDOF 7
ENDMDL
MODEL 4
REMARK VINA RESULT:    -2.324      2.195      3.845
REMARK INTER + INTRA:          -4.057
REMARK INTER:                  -3.263
REMARK INTRA:                  -0.794
REMARK UNBOUND:                -0.782
REMARK SMILES CCCCCCCCC(=O)[O-]
REMARK SMILES IDX 6 1 7 2 8 3 9 4 10 5 11 6 5 7 4 8 3 9 2 10 1 11
REMARK H PARENT
REMARK Flexibility Score: inf
ROOT
ATOM      1  C   UNL     1      14.066  27.033  20.799  1.00  0.00     0.000 C 
ENDROOT
BRANCH   1   2
ATOM      2  C   UNL     1      14.946  26.726  22.025  1.00  0.00     0.006 C 
BRANCH   2   3
ATOM      3  C   UNL     1      14.630  27.588  23.259  1.00  0.00     0.053 C 
BRANCH   3   4
ATOM      4  C   UNL     1      13.353  27.174  23.921  1.00  0.00     0.041 C 
ATOM      5  O   UNL     1      12.376  27.968  23.966  1.00  0.00    -0.550 OA
ATOM      6  O   UNL     1      13.251  25.925  24.520  1.00  0.00    -0.550 OA
ENDBRANCH   3   4
ENDBRANCH   2   3
ENDBRANCH   1   2
BRANCH   1   7
ATOM      7  C   UNL     1      14.767  27.947  19.779  1.00  0.00     0.000 C 
BRANCH   7   8
ATOM      8  C   UNL     1      14.320  29.414  19.892  1.00  0.00    -0.000 C 
BRANCH   8   9
ATOM      9  C   UNL     1      12.799  29.554  20.073  1.00  0.00    -0.000 C 
BRANCH   9  10
ATOM     10  C   UNL     1      12.426  30.294  21.367  1.00  0.00    -0.003 C 
ATOM     11  C   UNL     1      13.629  30.950  22.044  1.00  0.00     0.004 C 
ENDBRANCH   9  10
ENDBRANCH   8   9
ENDBRANCH   7   8
ENDBRANCH   1   7
TORSDOF 7
ENDMDL
MODEL 5
REMARK VINA RESULT:    -2.322     24.432     25.393
REMARK INTER + INTRA:          -4.054
REMARK INTER:                  -3.186
REMARK INTRA:                  -0.867
REMARK UNBOUND:                -0.782
REMARK SMILES CCCCCCCCC(=O)[O-]
REMARK SMILES IDX 6 1 7 2 8 3 9 4 10 5 11 6 5 7 4 8 3 9 2 10 1 11
REMARK H PARENT
REMARK Flexibility Score: inf
ROOT
ATOM      1  C   UNL     1      -4.896  12.071  10.806  1.00  0.00     0.000 C 
ENDROOT
BRANCH   1   2
ATOM      2  C   UNL     1      -4.879  13.072   9.636  1.00  0.00     0.006 C 
BRANCH   2   3
ATOM      3  C   UNL     1      -4.729  14.541  10.064  1.00  0.00     0.053 C 
BRANCH   3   4
ATOM      4  C   UNL     1      -3.814  15.301   9.154  1.00  0.00     0.041 C 
ATOM      5  O   UNL     1      -3.094  14.687   8.323  1.00  0.00    -0.550 OA
ATOM      6  O   UNL     1      -3.731  16.684   9.247  1.00  0.00    -0.550 OA
ENDBRANCH   3   4
ENDBRANCH   2   3
ENDBRANCH   1   2
BRANCH   1   7
ATOM      7  C   UNL     1      -3.508  11.474  11.096  1.00  0.00     0.000 C 
BRANCH   7   8
ATOM      8  C   UNL     1      -2.582  11.504   9.869  1.00  0.00    -0.000 C 
BRANCH   8   9
ATOM      9  C   UNL     1      -1.246  12.211  10.157  1.00  0.00    -0.000 C 
BRANCH   9  10
ATOM     10  C   UNL     1      -1.365  13.261  11.272  1.00  0.00    -0.003 C 
ATOM     11  C   UNL     1      -0.706  14.592  10.909  1.00  0.00     0.004 C 
ENDBRANCH   9  10
ENDBRANCH   8   9
ENDBRANCH   7   8
ENDBRANCH   1   7
TORSDOF 7
ENDMDL
MODEL 6
REMARK VINA RESULT:    -2.100     24.339     25.322
REMARK INTER + INTRA:          -3.741
REMARK INTER:                  -3.047
REMARK INTRA:                  -0.695
REMARK UNBOUND:                -0.782
REMARK SMILES CCCCCCCCC(=O)[O-]
REMARK SMILES IDX 6 1 7 2 8 3 9 4 10 5 11 6 5 7 4 8 3 9 2 10 1 11
REMARK H PARENT
REMARK Flexibility Score: inf
ROOT
ATOM      1  C   UNL     1      -1.368  13.254  11.191  1.00  0.00     0.000 C 
ENDROOT
BRANCH   1   2
ATOM      2  C   UNL     1      -1.481  14.383  10.150  1.00  0.00     0.006 C 
BRANCH   2   3
ATOM      3  C   UNL     1      -2.912  14.632   9.645  1.00  0.00     0.053 C 
BRANCH   3   4
ATOM      4  C   UNL     1      -3.046  15.964   8.974  1.00  0.00     0.041 C 
ATOM      5  O   UNL     1      -4.030  16.707   9.231  1.00  0.00    -0.550 OA
ATOM      6  O   UNL     1      -2.104  16.371   8.038  1.00  0.00    -0.550 OA
ENDBRANCH   3   4
ENDBRANCH   2   3
ENDBRANCH   1   2
BRANCH   1   7
ATOM      7  C   UNL     1      -1.006  11.898  10.560  1.00  0.00     0.000 C 
BRANCH   7   8
ATOM      8  C   UNL     1      -2.155  10.880  10.641  1.00  0.00    -0.000 C 
BRANCH   8   9
ATOM      9  C   UNL     1      -3.045  10.896   9.387  1.00  0.00    -0.000 C 
BRANCH   9  10
ATOM     10  C   UNL     1      -4.518  11.191   9.715  1.00  0.00    -0.003 C 
ATOM     11  C   UNL     1      -4.726  11.645  11.160  1.00  0.00     0.004 C 
ENDBRANCH   9  10
ENDBRANCH   8   9
ENDBRANCH   7   8
ENDBRANCH   1   7
TORSDOF 7
ENDMDL
MODEL 7
REMARK VINA RESULT:    -2.057     21.042     22.378
REMARK INTER + INTRA:          -3.681
REMARK INTER:                  -3.237
REMARK INTRA:                  -0.443
REMARK UNBOUND:                -0.782
REMARK SMILES CCCCCCCCC(=O)[O-]
REMARK SMILES IDX 6 1 7 2 8 3 9 4 10 5 11 6 5 7 4 8 3 9 2 10 1 11
REMARK H PARENT
REMARK Flexibility Score: inf
ROOT
ATOM      1  C   UNL     1      -3.468  15.301  26.640  1.00  0.00     0.000 C 
ENDROOT
BRANCH   1   2
ATOM      2  C   UNL     1      -4.026  16.588  27.274  1.00  0.00     0.006 C 
BRANCH   2   3
ATOM      3  C   UNL     1      -4.307  17.716  26.268  1.00  0.00     0.053 C 
BRANCH   3   4
ATOM      4  C   UNL     1      -3.740  19.026  26.720  1.00  0.00     0.041 C 
ATOM      5  O   UNL     1      -2.493  19.181  26.806  1.00  0.00    -0.550 OA
ATOM      6  O   UNL     1      -4.589  20.065  27.079  1.00  0.00    -0.550 OA
ENDBRANCH   3   4
ENDBRANCH   2   3
ENDBRANCH   1   2
BRANCH   1   7
ATOM      7  C   UNL     1      -4.082  14.026  27.245  1.00  0.00     0.000 C 
BRANCH   7   8
ATOM      8  C   UNL     1      -5.042  13.313  26.279  1.00  0.00    -0.000 C 
BRANCH   8   9
ATOM      9  C   UNL     1      -5.084  13.979  24.893  1.00  0.00    -0.000 C 
BRANCH   9  10
ATOM     10  C   UNL     1      -4.754  12.997  23.758  1.00  0.00    -0.003 C 
ATOM     11  C   UNL     1      -4.102  11.708  24.258  1.00  0.00     0.004 C 
ENDBRANCH   9  10
ENDBRANCH   8   9
ENDBRANCH   7   8
ENDBRANCH   1   7
TORSDOF 7
ENDMDL
MODEL 8
REMARK VINA RESULT:    -1.969      1.992      2.713
REMARK INTER + INTRA:          -3.557
REMARK INTER:                  -3.321
REMARK INTRA:                  -0.235
REMARK UNBOUND:                -0.782
REMARK SMILES CCCCCCCCC(=O)[O-]
REMARK SMILES IDX 6 1 7 2 8 3 9 4 10 5 11 6 5 7 4 8 3 9 2 10 1 11
REMARK H PARENT
REMARK Flexibility Score: inf
ROOT
ATOM      1  C   UNL     1      14.665  28.756  20.135  1.00  0.00     0.000 C 
ENDROOT
BRANCH   1   2
ATOM      2  C   UNL     1      13.223  29.296  20.121  1.00  0.00     0.006 C 
BRANCH   2   3
ATOM      3  C   UNL     1      12.939  30.303  18.994  1.00  0.00     0.053 C 
BRANCH   3   4
ATOM      4  C   UNL     1      13.813  30.072  17.800  1.00  0.00     0.041 C 
ATOM      5  O   UNL     1      13.555  29.137  16.997  1.00  0.00    -0.550 OA
ATOM      6  O   UNL     1      14.932  30.868  17.593  1.00  0.00    -0.550 OA
ENDBRANCH   3   4
ENDBRANCH   2   3
ENDBRANCH   1   2
BRANCH   1   7
ATOM      7  C   UNL     1      14.724  27.224  20.264  1.00  0.00     0.000 C 
BRANCH   7   8
ATOM      8  C   UNL     1      13.974  26.704  21.501  1.00  0.00    -0.000 C 
BRANCH   8   9
ATOM      9  C   UNL     1      14.521  27.292  22.813  1.00  0.00    -0.000 C 
BRANCH   9  10
ATOM     10  C   UNL     1      13.505  27.211  23.963  1.00  0.00    -0.003 C 
ATOM     11  C   UNL     1      13.625  25.920  24.773  1.00  0.00     0.004 C 
ENDBRANCH   9  10
ENDBRANCH   8   9
ENDBRANCH   7   8
ENDBRANCH   1   7
TORSDOF 7
ENDMDL
MODEL 9
REMARK VINA RESULT:    -1.966     24.102     25.119
REMARK INTER + INTRA:          -3.553
REMARK INTER:                  -3.197
REMARK INTRA:                  -0.356
REMARK UNBOUND:                -0.782
REMARK SMILES CCCCCCCCC(=O)[O-]
REMARK SMILES IDX 6 1 7 2 8 3 9 4 10 5 11 6 5 7 4 8 3 9 2 10 1 11
REMARK H PARENT
REMARK Flexibility Score: inf
ROOT
ATOM      1  C   UNL     1      -2.100  14.232  10.137  1.00  0.00     0.000 C 
ENDROOT
BRANCH   1   2
ATOM      2  C   UNL     1      -2.871  12.905  10.015  1.00  0.00     0.006 C 
BRANCH   2   3
ATOM      3  C   UNL     1      -2.482  11.852  11.066  1.00  0.00     0.053 C 
BRANCH   3   4
ATOM      4  C   UNL     1      -1.137  11.255  10.793  1.00  0.00     0.041 C 
ATOM      5  O   UNL     1      -0.406  10.875  11.746  1.00  0.00    -0.550 OA
ATOM      6  O   UNL     1      -0.673  11.152   9.487  1.00  0.00    -0.550 OA
ENDBRANCH   3   4
ENDBRANCH   2   3
ENDBRANCH   1   2
BRANCH   1   7
ATOM      7  C   UNL     1      -2.742  15.368   9.321  1.00  0.00     0.000 C 
BRANCH   7   8
ATOM      8  C   UNL     1      -4.250  15.163   9.102  1.00  0.00    -0.000 C 
BRANCH   8   9
ATOM      9  C   UNL     1      -5.095  16.280   9.737  1.00  0.00    -0.000 C 
BRANCH   9  10
ATOM     10  C   UNL     1      -4.372  17.636   9.738  1.00  0.00    -0.003 C 
ATOM     11  C   UNL     1      -4.744  18.508  10.938  1.00  0.00     0.004 C 
ENDBRANCH   9  10
ENDBRANCH   8   9
ENDBRANCH   7   8
ENDBRANCH   1   7
TORSDOF 7
ENDMDL
