MODEL 1
REMARK VINA RESULT:    -7.973      0.000      0.000
REMARK INTER + INTRA:          -9.889
REMARK INTER:                  -9.605
REMARK INTRA:                  -0.284
REMARK UNBOUND:                -0.284
REMARK SMILES O=c1c(O)c(-c2ccc(O)c(O)c2)oc2cc(O)cc(O)c12
REMARK SMILES IDX 5 1 3 2 2 3 1 4 22 5 20 6 19 7 17 8 16 9 15 10 14 11 6 12
REMARK SMILES IDX 7 13 8 14 9 15 13 16 11 17 10 18 12 20 4 22 21 24 18 26
REMARK H PARENT 10 19 12 21 4 23 21 25 18 27
REMARK Flexibility Score: inf
ROOT
ATOM      1  C   UNL     1      13.350  45.138   7.495  1.00  0.00     0.180 A 
ATOM      2  C   UNL     1      12.640  44.585   8.573  1.00  0.00     0.208 A 
ATOM      3  C   UNL     1      11.332  45.028   8.826  1.00  0.00     0.238 A 
ATOM      4  O   UNL     1      10.730  44.584   9.839  1.00  0.00    -0.285 OA
ATOM      5  C   UNL     1      10.729  45.977   7.965  1.00  0.00     0.111 A 
ATOM      6  C   UNL     1       9.393  46.464   8.100  1.00  0.00     0.134 A 
ATOM      7  C   UNL     1       8.940  47.481   7.250  1.00  0.00     0.093 A 
ATOM      8  C   UNL     1       9.750  47.984   6.232  1.00  0.00     0.123 A 
ATOM      9  C   UNL     1      11.038  47.477   6.057  1.00  0.00     0.094 A 
ATOM     10  C   UNL     1      11.532  46.489   6.912  1.00  0.00     0.146 A 
ATOM     11  O   UNL     1      12.770  46.050   6.723  1.00  0.00    -0.452 OA
ENDROOT
BRANCH   1  12
ATOM     12  C   UNL     1      14.737  44.733   7.173  1.00  0.00     0.025 A 
ATOM     13  C   UNL     1      15.800  45.243   7.936  1.00  0.00     0.016 A 
ATOM     14  C   UNL     1      17.115  44.858   7.663  1.00  0.00     0.051 A 
ATOM     15  C   UNL     1      17.386  43.945   6.636  1.00  0.00     0.157 A 
ATOM     16  C   UNL     1      15.011  43.801   6.156  1.00  0.00     0.062 A 
ATOM     17  C   UNL     1      16.327  43.411   5.882  1.00  0.00     0.158 A 
BRANCH  15  18
ATOM     18  O   UNL     1      18.700  43.564   6.365  1.00  0.00    -0.504 OA
ATOM     19  H   UNL     1      18.910  42.751   5.798  1.00  0.00     0.293 HD
ENDBRANCH  15  18
BRANCH  17  20
ATOM     20  O   UNL     1      16.562  42.489   4.862  1.00  0.00    -0.504 OA
ATOM     21  H   UNL     1      15.964  41.685   4.716  1.00  0.00     0.293 HD
ENDBRANCH  17  20
ENDBRANCH   1  12
BRANCH   2  22
ATOM     22  O   UNL     1      13.225  43.594   9.367  1.00  0.00    -0.502 OA
ATOM     23  H   UNL     1      13.518  42.700   8.991  1.00  0.00     0.293 HD
ENDBRANCH   2  22
BRANCH   6  24
ATOM     24  O   UNL     1       8.469  45.970   9.025  1.00  0.00    -0.507 OA
ATOM     25  H   UNL     1       8.057  45.050   8.996  1.00  0.00     0.293 HD
ENDBRANCH   6  24
BRANCH   8  26
ATOM     26  O   UNL     1       9.260  48.984   5.395  1.00  0.00    -0.508 OA
ATOM     27  H   UNL     1       9.752  49.862   5.274  1.00  0.00     0.293 HD
ENDBRANCH   8  26
TORSDOF 6
ENDMDL
MODEL 2
REMARK VINA RESULT:    -7.954      1.745      7.227
REMARK INTER + INTRA:          -9.865
REMARK INTER:                  -9.550
REMARK INTRA:                  -0.315
REMARK UNBOUND:                -0.284
REMARK SMILES O=c1c(O)c(-c2ccc(O)c(O)c2)oc2cc(O)cc(O)c12
REMARK SMILES IDX 5 1 3 2 2 3 1 4 22 5 20 6 19 7 17 8 16 9 15 10 14 11 6 12
REMARK SMILES IDX 7 13 8 14 9 15 13 16 11 17 10 18 12 20 4 22 21 24 18 26
REMARK H PARENT 10 19 12 21 4 23 21 25 18 27
REMARK Flexibility Score: inf
ROOT
ATOM      1  C   UNL     1      12.971  44.912   6.264  1.00  0.00     0.180 A 
ATOM      2  C   UNL     1      13.345  44.705   4.925  1.00  0.00     0.208 A 
ATOM      3  C   UNL     1      14.669  44.333   4.638  1.00  0.00     0.238 A 
ATOM      4  O   UNL     1      15.017  44.224   3.434  1.00  0.00    -0.285 OA
ATOM      5  C   UNL     1      15.586  44.119   5.695  1.00  0.00     0.111 A 
ATOM      6  C   UNL     1      16.940  43.698   5.523  1.00  0.00     0.134 A 
ATOM      7  C   UNL     1      17.786  43.620   6.638  1.00  0.00     0.093 A 
ATOM      8  C   UNL     1      17.313  43.887   7.922  1.00  0.00     0.123 A 
ATOM      9  C   UNL     1      15.977  44.247   8.107  1.00  0.00     0.094 A 
ATOM     10  C   UNL     1      15.119  44.369   7.012  1.00  0.00     0.146 A 
ATOM     11  O   UNL     1      13.861  44.734   7.232  1.00  0.00    -0.452 OA
ENDROOT
BRANCH   1  12
ATOM     12  C   UNL     1      11.599  45.319   6.644  1.00  0.00     0.025 A 
ATOM     13  C   UNL     1      11.246  46.677   6.609  1.00  0.00     0.016 A 
ATOM     14  C   UNL     1       9.952  47.081   6.944  1.00  0.00     0.051 A 
ATOM     15  C   UNL     1       8.985  46.132   7.303  1.00  0.00     0.157 A 
ATOM     16  C   UNL     1      10.621  44.367   6.985  1.00  0.00     0.062 A 
ATOM     17  C   UNL     1       9.322  44.768   7.319  1.00  0.00     0.158 A 
BRANCH  15  18
ATOM     18  O   UNL     1       7.695  46.538   7.639  1.00  0.00    -0.504 OA
ATOM     19  H   UNL     1       6.951  46.563   6.951  1.00  0.00     0.293 HD
ENDBRANCH  15  18
BRANCH  17  20
ATOM     20  O   UNL     1       8.379  43.797   7.658  1.00  0.00    -0.504 OA
ATOM     21  H   UNL     1       8.071  43.657   8.612  1.00  0.00     0.293 HD
ENDBRANCH  17  20
ENDBRANCH   1  12
BRANCH   2  22
ATOM     22  O   UNL     1      12.405  44.848   3.901  1.00  0.00    -0.502 OA
ATOM     23  H   UNL     1      11.442  45.105   4.080  1.00  0.00     0.293 HD
ENDBRANCH   2  22
BRANCH   6  24
ATOM     24  O   UNL     1      17.494  43.321   4.296  1.00  0.00    -0.507 OA
ATOM     25  H   UNL     1      18.345  42.792   4.184  1.00  0.00     0.293 HD
ENDBRANCH   6  24
BRANCH   8  26
ATOM     26  O   UNL     1      18.178  43.783   9.009  1.00  0.00    -0.508 OA
ATOM     27  H   UNL     1      19.022  43.223   8.963  1.00  0.00     0.293 HD
ENDBRANCH   8  26
TORSDOF 6
ENDMDL
MODEL 3
REMARK VINA RESULT:    -7.930      1.680      3.039
REMARK INTER + INTRA:          -9.837
REMARK INTER:                  -9.533
REMARK INTRA:                  -0.305
REMARK UNBOUND:                -0.284
REMARK SMILES O=c1c(O)c(-c2ccc(O)c(O)c2)oc2cc(O)cc(O)c12
REMARK SMILES IDX 5 1 3 2 2 3 1 4 22 5 20 6 19 7 17 8 16 9 15 10 14 11 6 12
REMARK SMILES IDX 7 13 8 14 9 15 13 16 11 17 10 18 12 20 4 22 21 24 18 26
REMARK H PARENT 10 19 12 21 4 23 21 25 18 27
REMARK Flexibility Score: inf
ROOT
ATOM      1  C   UNL     1      13.658  45.309   6.519  1.00  0.00     0.180 A 
ATOM      2  C   UNL     1      13.531  45.756   5.193  1.00  0.00     0.208 A 
ATOM      3  C   UNL     1      12.335  46.374   4.794  1.00  0.00     0.238 A 
ATOM      4  O   UNL     1      12.198  46.703   3.587  1.00  0.00    -0.285 OA
ATOM      5  C   UNL     1      11.303  46.588   5.740  1.00  0.00     0.111 A 
ATOM      6  C   UNL     1      10.066  47.245   5.458  1.00  0.00     0.134 A 
ATOM      7  C   UNL     1       9.076  47.306   6.447  1.00  0.00     0.093 A 
ATOM      8  C   UNL     1       9.299  46.792   7.724  1.00  0.00     0.123 A 
ATOM      9  C   UNL     1      10.525  46.197   8.026  1.00  0.00     0.094 A 
ATOM     10  C   UNL     1      11.518  46.088   7.050  1.00  0.00     0.146 A 
ATOM     11  O   UNL     1      12.661  45.495   7.375  1.00  0.00    -0.452 OA
ENDROOT
BRANCH   1  12
ATOM     12  C   UNL     1      14.882  44.636   7.010  1.00  0.00     0.025 A 
ATOM     13  C   UNL     1      15.981  45.411   7.414  1.00  0.00     0.016 A 
ATOM     14  C   UNL     1      17.138  44.798   7.900  1.00  0.00     0.051 A 
ATOM     15  C   UNL     1      17.209  43.402   8.004  1.00  0.00     0.157 A 
ATOM     16  C   UNL     1      14.949  43.237   7.135  1.00  0.00     0.062 A 
ATOM     17  C   UNL     1      16.106  42.619   7.624  1.00  0.00     0.158 A 
BRANCH  15  18
ATOM     18  O   UNL     1      18.366  42.794   8.488  1.00  0.00    -0.504 OA
ATOM     19  H   UNL     1      18.596  42.798   9.475  1.00  0.00     0.293 HD
ENDBRANCH  15  18
BRANCH  17  20
ATOM     20  O   UNL     1      16.139  41.229   7.729  1.00  0.00    -0.504 OA
ATOM     21  H   UNL     1      16.816  40.750   8.310  1.00  0.00     0.293 HD
ENDBRANCH  17  20
ENDBRANCH   1  12
BRANCH   2  22
ATOM     22  O   UNL     1      14.590  45.603   4.294  1.00  0.00    -0.502 OA
ATOM     23  H   UNL     1      14.947  46.371   3.738  1.00  0.00     0.293 HD
ENDBRANCH   2  22
BRANCH   6  24
ATOM     24  O   UNL     1       9.770  47.872   4.244  1.00  0.00    -0.507 OA
ATOM     25  H   UNL     1      10.428  48.398   3.690  1.00  0.00     0.293 HD
ENDBRANCH   6  24
BRANCH   8  26
ATOM     26  O   UNL     1       8.297  46.886   8.688  1.00  0.00    -0.508 OA
ATOM     27  H   UNL     1       8.177  46.173   9.398  1.00  0.00     0.293 HD
ENDBRANCH   8  26
TORSDOF 6
ENDMDL
MODEL 4
REMARK VINA RESULT:    -7.870      1.554      7.236
REMARK INTER + INTRA:          -9.765
REMARK INTER:                  -9.654
REMARK INTRA:                  -0.111
REMARK UNBOUND:                -0.284
REMARK SMILES O=c1c(O)c(-c2ccc(O)c(O)c2)oc2cc(O)cc(O)c12
REMARK SMILES IDX 5 1 3 2 2 3 1 4 22 5 20 6 19 7 17 8 16 9 15 10 14 11 6 12
REMARK SMILES IDX 7 13 8 14 9 15 13 16 11 17 10 18 12 20 4 22 21 24 18 26
REMARK H PARENT 10 19 12 21 4 23 21 25 18 27
REMARK Flexibility Score: inf
ROOT
ATOM      1  C   UNL     1      12.970  45.257   6.174  1.00  0.00     0.180 A 
ATOM      2  C   UNL     1      13.217  44.771   4.879  1.00  0.00     0.208 A 
ATOM      3  C   UNL     1      14.458  44.178   4.599  1.00  0.00     0.238 A 
ATOM      4  O   UNL     1      14.701  43.814   3.419  1.00  0.00    -0.285 OA
ATOM      5  C   UNL     1      15.416  44.027   5.631  1.00  0.00     0.111 A 
ATOM      6  C   UNL     1      16.690  43.400   5.472  1.00  0.00     0.134 A 
ATOM      7  C   UNL     1      17.598  43.403   6.539  1.00  0.00     0.093 A 
ATOM      8  C   UNL     1      17.258  43.950   7.775  1.00  0.00     0.123 A 
ATOM      9  C   UNL     1      15.995  44.516   7.957  1.00  0.00     0.094 A 
ATOM     10  C   UNL     1      15.081  44.563   6.902  1.00  0.00     0.146 A 
ATOM     11  O   UNL     1      13.899  45.129   7.114  1.00  0.00    -0.452 OA
ENDROOT
BRANCH   1  12
ATOM     12  C   UNL     1      11.691  45.907   6.542  1.00  0.00     0.025 A 
ATOM     13  C   UNL     1      10.953  45.412   7.629  1.00  0.00     0.016 A 
ATOM     14  C   UNL     1       9.755  46.023   8.006  1.00  0.00     0.051 A 
ATOM     15  C   UNL     1       9.285  47.146   7.314  1.00  0.00     0.157 A 
ATOM     16  C   UNL     1      11.228  47.048   5.862  1.00  0.00     0.062 A 
ATOM     17  C   UNL     1      10.028  47.663   6.240  1.00  0.00     0.158 A 
BRANCH  15  18
ATOM     18  O   UNL     1       8.087  47.752   7.692  1.00  0.00    -0.504 OA
ATOM     19  H   UNL     1       7.331  47.221   8.106  1.00  0.00     0.293 HD
ENDBRANCH  15  18
BRANCH  17  20
ATOM     20  O   UNL     1       9.595  48.789   5.539  1.00  0.00    -0.504 OA
ATOM     21  H   UNL     1       9.820  48.934   4.563  1.00  0.00     0.293 HD
ENDBRANCH  17  20
ENDBRANCH   1  12
BRANCH   2  22
ATOM     22  O   UNL     1      12.230  44.861   3.894  1.00  0.00    -0.502 OA
ATOM     23  H   UNL     1      12.141  45.666   3.286  1.00  0.00     0.293 HD
ENDBRANCH   2  22
BRANCH   6  24
ATOM     24  O   UNL     1      17.101  42.744   4.308  1.00  0.00    -0.507 OA
ATOM     25  H   UNL     1      16.825  41.811   4.043  1.00  0.00     0.293 HD
ENDBRANCH   6  24
BRANCH   8  26
ATOM     26  O   UNL     1      18.180  43.920   8.818  1.00  0.00    -0.508 OA
ATOM     27  H   UNL     1      18.208  43.151   9.479  1.00  0.00     0.293 HD
ENDBRANCH   8  26
TORSDOF 6
ENDMDL
MODEL 5
REMARK VINA RESULT:    -7.692      2.695      6.584
REMARK INTER + INTRA:          -9.550
REMARK INTER:                  -9.291
REMARK INTRA:                  -0.259
REMARK UNBOUND:                -0.284
REMARK SMILES O=c1c(O)c(-c2ccc(O)c(O)c2)oc2cc(O)cc(O)c12
REMARK SMILES IDX 5 1 3 2 2 3 1 4 22 5 20 6 19 7 17 8 16 9 15 10 14 11 6 12
REMARK SMILES IDX 7 13 8 14 9 15 13 16 11 17 10 18 12 20 4 22 21 24 18 26
REMARK H PARENT 10 19 12 21 4 23 21 25 18 27
REMARK Flexibility Score: inf
ROOT
ATOM      1  C   UNL     1      11.942  44.706   7.560  1.00  0.00     0.180 A 
ATOM      2  C   UNL     1      13.151  45.420   7.620  1.00  0.00     0.208 A 
ATOM      3  C   UNL     1      14.060  45.311   6.555  1.00  0.00     0.238 A 
ATOM      4  O   UNL     1      15.172  45.893   6.650  1.00  0.00    -0.285 OA
ATOM      5  C   UNL     1      13.726  44.533   5.420  1.00  0.00     0.111 A 
ATOM      6  C   UNL     1      14.552  44.388   4.264  1.00  0.00     0.134 A 
ATOM      7  C   UNL     1      14.164  43.507   3.245  1.00  0.00     0.093 A 
ATOM      8  C   UNL     1      12.954  42.818   3.310  1.00  0.00     0.123 A 
ATOM      9  C   UNL     1      12.114  42.995   4.410  1.00  0.00     0.094 A 
ATOM     10  C   UNL     1      12.490  43.837   5.459  1.00  0.00     0.146 A 
ATOM     11  O   UNL     1      11.670  43.960   6.496  1.00  0.00    -0.452 OA
ENDROOT
BRANCH   1  12
ATOM     12  C   UNL     1      10.940  44.759   8.649  1.00  0.00     0.025 A 
ATOM     13  C   UNL     1       9.721  45.421   8.433  1.00  0.00     0.016 A 
ATOM     14  C   UNL     1       8.752  45.467   9.439  1.00  0.00     0.051 A 
ATOM     15  C   UNL     1       8.981  44.837  10.669  1.00  0.00     0.157 A 
ATOM     16  C   UNL     1      11.157  44.110   9.877  1.00  0.00     0.062 A 
ATOM     17  C   UNL     1      10.188  44.151  10.886  1.00  0.00     0.158 A 
BRANCH  15  18
ATOM     18  O   UNL     1       8.013  44.885  11.671  1.00  0.00    -0.504 OA
ATOM     19  H   UNL     1       7.074  44.537  11.520  1.00  0.00     0.293 HD
ENDBRANCH  15  18
BRANCH  17  20
ATOM     20  O   UNL     1      10.440  43.501  12.095  1.00  0.00    -0.504 OA
ATOM     21  H   UNL     1      11.046  43.898  12.802  1.00  0.00     0.293 HD
ENDBRANCH  17  20
ENDBRANCH   1  12
BRANCH   2  22
ATOM     22  O   UNL     1      13.428  46.242   8.715  1.00  0.00    -0.502 OA
ATOM     23  H   UNL     1      14.339  46.268   9.159  1.00  0.00     0.293 HD
ENDBRANCH   2  22
BRANCH   6  24
ATOM     24  O   UNL     1      15.739  45.096   4.054  1.00  0.00    -0.507 OA
ATOM     25  H   UNL     1      16.604  44.692   3.730  1.00  0.00     0.293 HD
ENDBRANCH   6  24
BRANCH   8  26
ATOM     26  O   UNL     1      12.594  41.963   2.270  1.00  0.00    -0.508 OA
ATOM     27  H   UNL     1      13.291  41.516   1.686  1.00  0.00     0.293 HD
ENDBRANCH   8  26
TORSDOF 6
ENDMDL
MODEL 6
REMARK VINA RESULT:    -7.491      2.530      6.954
REMARK INTER + INTRA:          -9.308
REMARK INTER:                  -9.087
REMARK INTRA:                  -0.221
REMARK UNBOUND:                -0.284
REMARK SMILES O=c1c(O)c(-c2ccc(O)c(O)c2)oc2cc(O)cc(O)c12
REMARK SMILES IDX 5 1 3 2 2 3 1 4 22 5 20 6 19 7 17 8 16 9 15 10 14 11 6 12
REMARK SMILES IDX 7 13 8 14 9 15 13 16 11 17 10 18 12 20 4 22 21 24 18 26
REMARK H PARENT 10 19 12 21 4 23 21 25 18 27
REMARK Flexibility Score: inf
ROOT
ATOM      1  C   UNL     1      13.984  44.649   7.087  1.00  0.00     0.180 A 
ATOM      2  C   UNL     1      15.299  45.143   7.128  1.00  0.00     0.208 A 
ATOM      3  C   UNL     1      16.309  44.346   7.692  1.00  0.00     0.238 A 
ATOM      4  O   UNL     1      17.468  44.825   7.794  1.00  0.00    -0.285 OA
ATOM      5  C   UNL     1      16.002  43.045   8.157  1.00  0.00     0.111 A 
ATOM      6  C   UNL     1      16.955  42.133   8.706  1.00  0.00     0.134 A 
ATOM      7  C   UNL     1      16.517  40.910   9.231  1.00  0.00     0.093 A 
ATOM      8  C   UNL     1      15.175  40.538   9.169  1.00  0.00     0.123 A 
ATOM      9  C   UNL     1      14.244  41.399   8.585  1.00  0.00     0.094 A 
ATOM     10  C   UNL     1      14.643  42.641   8.088  1.00  0.00     0.146 A 
ATOM     11  O   UNL     1      13.721  43.437   7.559  1.00  0.00    -0.452 OA
ENDROOT
BRANCH   1  12
ATOM     12  C   UNL     1      12.864  45.435   6.521  1.00  0.00     0.025 A 
ATOM     13  C   UNL     1      11.908  45.993   7.384  1.00  0.00     0.016 A 
ATOM     14  C   UNL     1      10.854  46.756   6.874  1.00  0.00     0.051 A 
ATOM     15  C   UNL     1      10.750  46.985   5.495  1.00  0.00     0.157 A 
ATOM     16  C   UNL     1      12.769  45.685   5.140  1.00  0.00     0.062 A 
ATOM     17  C   UNL     1      11.716  46.451   4.626  1.00  0.00     0.158 A 
BRANCH  15  18
ATOM     18  O   UNL     1       9.697  47.745   4.989  1.00  0.00    -0.504 OA
ATOM     19  H   UNL     1       9.255  47.518   4.106  1.00  0.00     0.293 HD
ENDBRANCH  15  18
BRANCH  17  20
ATOM     20  O   UNL     1      11.649  46.673   3.251  1.00  0.00    -0.504 OA
ATOM     21  H   UNL     1      10.924  47.244   2.833  1.00  0.00     0.293 HD
ENDBRANCH  17  20
ENDBRANCH   1  12
BRANCH   2  22
ATOM     22  O   UNL     1      15.595  46.401   6.595  1.00  0.00    -0.502 OA
ATOM     23  H   UNL     1      16.540  46.760   6.543  1.00  0.00     0.293 HD
ENDBRANCH   2  22
BRANCH   6  24
ATOM     24  O   UNL     1      18.333  42.364   8.737  1.00  0.00    -0.507 OA
ATOM     25  H   UNL     1      18.785  43.209   8.421  1.00  0.00     0.293 HD
ENDBRANCH   6  24
BRANCH   8  26
ATOM     26  O   UNL     1      14.778  39.307   9.686  1.00  0.00    -0.508 OA
ATOM     27  H   UNL     1      14.750  38.474   9.109  1.00  0.00     0.293 HD
ENDBRANCH   8  26
TORSDOF 6
ENDMDL
MODEL 7
REMARK VINA RESULT:    -7.319      1.565      6.755
REMARK INTER + INTRA:          -9.101
REMARK INTER:                  -8.852
REMARK INTRA:                  -0.249
REMARK UNBOUND:                -0.284
REMARK SMILES O=c1c(O)c(-c2ccc(O)c(O)c2)oc2cc(O)cc(O)c12
REMARK SMILES IDX 5 1 3 2 2 3 1 4 22 5 20 6 19 7 17 8 16 9 15 10 14 11 6 12
REMARK SMILES IDX 7 13 8 14 9 15 13 16 11 17 10 18 12 20 4 22 21 24 18 26
REMARK H PARENT 10 19 12 21 4 23 21 25 18 27
REMARK Flexibility Score: inf
ROOT
ATOM      1  C   UNL     1      12.887  44.738   7.193  1.00  0.00     0.180 A 
ATOM      2  C   UNL     1      13.378  44.302   8.436  1.00  0.00     0.208 A 
ATOM      3  C   UNL     1      14.673  43.764   8.505  1.00  0.00     0.238 A 
ATOM      4  O   UNL     1      15.078  43.306   9.605  1.00  0.00    -0.285 OA
ATOM      5  C   UNL     1      15.482  43.719   7.343  1.00  0.00     0.111 A 
ATOM      6  C   UNL     1      16.826  43.236   7.306  1.00  0.00     0.134 A 
ATOM      7  C   UNL     1      17.492  43.143   6.078  1.00  0.00     0.093 A 
ATOM      8  C   UNL     1      16.889  43.572   4.896  1.00  0.00     0.123 A 
ATOM      9  C   UNL     1      15.597  44.097   4.929  1.00  0.00     0.094 A 
ATOM     10  C   UNL     1      14.892  44.168   6.133  1.00  0.00     0.146 A 
ATOM     11  O   UNL     1      13.657  44.655   6.115  1.00  0.00    -0.452 OA
ENDROOT
BRANCH   1  12
ATOM     12  C   UNL     1      11.527  45.303   7.037  1.00  0.00     0.025 A 
ATOM     13  C   UNL     1      11.378  46.666   6.734  1.00  0.00     0.016 A 
ATOM     14  C   UNL     1      10.105  47.217   6.562  1.00  0.00     0.051 A 
ATOM     15  C   UNL     1       8.965  46.410   6.675  1.00  0.00     0.157 A 
ATOM     16  C   UNL     1      10.382  44.493   7.129  1.00  0.00     0.062 A 
ATOM     17  C   UNL     1       9.106  45.041   6.955  1.00  0.00     0.158 A 
BRANCH  15  18
ATOM     18  O   UNL     1       7.696  46.963   6.504  1.00  0.00    -0.504 OA
ATOM     19  H   UNL     1       6.885  46.587   6.981  1.00  0.00     0.293 HD
ENDBRANCH  15  18
BRANCH  17  20
ATOM     20  O   UNL     1       7.991  44.208   7.058  1.00  0.00    -0.504 OA
ATOM     21  H   UNL     1       7.053  44.540   6.870  1.00  0.00     0.293 HD
ENDBRANCH  17  20
ENDBRANCH   1  12
BRANCH   2  22
ATOM     22  O   UNL     1      12.592  44.424   9.585  1.00  0.00    -0.502 OA
ATOM     23  H   UNL     1      11.848  45.105   9.664  1.00  0.00     0.293 HD
ENDBRANCH   2  22
BRANCH   6  24
ATOM     24  O   UNL     1      17.555  42.863   8.439  1.00  0.00    -0.507 OA
ATOM     25  H   UNL     1      17.388  42.034   8.987  1.00  0.00     0.293 HD
ENDBRANCH   6  24
BRANCH   8  26
ATOM     26  O   UNL     1      17.589  43.480   3.695  1.00  0.00    -0.508 OA
ATOM     27  H   UNL     1      17.141  43.669   2.805  1.00  0.00     0.293 HD
ENDBRANCH   8  26
TORSDOF 6
ENDMDL
MODEL 8
REMARK VINA RESULT:    -7.271      1.195      2.909
REMARK INTER + INTRA:          -9.043
REMARK INTER:                  -8.734
REMARK INTRA:                  -0.309
REMARK UNBOUND:                -0.284
REMARK SMILES O=c1c(O)c(-c2ccc(O)c(O)c2)oc2cc(O)cc(O)c12
REMARK SMILES IDX 5 1 3 2 2 3 1 4 22 5 20 6 19 7 17 8 16 9 15 10 14 11 6 12
REMARK SMILES IDX 7 13 8 14 9 15 13 16 11 17 10 18 12 20 4 22 21 24 18 26
REMARK H PARENT 10 19 12 21 4 23 21 25 18 27
REMARK Flexibility Score: inf
ROOT
ATOM      1  C   UNL     1      13.294  45.304   7.219  1.00  0.00     0.180 A 
ATOM      2  C   UNL     1      12.717  46.325   6.447  1.00  0.00     0.208 A 
ATOM      3  C   UNL     1      11.393  46.713   6.711  1.00  0.00     0.238 A 
ATOM      4  O   UNL     1      10.857  47.574   5.966  1.00  0.00    -0.285 OA
ATOM      5  C   UNL     1      10.683  46.114   7.779  1.00  0.00     0.111 A 
ATOM      6  C   UNL     1       9.352  46.461   8.165  1.00  0.00     0.134 A 
ATOM      7  C   UNL     1       8.712  45.726   9.172  1.00  0.00     0.093 A 
ATOM      8  C   UNL     1       9.373  44.703   9.849  1.00  0.00     0.123 A 
ATOM      9  C   UNL     1      10.693  44.392   9.517  1.00  0.00     0.094 A 
ATOM     10  C   UNL     1      11.345  45.081   8.492  1.00  0.00     0.146 A 
ATOM     11  O   UNL     1      12.593  44.739   8.194  1.00  0.00    -0.452 OA
ENDROOT
BRANCH   1  12
ATOM     12  C   UNL     1      14.679  44.831   6.992  1.00  0.00     0.025 A 
ATOM     13  C   UNL     1      15.702  45.249   7.858  1.00  0.00     0.016 A 
ATOM     14  C   UNL     1      17.012  44.799   7.676  1.00  0.00     0.051 A 
ATOM     15  C   UNL     1      17.316  43.912   6.635  1.00  0.00     0.157 A 
ATOM     16  C   UNL     1      14.984  43.924   5.962  1.00  0.00     0.062 A 
ATOM     17  C   UNL     1      16.295  43.469   5.777  1.00  0.00     0.158 A 
BRANCH  15  18
ATOM     18  O   UNL     1      18.624  43.466   6.454  1.00  0.00    -0.504 OA
ATOM     19  H   UNL     1      18.840  42.481   6.348  1.00  0.00     0.293 HD
ENDBRANCH  15  18
BRANCH  17  20
ATOM     20  O   UNL     1      16.562  42.574   4.741  1.00  0.00    -0.504 OA
ATOM     21  H   UNL     1      17.276  42.755   4.045  1.00  0.00     0.293 HD
ENDBRANCH  17  20
ENDBRANCH   1  12
BRANCH   2  22
ATOM     22  O   UNL     1      13.460  46.956   5.446  1.00  0.00    -0.502 OA
ATOM     23  H   UNL     1      14.064  47.748   5.634  1.00  0.00     0.293 HD
ENDBRANCH   2  22
BRANCH   6  24
ATOM     24  O   UNL     1       8.628  47.524   7.616  1.00  0.00    -0.507 OA
ATOM     25  H   UNL     1       8.464  48.408   8.073  1.00  0.00     0.293 HD
ENDBRANCH   6  24
BRANCH   8  26
ATOM     26  O   UNL     1       8.710  44.005  10.856  1.00  0.00    -0.508 OA
ATOM     27  H   UNL     1       9.105  43.915  11.786  1.00  0.00     0.293 HD
ENDBRANCH   8  26
TORSDOF 6
ENDMDL
MODEL 9
REMARK VINA RESULT:    -7.123      2.160      7.420
REMARK INTER + INTRA:          -8.865
REMARK INTER:                  -8.568
REMARK INTRA:                  -0.296
REMARK UNBOUND:                -0.284
REMARK SMILES O=c1c(O)c(-c2ccc(O)c(O)c2)oc2cc(O)cc(O)c12
REMARK SMILES IDX 5 1 3 2 2 3 1 4 22 5 20 6 19 7 17 8 16 9 15 10 14 11 6 12
REMARK SMILES IDX 7 13 8 14 9 15 13 16 11 17 10 18 12 20 4 22 21 24 18 26
REMARK H PARENT 10 19 12 21 4 23 21 25 18 27
REMARK Flexibility Score: inf
ROOT
ATOM      1  C   UNL     1      10.310  45.483   7.739  1.00  0.00     0.180 A 
ATOM      2  C   UNL     1      10.818  46.417   6.821  1.00  0.00     0.208 A 
ATOM      3  C   UNL     1      12.204  46.478   6.609  1.00  0.00     0.238 A 
ATOM      4  O   UNL     1      12.659  47.367   5.843  1.00  0.00    -0.285 OA
ATOM      5  C   UNL     1      13.060  45.567   7.274  1.00  0.00     0.111 A 
ATOM      6  C   UNL     1      14.477  45.509   7.101  1.00  0.00     0.134 A 
ATOM      7  C   UNL     1      15.234  44.635   7.892  1.00  0.00     0.093 A 
ATOM      8  C   UNL     1      14.623  43.775   8.803  1.00  0.00     0.123 A 
ATOM      9  C   UNL     1      13.234  43.785   8.941  1.00  0.00     0.094 A 
ATOM     10  C   UNL     1      12.455  44.671   8.194  1.00  0.00     0.146 A 
ATOM     11  O   UNL     1      11.140  44.662   8.372  1.00  0.00    -0.452 OA
ENDROOT
BRANCH   1  12
ATOM     12  C   UNL     1       8.861  45.367   8.027  1.00  0.00     0.025 A 
ATOM     13  C   UNL     1       8.330  46.006   9.159  1.00  0.00     0.016 A 
ATOM     14  C   UNL     1       6.963  45.928   9.439  1.00  0.00     0.051 A 
ATOM     15  C   UNL     1       6.105  45.225   8.582  1.00  0.00     0.157 A 
ATOM     16  C   UNL     1       7.994  44.681   7.158  1.00  0.00     0.062 A 
ATOM     17  C   UNL     1       6.624  44.603   7.434  1.00  0.00     0.158 A 
BRANCH  15  18
ATOM     18  O   UNL     1       4.742  45.148   8.865  1.00  0.00    -0.504 OA
ATOM     19  H   UNL     1       4.232  45.940   9.237  1.00  0.00     0.293 HD
ENDBRANCH  15  18
BRANCH  17  20
ATOM     20  O   UNL     1       5.794  43.908   6.554  1.00  0.00    -0.504 OA
ATOM     21  H   UNL     1       5.830  42.900   6.464  1.00  0.00     0.293 HD
ENDBRANCH  17  20
ENDBRANCH   1  12
BRANCH   2  22
ATOM     22  O   UNL     1       9.949  47.256   6.118  1.00  0.00    -0.502 OA
ATOM     23  H   UNL     1       8.944  47.134   6.132  1.00  0.00     0.293 HD
ENDBRANCH   2  22
BRANCH   6  24
ATOM     24  O   UNL     1      15.183  46.260   6.156  1.00  0.00    -0.507 OA
ATOM     25  H   UNL     1      15.990  46.831   6.357  1.00  0.00     0.293 HD
ENDBRANCH   6  24
BRANCH   8  26
ATOM     26  O   UNL     1      15.406  42.907   9.561  1.00  0.00    -0.508 OA
ATOM     27  H   UNL     1      15.001  42.114  10.046  1.00  0.00     0.293 HD
ENDBRANCH   8  26
TORSDOF 6
ENDMDL
