MODEL 1
REMARK VINA RESULT:    -3.266      0.000      0.000
REMARK INTER + INTRA:          -4.900
REMARK INTER:                  -4.603
REMARK INTRA:                  -0.297
REMARK UNBOUND:                -0.297
REMARK SMILES CCCCCCCC(=O)OC
REMARK SMILES IDX 5 1 4 2 3 3 2 4 1 5 6 6 7 7 8 8 9 9 10 10 11 11
REMARK H PARENT
REMARK Flexibility Score: inf
ROOT
ATOM      1  C   UNL     1     203.515 198.983 216.805  1.00  0.00     0.001 C 
ENDROOT
BRANCH   1   2
ATOM      2  C   UNL     1     203.103 200.321 217.439  1.00  0.00     0.000 C 
BRANCH   2   3
ATOM      3  C   UNL     1     201.581 200.530 217.449  1.00  0.00    -0.000 C 
BRANCH   3   4
ATOM      4  C   UNL     1     200.981 200.119 218.799  1.00  0.00    -0.003 C 
ATOM      5  C   UNL     1     199.459 200.039 218.725  1.00  0.00     0.004 C 
ENDBRANCH   3   4
ENDBRANCH   2   3
ENDBRANCH   1   2
BRANCH   1   6
ATOM      6  C   UNL     1     204.803 198.408 217.421  1.00  0.00     0.012 C 
BRANCH   6   7
ATOM      7  C   UNL     1     205.756 199.511 217.903  1.00  0.00     0.123 C 
BRANCH   7   8
ATOM      8  C   UNL     1     206.837 199.785 216.903  1.00  0.00     0.305 C 
ATOM      9  O   UNL     1     206.682 200.698 216.046  1.00  0.00    -0.252 OA
BRANCH   8  10
ATOM     10  O   UNL     1     208.019 199.040 216.947  1.00  0.00    -0.469 OA
ATOM     11  C   UNL     1     209.275 199.573 216.545  1.00  0.00     0.282 C 
ENDBRANCH   8  10
ENDBRANCH   7   8
ENDBRANCH   6   7
ENDBRANCH   1   6
TORSDOF 7
ENDMDL
MODEL 2
REMARK VINA RESULT:    -3.222      1.058      1.541
REMARK INTER + INTRA:          -4.838
REMARK INTER:                  -4.486
REMARK INTRA:                  -0.352
REMARK UNBOUND:                -0.297
REMARK SMILES CCCCCCCC(=O)OC
REMARK SMILES IDX 5 1 4 2 3 3 2 4 1 5 6 6 7 7 8 8 9 9 10 10 11 11
REMARK H PARENT
REMARK Flexibility Score: inf
ROOT
ATOM      1  C   UNL     1     203.436 198.439 217.107  1.00  0.00     0.001 C 
ENDROOT
BRANCH   1   2
ATOM      2  C   UNL     1     203.342 199.933 216.764  1.00  0.00     0.000 C 
BRANCH   2   3
ATOM      3  C   UNL     1     202.490 200.721 217.771  1.00  0.00    -0.000 C 
BRANCH   3   4
ATOM      4  C   UNL     1     201.004 200.373 217.622  1.00  0.00    -0.003 C 
ATOM      5  C   UNL     1     200.402 199.939 218.954  1.00  0.00     0.004 C 
ENDBRANCH   3   4
ENDBRANCH   2   3
ENDBRANCH   1   2
BRANCH   1   6
ATOM      6  C   UNL     1     204.884 197.979 217.357  1.00  0.00     0.012 C 
BRANCH   6   7
ATOM      7  C   UNL     1     205.790 199.136 217.798  1.00  0.00     0.123 C 
BRANCH   7   8
ATOM      8  C   UNL     1     207.191 198.965 217.295  1.00  0.00     0.305 C 
ATOM      9  O   UNL     1     207.860 197.951 217.635  1.00  0.00    -0.252 OA
BRANCH   8  10
ATOM     10  O   UNL     1     207.732 199.921 216.430  1.00  0.00    -0.469 OA
ATOM     11  C   UNL     1     206.924 200.771 215.626  1.00  0.00     0.282 C 
ENDBRANCH   8  10
ENDBRANCH   7   8
ENDBRANCH   6   7
ENDBRANCH   1   6
TORSDOF 7
ENDMDL
MODEL 3
REMARK VINA RESULT:    -3.186      9.648     11.049
REMARK INTER + INTRA:          -4.787
REMARK INTER:                  -4.402
REMARK INTRA:                  -0.386
REMARK UNBOUND:                -0.297
REMARK SMILES CCCCCCCC(=O)OC
REMARK SMILES IDX 5 1 4 2 3 3 2 4 1 5 6 6 7 7 8 8 9 9 10 10 11 11
REMARK H PARENT
REMARK Flexibility Score: inf
ROOT
ATOM      1  C   UNL     1     198.599 205.870 216.566  1.00  0.00     0.001 C 
ENDROOT
BRANCH   1   2
ATOM      2  C   UNL     1     197.154 205.568 216.990  1.00  0.00     0.000 C 
BRANCH   2   3
ATOM      3  C   UNL     1     196.929 205.743 218.500  1.00  0.00    -0.000 C 
BRANCH   3   4
ATOM      4  C   UNL     1     195.815 206.761 218.773  1.00  0.00    -0.003 C 
ATOM      5  C   UNL     1     194.540 206.401 218.017  1.00  0.00     0.004 C 
ENDBRANCH   3   4
ENDBRANCH   2   3
ENDBRANCH   1   2
BRANCH   1   6
ATOM      6  C   UNL     1     198.675 206.719 215.284  1.00  0.00     0.012 C 
BRANCH   6   7
ATOM      7  C   UNL     1     197.532 207.738 215.197  1.00  0.00     0.123 C 
BRANCH   7   8
ATOM      8  C   UNL     1     197.986 209.029 214.588  1.00  0.00     0.305 C 
ATOM      9  O   UNL     1     197.620 210.125 215.094  1.00  0.00    -0.252 OA
BRANCH   8  10
ATOM     10  O   UNL     1     198.835 209.004 213.477  1.00  0.00    -0.469 OA
ATOM     11  C   UNL     1     198.373 209.249 212.155  1.00  0.00     0.282 C 
ENDBRANCH   8  10
ENDBRANCH   7   8
ENDBRANCH   6   7
ENDBRANCH   1   6
TORSDOF 7
ENDMDL
MODEL 4
REMARK VINA RESULT:    -3.178      1.366      1.672
REMARK INTER + INTRA:          -4.776
REMARK INTER:                  -4.452
REMARK INTRA:                  -0.324
REMARK UNBOUND:                -0.297
REMARK SMILES CCCCCCCC(=O)OC
REMARK SMILES IDX 5 1 4 2 3 3 2 4 1 5 6 6 7 7 8 8 9 9 10 10 11 11
REMARK H PARENT
REMARK Flexibility Score: inf
ROOT
ATOM      1  C   UNL     1     204.012 199.878 216.006  1.00  0.00     0.001 C 
ENDROOT
BRANCH   1   2
ATOM      2  C   UNL     1     202.889 200.884 216.306  1.00  0.00     0.000 C 
BRANCH   2   3
ATOM      3  C   UNL     1     202.315 200.728 217.723  1.00  0.00    -0.000 C 
BRANCH   3   4
ATOM      4  C   UNL     1     200.834 200.335 217.674  1.00  0.00    -0.003 C 
ATOM      5  C   UNL     1     200.318 199.952 219.057  1.00  0.00     0.004 C 
ENDBRANCH   3   4
ENDBRANCH   2   3
ENDBRANCH   1   2
BRANCH   1   6
ATOM      6  C   UNL     1     204.454 199.096 217.256  1.00  0.00     0.012 C 
BRANCH   6   7
ATOM      7  C   UNL     1     205.787 199.609 217.817  1.00  0.00     0.123 C 
BRANCH   7   8
ATOM      8  C   UNL     1     206.946 198.799 217.320  1.00  0.00     0.305 C 
ATOM      9  O   UNL     1     207.841 199.348 216.622  1.00  0.00    -0.252 OA
BRANCH   8  10
ATOM     10  O   UNL     1     207.034 197.446 217.658  1.00  0.00    -0.469 OA
ATOM     11  C   UNL     1     206.991 196.409 216.685  1.00  0.00     0.282 C 
ENDBRANCH   8  10
ENDBRANCH   7   8
ENDBRANCH   6   7
ENDBRANCH   1   6
TORSDOF 7
ENDMDL
MODEL 5
REMARK VINA RESULT:    -3.082      9.824     11.540
REMARK INTER + INTRA:          -4.640
REMARK INTER:                  -4.290
REMARK INTRA:                  -0.350
REMARK UNBOUND:                -0.297
REMARK SMILES CCCCCCCC(=O)OC
REMARK SMILES IDX 5 1 4 2 3 3 2 4 1 5 6 6 7 7 8 8 9 9 10 10 11 11
REMARK H PARENT
REMARK Flexibility Score: inf
ROOT
ATOM      1  C   UNL     1     195.919 207.988 214.850  1.00  0.00     0.001 C 
ENDROOT
BRANCH   1   2
ATOM      2  C   UNL     1     196.129 207.412 216.259  1.00  0.00     0.000 C 
BRANCH   2   3
ATOM      3  C   UNL     1     194.893 206.667 216.786  1.00  0.00    -0.000 C 
BRANCH   3   4
ATOM      4  C   UNL     1     194.971 206.483 218.306  1.00  0.00    -0.003 C 
ATOM      5  C   UNL     1     196.409 206.263 218.763  1.00  0.00     0.004 C 
ENDBRANCH   3   4
ENDBRANCH   2   3
ENDBRANCH   1   2
BRANCH   1   6
ATOM      6  C   UNL     1     196.178 209.504 214.785  1.00  0.00     0.012 C 
BRANCH   6   7
ATOM      7  C   UNL     1     197.659 209.847 215.000  1.00  0.00     0.123 C 
BRANCH   7   8
ATOM      8  C   UNL     1     198.548 209.057 214.089  1.00  0.00     0.305 C 
ATOM      9  O   UNL     1     198.533 209.282 212.848  1.00  0.00    -0.252 OA
BRANCH   8  10
ATOM     10  O   UNL     1     199.405 208.095 214.630  1.00  0.00    -0.469 OA
ATOM     11  C   UNL     1     199.391 206.735 214.212  1.00  0.00     0.282 C 
ENDBRANCH   8  10
ENDBRANCH   7   8
ENDBRANCH   6   7
ENDBRANCH   1   6
TORSDOF 7
ENDMDL
MODEL 6
REMARK VINA RESULT:    -3.069      3.393      5.931
REMARK INTER + INTRA:          -4.622
REMARK INTER:                  -4.282
REMARK INTRA:                  -0.340
REMARK UNBOUND:                -0.297
REMARK SMILES CCCCCCCC(=O)OC
REMARK SMILES IDX 5 1 4 2 3 3 2 4 1 5 6 6 7 7 8 8 9 9 10 10 11 11
REMARK H PARENT
REMARK Flexibility Score: inf
ROOT
ATOM      1  C   UNL     1     203.810 199.837 216.735  1.00  0.00     0.001 C 
ENDROOT
BRANCH   1   2
ATOM      2  C   UNL     1     204.567 198.644 217.340  1.00  0.00     0.000 C 
BRANCH   2   3
ATOM      3  C   UNL     1     205.907 199.050 217.972  1.00  0.00    -0.000 C 
BRANCH   3   4
ATOM      4  C   UNL     1     206.919 197.900 217.898  1.00  0.00    -0.003 C 
ATOM      5  C   UNL     1     206.395 196.759 217.032  1.00  0.00     0.004 C 
ENDBRANCH   3   4
ENDBRANCH   2   3
ENDBRANCH   1   2
BRANCH   1   6
ATOM      6  C   UNL     1     202.964 200.590 217.778  1.00  0.00     0.012 C 
BRANCH   6   7
ATOM      7  C   UNL     1     201.485 200.667 217.377  1.00  0.00     0.123 C 
BRANCH   7   8
ATOM      8  C   UNL     1     200.659 199.659 218.116  1.00  0.00     0.305 C 
ATOM      9  O   UNL     1     200.341 199.870 219.318  1.00  0.00    -0.252 OA
BRANCH   8  10
ATOM     10  O   UNL     1     200.226 198.506 217.454  1.00  0.00    -0.469 OA
ATOM     11  C   UNL     1     200.895 197.257 217.578  1.00  0.00     0.282 C 
ENDBRANCH   8  10
ENDBRANCH   7   8
ENDBRANCH   6   7
ENDBRANCH   1   6
TORSDOF 7
ENDMDL
MODEL 7
REMARK VINA RESULT:    -3.043      2.115      3.835
REMARK INTER + INTRA:          -4.585
REMARK INTER:                  -4.295
REMARK INTRA:                  -0.290
REMARK UNBOUND:                -0.297
REMARK SMILES CCCCCCCC(=O)OC
REMARK SMILES IDX 5 1 4 2 3 3 2 4 1 5 6 6 7 7 8 8 9 9 10 10 11 11
REMARK H PARENT
REMARK Flexibility Score: inf
ROOT
ATOM      1  C   UNL     1     200.501 200.033 218.975  1.00  0.00     0.001 C 
ENDROOT
BRANCH   1   2
ATOM      2  C   UNL     1     198.965 200.022 218.991  1.00  0.00     0.000 C 
BRANCH   2   3
ATOM      3  C   UNL     1     198.353 200.702 217.757  1.00  0.00    -0.000 C 
BRANCH   3   4
ATOM      4  C   UNL     1     196.970 201.279 218.078  1.00  0.00    -0.003 C 
ATOM      5  C   UNL     1     196.587 201.020 219.531  1.00  0.00     0.004 C 
ENDBRANCH   3   4
ENDBRANCH   2   3
ENDBRANCH   1   2
BRANCH   1   6
ATOM      6  C   UNL     1     201.075 200.421 217.600  1.00  0.00     0.012 C 
BRANCH   6   7
ATOM      7  C   UNL     1     202.582 200.704 217.662  1.00  0.00     0.123 C 
BRANCH   7   8
ATOM      8  C   UNL     1     203.374 199.639 216.967  1.00  0.00     0.305 C 
ATOM      9  O   UNL     1     203.171 198.425 217.244  1.00  0.00    -0.252 OA
BRANCH   8  10
ATOM     10  O   UNL     1     204.314 200.002 215.998  1.00  0.00    -0.469 OA
ATOM     11  C   UNL     1     205.716 199.888 216.211  1.00  0.00     0.282 C 
ENDBRANCH   8  10
ENDBRANCH   7   8
ENDBRANCH   6   7
ENDBRANCH   1   6
TORSDOF 7
ENDMDL
MODEL 8
REMARK VINA RESULT:    -3.042      1.744      2.644
REMARK INTER + INTRA:          -4.584
REMARK INTER:                  -4.382
REMARK INTRA:                  -0.202
REMARK UNBOUND:                -0.297
REMARK SMILES CCCCCCCC(=O)OC
REMARK SMILES IDX 5 1 4 2 3 3 2 4 1 5 6 6 7 7 8 8 9 9 10 10 11 11
REMARK H PARENT
REMARK Flexibility Score: inf
ROOT
ATOM      1  C   UNL     1     202.020 200.687 217.748  1.00  0.00     0.001 C 
ENDROOT
BRANCH   1   2
ATOM      2  C   UNL     1     201.100 199.547 218.210  1.00  0.00     0.000 C 
BRANCH   2   3
ATOM      3  C   UNL     1     200.037 200.013 219.217  1.00  0.00    -0.000 C 
BRANCH   3   4
ATOM      4  C   UNL     1     198.673 200.179 218.537  1.00  0.00    -0.003 C 
ATOM      5  C   UNL     1     197.547 200.239 219.565  1.00  0.00     0.004 C 
ENDBRANCH   3   4
ENDBRANCH   2   3
ENDBRANCH   1   2
BRANCH   1   6
ATOM      6  C   UNL     1     203.278 200.176 217.022  1.00  0.00     0.012 C 
BRANCH   6   7
ATOM      7  C   UNL     1     203.336 198.643 216.977  1.00  0.00     0.123 C 
BRANCH   7   8
ATOM      8  C   UNL     1     204.742 198.147 216.827  1.00  0.00     0.305 C 
ATOM      9  O   UNL     1     205.011 197.281 215.951  1.00  0.00    -0.252 OA
BRANCH   8  10
ATOM     10  O   UNL     1     205.747 198.672 217.645  1.00  0.00    -0.469 OA
ATOM     11  C   UNL     1     206.966 197.983 217.897  1.00  0.00     0.282 C 
ENDBRANCH   8  10
ENDBRANCH   7   8
ENDBRANCH   6   7
ENDBRANCH   1   6
TORSDOF 7
ENDMDL
MODEL 9
REMARK VINA RESULT:    -3.035      1.276      2.007
REMARK INTER + INTRA:          -4.574
REMARK INTER:                  -4.312
REMARK INTRA:                  -0.262
REMARK UNBOUND:                -0.297
REMARK SMILES CCCCCCCC(=O)OC
REMARK SMILES IDX 5 1 4 2 3 3 2 4 1 5 6 6 7 7 8 8 9 9 10 10 11 11
REMARK H PARENT
REMARK Flexibility Score: inf
ROOT
ATOM      1  C   UNL     1     202.379 200.942 216.737  1.00  0.00     0.001 C 
ENDROOT
BRANCH   1   2
ATOM      2  C   UNL     1     200.936 200.730 217.221  1.00  0.00     0.000 C 
BRANCH   2   3
ATOM      3  C   UNL     1     200.866 200.052 218.598  1.00  0.00    -0.000 C 
BRANCH   3   4
ATOM      4  C   UNL     1     199.432 200.058 219.140  1.00  0.00    -0.003 C 
ATOM      5  C   UNL     1     198.430 200.418 218.046  1.00  0.00     0.004 C 
ENDBRANCH   3   4
ENDBRANCH   2   3
ENDBRANCH   1   2
BRANCH   1   6
ATOM      6  C   UNL     1     203.379 199.992 217.422  1.00  0.00     0.012 C 
BRANCH   6   7
ATOM      7  C   UNL     1     204.411 199.430 216.435  1.00  0.00     0.123 C 
BRANCH   7   8
ATOM      8  C   UNL     1     205.796 199.459 217.007  1.00  0.00     0.305 C 
ATOM      9  O   UNL     1     205.979 199.168 218.221  1.00  0.00    -0.252 OA
BRANCH   8  10
ATOM     10  O   UNL     1     206.875 199.784 216.180  1.00  0.00    -0.469 OA
ATOM     11  C   UNL     1     207.006 201.057 215.558  1.00  0.00     0.282 C 
ENDBRANCH   8  10
ENDBRANCH   7   8
ENDBRANCH   6   7
ENDBRANCH   1   6
TORSDOF 7
ENDMDL
