MODEL 1
REMARK VINA RESULT:    -4.758      0.000      0.000
REMARK INTER + INTRA:          -7.777
REMARK INTER:                  -7.261
REMARK INTRA:                  -0.516
REMARK UNBOUND:                -0.516
REMARK SMILES O=C([O-])CCCCCCCCC(=O)[O-]
REMARK SMILES IDX 7 1 6 2 5 3 4 4 2 5 1 6 3 7 8 8 9 9 10 10 11 11 12 12 13 13
REMARK SMILES IDX 14 14
REMARK H PARENT
REMARK Flexibility Score: inf
ROOT
ATOM      1  C   UNL     1       0.822 -20.204 -14.429  1.00  0.00     0.000 C 
ENDROOT
BRANCH   1   2
ATOM      2  C   UNL     1       2.105 -20.883 -13.921  1.00  0.00     0.000 C 
BRANCH   2   3
ATOM      3  C   UNL     1       3.138 -19.877 -13.393  1.00  0.00     0.006 C 
BRANCH   3   4
ATOM      4  C   UNL     1       3.426 -20.117 -11.907  1.00  0.00     0.053 C 
BRANCH   4   5
ATOM      5  C   UNL     1       4.370 -21.265 -11.735  1.00  0.00     0.041 C 
ATOM      6  O   UNL     1       5.370 -21.382 -12.490  1.00  0.00    -0.550 OA
ATOM      7  O   UNL     1       4.173 -22.178 -10.707  1.00  0.00    -0.550 OA
ENDBRANCH   4   5
ENDBRANCH   3   4
ENDBRANCH   2   3
ENDBRANCH   1   2
BRANCH   1   8
ATOM      8  C   UNL     1      -0.041 -21.142 -15.291  1.00  0.00     0.000 C 
BRANCH   8   9
ATOM      9  C   UNL     1       0.764 -22.304 -15.900  1.00  0.00     0.000 C 
BRANCH   9  10
ATOM     10  C   UNL     1      -0.043 -23.587 -16.174  1.00  0.00     0.006 C 
BRANCH  10  11
ATOM     11  C   UNL     1       0.231 -24.695 -15.150  1.00  0.00     0.053 C 
BRANCH  11  12
ATOM     12  C   UNL     1      -0.925 -24.835 -14.210  1.00  0.00     0.041 C 
ATOM     13  O   UNL     1      -0.964 -24.160 -13.148  1.00  0.00    -0.550 OA
ATOM     14  O   UNL     1      -1.985 -25.675 -14.532  1.00  0.00    -0.550 OA
ENDBRANCH  11  12
ENDBRANCH  10  11
ENDBRANCH   9  10
ENDBRANCH   8   9
ENDBRANCH   1   8
TORSDOF 9
ENDMDL
MODEL 2
REMARK VINA RESULT:    -4.717      1.093      1.336
REMARK INTER + INTRA:          -7.714
REMARK INTER:                  -7.169
REMARK INTRA:                  -0.545
REMARK UNBOUND:                -0.516
REMARK SMILES O=C([O-])CCCCCCCCC(=O)[O-]
REMARK SMILES IDX 7 1 6 2 5 3 4 4 2 5 1 6 3 7 8 8 9 9 10 10 11 11 12 12 13 13
REMARK SMILES IDX 14 14
REMARK H PARENT
REMARK Flexibility Score: inf
ROOT
ATOM      1  C   UNL     1       0.800 -20.647 -13.550  1.00  0.00     0.000 C 
ENDROOT
BRANCH   1   2
ATOM      2  C   UNL     1       1.989 -20.103 -14.361  1.00  0.00     0.000 C 
BRANCH   2   3
ATOM      3  C   UNL     1       3.309 -20.143 -13.576  1.00  0.00     0.006 C 
BRANCH   3   4
ATOM      4  C   UNL     1       3.089 -20.694 -12.163  1.00  0.00     0.053 C 
BRANCH   4   5
ATOM      5  C   UNL     1       4.264 -21.513 -11.731  1.00  0.00     0.041 C 
ATOM      6  O   UNL     1       5.359 -21.423 -12.345  1.00  0.00    -0.550 OA
ATOM      7  O   UNL     1       4.164 -22.338 -10.618  1.00  0.00    -0.550 OA
ENDBRANCH   4   5
ENDBRANCH   3   4
ENDBRANCH   2   3
ENDBRANCH   1   2
BRANCH   1   8
ATOM      8  C   UNL     1      -0.089 -21.597 -14.371  1.00  0.00     0.000 C 
BRANCH   8   9
ATOM      9  C   UNL     1       0.317 -21.664 -15.854  1.00  0.00     0.000 C 
BRANCH   9  10
ATOM     10  C   UNL     1       0.177 -23.051 -16.509  1.00  0.00     0.006 C 
BRANCH  10  11
ATOM     11  C   UNL     1      -0.262 -24.138 -15.520  1.00  0.00     0.053 C 
BRANCH  11  12
ATOM     12  C   UNL     1      -1.637 -24.625 -15.856  1.00  0.00     0.041 C 
ATOM     13  O   UNL     1      -2.160 -24.334 -16.964  1.00  0.00    -0.550 OA
ATOM     14  O   UNL     1      -2.322 -25.443 -14.965  1.00  0.00    -0.550 OA
ENDBRANCH  11  12
ENDBRANCH  10  11
ENDBRANCH   9  10
ENDBRANCH   8   9
ENDBRANCH   1   8
TORSDOF 9
ENDMDL
MODEL 3
REMARK VINA RESULT:    -4.701     11.895     13.537
REMARK INTER + INTRA:          -7.690
REMARK INTER:                  -7.292
REMARK INTRA:                  -0.398
REMARK UNBOUND:                -0.516
REMARK SMILES O=C([O-])CCCCCCCCC(=O)[O-]
REMARK SMILES IDX 7 1 6 2 5 3 4 4 2 5 1 6 3 7 8 8 9 9 10 10 11 11 12 12 13 13
REMARK SMILES IDX 14 14
REMARK H PARENT
REMARK Flexibility Score: inf
ROOT
ATOM      1  C   UNL     1      -6.757 -20.387  -4.864  1.00  0.00     0.000 C 
ENDROOT
BRANCH   1   2
ATOM      2  C   UNL     1      -7.489 -19.238  -5.579  1.00  0.00     0.000 C 
BRANCH   2   3
ATOM      3  C   UNL     1      -9.017 -19.372  -5.506  1.00  0.00     0.006 C 
BRANCH   3   4
ATOM      4  C   UNL     1      -9.682 -18.717  -6.721  1.00  0.00     0.053 C 
BRANCH   4   5
ATOM      5  C   UNL     1     -10.461 -19.728  -7.501  1.00  0.00     0.041 C 
ATOM      6  O   UNL     1     -11.066 -20.659  -6.906  1.00  0.00    -0.550 OA
ATOM      7  O   UNL     1     -10.562 -19.614  -8.881  1.00  0.00    -0.550 OA
ENDBRANCH   4   5
ENDBRANCH   3   4
ENDBRANCH   2   3
ENDBRANCH   1   2
BRANCH   1   8
ATOM      8  C   UNL     1      -6.918 -20.329  -3.335  1.00  0.00     0.000 C 
BRANCH   8   9
ATOM      9  C   UNL     1      -6.230 -21.503  -2.616  1.00  0.00     0.000 C 
BRANCH   9  10
ATOM     10  C   UNL     1      -6.466 -22.887  -3.248  1.00  0.00     0.006 C 
BRANCH  10  11
ATOM     11  C   UNL     1      -5.192 -23.498  -3.845  1.00  0.00     0.053 C 
BRANCH  11  12
ATOM     12  C   UNL     1      -5.533 -24.425  -4.969  1.00  0.00     0.041 C 
ATOM     13  O   UNL     1      -4.985 -25.556  -5.047  1.00  0.00    -0.550 OA
ATOM     14  O   UNL     1      -6.496 -24.059  -5.903  1.00  0.00    -0.550 OA
ENDBRANCH  11  12
ENDBRANCH  10  11
ENDBRANCH   9  10
ENDBRANCH   8   9
ENDBRANCH   1   8
TORSDOF 9
ENDMDL
MODEL 4
REMARK VINA RESULT:    -4.654     12.153     13.815
REMARK INTER + INTRA:          -7.618
REMARK INTER:                  -6.986
REMARK INTRA:                  -0.632
REMARK UNBOUND:                -0.516
REMARK SMILES O=C([O-])CCCCCCCCC(=O)[O-]
REMARK SMILES IDX 7 1 6 2 5 3 4 4 2 5 1 6 3 7 8 8 9 9 10 10 11 11 12 12 13 13
REMARK SMILES IDX 14 14
REMARK H PARENT
REMARK Flexibility Score: inf
ROOT
ATOM      1  C   UNL     1      -7.136 -21.100  -6.367  1.00  0.00     0.000 C 
ENDROOT
BRANCH   1   2
ATOM      2  C   UNL     1      -7.516 -19.615  -6.497  1.00  0.00     0.000 C 
BRANCH   2   3
ATOM      3  C   UNL     1      -8.817 -19.270  -5.756  1.00  0.00     0.006 C 
BRANCH   3   4
ATOM      4  C   UNL     1      -9.854 -18.681  -6.719  1.00  0.00     0.053 C 
BRANCH   4   5
ATOM      5  C   UNL     1     -10.509 -19.768  -7.512  1.00  0.00     0.041 C 
ATOM      6  O   UNL     1     -11.074 -20.728  -6.926  1.00  0.00    -0.550 OA
ATOM      7  O   UNL     1     -10.538 -19.694  -8.899  1.00  0.00    -0.550 OA
ENDBRANCH   4   5
ENDBRANCH   3   4
ENDBRANCH   2   3
ENDBRANCH   1   2
BRANCH   1   8
ATOM      8  C   UNL     1      -5.694 -21.298  -5.870  1.00  0.00     0.000 C 
BRANCH   8   9
ATOM      9  C   UNL     1      -5.460 -22.688  -5.250  1.00  0.00     0.000 C 
BRANCH   9  10
ATOM     10  C   UNL     1      -5.825 -22.809  -3.759  1.00  0.00     0.006 C 
BRANCH  10  11
ATOM     11  C   UNL     1      -5.210 -21.697  -2.900  1.00  0.00     0.053 C 
BRANCH  11  12
ATOM     12  C   UNL     1      -6.281 -20.936  -2.185  1.00  0.00     0.041 C 
ATOM     13  O   UNL     1      -6.089 -20.522  -1.011  1.00  0.00    -0.550 OA
ATOM     14  O   UNL     1      -7.475 -20.640  -2.833  1.00  0.00    -0.550 OA
ENDBRANCH  11  12
ENDBRANCH  10  11
ENDBRANCH   9  10
ENDBRANCH   8   9
ENDBRANCH   1   8
TORSDOF 9
ENDMDL
MODEL 5
REMARK VINA RESULT:    -4.645      1.098      5.518
REMARK INTER + INTRA:          -7.604
REMARK INTER:                  -7.127
REMARK INTRA:                  -0.477
REMARK UNBOUND:                -0.516
REMARK SMILES O=C([O-])CCCCCCCCC(=O)[O-]
REMARK SMILES IDX 7 1 6 2 5 3 4 4 2 5 1 6 3 7 8 8 9 9 10 10 11 11 12 12 13 13
REMARK SMILES IDX 14 14
REMARK H PARENT
REMARK Flexibility Score: inf
ROOT
ATOM      1  C   UNL     1       0.125 -21.523 -15.761  1.00  0.00     0.000 C 
ENDROOT
BRANCH   1   2
ATOM      2  C   UNL     1      -0.442 -22.935 -15.986  1.00  0.00     0.000 C 
BRANCH   2   3
ATOM      3  C   UNL     1       0.463 -24.036 -15.413  1.00  0.00     0.006 C 
BRANCH   3   4
ATOM      4  C   UNL     1      -0.339 -25.000 -14.534  1.00  0.00     0.053 C 
BRANCH   4   5
ATOM      5  C   UNL     1       0.133 -24.932 -13.116  1.00  0.00     0.041 C 
ATOM      6  O   UNL     1       0.144 -25.967 -12.400  1.00  0.00    -0.550 OA
ATOM      7  O   UNL     1       0.607 -23.733 -12.598  1.00  0.00    -0.550 OA
ENDBRANCH   4   5
ENDBRANCH   3   4
ENDBRANCH   2   3
ENDBRANCH   1   2
BRANCH   1   8
ATOM      8  C   UNL     1       1.475 -21.539 -15.023  1.00  0.00     0.000 C 
BRANCH   8   9
ATOM      9  C   UNL     1       1.690 -20.295 -14.143  1.00  0.00     0.000 C 
BRANCH   9  10
ATOM     10  C   UNL     1       3.113 -20.132 -13.577  1.00  0.00     0.006 C 
BRANCH  10  11
ATOM     11  C   UNL     1       3.191 -20.396 -12.068  1.00  0.00     0.053 C 
BRANCH  11  12
ATOM     12  C   UNL     1       4.287 -21.369 -11.764  1.00  0.00     0.041 C 
ATOM     13  O   UNL     1       5.335 -21.383 -12.462  1.00  0.00    -0.550 OA
ATOM     14  O   UNL     1       4.172 -22.228 -10.677  1.00  0.00    -0.550 OA
ENDBRANCH  11  12
ENDBRANCH  10  11
ENDBRANCH   9  10
ENDBRANCH   8   9
ENDBRANCH   1   8
TORSDOF 9
ENDMDL
MODEL 6
REMARK VINA RESULT:    -4.636     11.369     13.078
REMARK INTER + INTRA:          -7.591
REMARK INTER:                  -6.688
REMARK INTRA:                  -0.903
REMARK UNBOUND:                -0.516
REMARK SMILES O=C([O-])CCCCCCCCC(=O)[O-]
REMARK SMILES IDX 7 1 6 2 5 3 4 4 2 5 1 6 3 7 8 8 9 9 10 10 11 11 12 12 13 13
REMARK SMILES IDX 14 14
REMARK H PARENT
REMARK Flexibility Score: inf
ROOT
ATOM      1  C   UNL     1      -6.302 -21.203  -4.885  1.00  0.00     0.000 C 
ENDROOT
BRANCH   1   2
ATOM      2  C   UNL     1      -6.002 -21.020  -6.382  1.00  0.00     0.000 C 
BRANCH   2   3
ATOM      3  C   UNL     1      -6.452 -22.220  -7.228  1.00  0.00     0.006 C 
BRANCH   3   4
ATOM      4  C   UNL     1      -7.720 -21.886  -8.021  1.00  0.00     0.053 C 
BRANCH   4   5
ATOM      5  C   UNL     1      -8.678 -23.034  -7.985  1.00  0.00     0.041 C 
ATOM      6  O   UNL     1      -9.774 -22.965  -8.601  1.00  0.00    -0.550 OA
ATOM      7  O   UNL     1      -8.340 -24.202  -7.313  1.00  0.00    -0.550 OA
ENDBRANCH   4   5
ENDBRANCH   3   4
ENDBRANCH   2   3
ENDBRANCH   1   2
BRANCH   1   8
ATOM      8  C   UNL     1      -6.971 -19.966  -4.261  1.00  0.00     0.000 C 
BRANCH   8   9
ATOM      9  C   UNL     1      -7.633 -19.052  -5.307  1.00  0.00     0.000 C 
BRANCH   9  10
ATOM     10  C   UNL     1      -9.117 -19.351  -5.592  1.00  0.00     0.006 C 
BRANCH  10  11
ATOM     11  C   UNL     1      -9.616 -18.711  -6.893  1.00  0.00     0.053 C 
BRANCH  11  12
ATOM     12  C   UNL     1     -10.564 -19.629  -7.597  1.00  0.00     0.041 C 
ATOM     13  O   UNL     1     -11.218 -20.486  -6.946  1.00  0.00    -0.550 OA
ATOM     14  O   UNL     1     -10.764 -19.506  -8.968  1.00  0.00    -0.550 OA
ENDBRANCH  11  12
ENDBRANCH  10  11
ENDBRANCH   9  10
ENDBRANCH   8   9
ENDBRANCH   1   8
TORSDOF 9
ENDMDL
MODEL 7
REMARK VINA RESULT:    -4.629     11.389     12.884
REMARK INTER + INTRA:          -7.580
REMARK INTER:                  -6.939
REMARK INTRA:                  -0.641
REMARK UNBOUND:                -0.516
REMARK SMILES O=C([O-])CCCCCCCCC(=O)[O-]
REMARK SMILES IDX 7 1 6 2 5 3 4 4 2 5 1 6 3 7 8 8 9 9 10 10 11 11 12 12 13 13
REMARK SMILES IDX 14 14
REMARK H PARENT
REMARK Flexibility Score: inf
ROOT
ATOM      1  C   UNL     1      -5.993 -21.093  -4.437  1.00  0.00     0.000 C 
ENDROOT
BRANCH   1   2
ATOM      2  C   UNL     1      -5.903 -22.405  -3.640  1.00  0.00     0.000 C 
BRANCH   2   3
ATOM      3  C   UNL     1      -6.344 -23.628  -4.459  1.00  0.00     0.006 C 
BRANCH   3   4
ATOM      4  C   UNL     1      -6.195 -23.362  -5.961  1.00  0.00     0.053 C 
BRANCH   4   5
ATOM      5  C   UNL     1      -6.948 -24.386  -6.751  1.00  0.00     0.041 C 
ATOM      6  O   UNL     1      -6.461 -25.533  -6.930  1.00  0.00    -0.550 OA
ATOM      7  O   UNL     1      -8.211 -24.089  -7.248  1.00  0.00    -0.550 OA
ENDBRANCH   4   5
ENDBRANCH   3   4
ENDBRANCH   2   3
ENDBRANCH   1   2
BRANCH   1   8
ATOM      8  C   UNL     1      -7.241 -20.268  -4.077  1.00  0.00     0.000 C 
BRANCH   8   9
ATOM      9  C   UNL     1      -7.595 -19.220  -5.147  1.00  0.00     0.000 C 
BRANCH   9  10
ATOM     10  C   UNL     1      -8.898 -19.492  -5.923  1.00  0.00     0.006 C 
BRANCH  10  11
ATOM     11  C   UNL     1      -8.734 -20.559  -7.013  1.00  0.00     0.053 C 
BRANCH  11  12
ATOM     12  C   UNL     1     -10.072 -21.031  -7.487  1.00  0.00     0.041 C 
ATOM     13  O   UNL     1     -10.155 -21.830  -8.457  1.00  0.00    -0.550 OA
ATOM     14  O   UNL     1     -11.226 -20.628  -6.825  1.00  0.00    -0.550 OA
ENDBRANCH  11  12
ENDBRANCH  10  11
ENDBRANCH   9  10
ENDBRANCH   8   9
ENDBRANCH   1   8
TORSDOF 9
ENDMDL
MODEL 8
REMARK VINA RESULT:    -4.582      1.692      6.676
REMARK INTER + INTRA:          -7.509
REMARK INTER:                  -7.082
REMARK INTRA:                  -0.427
REMARK UNBOUND:                -0.516
REMARK SMILES O=C([O-])CCCCCCCCC(=O)[O-]
REMARK SMILES IDX 7 1 6 2 5 3 4 4 2 5 1 6 3 7 8 8 9 9 10 10 11 11 12 12 13 13
REMARK SMILES IDX 14 14
REMARK H PARENT
REMARK Flexibility Score: inf
ROOT
ATOM      1  C   UNL     1      -0.295 -21.838 -14.735  1.00  0.00     0.000 C 
ENDROOT
BRANCH   1   2
ATOM      2  C   UNL     1       0.456 -22.216 -16.023  1.00  0.00     0.000 C 
BRANCH   2   3
ATOM      3  C   UNL     1      -0.378 -23.106 -16.956  1.00  0.00     0.006 C 
BRANCH   3   4
ATOM      4  C   UNL     1      -1.220 -24.103 -16.153  1.00  0.00     0.053 C 
BRANCH   4   5
ATOM      5  C   UNL     1      -2.614 -24.167 -16.693  1.00  0.00     0.041 C 
ATOM      6  O   UNL     1      -3.477 -23.329 -16.321  1.00  0.00    -0.550 OA
ATOM      7  O   UNL     1      -2.947 -25.121 -17.647  1.00  0.00    -0.550 OA
ENDBRANCH   4   5
ENDBRANCH   3   4
ENDBRANCH   2   3
ENDBRANCH   1   2
BRANCH   1   8
ATOM      8  C   UNL     1       0.636 -21.255 -13.658  1.00  0.00     0.000 C 
BRANCH   8   9
ATOM      9  C   UNL     1       1.566 -20.156 -14.202  1.00  0.00     0.000 C 
BRANCH   9  10
ATOM     10  C   UNL     1       3.046 -20.293 -13.800  1.00  0.00     0.006 C 
BRANCH  10  11
ATOM     11  C   UNL     1       3.255 -20.304 -12.280  1.00  0.00     0.053 C 
BRANCH  11  12
ATOM     12  C   UNL     1       4.367 -21.235 -11.913  1.00  0.00     0.041 C 
ATOM     13  O   UNL     1       5.516 -21.075 -12.401  1.00  0.00    -0.550 OA
ATOM     14  O   UNL     1       4.146 -22.252 -10.990  1.00  0.00    -0.550 OA
ENDBRANCH  11  12
ENDBRANCH  10  11
ENDBRANCH   9  10
ENDBRANCH   8   9
ENDBRANCH   1   8
TORSDOF 9
ENDMDL
MODEL 9
REMARK VINA RESULT:    -4.556     12.013     13.770
REMARK INTER + INTRA:          -7.469
REMARK INTER:                  -7.054
REMARK INTRA:                  -0.415
REMARK UNBOUND:                -0.516
REMARK SMILES O=C([O-])CCCCCCCCC(=O)[O-]
REMARK SMILES IDX 7 1 6 2 5 3 4 4 2 5 1 6 3 7 8 8 9 9 10 10 11 11 12 12 13 13
REMARK SMILES IDX 14 14
REMARK H PARENT
REMARK Flexibility Score: inf
ROOT
ATOM      1  C   UNL     1      -6.807 -20.245  -5.037  1.00  0.00     0.000 C 
ENDROOT
BRANCH   1   2
ATOM      2  C   UNL     1      -7.603 -19.062  -5.615  1.00  0.00     0.000 C 
BRANCH   2   3
ATOM      3  C   UNL     1      -9.121 -19.297  -5.585  1.00  0.00     0.006 C 
BRANCH   3   4
ATOM      4  C   UNL     1      -9.787 -18.726  -6.841  1.00  0.00     0.053 C 
BRANCH   4   5
ATOM      5  C   UNL     1     -10.553 -19.791  -7.559  1.00  0.00     0.041 C 
ATOM      6  O   UNL     1     -11.215 -20.643  -6.910  1.00  0.00    -0.550 OA
ATOM      7  O   UNL     1     -10.579 -19.813  -8.948  1.00  0.00    -0.550 OA
ENDBRANCH   4   5
ENDBRANCH   3   4
ENDBRANCH   2   3
ENDBRANCH   1   2
BRANCH   1   8
ATOM      8  C   UNL     1      -6.864 -20.301  -3.501  1.00  0.00     0.000 C 
BRANCH   8   9
ATOM      9  C   UNL     1      -6.528 -21.694  -2.940  1.00  0.00     0.000 C 
BRANCH   9  10
ATOM     10  C   UNL     1      -5.139 -21.819  -2.286  1.00  0.00     0.006 C 
BRANCH  10  11
ATOM     11  C   UNL     1      -4.132 -22.576  -3.161  1.00  0.00     0.053 C 
BRANCH  11  12
ATOM     12  C   UNL     1      -3.073 -21.646  -3.662  1.00  0.00     0.041 C 
ATOM     13  O   UNL     1      -1.891 -21.740  -3.237  1.00  0.00    -0.550 OA
ATOM     14  O   UNL     1      -3.379 -20.705  -4.638  1.00  0.00    -0.550 OA
ENDBRANCH  11  12
ENDBRANCH  10  11
ENDBRANCH   9  10
ENDBRANCH   8   9
ENDBRANCH   1   8
TORSDOF 9
ENDMDL
