MODEL 1
REMARK VINA RESULT:    25.672      0.000      0.000
REMARK INTER + INTRA:          28.408
REMARK INTER:                  27.923
REMARK INTRA:                   0.485
REMARK UNBOUND:                 0.485
REMARK SMILES C[C@@H]1[C@H]2C3=CC[C@H]4[C@@]5(C)CC[C@H](O)C(C)(C)[C@@H]5CC[C@@]4(C)[C@@]3(C)CC[C@]2(C(=O)[O-])CC[C@@H]1C
REMARK SMILES IDX 26 1 30 2 25 3 3 4 31 5 24 6 4 7 2 8 32 9 22 10 5 11 1 12
REMARK SMILES IDX 33 13 23 14 20 15 6 16 7 17 19 18 21 19 8 20 18 21 17 22
REMARK SMILES IDX 10 23 9 24 14 25 11 26 12 27 15 28 16 29 27 30 28 31 29 32
REMARK SMILES IDX 13 33
REMARK H PARENT 13 34
REMARK Flexibility Score: inf
ROOT
ATOM      1  C   UNL     1      10.030   1.813  19.274  1.00  0.00     0.017 C 
ATOM      2  C   UNL     1      10.159   3.142  20.106  1.00  0.00     0.014 C 
ATOM      3  C   UNL     1      10.643   0.673  20.124  1.00  0.00     0.014 C 
ATOM      4  C   UNL     1       8.539   1.423  19.000  1.00  0.00     0.030 C 
ATOM      5  C   UNL     1       8.894   4.009  20.125  1.00  0.00     0.004 C 
ATOM      6  C   UNL     1      10.631  -0.675  19.401  1.00  0.00     0.013 C 
ATOM      7  C   UNL     1       8.455   0.038  18.284  1.00  0.00    -0.063 C 
ATOM      8  C   UNL     1       7.669   2.602  18.397  1.00  0.00    -0.003 C 
ATOM      9  C   UNL     1       8.248   4.014  18.739  1.00  0.00    -0.011 C 
ATOM     10  C   UNL     1       9.225  -1.159  18.881  1.00  0.00    -0.006 C 
ATOM     11  C   UNL     1       7.504  -0.192  17.360  1.00  0.00    -0.027 C 
ATOM     12  C   UNL     1       6.197   2.460  18.867  1.00  0.00     0.008 C 
ATOM     13  C   UNL     1       7.248   5.170  18.596  1.00  0.00     0.008 C 
ATOM     14  C   UNL     1       8.402  -1.618  20.125  1.00  0.00     0.017 C 
ATOM     15  C   UNL     1       9.387  -2.385  17.823  1.00  0.00    -0.020 C 
ATOM     16  C   UNL     1       7.206  -1.501  16.710  1.00  0.00     0.032 C 
ATOM     17  C   UNL     1       7.981  -2.768  17.186  1.00  0.00     0.006 C 
ATOM     18  C   UNL     1      10.352  -2.026  16.641  1.00  0.00     0.008 C 
ATOM     19  C   UNL     1      10.004  -3.600  18.596  1.00  0.00     0.012 C 
ATOM     20  C   UNL     1       8.025  -3.883  16.027  1.00  0.00    -0.025 C 
ATOM     21  C   UNL     1      10.432  -3.086  15.520  1.00  0.00     0.005 C 
ATOM     22  C   UNL     1       9.052  -3.433  14.916  1.00  0.00     0.003 C 
ATOM     23  C   UNL     1       6.618  -4.042  15.350  1.00  0.00     0.010 C 
ATOM     24  C   UNL     1       8.366  -5.275  16.657  1.00  0.00     0.012 C 
ATOM     25  C   UNL     1       9.086  -4.320  13.603  1.00  0.00    -0.006 C 
ATOM     26  C   UNL     1       6.621  -4.940  14.100  1.00  0.00     0.033 C 
ATOM     27  C   UNL     1       7.627  -4.458  13.049  1.00  0.00     0.120 C 
ATOM     28  C   UNL     1       9.923  -3.598  12.510  1.00  0.00     0.014 C 
ATOM     29  C   UNL     1       9.732  -5.717  13.809  1.00  0.00     0.014 C 
ENDROOT
BRANCH   1  30
ATOM     30  C   UNL     1      10.816   1.971  17.969  1.00  0.00     0.048 C 
ATOM     31  O   UNL     1      10.418   1.402  16.918  1.00  0.00    -0.550 OA
ATOM     32  O   UNL     1      12.026   2.647  17.934  1.00  0.00    -0.550 OA
ENDBRANCH   1  30
BRANCH  27  33
ATOM     33  O   UNL     1       7.588  -5.352  11.961  1.00  0.00    -0.393 OA
ATOM     34  H   UNL     1       7.102  -6.165  12.259  1.00  0.00     0.210 HD
ENDBRANCH  27  33
TORSDOF 2
ENDMDL
MODEL 2
REMARK VINA RESULT:    26.621      6.166      8.689
REMARK INTER + INTRA:          29.440
REMARK INTER:                  28.486
REMARK INTRA:                   0.955
REMARK UNBOUND:                 0.485
REMARK SMILES C[C@@H]1[C@H]2C3=CC[C@H]4[C@@]5(C)CC[C@H](O)C(C)(C)[C@@H]5CC[C@@]4(C)[C@@]3(C)CC[C@]2(C(=O)[O-])CC[C@@H]1C
REMARK SMILES IDX 26 1 30 2 25 3 3 4 31 5 24 6 4 7 2 8 32 9 22 10 5 11 1 12
REMARK SMILES IDX 33 13 23 14 20 15 6 16 7 17 19 18 21 19 8 20 18 21 17 22
REMARK SMILES IDX 10 23 9 24 14 25 11 26 12 27 15 28 16 29 27 30 28 31 29 32
REMARK SMILES IDX 13 33
REMARK H PARENT 13 34
REMARK Flexibility Score: inf
ROOT
ATOM      1  C   UNL     1      18.615  -2.509  19.154  1.00  0.00     0.017 C 
ATOM      2  C   UNL     1      20.186  -2.579  19.120  1.00  0.00     0.014 C 
ATOM      3  C   UNL     1      18.226  -1.247  19.963  1.00  0.00     0.014 C 
ATOM      4  C   UNL     1      17.994  -2.343  17.727  1.00  0.00     0.030 C 
ATOM      5  C   UNL     1      20.782  -2.898  17.743  1.00  0.00     0.004 C 
ATOM      6  C   UNL     1      16.713  -1.089  20.120  1.00  0.00     0.013 C 
ATOM      7  C   UNL     1      16.448  -2.150  17.819  1.00  0.00    -0.063 C 
ATOM      8  C   UNL     1      18.530  -3.392  16.669  1.00  0.00    -0.003 C 
ATOM      9  C   UNL     1      19.936  -3.965  17.047  1.00  0.00    -0.011 C 
ATOM     10  C   UNL     1      15.884  -1.084  18.781  1.00  0.00    -0.006 C 
ATOM     11  C   UNL     1      15.641  -2.671  16.875  1.00  0.00    -0.027 C 
ATOM     12  C   UNL     1      18.536  -2.755  15.255  1.00  0.00     0.008 C 
ATOM     13  C   UNL     1      20.701  -4.610  15.882  1.00  0.00     0.008 C 
ATOM     14  C   UNL     1      16.133   0.292  18.086  1.00  0.00     0.017 C 
ATOM     15  C   UNL     1      14.297  -1.289  19.078  1.00  0.00    -0.020 C 
ATOM     16  C   UNL     1      14.174  -2.442  16.747  1.00  0.00     0.032 C 
ATOM     17  C   UNL     1      13.484  -1.435  17.720  1.00  0.00     0.006 C 
ATOM     18  C   UNL     1      14.015  -2.574  19.930  1.00  0.00     0.008 C 
ATOM     19  C   UNL     1      13.803  -0.049  19.899  1.00  0.00     0.012 C 
ATOM     20  C   UNL     1      11.919  -1.773  17.880  1.00  0.00    -0.025 C 
ATOM     21  C   UNL     1      12.519  -2.916  20.120  1.00  0.00     0.005 C 
ATOM     22  C   UNL     1      11.758  -3.058  18.782  1.00  0.00     0.003 C 
ATOM     23  C   UNL     1      11.266  -2.077  16.485  1.00  0.00     0.010 C 
ATOM     24  C   UNL     1      11.172  -0.520  18.448  1.00  0.00     0.012 C 
ATOM     25  C   UNL     1      10.291  -3.647  18.893  1.00  0.00    -0.006 C 
ATOM     26  C   UNL     1       9.823  -2.605  16.570  1.00  0.00     0.033 C 
ATOM     27  C   UNL     1       9.720  -3.856  17.450  1.00  0.00     0.120 C 
ATOM     28  C   UNL     1      10.343  -5.046  19.570  1.00  0.00     0.014 C 
ATOM     29  C   UNL     1       9.329  -2.776  19.746  1.00  0.00     0.014 C 
ENDROOT
BRANCH   1  30
ATOM     30  C   UNL     1      18.081  -3.762  19.854  1.00  0.00     0.048 C 
ATOM     31  O   UNL     1      18.856  -4.722  20.111  1.00  0.00    -0.550 OA
ATOM     32  O   UNL     1      16.730  -3.916  20.124  1.00  0.00    -0.550 OA
ENDBRANCH   1  30
BRANCH  27  33
ATOM     33  O   UNL     1       8.368  -4.248  17.498  1.00  0.00    -0.393 OA
ATOM     34  H   UNL     1       7.921  -3.696  18.191  1.00  0.00     0.210 HD
ENDBRANCH  27  33
TORSDOF 2
ENDMDL
MODEL 3
REMARK VINA RESULT:    27.038      4.754      7.671
REMARK INTER + INTRA:          29.893
REMARK INTER:                  29.576
REMARK INTRA:                   0.318
REMARK UNBOUND:                 0.485
REMARK SMILES C[C@@H]1[C@H]2C3=CC[C@H]4[C@@]5(C)CC[C@H](O)C(C)(C)[C@@H]5CC[C@@]4(C)[C@@]3(C)CC[C@]2(C(=O)[O-])CC[C@@H]1C
REMARK SMILES IDX 26 1 30 2 25 3 3 4 31 5 24 6 4 7 2 8 32 9 22 10 5 11 1 12
REMARK SMILES IDX 33 13 23 14 20 15 6 16 7 17 19 18 21 19 8 20 18 21 17 22
REMARK SMILES IDX 10 23 9 24 14 25 11 26 12 27 15 28 16 29 27 30 28 31 29 32
REMARK SMILES IDX 13 33
REMARK H PARENT 13 34
REMARK Flexibility Score: inf
ROOT
ATOM      1  C   UNL     1       9.623  -2.446  18.563  1.00  0.00     0.017 C 
ATOM      2  C   UNL     1       8.065  -2.387  18.349  1.00  0.00     0.014 C 
ATOM      3  C   UNL     1       9.910  -3.596  19.559  1.00  0.00     0.014 C 
ATOM      4  C   UNL     1      10.393  -2.786  17.243  1.00  0.00     0.030 C 
ATOM      5  C   UNL     1       7.625  -2.245  16.887  1.00  0.00     0.004 C 
ATOM      6  C   UNL     1      11.396  -3.726  19.898  1.00  0.00     0.013 C 
ATOM      7  C   UNL     1      11.918  -2.959  17.526  1.00  0.00    -0.063 C 
ATOM      8  C   UNL     1       9.984  -1.879  16.011  1.00  0.00    -0.003 C 
ATOM      9  C   UNL     1       8.551  -1.269  16.160  1.00  0.00    -0.011 C 
ATOM     10  C   UNL     1      12.365  -3.895  18.667  1.00  0.00    -0.006 C 
ATOM     11  C   UNL     1      12.827  -2.557  16.616  1.00  0.00    -0.027 C 
ATOM     12  C   UNL     1      10.125  -2.688  14.694  1.00  0.00     0.008 C 
ATOM     13  C   UNL     1       7.922  -0.779  14.848  1.00  0.00     0.008 C 
ATOM     14  C   UNL     1      12.179  -5.347  18.127  1.00  0.00     0.017 C 
ATOM     15  C   UNL     1      13.912  -3.647  19.107  1.00  0.00    -0.020 C 
ATOM     16  C   UNL     1      14.297  -2.794  16.678  1.00  0.00     0.032 C 
ATOM     17  C   UNL     1      14.869  -3.668  17.837  1.00  0.00     0.006 C 
ATOM     18  C   UNL     1      14.113  -2.265  19.818  1.00  0.00     0.008 C 
ATOM     19  C   UNL     1      14.303  -4.773  20.125  1.00  0.00     0.012 C 
ATOM     20  C   UNL     1      16.410  -3.307  18.123  1.00  0.00    -0.025 C 
ATOM     21  C   UNL     1      15.582  -1.896  20.125  1.00  0.00     0.005 C 
ATOM     22  C   UNL     1      16.485  -1.919  18.871  1.00  0.00     0.003 C 
ATOM     23  C   UNL     1      17.213  -3.176  16.780  1.00  0.00     0.010 C 
ATOM     24  C   UNL     1      17.080  -4.476  18.920  1.00  0.00     0.012 C 
ATOM     25  C   UNL     1      17.937  -1.314  19.065  1.00  0.00    -0.006 C 
ATOM     26  C   UNL     1      18.643  -2.635  16.954  1.00  0.00     0.033 C 
ATOM     27  C   UNL     1      18.662  -1.284  17.678  1.00  0.00     0.120 C 
ATOM     28  C   UNL     1      17.824   0.159  19.553  1.00  0.00     0.014 C 
ATOM     29  C   UNL     1      18.793  -2.067  20.119  1.00  0.00     0.014 C 
ENDROOT
BRANCH   1  30
ATOM     30  C   UNL     1      10.089  -1.113  19.155  1.00  0.00     0.048 C 
ATOM     31  O   UNL     1       9.334  -0.464  19.927  1.00  0.00    -0.550 OA
ATOM     32  O   UNL     1      11.295  -0.541  18.779  1.00  0.00    -0.550 OA
ENDBRANCH   1  30
BRANCH  27  33
ATOM     33  O   UNL     1      20.004  -0.883  17.823  1.00  0.00    -0.393 OA
ATOM     34  H   UNL     1      20.113  -0.021  17.343  1.00  0.00     0.210 HD
ENDBRANCH  27  33
TORSDOF 2
ENDMDL
