MODEL 1
REMARK VINA RESULT:    -4.337      0.000      0.000
REMARK INTER + INTRA:          -7.045
REMARK INTER:                  -6.619
REMARK INTRA:                  -0.425
REMARK UNBOUND:                -0.425
REMARK SMILES CCCCCCCCCC=CC(=O)[O-]
REMARK SMILES IDX 7 1 8 2 9 3 10 4 11 5 12 6 13 7 14 8 6 9 5 10 4 11 3 12 2 13
REMARK SMILES IDX 1 14
REMARK H PARENT
REMARK Flexibility Score: inf
ROOT
ATOM      1  C   UNL     1       1.241   1.334  15.442  1.00  0.00     0.000 C 
ENDROOT
BRANCH   1   2
ATOM      2  C   UNL     1       2.434   0.895  14.578  1.00  0.00     0.004 C 
BRANCH   2   3
ATOM      3  C   UNL     1       2.585  -0.633  14.531  1.00  0.00     0.027 C 
BRANCH   3   4
ATOM      4  C   UNL     1       3.982  -1.059  14.171  1.00  0.00    -0.025 C 
ATOM      5  C   UNL     1       4.209  -2.096  13.358  1.00  0.00     0.020 C 
BRANCH   5   6
ATOM      6  C   UNL     1       5.570  -2.526  13.005  1.00  0.00     0.064 C 
ATOM      7  O   UNL     1       5.744  -3.276  12.010  1.00  0.00    -0.545 OA
ATOM      8  O   UNL     1       6.668  -2.118  13.753  1.00  0.00    -0.545 OA
ENDBRANCH   5   6
ENDBRANCH   3   4
ENDBRANCH   2   3
ENDBRANCH   1   2
BRANCH   1   9
ATOM      9  C   UNL     1       1.017   2.847  15.340  1.00  0.00     0.000 C 
BRANCH   9  10
ATOM     10  C   UNL     1       0.696   3.447  16.718  1.00  0.00     0.000 C 
BRANCH  10  11
ATOM     11  C   UNL     1      -0.701   4.086  16.777  1.00  0.00    -0.000 C 
BRANCH  11  12
ATOM     12  C   UNL     1      -1.809   3.129  16.303  1.00  0.00    -0.000 C 
BRANCH  12  13
ATOM     13  C   UNL     1      -2.903   3.849  15.499  1.00  0.00    -0.003 C 
ATOM     14  C   UNL     1      -2.373   4.487  14.215  1.00  0.00     0.004 C 
ENDBRANCH  12  13
ENDBRANCH  11  12
ENDBRANCH  10  11
ENDBRANCH   9  10
ENDBRANCH   1   9
TORSDOF 9
ENDMDL
MODEL 2
REMARK VINA RESULT:    -4.307      1.520      1.818
REMARK INTER + INTRA:          -6.998
REMARK INTER:                  -6.322
REMARK INTRA:                  -0.676
REMARK UNBOUND:                -0.425
REMARK SMILES CCCCCCCCCC=CC(=O)[O-]
REMARK SMILES IDX 7 1 8 2 9 3 10 4 11 5 12 6 13 7 14 8 6 9 5 10 4 11 3 12 2 13
REMARK SMILES IDX 1 14
REMARK H PARENT
REMARK Flexibility Score: inf
ROOT
ATOM      1  C   UNL     1       1.508   1.817  16.499  1.00  0.00     0.000 C 
ENDROOT
BRANCH   1   2
ATOM      2  C   UNL     1       1.463   2.063  14.983  1.00  0.00     0.004 C 
BRANCH   2   3
ATOM      3  C   UNL     1       2.591   1.329  14.243  1.00  0.00     0.027 C 
BRANCH   3   4
ATOM      4  C   UNL     1       2.590  -0.149  14.520  1.00  0.00    -0.025 C 
ATOM      5  C   UNL     1       3.620  -0.927  14.169  1.00  0.00     0.020 C 
BRANCH   5   6
ATOM      6  C   UNL     1       3.627  -2.374  14.429  1.00  0.00     0.064 C 
ATOM      7  O   UNL     1       3.329  -3.172  13.502  1.00  0.00    -0.545 OA
ATOM      8  O   UNL     1       3.957  -2.877  15.682  1.00  0.00    -0.545 OA
ENDBRANCH   5   6
ENDBRANCH   3   4
ENDBRANCH   2   3
ENDBRANCH   1   2
BRANCH   1   9
ATOM      9  C   UNL     1       1.088   3.072  17.272  1.00  0.00     0.000 C 
BRANCH   9  10
ATOM     10  C   UNL     1       0.255   4.010  16.384  1.00  0.00     0.000 C 
BRANCH  10  11
ATOM     11  C   UNL     1      -1.145   4.282  16.957  1.00  0.00    -0.000 C 
BRANCH  11  12
ATOM     12  C   UNL     1      -2.268   3.743  16.053  1.00  0.00    -0.000 C 
BRANCH  12  13
ATOM     13  C   UNL     1      -1.954   3.918  14.558  1.00  0.00    -0.003 C 
ATOM     14  C   UNL     1      -2.706   5.090  13.928  1.00  0.00     0.004 C 
ENDBRANCH  12  13
ENDBRANCH  11  12
ENDBRANCH  10  11
ENDBRANCH   9  10
ENDBRANCH   1   9
TORSDOF 9
ENDMDL
MODEL 3
REMARK VINA RESULT:    -4.307      7.820      9.990
REMARK INTER + INTRA:          -6.998
REMARK INTER:                  -6.579
REMARK INTRA:                  -0.419
REMARK UNBOUND:                -0.425
REMARK SMILES CCCCCCCCCC=CC(=O)[O-]
REMARK SMILES IDX 7 1 8 2 9 3 10 4 11 5 12 6 13 7 14 8 6 9 5 10 4 11 3 12 2 13
REMARK SMILES IDX 1 14
REMARK H PARENT
REMARK Flexibility Score: inf
ROOT
ATOM      1  C   UNL     1       5.578  -7.789  17.554  1.00  0.00     0.000 C 
ENDROOT
BRANCH   1   2
ATOM      2  C   UNL     1       5.743  -7.407  16.075  1.00  0.00     0.004 C 
BRANCH   2   3
ATOM      3  C   UNL     1       6.991  -6.545  15.833  1.00  0.00     0.027 C 
BRANCH   3   4
ATOM      4  C   UNL     1       6.822  -5.608  14.670  1.00  0.00    -0.025 C 
ATOM      5  C   UNL     1       6.988  -4.287  14.806  1.00  0.00     0.020 C 
BRANCH   5   6
ATOM      6  C   UNL     1       6.819  -3.360  13.679  1.00  0.00     0.064 C 
ATOM      7  O   UNL     1       6.658  -2.132  13.904  1.00  0.00    -0.545 OA
ATOM      8  O   UNL     1       6.833  -3.817  12.366  1.00  0.00    -0.545 OA
ENDBRANCH   5   6
ENDBRANCH   3   4
ENDBRANCH   2   3
ENDBRANCH   1   2
BRANCH   1   9
ATOM      9  C   UNL     1       6.753  -7.267  18.390  1.00  0.00     0.000 C 
BRANCH   9  10
ATOM     10  C   UNL     1       6.387  -7.223  19.881  1.00  0.00     0.000 C 
BRANCH  10  11
ATOM     11  C   UNL     1       5.864  -5.847  20.325  1.00  0.00    -0.000 C 
BRANCH  11  12
ATOM     12  C   UNL     1       5.780  -5.713  21.856  1.00  0.00    -0.000 C 
BRANCH  12  13
ATOM     13  C   UNL     1       6.737  -4.644  22.406  1.00  0.00    -0.003 C 
ATOM     14  C   UNL     1       6.785  -4.622  23.934  1.00  0.00     0.004 C 
ENDBRANCH  12  13
ENDBRANCH  11  12
ENDBRANCH  10  11
ENDBRANCH   9  10
ENDBRANCH   1   9
TORSDOF 9
ENDMDL
MODEL 4
REMARK VINA RESULT:    -4.303      4.681      6.878
REMARK INTER + INTRA:          -6.992
REMARK INTER:                  -6.392
REMARK INTRA:                  -0.600
REMARK UNBOUND:                -0.425
REMARK SMILES CCCCCCCCCC=CC(=O)[O-]
REMARK SMILES IDX 7 1 8 2 9 3 10 4 11 5 12 6 13 7 14 8 6 9 5 10 4 11 3 12 2 13
REMARK SMILES IDX 1 14
REMARK H PARENT
REMARK Flexibility Score: inf
ROOT
ATOM      1  C   UNL     1      -2.272   4.373  14.772  1.00  0.00     0.000 C 
ENDROOT
BRANCH   1   2
ATOM      2  C   UNL     1      -3.118   3.550  13.788  1.00  0.00     0.004 C 
BRANCH   2   3
ATOM      3  C   UNL     1      -2.256   2.848  12.728  1.00  0.00     0.027 C 
BRANCH   3   4
ATOM      4  C   UNL     1      -3.069   1.962  11.825  1.00  0.00    -0.025 C 
ATOM      5  C   UNL     1      -2.656   1.655  10.590  1.00  0.00     0.020 C 
BRANCH   5   6
ATOM      6  C   UNL     1      -3.445   0.797   9.696  1.00  0.00     0.064 C 
ATOM      7  O   UNL     1      -2.868  -0.103   9.031  1.00  0.00    -0.545 OA
ATOM      8  O   UNL     1      -4.820   0.962   9.571  1.00  0.00    -0.545 OA
ENDBRANCH   5   6
ENDBRANCH   3   4
ENDBRANCH   2   3
ENDBRANCH   1   2
BRANCH   1   9
ATOM      9  C   UNL     1      -1.937   3.556  16.025  1.00  0.00     0.000 C 
BRANCH   9  10
ATOM     10  C   UNL     1      -0.904   4.287  16.896  1.00  0.00     0.000 C 
BRANCH  10  11
ATOM     11  C   UNL     1       0.511   3.701  16.758  1.00  0.00    -0.000 C 
BRANCH  11  12
ATOM     12  C   UNL     1       0.515   2.322  16.076  1.00  0.00    -0.000 C 
BRANCH  12  13
ATOM     13  C   UNL     1       1.310   2.319  14.760  1.00  0.00    -0.003 C 
ATOM     14  C   UNL     1       2.300   1.158  14.668  1.00  0.00     0.004 C 
ENDBRANCH  12  13
ENDBRANCH  11  12
ENDBRANCH  10  11
ENDBRANCH   9  10
ENDBRANCH   1   9
TORSDOF 9
ENDMDL
MODEL 5
REMARK VINA RESULT:    -4.275      3.999      4.754
REMARK INTER + INTRA:          -6.950
REMARK INTER:                  -5.621
REMARK INTRA:                  -1.329
REMARK UNBOUND:                -0.425
REMARK SMILES CCCCCCCCCC=CC(=O)[O-]
REMARK SMILES IDX 7 1 8 2 9 3 10 4 11 5 12 6 13 7 14 8 6 9 5 10 4 11 3 12 2 13
REMARK SMILES IDX 1 14
REMARK H PARENT
REMARK Flexibility Score: inf
ROOT
ATOM      1  C   UNL     1       0.387   3.749  16.953  1.00  0.00     0.000 C 
ENDROOT
BRANCH   1   2
ATOM      2  C   UNL     1       0.895   3.361  15.555  1.00  0.00     0.004 C 
BRANCH   2   3
ATOM      3  C   UNL     1       1.560   1.977  15.543  1.00  0.00     0.027 C 
BRANCH   3   4
ATOM      4  C   UNL     1       0.647   0.899  16.060  1.00  0.00    -0.025 C 
ATOM      5  C   UNL     1      -0.270   0.324  15.274  1.00  0.00     0.020 C 
BRANCH   5   6
ATOM      6  C   UNL     1      -1.173  -0.725  15.770  1.00  0.00     0.064 C 
ATOM      7  O   UNL     1      -2.090  -0.423  16.577  1.00  0.00    -0.545 OA
ATOM      8  O   UNL     1      -1.030  -2.046  15.362  1.00  0.00    -0.545 OA
ENDBRANCH   5   6
ENDBRANCH   3   4
ENDBRANCH   2   3
ENDBRANCH   1   2
BRANCH   1   9
ATOM      9  C   UNL     1      -1.027   4.337  16.880  1.00  0.00     0.000 C 
BRANCH   9  10
ATOM     10  C   UNL     1      -2.086   3.249  17.116  1.00  0.00     0.000 C 
BRANCH  10  11
ATOM     11  C   UNL     1      -3.167   3.225  16.024  1.00  0.00    -0.000 C 
BRANCH  11  12
ATOM     12  C   UNL     1      -2.582   3.006  14.618  1.00  0.00    -0.000 C 
BRANCH  12  13
ATOM     13  C   UNL     1      -3.199   3.948  13.571  1.00  0.00    -0.003 C 
ATOM     14  C   UNL     1      -2.716   5.391  13.714  1.00  0.00     0.004 C 
ENDBRANCH  12  13
ENDBRANCH  11  12
ENDBRANCH  10  11
ENDBRANCH   9  10
ENDBRANCH   1   9
TORSDOF 9
ENDMDL
MODEL 6
REMARK VINA RESULT:    -4.268      4.884      6.809
REMARK INTER + INTRA:          -6.939
REMARK INTER:                  -5.574
REMARK INTRA:                  -1.365
REMARK UNBOUND:                -0.425
REMARK SMILES CCCCCCCCCC=CC(=O)[O-]
REMARK SMILES IDX 7 1 8 2 9 3 10 4 11 5 12 6 13 7 14 8 6 9 5 10 4 11 3 12 2 13
REMARK SMILES IDX 1 14
REMARK H PARENT
REMARK Flexibility Score: inf
ROOT
ATOM      1  C   UNL     1      -3.251   3.337  16.400  1.00  0.00     0.000 C 
ENDROOT
BRANCH   1   2
ATOM      2  C   UNL     1      -2.201   4.231  15.722  1.00  0.00     0.004 C 
BRANCH   2   3
ATOM      3  C   UNL     1      -2.658   4.714  14.337  1.00  0.00     0.027 C 
BRANCH   3   4
ATOM      4  C   UNL     1      -3.208   3.598  13.494  1.00  0.00    -0.025 C 
ATOM      5  C   UNL     1      -2.405   2.791  12.792  1.00  0.00     0.020 C 
BRANCH   5   6
ATOM      6  C   UNL     1      -2.931   1.701  11.958  1.00  0.00     0.064 C 
ATOM      7  O   UNL     1      -2.689   1.693  10.722  1.00  0.00    -0.545 OA
ATOM      8  O   UNL     1      -3.691   0.677  12.511  1.00  0.00    -0.545 OA
ENDBRANCH   5   6
ENDBRANCH   3   4
ENDBRANCH   2   3
ENDBRANCH   1   2
BRANCH   1   9
ATOM      9  C   UNL     1      -2.582   2.254  17.253  1.00  0.00     0.000 C 
BRANCH   9  10
ATOM     10  C   UNL     1      -1.978   1.154  16.367  1.00  0.00     0.000 C 
BRANCH  10  11
ATOM     11  C   UNL     1      -0.455   1.026  16.534  1.00  0.00    -0.000 C 
BRANCH  11  12
ATOM     12  C   UNL     1       0.318   1.508  15.293  1.00  0.00    -0.000 C 
BRANCH  12  13
ATOM     13  C   UNL     1       1.119   2.792  15.562  1.00  0.00    -0.003 C 
ATOM     14  C   UNL     1       1.164   3.163  17.044  1.00  0.00     0.004 C 
ENDBRANCH  12  13
ENDBRANCH  11  12
ENDBRANCH  10  11
ENDBRANCH   9  10
ENDBRANCH   1   9
TORSDOF 9
ENDMDL
MODEL 7
REMARK VINA RESULT:    -4.248      4.476      6.455
REMARK INTER + INTRA:          -6.909
REMARK INTER:                  -5.740
REMARK INTRA:                  -1.169
REMARK UNBOUND:                -0.425
REMARK SMILES CCCCCCCCCC=CC(=O)[O-]
REMARK SMILES IDX 7 1 8 2 9 3 10 4 11 5 12 6 13 7 14 8 6 9 5 10 4 11 3 12 2 13
REMARK SMILES IDX 1 14
REMARK H PARENT
REMARK Flexibility Score: inf
ROOT
ATOM      1  C   UNL     1      -2.544   3.584  15.847  1.00  0.00     0.000 C 
ENDROOT
BRANCH   1   2
ATOM      2  C   UNL     1      -2.645   4.682  14.777  1.00  0.00     0.004 C 
BRANCH   2   3
ATOM      3  C   UNL     1      -2.567   4.113  13.352  1.00  0.00     0.027 C 
BRANCH   3   4
ATOM      4  C   UNL     1      -2.555   2.609  13.337  1.00  0.00    -0.025 C 
ATOM      5  C   UNL     1      -3.041   1.917  12.300  1.00  0.00     0.020 C 
BRANCH   5   6
ATOM      6  C   UNL     1      -3.042   0.447  12.277  1.00  0.00     0.064 C 
ATOM      7  O   UNL     1      -2.510  -0.188  13.225  1.00  0.00    -0.545 OA
ATOM      8  O   UNL     1      -3.620  -0.253  11.225  1.00  0.00    -0.545 OA
ENDBRANCH   5   6
ENDBRANCH   3   4
ENDBRANCH   2   3
ENDBRANCH   1   2
BRANCH   1   9
ATOM      9  C   UNL     1      -1.501   3.948  16.910  1.00  0.00     0.000 C 
BRANCH   9  10
ATOM     10  C   UNL     1      -0.101   4.067  16.287  1.00  0.00     0.000 C 
BRANCH  10  11
ATOM     11  C   UNL     1       0.930   3.147  16.960  1.00  0.00    -0.000 C 
BRANCH  11  12
ATOM     12  C   UNL     1       1.525   2.115  15.986  1.00  0.00    -0.000 C 
BRANCH  12  13
ATOM     13  C   UNL     1       0.446   1.399  15.157  1.00  0.00    -0.003 C 
ATOM     14  C   UNL     1      -0.382   0.417  15.985  1.00  0.00     0.004 C 
ENDBRANCH  12  13
ENDBRANCH  11  12
ENDBRANCH  10  11
ENDBRANCH   9  10
ENDBRANCH   1   9
TORSDOF 9
ENDMDL
MODEL 8
REMARK VINA RESULT:    -4.200      5.472      7.833
REMARK INTER + INTRA:          -6.836
REMARK INTER:                  -5.213
REMARK INTRA:                  -1.622
REMARK UNBOUND:                -0.425
REMARK SMILES CCCCCCCCCC=CC(=O)[O-]
REMARK SMILES IDX 7 1 8 2 9 3 10 4 11 5 12 6 13 7 14 8 6 9 5 10 4 11 3 12 2 13
REMARK SMILES IDX 1 14
REMARK H PARENT
REMARK Flexibility Score: inf
ROOT
ATOM      1  C   UNL     1       0.371   3.953  16.517  1.00  0.00     0.000 C 
ENDROOT
BRANCH   1   2
ATOM      2  C   UNL     1      -1.081   4.288  16.895  1.00  0.00     0.004 C 
BRANCH   2   3
ATOM      3  C   UNL     1      -2.075   3.881  15.797  1.00  0.00     0.027 C 
BRANCH   3   4
ATOM      4  C   UNL     1      -3.296   3.203  16.353  1.00  0.00    -0.025 C 
ATOM      5  C   UNL     1      -3.387   2.880  17.648  1.00  0.00     0.020 C 
BRANCH   5   6
ATOM      6  C   UNL     1      -4.573   2.210  18.202  1.00  0.00     0.064 C 
ATOM      7  O   UNL     1      -5.429   2.886  18.831  1.00  0.00    -0.545 OA
ATOM      8  O   UNL     1      -4.765   0.843  18.042  1.00  0.00    -0.545 OA
ENDBRANCH   5   6
ENDBRANCH   3   4
ENDBRANCH   2   3
ENDBRANCH   1   2
BRANCH   1   9
ATOM      9  C   UNL     1       0.433   3.216  15.174  1.00  0.00     0.000 C 
BRANCH   9  10
ATOM     10  C   UNL     1       1.482   2.095  15.212  1.00  0.00     0.000 C 
BRANCH  10  11
ATOM     11  C   UNL     1       0.965   0.820  15.899  1.00  0.00    -0.000 C 
BRANCH  11  12
ATOM     12  C   UNL     1      -0.487   0.489  15.513  1.00  0.00    -0.000 C 
BRANCH  12  13
ATOM     13  C   UNL     1      -1.324   0.027  16.717  1.00  0.00    -0.003 C 
ATOM     14  C   UNL     1      -0.722   0.454  18.056  1.00  0.00     0.004 C 
ENDBRANCH  12  13
ENDBRANCH  11  12
ENDBRANCH  10  11
ENDBRANCH   9  10
ENDBRANCH   1   9
TORSDOF 9
ENDMDL
