MODEL 1
REMARK VINA RESULT:    -4.761      0.000      0.000
REMARK INTER + INTRA:          -9.104
REMARK INTER:                  -8.379
REMARK INTRA:                  -0.726
REMARK UNBOUND:                -0.726
REMARK SMILES CCCCCCC=CCCCCCCCC(=O)[O-]
REMARK SMILES IDX 10 1 11 2 12 3 13 4 14 5 15 6 16 7 17 8 18 9 9 10 8 11 7 12
REMARK SMILES IDX 6 13 5 14 4 15 3 16 2 17 1 18
REMARK H PARENT
REMARK Flexibility Score: inf
ROOT
ATOM      1  C   UNL     1      -9.074  -0.217 -37.789  1.00  0.00     0.004 C 
ENDROOT
BRANCH   1   2
ATOM      2  C   UNL     1      -8.369  -0.744 -39.049  1.00  0.00     0.000 C 
BRANCH   2   3
ATOM      3  C   UNL     1      -8.187  -2.270 -39.030  1.00  0.00     0.000 C 
BRANCH   3   4
ATOM      4  C   UNL     1      -7.193  -2.716 -40.112  1.00  0.00     0.000 C 
BRANCH   4   5
ATOM      5  C   UNL     1      -6.608  -4.111 -39.841  1.00  0.00     0.006 C 
BRANCH   5   6
ATOM      6  C   UNL     1      -5.082  -4.093 -39.689  1.00  0.00     0.053 C 
BRANCH   6   7
ATOM      7  C   UNL     1      -4.657  -5.015 -38.590  1.00  0.00     0.041 C 
ATOM      8  O   UNL     1      -3.814  -5.924 -38.817  1.00  0.00    -0.550 OA
ATOM      9  O   UNL     1      -5.223  -4.902 -37.327  1.00  0.00    -0.550 OA
ENDBRANCH   6   7
ENDBRANCH   5   6
ENDBRANCH   4   5
ENDBRANCH   3   4
ENDBRANCH   2   3
ENDBRANCH   1   2
BRANCH   1  10
ATOM     10  C   UNL     1     -10.542  -0.661 -37.703  1.00  0.00     0.027 C 
BRANCH  10  11
ATOM     11  C   UNL     1     -11.410   0.444 -37.166  1.00  0.00    -0.031 C 
ATOM     12  C   UNL     1     -10.930   1.678 -36.961  1.00  0.00    -0.031 C 
BRANCH  12  13
ATOM     13  C   UNL     1     -11.814   2.765 -36.413  1.00  0.00     0.027 C 
BRANCH  13  14
ATOM     14  C   UNL     1     -11.940   2.659 -34.886  1.00  0.00     0.004 C 
BRANCH  14  15
ATOM     15  C   UNL     1     -10.588   2.424 -34.192  1.00  0.00     0.000 C 
BRANCH  15  16
ATOM     16  C   UNL     1     -10.149   3.544 -33.230  1.00  0.00    -0.000 C 
BRANCH  16  17
ATOM     17  C   UNL     1     -10.252   4.960 -33.834  1.00  0.00    -0.003 C 
ATOM     18  C   UNL     1      -9.969   6.057 -32.808  1.00  0.00     0.004 C 
ENDBRANCH  16  17
ENDBRANCH  15  16
ENDBRANCH  14  15
ENDBRANCH  13  14
ENDBRANCH  12  13
ENDBRANCH  10  11
ENDBRANCH   1  10
TORSDOF 13
ENDMDL
MODEL 2
REMARK VINA RESULT:    -4.574      4.280      9.369
REMARK INTER + INTRA:          -8.775
REMARK INTER:                  -8.159
REMARK INTRA:                  -0.616
REMARK UNBOUND:                -0.726
REMARK SMILES CCCCCCC=CCCCCCCCC(=O)[O-]
REMARK SMILES IDX 10 1 11 2 12 3 13 4 14 5 15 6 16 7 17 8 18 9 9 10 8 11 7 12
REMARK SMILES IDX 6 13 5 14 4 15 3 16 2 17 1 18
REMARK H PARENT
REMARK Flexibility Score: inf
ROOT
ATOM      1  C   UNL     1     -10.445   0.001 -37.680  1.00  0.00     0.004 C 
ENDROOT
BRANCH   1   2
ATOM      2  C   UNL     1     -10.342   1.127 -36.639  1.00  0.00     0.000 C 
BRANCH   2   3
ATOM      3  C   UNL     1     -11.600   2.008 -36.595  1.00  0.00     0.000 C 
BRANCH   3   4
ATOM      4  C   UNL     1     -11.748   2.681 -35.222  1.00  0.00     0.000 C 
BRANCH   4   5
ATOM      5  C   UNL     1     -10.515   2.479 -34.327  1.00  0.00     0.006 C 
BRANCH   5   6
ATOM      6  C   UNL     1     -10.750   2.941 -32.884  1.00  0.00     0.053 C 
BRANCH   6   7
ATOM      7  C   UNL     1      -9.890   4.123 -32.567  1.00  0.00     0.041 C 
ATOM      8  O   UNL     1      -9.184   4.131 -31.524  1.00  0.00    -0.550 OA
ATOM      9  O   UNL     1      -9.900   5.235 -33.399  1.00  0.00    -0.550 OA
ENDBRANCH   6   7
ENDBRANCH   5   6
ENDBRANCH   4   5
ENDBRANCH   3   4
ENDBRANCH   2   3
ENDBRANCH   1   2
BRANCH   1  10
ATOM     10  C   UNL     1      -9.072  -0.544 -38.101  1.00  0.00     0.027 C 
BRANCH  10  11
ATOM     11  C   UNL     1      -9.207  -1.876 -38.789  1.00  0.00    -0.031 C 
ATOM     12  C   UNL     1      -8.454  -2.198 -39.850  1.00  0.00    -0.031 C 
BRANCH  12  13
ATOM     13  C   UNL     1      -8.613  -3.531 -40.528  1.00  0.00     0.027 C 
BRANCH  13  14
ATOM     14  C   UNL     1      -7.282  -4.297 -40.560  1.00  0.00     0.004 C 
BRANCH  14  15
ATOM     15  C   UNL     1      -6.228  -3.701 -39.613  1.00  0.00     0.000 C 
BRANCH  15  16
ATOM     16  C   UNL     1      -4.776  -4.118 -39.914  1.00  0.00    -0.000 C 
BRANCH  16  17
ATOM     17  C   UNL     1      -4.121  -4.948 -38.789  1.00  0.00    -0.003 C 
ATOM     18  C   UNL     1      -5.095  -5.270 -37.656  1.00  0.00     0.004 C 
ENDBRANCH  16  17
ENDBRANCH  15  16
ENDBRANCH  14  15
ENDBRANCH  13  14
ENDBRANCH  12  13
ENDBRANCH  10  11
ENDBRANCH   1  10
TORSDOF 13
ENDMDL
MODEL 3
REMARK VINA RESULT:    -4.533      1.421      2.479
REMARK INTER + INTRA:          -8.704
REMARK INTER:                  -8.145
REMARK INTRA:                  -0.559
REMARK UNBOUND:                -0.726
REMARK SMILES CCCCCCC=CCCCCCCCC(=O)[O-]
REMARK SMILES IDX 10 1 11 2 12 3 13 4 14 5 15 6 16 7 17 8 18 9 9 10 8 11 7 12
REMARK SMILES IDX 6 13 5 14 4 15 3 16 2 17 1 18
REMARK H PARENT
REMARK Flexibility Score: inf
ROOT
ATOM      1  C   UNL     1      -9.623   0.675 -36.878  1.00  0.00     0.004 C 
ENDROOT
BRANCH   1   2
ATOM      2  C   UNL     1      -9.550  -0.546 -37.808  1.00  0.00     0.000 C 
BRANCH   2   3
ATOM      3  C   UNL     1      -8.355  -0.483 -38.773  1.00  0.00     0.000 C 
BRANCH   3   4
ATOM      4  C   UNL     1      -8.700  -1.148 -40.114  1.00  0.00     0.000 C 
BRANCH   4   5
ATOM      5  C   UNL     1      -7.670  -2.209 -40.533  1.00  0.00     0.006 C 
BRANCH   5   6
ATOM      6  C   UNL     1      -7.625  -3.401 -39.570  1.00  0.00     0.053 C 
BRANCH   6   7
ATOM      7  C   UNL     1      -6.355  -4.171 -39.751  1.00  0.00     0.041 C 
ATOM      8  O   UNL     1      -6.291  -5.095 -40.605  1.00  0.00    -0.550 OA
ATOM      9  O   UNL     1      -5.256  -3.900 -38.946  1.00  0.00    -0.550 OA
ENDBRANCH   6   7
ENDBRANCH   5   6
ENDBRANCH   4   5
ENDBRANCH   3   4
ENDBRANCH   2   3
ENDBRANCH   1   2
BRANCH   1  10
ATOM     10  C   UNL     1     -10.947   1.443 -37.011  1.00  0.00     0.027 C 
BRANCH  10  11
ATOM     11  C   UNL     1     -11.357   2.046 -35.695  1.00  0.00    -0.031 C 
ATOM     12  C   UNL     1     -10.518   2.088 -34.650  1.00  0.00    -0.031 C 
BRANCH  12  13
ATOM     13  C   UNL     1     -10.952   2.687 -33.341  1.00  0.00     0.027 C 
BRANCH  13  14
ATOM     14  C   UNL     1     -10.040   3.855 -32.937  1.00  0.00     0.004 C 
BRANCH  14  15
ATOM     15  C   UNL     1     -10.239   4.288 -31.475  1.00  0.00     0.000 C 
BRANCH  15  16
ATOM     16  C   UNL     1      -9.568   5.622 -31.096  1.00  0.00    -0.000 C 
BRANCH  16  17
ATOM     17  C   UNL     1      -9.139   6.471 -32.312  1.00  0.00    -0.003 C 
ATOM     18  C   UNL     1      -8.076   7.509 -31.955  1.00  0.00     0.004 C 
ENDBRANCH  16  17
ENDBRANCH  15  16
ENDBRANCH  14  15
ENDBRANCH  13  14
ENDBRANCH  12  13
ENDBRANCH  10  11
ENDBRANCH   1  10
TORSDOF 13
ENDMDL
MODEL 4
REMARK VINA RESULT:    -4.402     12.074     14.674
REMARK INTER + INTRA:          -8.473
REMARK INTER:                  -7.039
REMARK INTRA:                  -1.434
REMARK UNBOUND:                -0.726
REMARK SMILES CCCCCCC=CCCCCCCCC(=O)[O-]
REMARK SMILES IDX 10 1 11 2 12 3 13 4 14 5 15 6 16 7 17 8 18 9 9 10 8 11 7 12
REMARK SMILES IDX 6 13 5 14 4 15 3 16 2 17 1 18
REMARK H PARENT
REMARK Flexibility Score: inf
ROOT
ATOM      1  C   UNL     1       4.402  -8.680 -31.836  1.00  0.00     0.004 C 
ENDROOT
BRANCH   1   2
ATOM      2  C   UNL     1       5.937  -8.615 -31.874  1.00  0.00     0.000 C 
BRANCH   2   3
ATOM      3  C   UNL     1       6.491  -8.571 -33.307  1.00  0.00     0.000 C 
BRANCH   3   4
ATOM      4  C   UNL     1       5.481  -7.920 -34.264  1.00  0.00     0.000 C 
BRANCH   4   5
ATOM      5  C   UNL     1       5.695  -6.405 -34.411  1.00  0.00     0.006 C 
BRANCH   5   6
ATOM      6  C   UNL     1       5.749  -5.956 -35.875  1.00  0.00     0.053 C 
BRANCH   6   7
ATOM      7  C   UNL     1       4.455  -5.318 -36.273  1.00  0.00     0.041 C 
ATOM      8  O   UNL     1       3.381  -5.663 -35.713  1.00  0.00    -0.550 OA
ATOM      9  O   UNL     1       4.427  -4.378 -37.294  1.00  0.00    -0.550 OA
ENDBRANCH   6   7
ENDBRANCH   5   6
ENDBRANCH   4   5
ENDBRANCH   3   4
ENDBRANCH   2   3
ENDBRANCH   1   2
BRANCH   1  10
ATOM     10  C   UNL     1       3.790  -7.658 -30.866  1.00  0.00     0.027 C 
BRANCH  10  11
ATOM     11  C   UNL     1       2.483  -7.128 -31.392  1.00  0.00    -0.031 C 
ATOM     12  C   UNL     1       2.246  -7.023 -32.708  1.00  0.00    -0.031 C 
BRANCH  12  13
ATOM     13  C   UNL     1       0.937  -6.482 -33.211  1.00  0.00     0.027 C 
BRANCH  13  14
ATOM     14  C   UNL     1      -0.105  -7.601 -33.358  1.00  0.00     0.004 C 
BRANCH  14  15
ATOM     15  C   UNL     1      -1.262  -7.474 -32.352  1.00  0.00     0.000 C 
BRANCH  15  16
ATOM     16  C   UNL     1      -1.201  -6.228 -31.448  1.00  0.00    -0.000 C 
BRANCH  16  17
ATOM     17  C   UNL     1      -1.803  -6.449 -30.044  1.00  0.00    -0.003 C 
ATOM     18  C   UNL     1      -0.760  -6.323 -28.933  1.00  0.00     0.004 C 
ENDBRANCH  16  17
ENDBRANCH  15  16
ENDBRANCH  14  15
ENDBRANCH  13  14
ENDBRANCH  12  13
ENDBRANCH  10  11
ENDBRANCH   1  10
TORSDOF 13
ENDMDL
MODEL 5
REMARK VINA RESULT:    -4.398     12.315     14.663
REMARK INTER + INTRA:          -8.466
REMARK INTER:                  -7.811
REMARK INTRA:                  -0.655
REMARK UNBOUND:                -0.726
REMARK SMILES CCCCCCC=CCCCCCCCC(=O)[O-]
REMARK SMILES IDX 10 1 11 2 12 3 13 4 14 5 15 6 16 7 17 8 18 9 9 10 8 11 7 12
REMARK SMILES IDX 6 13 5 14 4 15 3 16 2 17 1 18
REMARK H PARENT
REMARK Flexibility Score: inf
ROOT
ATOM      1  C   UNL     1       3.079  -6.598 -34.978  1.00  0.00     0.004 C 
ENDROOT
BRANCH   1   2
ATOM      2  C   UNL     1       2.468  -7.967 -34.639  1.00  0.00     0.000 C 
BRANCH   2   3
ATOM      3  C   UNL     1       1.004  -7.863 -34.184  1.00  0.00     0.000 C 
BRANCH   3   4
ATOM      4  C   UNL     1       0.740  -6.516 -33.493  1.00  0.00     0.000 C 
BRANCH   4   5
ATOM      5  C   UNL     1       0.517  -6.659 -31.979  1.00  0.00     0.006 C 
BRANCH   5   6
ATOM      6  C   UNL     1      -0.955  -6.496 -31.582  1.00  0.00     0.053 C 
BRANCH   6   7
ATOM      7  C   UNL     1      -1.079  -6.330 -30.099  1.00  0.00     0.041 C 
ATOM      8  O   UNL     1      -0.046  -6.264 -29.381  1.00  0.00    -0.550 OA
ATOM      9  O   UNL     1      -2.334  -6.295 -29.506  1.00  0.00    -0.550 OA
ENDBRANCH   6   7
ENDBRANCH   5   6
ENDBRANCH   4   5
ENDBRANCH   3   4
ENDBRANCH   2   3
ENDBRANCH   1   2
BRANCH   1  10
ATOM     10  C   UNL     1       4.564  -6.501 -34.593  1.00  0.00     0.027 C 
BRANCH  10  11
ATOM     11  C   UNL     1       5.304  -5.579 -35.524  1.00  0.00    -0.031 C 
ATOM     12  C   UNL     1       5.190  -5.683 -36.855  1.00  0.00    -0.031 C 
BRANCH  12  13
ATOM     13  C   UNL     1       5.947  -4.756 -37.766  1.00  0.00     0.027 C 
BRANCH  13  14
ATOM     14  C   UNL     1       5.090  -4.343 -38.972  1.00  0.00     0.004 C 
BRANCH  14  15
ATOM     15  C   UNL     1       4.493  -2.934 -38.823  1.00  0.00     0.000 C 
BRANCH  15  16
ATOM     16  C   UNL     1       5.310  -1.810 -39.488  1.00  0.00    -0.000 C 
BRANCH  16  17
ATOM     17  C   UNL     1       4.640  -0.422 -39.409  1.00  0.00    -0.003 C 
ATOM     18  C   UNL     1       3.133  -0.513 -39.168  1.00  0.00     0.004 C 
ENDBRANCH  16  17
ENDBRANCH  15  16
ENDBRANCH  14  15
ENDBRANCH  13  14
ENDBRANCH  12  13
ENDBRANCH  10  11
ENDBRANCH   1  10
TORSDOF 13
ENDMDL
MODEL 6
REMARK VINA RESULT:    -4.382     12.252     14.416
REMARK INTER + INTRA:          -8.438
REMARK INTER:                  -6.428
REMARK INTRA:                  -2.011
REMARK UNBOUND:                -0.726
REMARK SMILES CCCCCCC=CCCCCCCCC(=O)[O-]
REMARK SMILES IDX 10 1 11 2 12 3 13 4 14 5 15 6 16 7 17 8 18 9 9 10 8 11 7 12
REMARK SMILES IDX 6 13 5 14 4 15 3 16 2 17 1 18
REMARK H PARENT
REMARK Flexibility Score: inf
ROOT
ATOM      1  C   UNL     1      -1.119  -8.576 -32.761  1.00  0.00     0.004 C 
ENDROOT
BRANCH   1   2
ATOM      2  C   UNL     1      -2.128  -9.319 -31.872  1.00  0.00     0.000 C 
BRANCH   2   3
ATOM      3  C   UNL     1      -3.224  -8.393 -31.322  1.00  0.00     0.000 C 
BRANCH   3   4
ATOM      4  C   UNL     1      -3.483  -8.676 -29.834  1.00  0.00     0.000 C 
BRANCH   4   5
ATOM      5  C   UNL     1      -2.994  -7.540 -28.921  1.00  0.00     0.006 C 
BRANCH   5   6
ATOM      6  C   UNL     1      -1.579  -7.783 -28.383  1.00  0.00     0.053 C 
BRANCH   6   7
ATOM      7  C   UNL     1      -0.783  -6.516 -28.419  1.00  0.00     0.041 C 
ATOM      8  O   UNL     1      -0.094  -6.173 -27.421  1.00  0.00    -0.550 OA
ATOM      9  O   UNL     1      -0.838  -5.690 -29.534  1.00  0.00    -0.550 OA
ENDBRANCH   6   7
ENDBRANCH   5   6
ENDBRANCH   4   5
ENDBRANCH   3   4
ENDBRANCH   2   3
ENDBRANCH   1   2
BRANCH   1  10
ATOM     10  C   UNL     1      -1.153  -7.054 -32.552  1.00  0.00     0.027 C 
BRANCH  10  11
ATOM     11  C   UNL     1       0.067  -6.400 -33.142  1.00  0.00    -0.031 C 
ATOM     12  C   UNL     1       0.981  -7.104 -33.825  1.00  0.00    -0.031 C 
BRANCH  12  13
ATOM     13  C   UNL     1       2.197  -6.431 -34.398  1.00  0.00     0.027 C 
BRANCH  13  14
ATOM     14  C   UNL     1       3.481  -7.173 -33.998  1.00  0.00     0.004 C 
BRANCH  14  15
ATOM     15  C   UNL     1       3.309  -8.018 -32.725  1.00  0.00     0.000 C 
BRANCH  15  16
ATOM     16  C   UNL     1       3.770  -7.333 -31.424  1.00  0.00    -0.000 C 
BRANCH  16  17
ATOM     17  C   UNL     1       2.671  -7.241 -30.345  1.00  0.00    -0.003 C 
ATOM     18  C   UNL     1       1.713  -8.431 -30.382  1.00  0.00     0.004 C 
ENDBRANCH  16  17
ENDBRANCH  15  16
ENDBRANCH  14  15
ENDBRANCH  13  14
ENDBRANCH  12  13
ENDBRANCH  10  11
ENDBRANCH   1  10
TORSDOF 13
ENDMDL
MODEL 7
REMARK VINA RESULT:    -4.372      1.090      2.201
REMARK INTER + INTRA:          -8.420
REMARK INTER:                  -7.596
REMARK INTRA:                  -0.824
REMARK UNBOUND:                -0.726
REMARK SMILES CCCCCCC=CCCCCCCCC(=O)[O-]
REMARK SMILES IDX 10 1 11 2 12 3 13 4 14 5 15 6 16 7 17 8 18 9 9 10 8 11 7 12
REMARK SMILES IDX 6 13 5 14 4 15 3 16 2 17 1 18
REMARK H PARENT
REMARK Flexibility Score: inf
ROOT
ATOM      1  C   UNL     1      -8.222  -1.847 -39.939  1.00  0.00     0.004 C 
ENDROOT
BRANCH   1   2
ATOM      2  C   UNL     1      -7.945  -2.186 -41.413  1.00  0.00     0.000 C 
BRANCH   2   3
ATOM      3  C   UNL     1      -8.065  -3.690 -41.705  1.00  0.00     0.000 C 
BRANCH   3   4
ATOM      4  C   UNL     1      -6.677  -4.341 -41.799  1.00  0.00     0.000 C 
BRANCH   4   5
ATOM      5  C   UNL     1      -6.184  -4.884 -40.448  1.00  0.00     0.006 C 
BRANCH   5   6
ATOM      6  C   UNL     1      -4.939  -4.150 -39.936  1.00  0.00     0.053 C 
BRANCH   6   7
ATOM      7  C   UNL     1      -4.340  -4.885 -38.778  1.00  0.00     0.041 C 
ATOM      8  O   UNL     1      -3.500  -5.803 -38.978  1.00  0.00    -0.550 OA
ATOM      9  O   UNL     1      -4.741  -4.590 -37.483  1.00  0.00    -0.550 OA
ENDBRANCH   6   7
ENDBRANCH   5   6
ENDBRANCH   4   5
ENDBRANCH   3   4
ENDBRANCH   2   3
ENDBRANCH   1   2
BRANCH   1  10
ATOM     10  C   UNL     1      -9.712  -1.947 -39.578  1.00  0.00     0.027 C 
BRANCH  10  11
ATOM     11  C   UNL     1     -10.047  -1.053 -38.415  1.00  0.00    -0.031 C 
ATOM     12  C   UNL     1      -9.135  -0.235 -37.872  1.00  0.00    -0.031 C 
BRANCH  12  13
ATOM     13  C   UNL     1      -9.491   0.643 -36.704  1.00  0.00     0.027 C 
BRANCH  13  14
ATOM     14  C   UNL     1     -10.986   0.993 -36.708  1.00  0.00     0.004 C 
BRANCH  14  15
ATOM     15  C   UNL     1     -11.269   2.405 -36.171  1.00  0.00     0.000 C 
BRANCH  15  16
ATOM     16  C   UNL     1     -11.642   2.469 -34.678  1.00  0.00    -0.000 C 
BRANCH  16  17
ATOM     17  C   UNL     1     -10.449   2.788 -33.751  1.00  0.00    -0.003 C 
ATOM     18  C   UNL     1     -10.282   4.288 -33.508  1.00  0.00     0.004 C 
ENDBRANCH  16  17
ENDBRANCH  15  16
ENDBRANCH  14  15
ENDBRANCH  13  14
ENDBRANCH  12  13
ENDBRANCH  10  11
ENDBRANCH   1  10
TORSDOF 13
ENDMDL
MODEL 8
REMARK VINA RESULT:    -4.372     12.049     14.032
REMARK INTER + INTRA:          -8.420
REMARK INTER:                  -6.392
REMARK INTRA:                  -2.028
REMARK UNBOUND:                -0.726
REMARK SMILES CCCCCCC=CCCCCCCCC(=O)[O-]
REMARK SMILES IDX 10 1 11 2 12 3 13 4 14 5 15 6 16 7 17 8 18 9 9 10 8 11 7 12
REMARK SMILES IDX 6 13 5 14 4 15 3 16 2 17 1 18
REMARK H PARENT
REMARK Flexibility Score: inf
ROOT
ATOM      1  C   UNL     1       2.411  -7.056 -33.207  1.00  0.00     0.004 C 
ENDROOT
BRANCH   1   2
ATOM      2  C   UNL     1       2.799  -8.370 -33.902  1.00  0.00     0.000 C 
BRANCH   2   3
ATOM      3  C   UNL     1       4.232  -8.815 -33.568  1.00  0.00     0.000 C 
BRANCH   3   4
ATOM      4  C   UNL     1       5.120  -7.603 -33.249  1.00  0.00     0.000 C 
BRANCH   4   5
ATOM      5  C   UNL     1       6.006  -7.190 -34.435  1.00  0.00     0.006 C 
BRANCH   5   6
ATOM      6  C   UNL     1       5.610  -5.831 -35.023  1.00  0.00     0.053 C 
BRANCH   6   7
ATOM      7  C   UNL     1       4.612  -6.010 -36.124  1.00  0.00     0.041 C 
ATOM      8  O   UNL     1       3.830  -5.071 -36.428  1.00  0.00    -0.550 OA
ATOM      9  O   UNL     1       4.515  -7.228 -36.784  1.00  0.00    -0.550 OA
ENDBRANCH   6   7
ENDBRANCH   5   6
ENDBRANCH   4   5
ENDBRANCH   3   4
ENDBRANCH   2   3
ENDBRANCH   1   2
BRANCH   1  10
ATOM     10  C   UNL     1       1.259  -6.328 -33.917  1.00  0.00     0.027 C 
BRANCH  10  11
ATOM     11  C   UNL     1       0.014  -6.334 -33.072  1.00  0.00    -0.031 C 
ATOM     12  C   UNL     1      -0.668  -7.464 -32.835  1.00  0.00    -0.031 C 
BRANCH  12  13
ATOM     13  C   UNL     1      -1.916  -7.444 -31.996  1.00  0.00     0.027 C 
BRANCH  13  14
ATOM     14  C   UNL     1      -1.746  -6.533 -30.771  1.00  0.00     0.004 C 
BRANCH  14  15
ATOM     15  C   UNL     1      -1.188  -7.277 -29.547  1.00  0.00     0.000 C 
BRANCH  15  16
ATOM     16  C   UNL     1       0.069  -6.644 -28.920  1.00  0.00    -0.000 C 
BRANCH  16  17
ATOM     17  C   UNL     1       1.380  -7.009 -29.649  1.00  0.00    -0.003 C 
ATOM     18  C   UNL     1       1.483  -8.503 -29.954  1.00  0.00     0.004 C 
ENDBRANCH  16  17
ENDBRANCH  15  16
ENDBRANCH  14  15
ENDBRANCH  13  14
ENDBRANCH  12  13
ENDBRANCH  10  11
ENDBRANCH   1  10
TORSDOF 13
ENDMDL
MODEL 9
REMARK VINA RESULT:    -4.304     11.874     14.057
REMARK INTER + INTRA:          -8.301
REMARK INTER:                  -6.517
REMARK INTRA:                  -1.784
REMARK UNBOUND:                -0.726
REMARK SMILES CCCCCCC=CCCCCCCCC(=O)[O-]
REMARK SMILES IDX 10 1 11 2 12 3 13 4 14 5 15 6 16 7 17 8 18 9 9 10 8 11 7 12
REMARK SMILES IDX 6 13 5 14 4 15 3 16 2 17 1 18
REMARK H PARENT
REMARK Flexibility Score: inf
ROOT
ATOM      1  C   UNL     1       3.190  -7.445 -30.482  1.00  0.00     0.004 C 
ENDROOT
BRANCH   1   2
ATOM      2  C   UNL     1       3.299  -7.235 -32.000  1.00  0.00     0.000 C 
BRANCH   2   3
ATOM      3  C   UNL     1       2.569  -8.324 -32.801  1.00  0.00     0.000 C 
BRANCH   3   4
ATOM      4  C   UNL     1       1.784  -7.710 -33.970  1.00  0.00     0.000 C 
BRANCH   4   5
ATOM      5  C   UNL     1       2.508  -6.513 -34.606  1.00  0.00     0.006 C 
BRANCH   5   6
ATOM      6  C   UNL     1       3.692  -6.937 -35.483  1.00  0.00     0.053 C 
BRANCH   6   7
ATOM      7  C   UNL     1       4.512  -5.744 -35.864  1.00  0.00     0.041 C 
ATOM      8  O   UNL     1       5.634  -5.550 -35.325  1.00  0.00    -0.550 OA
ATOM      9  O   UNL     1       4.019  -4.823 -36.778  1.00  0.00    -0.550 OA
ENDBRANCH   6   7
ENDBRANCH   5   6
ENDBRANCH   4   5
ENDBRANCH   3   4
ENDBRANCH   2   3
ENDBRANCH   1   2
BRANCH   1  10
ATOM     10  C   UNL     1       2.296  -8.638 -30.112  1.00  0.00     0.027 C 
BRANCH  10  11
ATOM     11  C   UNL     1       0.990  -8.174 -29.527  1.00  0.00    -0.031 C 
ATOM     12  C   UNL     1       0.581  -6.902 -29.642  1.00  0.00    -0.031 C 
BRANCH  12  13
ATOM     13  C   UNL     1      -0.724  -6.458 -29.040  1.00  0.00     0.027 C 
BRANCH  13  14
ATOM     14  C   UNL     1      -1.780  -6.213 -30.128  1.00  0.00     0.004 C 
BRANCH  14  15
ATOM     15  C   UNL     1      -1.197  -6.277 -31.549  1.00  0.00     0.000 C 
BRANCH  15  16
ATOM     16  C   UNL     1      -1.871  -7.302 -32.481  1.00  0.00    -0.000 C 
BRANCH  16  17
ATOM     17  C   UNL     1      -1.226  -8.704 -32.436  1.00  0.00    -0.003 C 
ATOM     18  C   UNL     1      -1.932  -9.641 -31.456  1.00  0.00     0.004 C 
ENDBRANCH  16  17
ENDBRANCH  15  16
ENDBRANCH  14  15
ENDBRANCH  13  14
ENDBRANCH  12  13
ENDBRANCH  10  11
ENDBRANCH   1  10
TORSDOF 13
ENDMDL
