MODEL 1
REMARK VINA RESULT:    -6.030      0.000      0.000
REMARK INTER + INTRA:          -6.030
REMARK INTER:                  -6.030
REMARK INTRA:                   0.000
REMARK UNBOUND:                 0.000
REMARK SMILES CC1=CC(=O)[C@H]2C[C@@H]1C2(C)C
REMARK SMILES IDX 1 1 2 2 3 3 4 4 5 5 6 6 7 7 8 8 9 9 10 10 11 11
REMARK H PARENT
REMARK Flexibility Score: inf
ROOT
ATOM      1  C   UNL     1       6.230  14.905  28.599  1.00  0.00     0.040 C 
ATOM      2  C   UNL     1       4.920  14.231  28.865  1.00  0.00    -0.066 C 
ATOM      3  C   UNL     1       4.438  14.096  30.131  1.00  0.00     0.047 C 
ATOM      4  C   UNL     1       3.131  13.375  30.269  1.00  0.00     0.159 C 
ATOM      5  O   UNL     1       2.601  13.153  31.389  1.00  0.00    -0.295 OA
ATOM      6  C   UNL     1       2.488  12.929  28.956  1.00  0.00     0.067 C 
ATOM      7  C   UNL     1       2.614  14.163  28.035  1.00  0.00     0.021 C 
ATOM      8  C   UNL     1       4.046  13.674  27.722  1.00  0.00     0.022 C 
ATOM      9  C   UNL     1       3.574  12.237  28.084  1.00  0.00    -0.019 C 
ATOM     10  C   UNL     1       4.586  11.285  28.782  1.00  0.00     0.012 C 
ATOM     11  C   UNL     1       2.967  11.491  26.868  1.00  0.00     0.012 C 
ENDROOT
TORSDOF 0
ENDMDL
MODEL 2
REMARK VINA RESULT:    -6.030      1.409      2.734
REMARK INTER + INTRA:          -6.030
REMARK INTER:                  -6.030
REMARK INTRA:                   0.000
REMARK UNBOUND:                 0.000
REMARK SMILES CC1=CC(=O)[C@H]2C[C@@H]1C2(C)C
REMARK SMILES IDX 1 1 2 2 3 3 4 4 5 5 6 6 7 7 8 8 9 9 10 10 11 11
REMARK H PARENT
REMARK Flexibility Score: inf
ROOT
ATOM      1  C   UNL     1       4.923  10.181  29.538  1.00  0.00     0.040 C 
ATOM      2  C   UNL     1       4.061  11.379  29.288  1.00  0.00    -0.066 C 
ATOM      3  C   UNL     1       2.728  11.363  29.564  1.00  0.00     0.047 C 
ATOM      4  C   UNL     1       1.969  12.614  29.239  1.00  0.00     0.159 C 
ATOM      5  O   UNL     1       0.725  12.710  29.412  1.00  0.00    -0.295 OA
ATOM      6  C   UNL     1       2.810  13.764  28.683  1.00  0.00     0.067 C 
ATOM      7  C   UNL     1       4.045  13.809  29.608  1.00  0.00     0.021 C 
ATOM      8  C   UNL     1       4.642  12.693  28.723  1.00  0.00     0.022 C 
ATOM      9  C   UNL     1       3.736  13.204  27.566  1.00  0.00    -0.019 C 
ATOM     10  C   UNL     1       3.150  12.159  26.575  1.00  0.00     0.012 C 
ATOM     11  C   UNL     1       4.411  14.329  26.741  1.00  0.00     0.012 C 
ENDROOT
TORSDOF 0
ENDMDL
MODEL 3
REMARK VINA RESULT:    -5.988      1.448      3.134
REMARK INTER + INTRA:          -5.988
REMARK INTER:                  -5.988
REMARK INTRA:                   0.000
REMARK UNBOUND:                 0.000
REMARK SMILES CC1=CC(=O)[C@H]2C[C@@H]1C2(C)C
REMARK SMILES IDX 1 1 2 2 3 3 4 4 5 5 6 6 7 7 8 8 9 9 10 10 11 11
REMARK H PARENT
REMARK Flexibility Score: inf
ROOT
ATOM      1  C   UNL     1       0.545  14.358  28.840  1.00  0.00     0.040 C 
ATOM      2  C   UNL     1       1.753  13.474  28.802  1.00  0.00    -0.066 C 
ATOM      3  C   UNL     1       1.762  12.260  29.417  1.00  0.00     0.047 C 
ATOM      4  C   UNL     1       3.041  11.484  29.333  1.00  0.00     0.159 C 
ATOM      5  O   UNL     1       3.188  10.366  29.894  1.00  0.00    -0.295 OA
ATOM      6  C   UNL     1       4.156  12.145  28.522  1.00  0.00     0.067 C 
ATOM      7  C   UNL     1       3.448  12.638  27.241  1.00  0.00     0.021 C 
ATOM      8  C   UNL     1       3.037  13.887  28.053  1.00  0.00     0.022 C 
ATOM      9  C   UNL     1       4.273  13.632  28.963  1.00  0.00    -0.019 C 
ATOM     10  C   UNL     1       4.152  13.966  30.477  1.00  0.00     0.012 C 
ATOM     11  C   UNL     1       5.556  14.309  28.419  1.00  0.00     0.012 C 
ENDROOT
TORSDOF 0
ENDMDL
MODEL 4
REMARK VINA RESULT:    -5.783      1.770      3.163
REMARK INTER + INTRA:          -5.783
REMARK INTER:                  -5.783
REMARK INTRA:                   0.000
REMARK UNBOUND:                 0.000
REMARK SMILES CC1=CC(=O)[C@H]2C[C@@H]1C2(C)C
REMARK SMILES IDX 1 1 2 2 3 3 4 4 5 5 6 6 7 7 8 8 9 9 10 10 11 11
REMARK H PARENT
REMARK Flexibility Score: inf
ROOT
ATOM      1  C   UNL     1       5.270  14.354  28.707  1.00  0.00     0.040 C 
ATOM      2  C   UNL     1       4.389  13.312  29.321  1.00  0.00    -0.066 C 
ATOM      3  C   UNL     1       4.324  12.051  28.813  1.00  0.00     0.047 C 
ATOM      4  C   UNL     1       3.380  11.108  29.497  1.00  0.00     0.159 C 
ATOM      5  O   UNL     1       3.202   9.927  29.099  1.00  0.00    -0.295 OA
ATOM      6  C   UNL     1       2.650  11.682  30.712  1.00  0.00     0.067 C 
ATOM      7  C   UNL     1       3.755  12.408  31.510  1.00  0.00     0.021 C 
ATOM      8  C   UNL     1       3.526  13.609  30.566  1.00  0.00     0.022 C 
ATOM      9  C   UNL     1       2.082  13.079  30.333  1.00  0.00    -0.019 C 
ATOM     10  C   UNL     1       1.449  13.263  28.924  1.00  0.00     0.012 C 
ATOM     11  C   UNL     1       1.080  13.614  31.388  1.00  0.00     0.012 C 
ENDROOT
TORSDOF 0
ENDMDL
MODEL 5
REMARK VINA RESULT:    -5.712      1.963      3.144
REMARK INTER + INTRA:          -5.712
REMARK INTER:                  -5.712
REMARK INTRA:                   0.000
REMARK UNBOUND:                 0.000
REMARK SMILES CC1=CC(=O)[C@H]2C[C@@H]1C2(C)C
REMARK SMILES IDX 1 1 2 2 3 3 4 4 5 5 6 6 7 7 8 8 9 9 10 10 11 11
REMARK H PARENT
REMARK Flexibility Score: inf
ROOT
ATOM      1  C   UNL     1       5.531  14.709  28.375  1.00  0.00     0.040 C 
ATOM      2  C   UNL     1       4.646  13.507  28.274  1.00  0.00    -0.066 C 
ATOM      3  C   UNL     1       4.154  13.087  27.077  1.00  0.00     0.047 C 
ATOM      4  C   UNL     1       3.254  11.889  27.113  1.00  0.00     0.159 C 
ATOM      5  O   UNL     1       2.705  11.429  26.077  1.00  0.00    -0.295 OA
ATOM      6  C   UNL     1       3.048  11.268  28.494  1.00  0.00     0.067 C 
ATOM      7  C   UNL     1       4.468  11.204  29.095  1.00  0.00     0.021 C 
ATOM      8  C   UNL     1       4.262  12.676  29.517  1.00  0.00     0.022 C 
ATOM      9  C   UNL     1       2.730  12.405  29.507  1.00  0.00    -0.019 C 
ATOM     10  C   UNL     1       1.784  13.554  29.055  1.00  0.00     0.012 C 
ATOM     11  C   UNL     1       2.218  11.861  30.864  1.00  0.00     0.012 C 
ENDROOT
TORSDOF 0
ENDMDL
MODEL 6
REMARK VINA RESULT:    -5.643      1.590      2.709
REMARK INTER + INTRA:          -5.643
REMARK INTER:                  -5.643
REMARK INTRA:                   0.000
REMARK UNBOUND:                 0.000
REMARK SMILES CC1=CC(=O)[C@H]2C[C@@H]1C2(C)C
REMARK SMILES IDX 1 1 2 2 3 3 4 4 5 5 6 6 7 7 8 8 9 9 10 10 11 11
REMARK H PARENT
REMARK Flexibility Score: inf
ROOT
ATOM      1  C   UNL     1       5.240  14.366  28.004  1.00  0.00     0.040 C 
ATOM      2  C   UNL     1       4.126  13.543  28.572  1.00  0.00    -0.066 C 
ATOM      3  C   UNL     1       2.826  13.929  28.451  1.00  0.00     0.047 C 
ATOM      4  C   UNL     1       1.806  13.036  29.090  1.00  0.00     0.159 C 
ATOM      5  O   UNL     1       0.577  13.304  29.080  1.00  0.00    -0.295 OA
ATOM      6  C   UNL     1       2.365  11.777  29.755  1.00  0.00     0.067 C 
ATOM      7  C   UNL     1       3.366  11.217  28.722  1.00  0.00     0.021 C 
ATOM      8  C   UNL     1       4.393  12.212  29.307  1.00  0.00     0.022 C 
ATOM      9  C   UNL     1       3.583  12.181  30.634  1.00  0.00    -0.019 C 
ATOM     10  C   UNL     1       3.490  13.490  31.470  1.00  0.00     0.012 C 
ATOM     11  C   UNL     1       4.035  11.036  31.576  1.00  0.00     0.012 C 
ENDROOT
TORSDOF 0
ENDMDL
MODEL 7
REMARK VINA RESULT:    -5.629      1.883      3.300
REMARK INTER + INTRA:          -5.629
REMARK INTER:                  -5.629
REMARK INTRA:                   0.000
REMARK UNBOUND:                 0.000
REMARK SMILES CC1=CC(=O)[C@H]2C[C@@H]1C2(C)C
REMARK SMILES IDX 1 1 2 2 3 3 4 4 5 5 6 6 7 7 8 8 9 9 10 10 11 11
REMARK H PARENT
REMARK Flexibility Score: inf
ROOT
ATOM      1  C   UNL     1       0.520  13.646  29.157  1.00  0.00     0.040 C 
ATOM      2  C   UNL     1       1.987  13.544  28.875  1.00  0.00    -0.066 C 
ATOM      3  C   UNL     1       2.579  14.306  27.915  1.00  0.00     0.047 C 
ATOM      4  C   UNL     1       4.047  14.088  27.708  1.00  0.00     0.159 C 
ATOM      5  O   UNL     1       4.700  14.703  26.824  1.00  0.00    -0.295 OA
ATOM      6  C   UNL     1       4.696  13.067  28.644  1.00  0.00     0.067 C 
ATOM      7  C   UNL     1       4.142  13.429  30.039  1.00  0.00     0.021 C 
ATOM      8  C   UNL     1       2.900  12.586  29.669  1.00  0.00     0.022 C 
ATOM      9  C   UNL     1       3.804  11.794  28.680  1.00  0.00    -0.019 C 
ATOM     10  C   UNL     1       3.174  11.294  27.349  1.00  0.00     0.012 C 
ATOM     11  C   UNL     1       4.514  10.596  29.361  1.00  0.00     0.012 C 
ENDROOT
TORSDOF 0
ENDMDL
MODEL 8
REMARK VINA RESULT:    -5.600      1.691      3.691
REMARK INTER + INTRA:          -5.600
REMARK INTER:                  -5.600
REMARK INTRA:                   0.000
REMARK UNBOUND:                 0.000
REMARK SMILES CC1=CC(=O)[C@H]2C[C@@H]1C2(C)C
REMARK SMILES IDX 1 1 2 2 3 3 4 4 5 5 6 6 7 7 8 8 9 9 10 10 11 11
REMARK H PARENT
REMARK Flexibility Score: inf
ROOT
ATOM      1  C   UNL     1       4.863  10.092  29.482  1.00  0.00     0.040 C 
ATOM      2  C   UNL     1       3.928  11.214  29.805  1.00  0.00    -0.066 C 
ATOM      3  C   UNL     1       2.965  11.610  28.928  1.00  0.00     0.047 C 
ATOM      4  C   UNL     1       2.113  12.766  29.356  1.00  0.00     0.159 C 
ATOM      5  O   UNL     1       1.215  13.250  28.618  1.00  0.00    -0.295 OA
ATOM      6  C   UNL     1       2.411  13.317  30.751  1.00  0.00     0.067 C 
ATOM      7  C   UNL     1       2.533  12.057  31.636  1.00  0.00     0.021 C 
ATOM      8  C   UNL     1       3.997  11.965  31.152  1.00  0.00     0.022 C 
ATOM      9  C   UNL     1       3.949  13.499  30.894  1.00  0.00    -0.019 C 
ATOM     10  C   UNL     1       4.741  14.065  29.681  1.00  0.00     0.012 C 
ATOM     11  C   UNL     1       4.332  14.321  32.150  1.00  0.00     0.012 C 
ENDROOT
TORSDOF 0
ENDMDL
MODEL 9
REMARK VINA RESULT:    -5.547      1.529      3.120
REMARK INTER + INTRA:          -5.547
REMARK INTER:                  -5.547
REMARK INTRA:                   0.000
REMARK UNBOUND:                 0.000
REMARK SMILES CC1=CC(=O)[C@H]2C[C@@H]1C2(C)C
REMARK SMILES IDX 1 1 2 2 3 3 4 4 5 5 6 6 7 7 8 8 9 9 10 10 11 11
REMARK H PARENT
REMARK Flexibility Score: inf
ROOT
ATOM      1  C   UNL     1       1.615  11.857  31.702  1.00  0.00     0.040 C 
ATOM      2  C   UNL     1       2.684  12.304  30.755  1.00  0.00    -0.066 C 
ATOM      3  C   UNL     1       3.478  13.374  31.036  1.00  0.00     0.047 C 
ATOM      4  C   UNL     1       4.490  13.741  29.993  1.00  0.00     0.159 C 
ATOM      5  O   UNL     1       5.255  14.733  30.118  1.00  0.00    -0.295 OA
ATOM      6  C   UNL     1       4.528  12.827  28.768  1.00  0.00     0.067 C 
ATOM      7  C   UNL     1       4.487  11.401  29.360  1.00  0.00     0.021 C 
ATOM      8  C   UNL     1       2.952  11.566  29.426  1.00  0.00     0.022 C 
ATOM      9  C   UNL     1       3.071  12.603  28.272  1.00  0.00    -0.019 C 
ATOM     10  C   UNL     1       2.097  13.816  28.271  1.00  0.00     0.012 C 
ATOM     11  C   UNL     1       3.019  11.938  26.874  1.00  0.00     0.012 C 
ENDROOT
TORSDOF 0
ENDMDL
