MODEL 1
REMARK VINA RESULT:    -4.057      0.000      0.000
REMARK INTER + INTRA:          -4.699
REMARK INTER:                  -4.650
REMARK INTRA:                  -0.049
REMARK UNBOUND:                -0.049
REMARK SMILES CC(C)[C@@H]([NH3+])C(=O)[O-]
REMARK SMILES IDX 4 1 5 2 6 6 7 7 8 8 2 9 1 10 3 11
REMARK H PARENT 5 3 5 4 5 5
REMARK Flexibility Score: inf
ROOT
ATOM      1  C   UNL     1      20.636  -8.616 -20.357  1.00  0.00     0.230 C 
ENDROOT
BRANCH   1   2
ATOM      2  N   UNL     1      20.126  -8.692 -18.979  1.00  0.00    -0.350 N 
ATOM      3  H   UNL     1      20.196  -9.663 -18.598  1.00  0.00     0.345 HD
ATOM      4  H   UNL     1      19.133  -8.374 -18.940  1.00  0.00     0.345 HD
ATOM      5  H   UNL     1      20.687  -8.056 -18.366  1.00  0.00     0.345 HD
ENDBRANCH   1   2
BRANCH   1   6
ATOM      6  C   UNL     1      20.666  -7.185 -20.837  1.00  0.00     0.099 C 
ATOM      7  O   UNL     1      20.265  -6.905 -21.998  1.00  0.00    -0.544 OA
ATOM      8  O   UNL     1      21.177  -6.176 -20.030  1.00  0.00    -0.544 OA
ENDBRANCH   1   6
BRANCH   1   9
ATOM      9  C   UNL     1      22.031  -9.289 -20.529  1.00  0.00     0.047 C 
ATOM     10  C   UNL     1      22.437 -10.178 -19.342  1.00  0.00     0.014 C 
ATOM     11  C   UNL     1      22.126 -10.081 -21.842  1.00  0.00     0.014 C 
ENDBRANCH   1   9
TORSDOF 3
ENDMDL
MODEL 2
REMARK VINA RESULT:    -3.892      1.673      2.027
REMARK INTER + INTRA:          -4.511
REMARK INTER:                  -4.463
REMARK INTRA:                  -0.048
REMARK UNBOUND:                -0.049
REMARK SMILES CC(C)[C@@H]([NH3+])C(=O)[O-]
REMARK SMILES IDX 4 1 5 2 6 6 7 7 8 8 2 9 1 10 3 11
REMARK H PARENT 5 3 5 4 5 5
REMARK Flexibility Score: inf
ROOT
ATOM      1  C   UNL     1      21.670  -8.239 -19.754  1.00  0.00     0.230 C 
ENDROOT
BRANCH   1   2
ATOM      2  N   UNL     1      23.125  -8.308 -19.965  1.00  0.00    -0.350 N 
ATOM      3  H   UNL     1      23.390  -9.151 -20.523  1.00  0.00     0.345 HD
ATOM      4  H   UNL     1      23.625  -8.325 -19.049  1.00  0.00     0.345 HD
ATOM      5  H   UNL     1      23.441  -7.455 -20.482  1.00  0.00     0.345 HD
ENDBRANCH   1   2
BRANCH   1   6
ATOM      6  C   UNL     1      21.012  -7.415 -20.834  1.00  0.00     0.099 C 
ATOM      7  O   UNL     1      20.958  -7.855 -22.013  1.00  0.00    -0.544 OA
ATOM      8  O   UNL     1      20.506  -6.151 -20.554  1.00  0.00    -0.544 OA
ENDBRANCH   1   6
BRANCH   1   9
ATOM      9  C   UNL     1      21.003  -9.643 -19.642  1.00  0.00     0.047 C 
ATOM     10  C   UNL     1      21.969 -10.808 -19.912  1.00  0.00     0.014 C 
ATOM     11  C   UNL     1      20.303  -9.838 -18.288  1.00  0.00     0.014 C 
ENDBRANCH   1   9
TORSDOF 3
ENDMDL
MODEL 3
REMARK VINA RESULT:    -3.858      2.516      3.210
REMARK INTER + INTRA:          -4.471
REMARK INTER:                  -4.492
REMARK INTRA:                   0.021
REMARK UNBOUND:                -0.049
REMARK SMILES CC(C)[C@@H]([NH3+])C(=O)[O-]
REMARK SMILES IDX 4 1 5 2 6 6 7 7 8 8 2 9 1 10 3 11
REMARK H PARENT 5 3 5 4 5 5
REMARK Flexibility Score: inf
ROOT
ATOM      1  C   UNL     1      22.455  -8.916 -20.005  1.00  0.00     0.230 C 
ENDROOT
BRANCH   1   2
ATOM      2  N   UNL     1      22.686  -7.609 -19.371  1.00  0.00    -0.350 N 
ATOM      3  H   UNL     1      21.796  -7.194 -19.015  1.00  0.00     0.345 HD
ATOM      4  H   UNL     1      23.131  -6.950 -20.048  1.00  0.00     0.345 HD
ATOM      5  H   UNL     1      23.343  -7.726 -18.565  1.00  0.00     0.345 HD
ENDBRANCH   1   2
BRANCH   1   6
ATOM      6  C   UNL     1      21.603  -9.795 -19.121  1.00  0.00     0.099 C 
ATOM      7  O   UNL     1      20.514  -9.358 -18.664  1.00  0.00    -0.544 OA
ATOM      8  O   UNL     1      22.030 -11.069 -18.764  1.00  0.00    -0.544 OA
ENDBRANCH   1   6
BRANCH   1   9
ATOM      9  C   UNL     1      21.840  -8.802 -21.432  1.00  0.00     0.047 C 
ATOM     10  C   UNL     1      21.283 -10.131 -21.971  1.00  0.00     0.014 C 
ATOM     11  C   UNL     1      20.763  -7.709 -21.506  1.00  0.00     0.014 C 
ENDBRANCH   1   9
TORSDOF 3
ENDMDL
MODEL 4
REMARK VINA RESULT:    -3.792      8.789      9.535
REMARK INTER + INTRA:          -4.395
REMARK INTER:                  -4.348
REMARK INTRA:                  -0.048
REMARK UNBOUND:                -0.049
REMARK SMILES CC(C)[C@@H]([NH3+])C(=O)[O-]
REMARK SMILES IDX 4 1 5 2 6 6 7 7 8 8 2 9 1 10 3 11
REMARK H PARENT 5 3 5 4 5 5
REMARK Flexibility Score: inf
ROOT
ATOM      1  C   UNL     1      12.435  -8.900 -17.575  1.00  0.00     0.230 C 
ENDROOT
BRANCH   1   2
ATOM      2  N   UNL     1      12.988  -8.013 -18.610  1.00  0.00    -0.350 N 
ATOM      3  H   UNL     1      13.381  -7.139 -18.194  1.00  0.00     0.345 HD
ATOM      4  H   UNL     1      12.253  -7.766 -19.308  1.00  0.00     0.345 HD
ATOM      5  H   UNL     1      13.755  -8.511 -19.120  1.00  0.00     0.345 HD
ENDBRANCH   1   2
BRANCH   1   6
ATOM      6  C   UNL     1      11.912 -10.177 -18.189  1.00  0.00     0.099 C 
ATOM      7  O   UNL     1      10.671 -10.358 -18.298  1.00  0.00    -0.544 OA
ATOM      8  O   UNL     1      12.786 -11.180 -18.593  1.00  0.00    -0.544 OA
ENDBRANCH   1   6
BRANCH   1   9
ATOM      9  C   UNL     1      13.447  -9.209 -16.431  1.00  0.00     0.047 C 
ATOM     10  C   UNL     1      14.796  -8.488 -16.590  1.00  0.00     0.014 C 
ATOM     11  C   UNL     1      12.852  -8.918 -15.045  1.00  0.00     0.014 C 
ENDBRANCH   1   9
TORSDOF 3
ENDMDL
MODEL 5
REMARK VINA RESULT:    -3.770      8.720      9.346
REMARK INTER + INTRA:          -4.370
REMARK INTER:                  -4.308
REMARK INTRA:                  -0.062
REMARK UNBOUND:                -0.049
REMARK SMILES CC(C)[C@@H]([NH3+])C(=O)[O-]
REMARK SMILES IDX 4 1 5 2 6 6 7 7 8 8 2 9 1 10 3 11
REMARK H PARENT 5 3 5 4 5 5
REMARK Flexibility Score: inf
ROOT
ATOM      1  C   UNL     1      12.838  -9.445 -17.924  1.00  0.00     0.230 C 
ENDROOT
BRANCH   1   2
ATOM      2  N   UNL     1      11.839  -8.366 -17.972  1.00  0.00    -0.350 N 
ATOM      3  H   UNL     1      10.944  -8.692 -18.403  1.00  0.00     0.345 HD
ATOM      4  H   UNL     1      12.208  -7.552 -18.511  1.00  0.00     0.345 HD
ATOM      5  H   UNL     1      11.637  -8.037 -17.000  1.00  0.00     0.345 HD
ENDBRANCH   1   2
BRANCH   1   6
ATOM      6  C   UNL     1      13.725  -9.298 -16.712  1.00  0.00     0.099 C 
ATOM      7  O   UNL     1      13.489  -9.974 -15.676  1.00  0.00    -0.544 OA
ATOM      8  O   UNL     1      14.775  -8.387 -16.706  1.00  0.00    -0.544 OA
ENDBRANCH   1   6
BRANCH   1   9
ATOM      9  C   UNL     1      12.203 -10.867 -17.978  1.00  0.00     0.047 C 
ATOM     10  C   UNL     1      10.713 -10.863 -18.362  1.00  0.00     0.014 C 
ATOM     11  C   UNL     1      12.985 -11.809 -18.905  1.00  0.00     0.014 C 
ENDBRANCH   1   9
TORSDOF 3
ENDMDL
MODEL 6
REMARK VINA RESULT:    -3.765      1.736      2.347
REMARK INTER + INTRA:          -4.365
REMARK INTER:                  -4.345
REMARK INTRA:                  -0.020
REMARK UNBOUND:                -0.049
REMARK SMILES CC(C)[C@@H]([NH3+])C(=O)[O-]
REMARK SMILES IDX 4 1 5 2 6 6 7 7 8 8 2 9 1 10 3 11
REMARK H PARENT 5 3 5 4 5 5
REMARK Flexibility Score: inf
ROOT
ATOM      1  C   UNL     1      21.591  -8.524 -20.995  1.00  0.00     0.230 C 
ENDROOT
BRANCH   1   2
ATOM      2  N   UNL     1      22.108  -8.908 -22.318  1.00  0.00    -0.350 N 
ATOM      3  H   UNL     1      22.629  -8.121 -22.767  1.00  0.00     0.345 HD
ATOM      4  H   UNL     1      21.327  -9.209 -22.941  1.00  0.00     0.345 HD
ATOM      5  H   UNL     1      22.760  -9.720 -22.214  1.00  0.00     0.345 HD
ENDBRANCH   1   2
BRANCH   1   6
ATOM      6  C   UNL     1      20.709  -7.303 -21.100  1.00  0.00     0.099 C 
ATOM      7  O   UNL     1      20.858  -6.351 -20.289  1.00  0.00    -0.544 OA
ATOM      8  O   UNL     1      19.699  -7.236 -22.052  1.00  0.00    -0.544 OA
ENDBRANCH   1   6
BRANCH   1   9
ATOM      9  C   UNL     1      20.846  -9.686 -20.271  1.00  0.00     0.047 C 
ATOM     10  C   UNL     1      21.521 -11.056 -20.449  1.00  0.00     0.014 C 
ATOM     11  C   UNL     1      20.636  -9.389 -18.779  1.00  0.00     0.014 C 
ENDBRANCH   1   9
TORSDOF 3
ENDMDL
MODEL 7
REMARK VINA RESULT:    -3.729      8.804      9.439
REMARK INTER + INTRA:          -4.323
REMARK INTER:                  -4.280
REMARK INTRA:                  -0.043
REMARK UNBOUND:                -0.049
REMARK SMILES CC(C)[C@@H]([NH3+])C(=O)[O-]
REMARK SMILES IDX 4 1 5 2 6 6 7 7 8 8 2 9 1 10 3 11
REMARK H PARENT 5 3 5 4 5 5
REMARK Flexibility Score: inf
ROOT
ATOM      1  C   UNL     1      13.152 -10.739 -17.356  1.00  0.00     0.230 C 
ENDROOT
BRANCH   1   2
ATOM      2  N   UNL     1      14.578 -11.029 -17.570  1.00  0.00    -0.350 N 
ATOM      3  H   UNL     1      15.173 -10.195 -17.363  1.00  0.00     0.345 HD
ATOM      4  H   UNL     1      14.743 -11.338 -18.553  1.00  0.00     0.345 HD
ATOM      5  H   UNL     1      14.872 -11.810 -16.939  1.00  0.00     0.345 HD
ENDBRANCH   1   2
BRANCH   1   6
ATOM      6  C   UNL     1      12.933  -9.261 -17.140  1.00  0.00     0.099 C 
ATOM      7  O   UNL     1      12.488  -8.847 -16.037  1.00  0.00    -0.544 OA
ATOM      8  O   UNL     1      13.172  -8.351 -18.163  1.00  0.00    -0.544 OA
ENDBRANCH   1   6
BRANCH   1   9
ATOM      9  C   UNL     1      12.242 -11.273 -18.503  1.00  0.00     0.047 C 
ATOM     10  C   UNL     1      12.322 -12.796 -18.695  1.00  0.00     0.014 C 
ATOM     11  C   UNL     1      10.779 -10.839 -18.323  1.00  0.00     0.014 C 
ENDBRANCH   1   9
TORSDOF 3
ENDMDL
MODEL 8
REMARK VINA RESULT:    -3.728      2.947      3.498
REMARK INTER + INTRA:          -4.322
REMARK INTER:                  -4.255
REMARK INTRA:                  -0.067
REMARK UNBOUND:                -0.049
REMARK SMILES CC(C)[C@@H]([NH3+])C(=O)[O-]
REMARK SMILES IDX 4 1 5 2 6 6 7 7 8 8 2 9 1 10 3 11
REMARK H PARENT 5 3 5 4 5 5
REMARK Flexibility Score: inf
ROOT
ATOM      1  C   UNL     1      21.126  -9.247 -21.235  1.00  0.00     0.230 C 
ENDROOT
BRANCH   1   2
ATOM      2  N   UNL     1      22.120  -9.206 -22.319  1.00  0.00    -0.350 N 
ATOM      3  H   UNL     1      22.057 -10.054 -22.927  1.00  0.00     0.345 HD
ATOM      4  H   UNL     1      23.084  -9.130 -21.927  1.00  0.00     0.345 HD
ATOM      5  H   UNL     1      21.951  -8.361 -22.913  1.00  0.00     0.345 HD
ENDBRANCH   1   2
BRANCH   1   6
ATOM      6  C   UNL     1      21.284 -10.503 -20.413  1.00  0.00     0.099 C 
ATOM      7  O   UNL     1      22.046 -11.423 -20.812  1.00  0.00    -0.544 OA
ATOM      8  O   UNL     1      20.559 -10.680 -19.240  1.00  0.00    -0.544 OA
ENDBRANCH   1   6
BRANCH   1   9
ATOM      9  C   UNL     1      21.163  -7.981 -20.326  1.00  0.00     0.047 C 
ATOM     10  C   UNL     1      22.561  -7.658 -19.775  1.00  0.00     0.014 C 
ATOM     11  C   UNL     1      20.576  -6.751 -21.035  1.00  0.00     0.014 C 
ENDBRANCH   1   9
TORSDOF 3
ENDMDL
MODEL 9
REMARK VINA RESULT:    -3.674      9.310     10.036
REMARK INTER + INTRA:          -4.260
REMARK INTER:                  -4.191
REMARK INTRA:                  -0.068
REMARK UNBOUND:                -0.049
REMARK SMILES CC(C)[C@@H]([NH3+])C(=O)[O-]
REMARK SMILES IDX 4 1 5 2 6 6 7 7 8 8 2 9 1 10 3 11
REMARK H PARENT 5 3 5 4 5 5
REMARK Flexibility Score: inf
ROOT
ATOM      1  C   UNL     1      12.420  -9.446 -16.004  1.00  0.00     0.230 C 
ENDROOT
BRANCH   1   2
ATOM      2  N   UNL     1      11.437  -9.010 -17.008  1.00  0.00    -0.350 N 
ATOM      3  H   UNL     1      11.448  -7.972 -17.128  1.00  0.00     0.345 HD
ATOM      4  H   UNL     1      10.478  -9.319 -16.737  1.00  0.00     0.345 HD
ATOM      5  H   UNL     1      11.664  -9.451 -17.930  1.00  0.00     0.345 HD
ENDBRANCH   1   2
BRANCH   1   6
ATOM      6  C   UNL     1      13.809  -9.479 -16.595  1.00  0.00     0.099 C 
ATOM      7  O   UNL     1      14.291  -8.442 -17.123  1.00  0.00    -0.544 OA
ATOM      8  O   UNL     1      14.548 -10.657 -16.608  1.00  0.00    -0.544 OA
ENDBRANCH   1   6
BRANCH   1   9
ATOM      9  C   UNL     1      12.390  -8.584 -14.706  1.00  0.00     0.047 C 
ATOM     10  C   UNL     1      11.011  -8.542 -14.027  1.00  0.00     0.014 C 
ATOM     11  C   UNL     1      13.462  -9.027 -13.699  1.00  0.00     0.014 C 
ENDBRANCH   1   9
TORSDOF 3
ENDMDL
